MODEL 1
REMARK VINA RESULT:      -8.6      0.000      0.000
REMARK  8 active torsions:
REMARK  status: ('A' for Active; 'I' for Inactive)
REMARK    1  A    between atoms: O1_1  and  C2_2 
REMARK    2  A    between atoms: C2_2  and  C3_3 
REMARK    3  A    between atoms: C3_3  and  N4_4 
REMARK    4  A    between atoms: N7_7  and  C9_9 
REMARK    5  A    between atoms: C9_9  and  C10_10 
REMARK    6  A    between atoms: C10_10  and  C11_11 
REMARK    7  A    between atoms: C11_11  and  N12_12 
REMARK    8  A    between atoms: C23_23  and  C24_24 
ROOT
ATOM      1  N12 ZIN A   1      18.460  -1.705   8.446  0.00  0.00    -0.345 N 
ATOM      2  C13 ZIN A   1      18.564  -1.194   7.154  0.00  0.00     0.052 A 
ATOM      3  C14 ZIN A   1      18.082   0.085   6.900  0.00  0.00     0.031 A 
ATOM      4  C15 ZIN A   1      18.173   0.626   5.631  0.00  0.00     0.002 A 
ATOM      5  C16 ZIN A   1      18.743  -0.102   4.605  0.00  0.00     0.002 A 
ATOM      6  C17 ZIN A   1      19.222  -1.376   4.846  0.00  0.00     0.021 A 
ATOM      7  C18 ZIN A   1      19.135  -1.928   6.118  0.00  0.00     0.032 A 
ATOM      8  S19 ZIN A   1      19.747  -3.554   6.396  0.00  0.00    -0.086 SA
ATOM      9  C20 ZIN A   1      18.990  -4.021   7.915  0.00  0.00     0.032 A 
ATOM     10  C21 ZIN A   1      18.948  -5.362   8.270  0.00  0.00     0.022 A 
ATOM     11  C22 ZIN A   1      18.357  -5.751   9.459  0.00  0.00     0.017 A 
ATOM     12  C23 ZIN A   1      17.803  -4.801  10.296  0.00  0.00     0.050 A 
ATOM     13  C28 ZIN A   1      17.841  -3.464   9.950  0.00  0.00     0.047 A 
ATOM     14  C29 ZIN A   1      18.439  -3.062   8.758  0.00  0.00     0.053 A 
ENDROOT
BRANCH   1  15
ATOM     15  C11 ZIN A   1      18.375  -0.749   9.553  0.00  0.00     0.131 C 
BRANCH  15  16
ATOM     16  C10 ZIN A   1      19.783  -0.303   9.950  0.00  0.00     0.048 C 
BRANCH  16  17
ATOM     17  C9  ZIN A   1      20.223  -1.061  11.204  0.00  0.00     0.236 C 
BRANCH  17  18
ATOM     18  N7  ZIN A   1      19.460  -0.576  12.363  0.00  0.00    -0.068 N 
ATOM     19  C6  ZIN A   1      20.176   0.545  12.984  0.00  0.00     0.265 C 
ATOM     20  C5  ZIN A   1      19.373   1.063  14.179  0.00  0.00     0.300 C 
ATOM     21  N4  ZIN A   1      19.192  -0.023  15.152  0.00  0.00     0.093 N 
ATOM     22  C31 ZIN A   1      18.499  -1.165  14.537  0.00  0.00     0.300 C 
ATOM     23  C30 ZIN A   1      19.310  -1.663  13.339  0.00  0.00     0.265 C 
ATOM     24  H8  ZIN A   1      18.549  -0.268  12.059  0.00  0.00     0.280 HD
BRANCH  21  25
ATOM     25  C3  ZIN A   1      18.472   0.449  16.342  0.00  0.00     0.298 C 
BRANCH  25  26
ATOM     26  C2  ZIN A   1      19.313   1.505  17.061  0.00  0.00     0.194 C 
BRANCH  26  27
ATOM     27  O1  ZIN A   1      19.754   0.988  18.318  0.00  0.00    -0.399 OA
ATOM     28  H32 ZIN A   1      19.718   0.025  18.382  0.00  0.00     0.209 HD
ENDBRANCH  26  27
ENDBRANCH  25  26
ENDBRANCH  21  25
ENDBRANCH  17  18
ENDBRANCH  16  17
ENDBRANCH  15  16
ENDBRANCH   1  15
BRANCH  12  29
ATOM     29  C24 ZIN A   1      17.158  -5.224  11.590  0.00  0.00     0.417 C 
ATOM     30  F25 ZIN A   1      17.747  -4.532  12.653  0.00  0.00    -0.166 F 
ATOM     31  F26 ZIN A   1      15.790  -4.935  11.546  0.00  0.00    -0.166 F 
ATOM     32  F27 ZIN A   1      17.339  -6.600  11.773  0.00  0.00    -0.166 F 
ENDBRANCH  12  29
TORSDOF 8
ENDMDL
MODEL 2
REMARK VINA RESULT:      -8.6      5.044      9.368
REMARK  8 active torsions:
REMARK  status: ('A' for Active; 'I' for Inactive)
REMARK    1  A    between atoms: O1_1  and  C2_2 
REMARK    2  A    between atoms: C2_2  and  C3_3 
REMARK    3  A    between atoms: C3_3  and  N4_4 
REMARK    4  A    between atoms: N7_7  and  C9_9 
REMARK    5  A    between atoms: C9_9  and  C10_10 
REMARK    6  A    between atoms: C10_10  and  C11_11 
REMARK    7  A    between atoms: C11_11  and  N12_12 
REMARK    8  A    between atoms: C23_23  and  C24_24 
ROOT
ATOM      1  N12 ZIN A   1      18.520   1.412  14.428  0.00  0.00    -0.345 N 
ATOM      2  C13 ZIN A   1      18.641   0.933  15.730  0.00  0.00     0.052 A 
ATOM      3  C14 ZIN A   1      18.285  -0.385  15.994  0.00  0.00     0.031 A 
ATOM      4  C15 ZIN A   1      18.397  -0.895  17.274  0.00  0.00     0.002 A 
ATOM      5  C16 ZIN A   1      18.862  -0.097  18.302  0.00  0.00     0.002 A 
ATOM      6  C17 ZIN A   1      19.216   1.215  18.050  0.00  0.00     0.021 A 
ATOM      7  C18 ZIN A   1      19.107   1.736  16.767  0.00  0.00     0.032 A 
ATOM      8  S19 ZIN A   1      19.558   3.412  16.475  0.00  0.00    -0.086 SA
ATOM      9  C20 ZIN A   1      18.797   3.777  14.931  0.00  0.00     0.032 A 
ATOM     10  C21 ZIN A   1      18.630   5.102  14.551  0.00  0.00     0.022 A 
ATOM     11  C22 ZIN A   1      18.033   5.410  13.343  0.00  0.00     0.017 A 
ATOM     12  C23 ZIN A   1      17.600   4.397  12.508  0.00  0.00     0.050 A 
ATOM     13  C28 ZIN A   1      17.764   3.076  12.879  0.00  0.00     0.047 A 
ATOM     14  C29 ZIN A   1      18.369   2.755  14.092  0.00  0.00     0.053 A 
ENDROOT
BRANCH   1  15
ATOM     15  C11 ZIN A   1      18.560   0.436  13.336  0.00  0.00     0.131 C 
BRANCH  15  16
ATOM     16  C10 ZIN A   1      20.015   0.080  13.025  0.00  0.00     0.048 C 
BRANCH  16  17
ATOM     17  C9  ZIN A   1      20.508   0.928  11.850  0.00  0.00     0.236 C 
BRANCH  17  18
ATOM     18  N7  ZIN A   1      19.704   0.626  10.657  0.00  0.00    -0.068 N 
ATOM     19  C6  ZIN A   1      20.348  -0.449   9.893  0.00  0.00     0.265 C 
ATOM     20  C5  ZIN A   1      19.502  -0.777   8.661  0.00  0.00     0.300 C 
ATOM     21  N4  ZIN A   1      19.368   0.426   7.828  0.00  0.00     0.093 N 
ATOM     22  C31 ZIN A   1      18.748   1.521   8.588  0.00  0.00     0.300 C 
ATOM     23  C30 ZIN A   1      19.601   1.829   9.820  0.00  0.00     0.265 C 
ATOM     24  H8  ZIN A   1      18.781   0.332  10.940  0.00  0.00     0.280 HD
BRANCH  21  25
ATOM     25  C3  ZIN A   1      18.608   0.138   6.604  0.00  0.00     0.298 C 
BRANCH  25  26
ATOM     26  C2  ZIN A   1      19.286  -1.000   5.839  0.00  0.00     0.194 C 
BRANCH  26  27
ATOM     27  O1  ZIN A   1      20.000  -0.464   4.723  0.00  0.00    -0.399 OA
ATOM     28  H32 ZIN A   1      20.175   0.485   4.787  0.00  0.00     0.209 HD
ENDBRANCH  26  27
ENDBRANCH  25  26
ENDBRANCH  21  25
ENDBRANCH  17  18
ENDBRANCH  16  17
ENDBRANCH  15  16
ENDBRANCH   1  15
BRANCH  12  29
ATOM     29  C24 ZIN A   1      16.950   4.733  11.192  0.00  0.00     0.417 C 
ATOM     30  F25 ZIN A   1      17.640   5.789  10.586  0.00  0.00    -0.166 F 
ATOM     31  F26 ZIN A   1      16.983   3.612  10.355  0.00  0.00    -0.166 F 
ATOM     32  F27 ZIN A   1      15.621   5.111  11.412  0.00  0.00    -0.166 F 
ENDBRANCH  12  29
TORSDOF 8
ENDMDL
MODEL 3
REMARK VINA RESULT:      -8.3      2.965      4.839
REMARK  8 active torsions:
REMARK  status: ('A' for Active; 'I' for Inactive)
REMARK    1  A    between atoms: O1_1  and  C2_2 
REMARK    2  A    between atoms: C2_2  and  C3_3 
REMARK    3  A    between atoms: C3_3  and  N4_4 
REMARK    4  A    between atoms: N7_7  and  C9_9 
REMARK    5  A    between atoms: C9_9  and  C10_10 
REMARK    6  A    between atoms: C10_10  and  C11_11 
REMARK    7  A    between atoms: C11_11  and  N12_12 
REMARK    8  A    between atoms: C23_23  and  C24_24 
ROOT
ATOM      1  N12 ZIN A   1      18.596  -2.007   9.251  0.00  0.00    -0.345 N 
ATOM      2  C13 ZIN A   1      19.089  -3.154   8.635  0.00  0.00     0.052 A 
ATOM      3  C14 ZIN A   1      19.412  -4.252   9.425  0.00  0.00     0.031 A 
ATOM      4  C15 ZIN A   1      19.900  -5.409   8.848  0.00  0.00     0.002 A 
ATOM      5  C16 ZIN A   1      20.071  -5.483   7.479  0.00  0.00     0.002 A 
ATOM      6  C17 ZIN A   1      19.756  -4.397   6.684  0.00  0.00     0.021 A 
ATOM      7  C18 ZIN A   1      19.265  -3.230   7.256  0.00  0.00     0.032 A 
ATOM      8  S19 ZIN A   1      18.878  -1.859   6.222  0.00  0.00    -0.086 SA
ATOM      9  C20 ZIN A   1      18.809  -0.507   7.346  0.00  0.00     0.032 A 
ATOM     10  C21 ZIN A   1      18.884   0.790   6.855  0.00  0.00     0.022 A 
ATOM     11  C22 ZIN A   1      18.834   1.867   7.721  0.00  0.00     0.017 A 
ATOM     12  C23 ZIN A   1      18.710   1.654   9.081  0.00  0.00     0.050 A 
ATOM     13  C28 ZIN A   1      18.634   0.366   9.577  0.00  0.00     0.047 A 
ATOM     14  C29 ZIN A   1      18.679  -0.725   8.712  0.00  0.00     0.053 A 
ENDROOT
BRANCH   1  15
ATOM     15  C11 ZIN A   1      17.938  -2.159  10.551  0.00  0.00     0.131 C 
BRANCH  15  16
ATOM     16  C10 ZIN A   1      18.957  -1.921  11.668  0.00  0.00     0.048 C 
BRANCH  16  17
ATOM     17  C9  ZIN A   1      18.256  -2.010  13.025  0.00  0.00     0.236 C 
BRANCH  17  18
ATOM     18  N7  ZIN A   1      18.834  -1.017  13.941  0.00  0.00    -0.068 N 
ATOM     19  C6  ZIN A   1      18.176  -1.118  15.250  0.00  0.00     0.265 C 
ATOM     20  C5  ZIN A   1      18.791  -0.098  16.210  0.00  0.00     0.300 C 
ATOM     21  N4  ZIN A   1      18.618   1.254  15.659  0.00  0.00     0.093 N 
ATOM     22  C31 ZIN A   1      19.251   1.363  14.337  0.00  0.00     0.300 C 
ATOM     23  C30 ZIN A   1      18.632   0.330  13.393  0.00  0.00     0.265 C 
ATOM     24  H8  ZIN A   1      19.822  -1.193  14.047  0.00  0.00     0.280 HD
BRANCH  21  25
ATOM     25  C3  ZIN A   1      19.147   2.269  16.580  0.00  0.00     0.298 C 
BRANCH  25  26
ATOM     26  C2  ZIN A   1      18.602   2.016  17.986  0.00  0.00     0.194 C 
BRANCH  26  27
ATOM     27  O1  ZIN A   1      19.678   2.036  18.926  0.00  0.00    -0.399 OA
ATOM     28  H32 ZIN A   1      19.432   2.369  19.799  0.00  0.00     0.209 HD
ENDBRANCH  26  27
ENDBRANCH  25  26
ENDBRANCH  21  25
ENDBRANCH  17  18
ENDBRANCH  16  17
ENDBRANCH  15  16
ENDBRANCH   1  15
BRANCH  12  29
ATOM     29  C24 ZIN A   1      18.656   2.827  10.024  0.00  0.00     0.417 C 
ATOM     30  F25 ZIN A   1      17.676   2.599  10.996  0.00  0.00    -0.166 F 
ATOM     31  F26 ZIN A   1      19.901   2.985  10.643  0.00  0.00    -0.166 F 
ATOM     32  F27 ZIN A   1      18.340   3.987   9.308  0.00  0.00    -0.166 F 
ENDBRANCH  12  29
TORSDOF 8
ENDMDL
MODEL 4
REMARK VINA RESULT:      -8.2      4.279      7.364
REMARK  8 active torsions:
REMARK  status: ('A' for Active; 'I' for Inactive)
REMARK    1  A    between atoms: O1_1  and  C2_2 
REMARK    2  A    between atoms: C2_2  and  C3_3 
REMARK    3  A    between atoms: C3_3  and  N4_4 
REMARK    4  A    between atoms: N7_7  and  C9_9 
REMARK    5  A    between atoms: C9_9  and  C10_10 
REMARK    6  A    between atoms: C10_10  and  C11_11 
REMARK    7  A    between atoms: C11_11  and  N12_12 
REMARK    8  A    between atoms: C23_23  and  C24_24 
ROOT
ATOM      1  N12 ZIN A   1      17.975  -0.110  12.013  0.00  0.00    -0.345 N 
ATOM      2  C13 ZIN A   1      18.393   0.558  10.865  0.00  0.00     0.052 A 
ATOM      3  C14 ZIN A   1      18.690  -0.186   9.729  0.00  0.00     0.031 A 
ATOM      4  C15 ZIN A   1      19.104   0.444   8.570  0.00  0.00     0.002 A 
ATOM      5  C16 ZIN A   1      19.227   1.819   8.533  0.00  0.00     0.002 A 
ATOM      6  C17 ZIN A   1      18.937   2.568   9.659  0.00  0.00     0.021 A 
ATOM      7  C18 ZIN A   1      18.521   1.943  10.827  0.00  0.00     0.032 A 
ATOM      8  S19 ZIN A   1      18.165   2.920  12.248  0.00  0.00    -0.086 SA
ATOM      9  C20 ZIN A   1      18.196   1.752  13.564  0.00  0.00     0.032 A 
ATOM     10  C21 ZIN A   1      18.316   2.205  14.871  0.00  0.00     0.022 A 
ATOM     11  C22 ZIN A   1      18.345   1.304  15.920  0.00  0.00     0.017 A 
ATOM     12  C23 ZIN A   1      18.255  -0.052  15.668  0.00  0.00     0.050 A 
ATOM     13  C28 ZIN A   1      18.135  -0.510  14.370  0.00  0.00     0.047 A 
ATOM     14  C29 ZIN A   1      18.100   0.390  13.307  0.00  0.00     0.053 A 
ENDROOT
BRANCH   1  15
ATOM     15  C11 ZIN A   1      17.354  -1.427  11.848  0.00  0.00     0.131 C 
BRANCH  15  16
ATOM     16  C10 ZIN A   1      18.439  -2.505  11.841  0.00  0.00     0.048 C 
BRANCH  16  17
ATOM     17  C9  ZIN A   1      17.785  -3.888  11.856  0.00  0.00     0.236 C 
BRANCH  17  18
ATOM     18  N7  ZIN A   1      18.140  -4.611  10.627  0.00  0.00    -0.068 N 
ATOM     19  C6  ZIN A   1      19.599  -4.606  10.461  0.00  0.00     0.265 C 
ATOM     20  C5  ZIN A   1      19.970  -5.375   9.191  0.00  0.00     0.300 C 
ATOM     21  N4  ZIN A   1      19.327  -4.740   8.032  0.00  0.00     0.093 N 
ATOM     22  C31 ZIN A   1      17.866  -4.713   8.195  0.00  0.00     0.300 C 
ATOM     23  C30 ZIN A   1      17.513  -3.950   9.474  0.00  0.00     0.265 C 
ATOM     24  H8  ZIN A   1      17.811  -5.562  10.690  0.00  0.00     0.280 HD
BRANCH  21  25
ATOM     25  C3  ZIN A   1      19.705  -5.416   6.784  0.00  0.00     0.298 C 
BRANCH  25  26
ATOM     26  C2  ZIN A   1      18.468  -5.585   5.901  0.00  0.00     0.194 C 
BRANCH  26  27
ATOM     27  O1  ZIN A   1      18.571  -6.805   5.164  0.00  0.00    -0.399 OA
ATOM     28  H32 ZIN A   1      18.135  -7.558   5.586  0.00  0.00     0.209 HD
ENDBRANCH  26  27
ENDBRANCH  25  26
ENDBRANCH  21  25
ENDBRANCH  17  18
ENDBRANCH  16  17
ENDBRANCH  15  16
ENDBRANCH   1  15
BRANCH  12  29
ATOM     29  C24 ZIN A   1      18.287  -1.033  16.811  0.00  0.00     0.417 C 
ATOM     30  F25 ZIN A   1      19.334  -1.940  16.618  0.00  0.00    -0.166 F 
ATOM     31  F26 ZIN A   1      18.482  -0.343  18.013  0.00  0.00    -0.166 F 
ATOM     32  F27 ZIN A   1      17.073  -1.727  16.864  0.00  0.00    -0.166 F 
ENDBRANCH  12  29
TORSDOF 8
ENDMDL
MODEL 5
REMARK VINA RESULT:      -8.2      4.877      9.171
REMARK  8 active torsions:
REMARK  status: ('A' for Active; 'I' for Inactive)
REMARK    1  A    between atoms: O1_1  and  C2_2 
REMARK    2  A    between atoms: C2_2  and  C3_3 
REMARK    3  A    between atoms: C3_3  and  N4_4 
REMARK    4  A    between atoms: N7_7  and  C9_9 
REMARK    5  A    between atoms: C9_9  and  C10_10 
REMARK    6  A    between atoms: C10_10  and  C11_11 
REMARK    7  A    between atoms: C11_11  and  N12_12 
REMARK    8  A    between atoms: C23_23  and  C24_24 
ROOT
ATOM      1  N12 ZIN A   1      18.162   1.266  14.303  0.00  0.00    -0.345 N 
ATOM      2  C13 ZIN A   1      18.197   0.888  15.642  0.00  0.00     0.052 A 
ATOM      3  C14 ZIN A   1      17.596  -0.309  16.016  0.00  0.00     0.031 A 
ATOM      4  C15 ZIN A   1      17.616  -0.718  17.336  0.00  0.00     0.002 A 
ATOM      5  C16 ZIN A   1      18.232   0.062  18.296  0.00  0.00     0.002 A 
ATOM      6  C17 ZIN A   1      18.830   1.255  17.936  0.00  0.00     0.021 A 
ATOM      7  C18 ZIN A   1      18.815   1.674  16.612  0.00  0.00     0.032 A 
ATOM      8  S19 ZIN A   1      19.578   3.201  16.181  0.00  0.00    -0.086 SA
ATOM      9  C20 ZIN A   1      18.891   3.568  14.602  0.00  0.00     0.032 A 
ATOM     10  C21 ZIN A   1      18.979   4.863  14.108  0.00  0.00     0.022 A 
ATOM     11  C22 ZIN A   1      18.445   5.174  12.871  0.00  0.00     0.017 A 
ATOM     12  C23 ZIN A   1      17.821   4.194  12.123  0.00  0.00     0.050 A 
ATOM     13  C28 ZIN A   1      17.730   2.903  12.608  0.00  0.00     0.047 A 
ATOM     14  C29 ZIN A   1      18.270   2.579  13.850  0.00  0.00     0.053 A 
ENDROOT
BRANCH   1  15
ATOM     15  C11 ZIN A   1      18.008   0.210  13.299  0.00  0.00     0.131 C 
BRANCH  15  16
ATOM     16  C10 ZIN A   1      19.384  -0.348  12.932  0.00  0.00     0.048 C 
BRANCH  16  17
ATOM     17  C9  ZIN A   1      19.346  -1.877  12.985  0.00  0.00     0.236 C 
BRANCH  17  18
ATOM     18  N7  ZIN A   1      18.850  -2.399  11.704  0.00  0.00    -0.068 N 
ATOM     19  C6  ZIN A   1      19.161  -3.831  11.607  0.00  0.00     0.265 C 
ATOM     20  C5  ZIN A   1      18.628  -4.380  10.282  0.00  0.00     0.300 C 
ATOM     21  N4  ZIN A   1      19.250  -3.650   9.167  0.00  0.00     0.093 N 
ATOM     22  C31 ZIN A   1      18.970  -2.210   9.265  0.00  0.00     0.300 C 
ATOM     23  C30 ZIN A   1      19.499  -1.681  10.599  0.00  0.00     0.265 C 
ATOM     24  H8  ZIN A   1      17.852  -2.267  11.651  0.00  0.00     0.280 HD
BRANCH  21  25
ATOM     25  C3  ZIN A   1      18.806  -4.186   7.874  0.00  0.00     0.298 C 
BRANCH  25  26
ATOM     26  C2  ZIN A   1      19.622  -3.546   6.749  0.00  0.00     0.194 C 
BRANCH  26  27
ATOM     27  O1  ZIN A   1      20.934  -4.111   6.730  0.00  0.00    -0.399 OA
ATOM     28  H32 ZIN A   1      21.601  -3.572   7.176  0.00  0.00     0.209 HD
ENDBRANCH  26  27
ENDBRANCH  25  26
ENDBRANCH  21  25
ENDBRANCH  17  18
ENDBRANCH  16  17
ENDBRANCH  15  16
ENDBRANCH   1  15
BRANCH  12  29
ATOM     29  C24 ZIN A   1      17.239   4.533  10.775  0.00  0.00     0.417 C 
ATOM     30  F25 ZIN A   1      17.433   3.460   9.900  0.00  0.00    -0.166 F 
ATOM     31  F26 ZIN A   1      15.869   4.785  10.909  0.00  0.00    -0.166 F 
ATOM     32  F27 ZIN A   1      17.875   5.671  10.266  0.00  0.00    -0.166 F 
ENDBRANCH  12  29
TORSDOF 8
ENDMDL
MODEL 6
REMARK VINA RESULT:      -8.1      4.020      5.906
REMARK  8 active torsions:
REMARK  status: ('A' for Active; 'I' for Inactive)
REMARK    1  A    between atoms: O1_1  and  C2_2 
REMARK    2  A    between atoms: C2_2  and  C3_3 
REMARK    3  A    between atoms: C3_3  and  N4_4 
REMARK    4  A    between atoms: N7_7  and  C9_9 
REMARK    5  A    between atoms: C9_9  and  C10_10 
REMARK    6  A    between atoms: C10_10  and  C11_11 
REMARK    7  A    between atoms: C11_11  and  N12_12 
REMARK    8  A    between atoms: C23_23  and  C24_24 
ROOT
ATOM      1  N12 ZIN A   1      18.364   0.202  10.488  0.00  0.00    -0.345 N 
ATOM      2  C13 ZIN A   1      18.729  -0.186  11.774  0.00  0.00     0.052 A 
ATOM      3  C14 ZIN A   1      18.888   0.792  12.749  0.00  0.00     0.031 A 
ATOM      4  C15 ZIN A   1      19.246   0.442  14.038  0.00  0.00     0.002 A 
ATOM      5  C16 ZIN A   1      19.449  -0.884  14.367  0.00  0.00     0.002 A 
ATOM      6  C17 ZIN A   1      19.295  -1.865  13.405  0.00  0.00     0.021 A 
ATOM      7  C18 ZIN A   1      18.937  -1.522  12.107  0.00  0.00     0.032 A 
ATOM      8  S19 ZIN A   1      18.755  -2.790  10.899  0.00  0.00    -0.086 SA
ATOM      9  C20 ZIN A   1      18.820  -1.913   9.375  0.00  0.00     0.032 A 
ATOM     10  C21 ZIN A   1      19.071  -2.610   8.200  0.00  0.00     0.022 A 
ATOM     11  C22 ZIN A   1      19.129  -1.941   6.991  0.00  0.00     0.017 A 
ATOM     12  C23 ZIN A   1      18.937  -0.573   6.951  0.00  0.00     0.050 A 
ATOM     13  C28 ZIN A   1      18.687   0.128   8.116  0.00  0.00     0.047 A 
ATOM     14  C29 ZIN A   1      18.622  -0.538   9.337  0.00  0.00     0.053 A 
ENDROOT
BRANCH   1  15
ATOM     15  C11 ZIN A   1      17.653   1.474  10.336  0.00  0.00     0.131 C 
BRANCH  15  16
ATOM     16  C10 ZIN A   1      18.667   2.611  10.198  0.00  0.00     0.048 C 
BRANCH  16  17
ATOM     17  C9  ZIN A   1      17.933   3.954  10.206  0.00  0.00     0.236 C 
BRANCH  17  18
ATOM     18  N7  ZIN A   1      18.231   4.667  11.456  0.00  0.00    -0.068 N 
ATOM     19  C6  ZIN A   1      19.545   4.245  11.958  0.00  0.00     0.265 C 
ATOM     20  C5  ZIN A   1      19.863   5.001  13.249  0.00  0.00     0.300 C 
ATOM     21  N4  ZIN A   1      18.824   4.717  14.249  0.00  0.00     0.093 N 
ATOM     22  C31 ZIN A   1      17.499   5.111  13.750  0.00  0.00     0.300 C 
ATOM     23  C30 ZIN A   1      17.200   4.354  12.454  0.00  0.00     0.265 C 
ATOM     24  H8  ZIN A   1      18.240   5.660  11.281  0.00  0.00     0.280 HD
BRANCH  21  25
ATOM     25  C3  ZIN A   1      19.125   5.381  15.525  0.00  0.00     0.298 C 
BRANCH  25  26
ATOM     26  C2  ZIN A   1      19.608   4.344  16.539  0.00  0.00     0.194 C 
BRANCH  26  27
ATOM     27  O1  ZIN A   1      21.036   4.299  16.531  0.00  0.00    -0.399 OA
ATOM     28  H32 ZIN A   1      21.422   4.192  15.652  0.00  0.00     0.209 HD
ENDBRANCH  26  27
ENDBRANCH  25  26
ENDBRANCH  21  25
ENDBRANCH  17  18
ENDBRANCH  16  17
ENDBRANCH  15  16
ENDBRANCH   1  15
BRANCH  12  29
ATOM     29  C24 ZIN A   1      19.001   0.157   5.634  0.00  0.00     0.417 C 
ATOM     30  F25 ZIN A   1      19.992  -0.417   4.830  0.00  0.00    -0.166 F 
ATOM     31  F26 ZIN A   1      17.763   0.063   4.989  0.00  0.00    -0.166 F 
ATOM     32  F27 ZIN A   1      19.308   1.503   5.861  0.00  0.00    -0.166 F 
ENDBRANCH  12  29
TORSDOF 8
ENDMDL
MODEL 7
REMARK VINA RESULT:      -8.1      3.764      5.786
REMARK  8 active torsions:
REMARK  status: ('A' for Active; 'I' for Inactive)
REMARK    1  A    between atoms: O1_1  and  C2_2 
REMARK    2  A    between atoms: C2_2  and  C3_3 
REMARK    3  A    between atoms: C3_3  and  N4_4 
REMARK    4  A    between atoms: N7_7  and  C9_9 
REMARK    5  A    between atoms: C9_9  and  C10_10 
REMARK    6  A    between atoms: C10_10  and  C11_11 
REMARK    7  A    between atoms: C11_11  and  N12_12 
REMARK    8  A    between atoms: C23_23  and  C24_24 
ROOT
ATOM      1  N12 ZIN A   1      18.051  -1.078  10.944  0.00  0.00    -0.345 N 
ATOM      2  C13 ZIN A   1      18.554  -2.353  10.699  0.00  0.00     0.052 A 
ATOM      3  C14 ZIN A   1      18.763  -3.208  11.775  0.00  0.00     0.031 A 
ATOM      4  C15 ZIN A   1      19.257  -4.483  11.569  0.00  0.00     0.002 A 
ATOM      5  C16 ZIN A   1      19.546  -4.917  10.289  0.00  0.00     0.002 A 
ATOM      6  C17 ZIN A   1      19.344  -4.074   9.212  0.00  0.00     0.021 A 
ATOM      7  C18 ZIN A   1      18.849  -2.792   9.411  0.00  0.00     0.032 A 
ATOM      8  S19 ZIN A   1      18.607  -1.736   8.023  0.00  0.00    -0.086 SA
ATOM      9  C20 ZIN A   1      18.490  -0.134   8.744  0.00  0.00     0.032 A 
ATOM     10  C21 ZIN A   1      18.657   0.986   7.941  0.00  0.00     0.022 A 
ATOM     11  C22 ZIN A   1      18.571   2.254   8.487  0.00  0.00     0.017 A 
ATOM     12  C23 ZIN A   1      18.318   2.407   9.837  0.00  0.00     0.050 A 
ATOM     13  C28 ZIN A   1      18.150   1.297  10.643  0.00  0.00     0.047 A 
ATOM     14  C29 ZIN A   1      18.230   0.016  10.101  0.00  0.00     0.053 A 
ENDROOT
BRANCH   1  15
ATOM     15  C11 ZIN A   1      17.276  -0.874  12.170  0.00  0.00     0.131 C 
BRANCH  15  16
ATOM     16  C10 ZIN A   1      18.153  -0.188  13.220  0.00  0.00     0.048 C 
BRANCH  16  17
ATOM     17  C9  ZIN A   1      17.379  -0.074  14.535  0.00  0.00     0.236 C 
BRANCH  17  18
ATOM     18  N7  ZIN A   1      17.684   1.215  15.172  0.00  0.00    -0.068 N 
ATOM     19  C6  ZIN A   1      18.069   2.189  14.143  0.00  0.00     0.265 C 
ATOM     20  C5  ZIN A   1      18.368   3.536  14.804  0.00  0.00     0.300 C 
ATOM     21  N4  ZIN A   1      19.457   3.371  15.776  0.00  0.00     0.093 N 
ATOM     22  C31 ZIN A   1      19.097   2.378  16.799  0.00  0.00     0.300 C 
ATOM     23  C30 ZIN A   1      18.791   1.041  16.121  0.00  0.00     0.265 C 
ATOM     24  H8  ZIN A   1      16.868   1.548  15.663  0.00  0.00     0.280 HD
BRANCH  21  25
ATOM     25  C3  ZIN A   1      19.813   4.656  16.393  0.00  0.00     0.298 C 
BRANCH  25  26
ATOM     26  C2  ZIN A   1      20.519   5.538  15.362  0.00  0.00     0.194 C 
BRANCH  26  27
ATOM     27  O1  ZIN A   1      21.860   5.787  15.787  0.00  0.00    -0.399 OA
ATOM     28  H32 ZIN A   1      22.533   5.505  15.153  0.00  0.00     0.209 HD
ENDBRANCH  26  27
ENDBRANCH  25  26
ENDBRANCH  21  25
ENDBRANCH  17  18
ENDBRANCH  16  17
ENDBRANCH  15  16
ENDBRANCH   1  15
BRANCH  12  29
ATOM     29  C24 ZIN A   1      18.225   3.788  10.432  0.00  0.00     0.417 C 
ATOM     30  F25 ZIN A   1      17.099   3.865  11.258  0.00  0.00    -0.166 F 
ATOM     31  F26 ZIN A   1      19.375   4.050  11.185  0.00  0.00    -0.166 F 
ATOM     32  F27 ZIN A   1      18.115   4.732   9.405  0.00  0.00    -0.166 F 
ENDBRANCH  12  29
TORSDOF 8
ENDMDL
MODEL 8
REMARK VINA RESULT:      -7.8      4.273      7.852
REMARK  8 active torsions:
REMARK  status: ('A' for Active; 'I' for Inactive)
REMARK    1  A    between atoms: O1_1  and  C2_2 
REMARK    2  A    between atoms: C2_2  and  C3_3 
REMARK    3  A    between atoms: C3_3  and  N4_4 
REMARK    4  A    between atoms: N7_7  and  C9_9 
REMARK    5  A    between atoms: C9_9  and  C10_10 
REMARK    6  A    between atoms: C10_10  and  C11_11 
REMARK    7  A    between atoms: C11_11  and  N12_12 
REMARK    8  A    between atoms: C23_23  and  C24_24 
ROOT
ATOM      1  N12 ZIN A   1      18.449  -0.554  11.271  0.00  0.00    -0.345 N 
ATOM      2  C13 ZIN A   1      18.396  -0.031  12.560  0.00  0.00     0.052 A 
ATOM      3  C14 ZIN A   1      17.771  -0.771  13.557  0.00  0.00     0.031 A 
ATOM      4  C15 ZIN A   1      17.704  -0.285  14.850  0.00  0.00     0.002 A 
ATOM      5  C16 ZIN A   1      18.258   0.942  15.160  0.00  0.00     0.002 A 
ATOM      6  C17 ZIN A   1      18.879   1.688  14.175  0.00  0.00     0.021 A 
ATOM      7  C18 ZIN A   1      18.951   1.207  12.874  0.00  0.00     0.032 A 
ATOM      8  S19 ZIN A   1      19.742   2.179  11.638  0.00  0.00    -0.086 SA
ATOM      9  C20 ZIN A   1      19.161   1.476  10.132  0.00  0.00     0.032 A 
ATOM     10  C21 ZIN A   1      19.282   2.199   8.954  0.00  0.00     0.022 A 
ATOM     11  C22 ZIN A   1      18.830   1.667   7.760  0.00  0.00     0.017 A 
ATOM     12  C23 ZIN A   1      18.255   0.410   7.739  0.00  0.00     0.050 A 
ATOM     13  C28 ZIN A   1      18.132  -0.316   8.908  0.00  0.00     0.047 A 
ATOM     14  C29 ZIN A   1      18.588   0.210  10.115  0.00  0.00     0.053 A 
ENDROOT
BRANCH   1  15
ATOM     15  C11 ZIN A   1      18.360  -2.009  11.120  0.00  0.00     0.131 C 
BRANCH  15  16
ATOM     16  C10 ZIN A   1      19.749  -2.625  11.295  0.00  0.00     0.048 C 
BRANCH  16  17
ATOM     17  C9  ZIN A   1      19.632  -4.151  11.310  0.00  0.00     0.236 C 
BRANCH  17  18
ATOM     18  N7  ZIN A   1      18.938  -4.600  10.095  0.00  0.00    -0.068 N 
ATOM     19  C6  ZIN A   1      17.862  -5.530  10.462  0.00  0.00     0.265 C 
ATOM     20  C5  ZIN A   1      17.128  -5.984   9.199  0.00  0.00     0.300 C 
ATOM     21  N4  ZIN A   1      18.079  -6.643   8.293  0.00  0.00     0.093 N 
ATOM     22  C31 ZIN A   1      19.177  -5.733   7.936  0.00  0.00     0.300 C 
ATOM     23  C30 ZIN A   1      19.894  -5.281   9.211  0.00  0.00     0.265 C 
ATOM     24  H8  ZIN A   1      18.547  -3.803   9.617  0.00  0.00     0.280 HD
BRANCH  21  25
ATOM     25  C3  ZIN A   1      17.400  -7.145   7.091  0.00  0.00     0.298 C 
BRANCH  25  26
ATOM     26  C2  ZIN A   1      16.217  -6.235   6.756  0.00  0.00     0.194 C 
BRANCH  26  27
ATOM     27  O1  ZIN A   1      16.461  -5.573   5.514  0.00  0.00    -0.399 OA
ATOM     28  H32 ZIN A   1      17.007  -4.779   5.592  0.00  0.00     0.209 HD
ENDBRANCH  26  27
ENDBRANCH  25  26
ENDBRANCH  21  25
ENDBRANCH  17  18
ENDBRANCH  16  17
ENDBRANCH  15  16
ENDBRANCH   1  15
BRANCH  12  29
ATOM     29  C24 ZIN A   1      17.763  -0.170   6.438  0.00  0.00     0.417 C 
ATOM     30  F25 ZIN A   1      18.271   0.579   5.372  0.00  0.00    -0.166 F 
ATOM     31  F26 ZIN A   1      18.194  -1.496   6.326  0.00  0.00    -0.166 F 
ATOM     32  F27 ZIN A   1      16.364  -0.130   6.411  0.00  0.00    -0.166 F 
ENDBRANCH  12  29
TORSDOF 8
ENDMDL
MODEL 9
REMARK VINA RESULT:      -7.7      4.240      8.169
REMARK  8 active torsions:
REMARK  status: ('A' for Active; 'I' for Inactive)
REMARK    1  A    between atoms: O1_1  and  C2_2 
REMARK    2  A    between atoms: C2_2  and  C3_3 
REMARK    3  A    between atoms: C3_3  and  N4_4 
REMARK    4  A    between atoms: N7_7  and  C9_9 
REMARK    5  A    between atoms: C9_9  and  C10_10 
REMARK    6  A    between atoms: C10_10  and  C11_11 
REMARK    7  A    between atoms: C11_11  and  N12_12 
REMARK    8  A    between atoms: C23_23  and  C24_24 
ROOT
ATOM      1  N12 ZIN A   1      18.645   2.675  13.474  0.00  0.00    -0.345 N 
ATOM      2  C13 ZIN A   1      19.142   3.713  14.258  0.00  0.00     0.052 A 
ATOM      3  C14 ZIN A   1      19.530   4.895  13.637  0.00  0.00     0.031 A 
ATOM      4  C15 ZIN A   1      20.023   5.948  14.384  0.00  0.00     0.002 A 
ATOM      5  C16 ZIN A   1      20.137   5.833  15.757  0.00  0.00     0.002 A 
ATOM      6  C17 ZIN A   1      19.757   4.661  16.384  0.00  0.00     0.021 A 
ATOM      7  C18 ZIN A   1      19.260   3.598  15.641  0.00  0.00     0.032 A 
ATOM      8  S19 ZIN A   1      18.790   2.115  16.464  0.00  0.00    -0.086 SA
ATOM      9  C20 ZIN A   1      18.733   0.928  15.166  0.00  0.00     0.032 A 
ATOM     10  C21 ZIN A   1      18.751  -0.424  15.480  0.00  0.00     0.022 A 
ATOM     11  C22 ZIN A   1      18.709  -1.374  14.475  0.00  0.00     0.017 A 
ATOM     12  C23 ZIN A   1      18.650  -0.977  13.153  0.00  0.00     0.050 A 
ATOM     13  C28 ZIN A   1      18.632   0.368  12.832  0.00  0.00     0.047 A 
ATOM     14  C29 ZIN A   1      18.669   1.331  13.837  0.00  0.00     0.053 A 
ENDROOT
BRANCH   1  15
ATOM     15  C11 ZIN A   1      18.050   3.022  12.181  0.00  0.00     0.131 C 
BRANCH  15  16
ATOM     16  C10 ZIN A   1      19.111   2.907  11.085  0.00  0.00     0.048 C 
BRANCH  16  17
ATOM     17  C9  ZIN A   1      18.435   2.967   9.713  0.00  0.00     0.236 C 
BRANCH  17  18
ATOM     18  N7  ZIN A   1      18.816   1.785   8.928  0.00  0.00    -0.068 N 
ATOM     19  C6  ZIN A   1      18.842   2.133   7.502  0.00  0.00     0.265 C 
ATOM     20  C5  ZIN A   1      19.256   0.908   6.685  0.00  0.00     0.300 C 
ATOM     21  N4  ZIN A   1      18.299  -0.182   6.922  0.00  0.00     0.093 N 
ATOM     22  C31 ZIN A   1      18.243  -0.525   8.351  0.00  0.00     0.300 C 
ATOM     23  C30 ZIN A   1      17.837   0.713   9.153  0.00  0.00     0.265 C 
ATOM     24  H8  ZIN A   1      19.731   1.472   9.215  0.00  0.00     0.280 HD
BRANCH  21  25
ATOM     25  C3  ZIN A   1      18.631  -1.361   6.111  0.00  0.00     0.298 C 
BRANCH  25  26
ATOM     26  C2  ZIN A   1      19.552  -0.947   4.962  0.00  0.00     0.194 C 
BRANCH  26  27
ATOM     27  O1  ZIN A   1      19.593  -1.990   3.986  0.00  0.00    -0.399 OA
ATOM     28  H32 ZIN A   1      18.723  -2.321   3.727  0.00  0.00     0.209 HD
ENDBRANCH  26  27
ENDBRANCH  25  26
ENDBRANCH  21  25
ENDBRANCH  17  18
ENDBRANCH  16  17
ENDBRANCH  15  16
ENDBRANCH   1  15
BRANCH  12  29
ATOM     29  C24 ZIN A   1      18.606  -2.011  12.058  0.00  0.00     0.417 C 
ATOM     30  F25 ZIN A   1      18.796  -3.282  12.610  0.00  0.00    -0.166 F 
ATOM     31  F26 ZIN A   1      17.362  -1.961  11.420  0.00  0.00    -0.166 F 
ATOM     32  F27 ZIN A   1      19.618  -1.750  11.129  0.00  0.00    -0.166 F 
ENDBRANCH  12  29
TORSDOF 8
ENDMDL
