MODEL 1
REMARK VINA RESULT:      -9.9      0.000      0.000
REMARK  9 active torsions:
REMARK  status: ('A' for Active; 'I' for Inactive)
REMARK    1  A    between atoms: O2_2  and  C3_3 
REMARK    2  A    between atoms: C5_5  and  C6_6 
REMARK    3  A    between atoms: C14_13  and  O16_14 
REMARK    4  A    between atoms: O16_14  and  C17_15 
REMARK    5  A    between atoms: C24_20  and  C26_21 
REMARK    6  A    between atoms: C34_28  and  O36_29 
REMARK    7  A    between atoms: C37_30  and  O39_31 
REMARK    8  A    between atoms: C52_42  and  O53_43 
REMARK    9  A    between atoms: C55_45  and  O56_46 
ROOT
ATOM      1  C6  ZIN A   1      19.893   0.432  11.024  0.00  0.00     0.066 C 
ATOM      2  C8  ZIN A   1      19.323  -0.001   9.685  0.00  0.00    -0.037 A 
ATOM      3  C9  ZIN A   1      19.589   0.840   8.603  0.00  0.00     0.048 A 
ATOM      4  C10 ZIN A   1      19.095   0.478   7.361  0.00  0.00     0.105 A 
ATOM      5  C11 ZIN A   1      18.353  -0.701   7.198  0.00  0.00     0.105 A 
ATOM      6  C12 ZIN A   1      18.091  -1.530   8.277  0.00  0.00     0.050 A 
ATOM      7  C13 ZIN A   1      18.585  -1.155   9.527  0.00  0.00    -0.019 A 
ATOM      8  C14 ZIN A   1      18.242  -2.077  10.684  0.00  0.00     0.165 C 
ATOM      9  C40 ZIN A   1      18.425  -1.297  11.973  0.00  0.00     0.058 C 
ATOM     10  C42 ZIN A   1      18.500  -2.150  13.249  0.00  0.00     0.187 C 
ATOM     11  O43 ZIN A   1      19.366  -1.352  14.130  0.00  0.00    -0.321 OA
ATOM     12  C44 ZIN A   1      20.157  -0.527  13.405  0.00  0.00     0.264 C 
ATOM     13  O45 ZIN A   1      20.935   0.281  13.853  0.00  0.00    -0.265 OA
ATOM     14  C46 ZIN A   1      19.898  -0.773  11.942  0.00  0.00     0.107 C 
ATOM     15  O48 ZIN A   1      17.999  -0.818   5.898  0.00  0.00    -0.323 OA
ATOM     16  C49 ZIN A   1      18.188   0.495   5.329  0.00  0.00     0.352 C 
ATOM     17  O50 ZIN A   1      19.200   1.097   6.163  0.00  0.00    -0.323 OA
ENDROOT
BRANCH   8  18
ATOM     18  O16 ZIN A   1      19.115  -3.208  10.675  0.00  0.00    -0.348 OA
BRANCH  18  19
ATOM     19  C17 ZIN A   1      18.571  -4.357  10.021  0.00  0.00     0.292 C 
ATOM     20  C37 ZIN A   1      17.052  -4.210   9.916  0.00  0.00     0.204 C 
ATOM     21  C34 ZIN A   1      16.474  -5.397   9.140  0.00  0.00     0.183 C 
ATOM     22  C32 ZIN A   1      17.156  -5.461   7.773  0.00  0.00     0.187 C 
ATOM     23  C20 ZIN A   1      18.667  -5.605   7.988  0.00  0.00     0.180 C 
ATOM     24  O31 ZIN A   1      16.695  -6.582   7.020  0.00  0.00    -0.346 OA
ATOM     25  O19 ZIN A   1      19.141  -4.472   8.713  0.00  0.00    -0.348 OA
ATOM     26  C22 ZIN A   1      19.341  -5.709   6.620  0.00  0.00     0.206 C 
ATOM     27  O23 ZIN A   1      18.747  -6.801   5.907  0.00  0.00    -0.354 OA
ATOM     28  C24 ZIN A   1      17.331  -6.697   5.742  0.00  0.00     0.301 C 
BRANCH  20  29
ATOM     29  O39 ZIN A   1      16.490  -4.182  11.230  0.00  0.00    -0.388 OA
ATOM     30  H69 ZIN A   1      16.245  -3.298  11.534  0.00  0.00     0.210 HD
ENDBRANCH  20  29
BRANCH  21  31
ATOM     31  O36 ZIN A   1      15.066  -5.221   8.968  0.00  0.00    -0.390 OA
ATOM     32  H68 ZIN A   1      14.625  -4.817   9.727  0.00  0.00     0.210 HD
ENDBRANCH  21  31
BRANCH  28  33
ATOM     33  C26 ZIN A   1      17.012  -5.477   4.917  0.00  0.00     0.037 A 
ATOM     34  S30 ZIN A   1      18.137  -4.175   4.557  0.00  0.00    -0.102 SA
ATOM     35  C29 ZIN A   1      16.908  -3.330   3.624  0.00  0.00     0.050 A 
ATOM     36  C28 ZIN A   1      15.774  -4.033   3.640  0.00  0.00     0.008 A 
ATOM     37  C27 ZIN A   1      15.831  -5.218   4.352  0.00  0.00     0.020 A 
ENDBRANCH  28  33
ENDBRANCH  18  19
ENDBRANCH   8  18
BRANCH   1  38
ATOM     38  C5  ZIN A   1      19.037   1.520  11.615  0.00  0.00    -0.043 A 
ATOM     39  C4  ZIN A   1      19.015   1.714  12.985  0.00  0.00     0.047 A 
ATOM     40  C3  ZIN A   1      18.227   2.714  13.533  0.00  0.00     0.104 A 
ATOM     41  C55 ZIN A   1      17.454   3.520  12.705  0.00  0.00     0.132 A 
ATOM     42  C52 ZIN A   1      17.482   3.326  11.329  0.00  0.00     0.104 A 
ATOM     43  C51 ZIN A   1      18.273   2.323  10.789  0.00  0.00     0.047 A 
BRANCH  40  44
ATOM     44  O2  ZIN A   1      18.207   2.904  14.879  0.00  0.00    -0.353 OA
ATOM     45  C1  ZIN A   1      18.451   1.760  15.699  0.00  0.00     0.210 C 
ENDBRANCH  40  44
BRANCH  41  46
ATOM     46  O56 ZIN A   1      16.680   4.504  13.240  0.00  0.00    -0.356 OA
ATOM     47  H78 ZIN A   1      16.732   4.564  14.203  0.00  0.00     0.218 HD
ENDBRANCH  41  46
BRANCH  42  48
ATOM     48  O53 ZIN A   1      16.732   4.115  10.514  0.00  0.00    -0.353 OA
ATOM     49  C54 ZIN A   1      17.352   5.297  10.004  0.00  0.00     0.210 C 
ENDBRANCH  42  48
ENDBRANCH   1  38
TORSDOF 9
ENDMDL
MODEL 2
REMARK VINA RESULT:      -9.8      2.871      9.504
REMARK  9 active torsions:
REMARK  status: ('A' for Active; 'I' for Inactive)
REMARK    1  A    between atoms: O2_2  and  C3_3 
REMARK    2  A    between atoms: C5_5  and  C6_6 
REMARK    3  A    between atoms: C14_13  and  O16_14 
REMARK    4  A    between atoms: O16_14  and  C17_15 
REMARK    5  A    between atoms: C24_20  and  C26_21 
REMARK    6  A    between atoms: C34_28  and  O36_29 
REMARK    7  A    between atoms: C37_30  and  O39_31 
REMARK    8  A    between atoms: C52_42  and  O53_43 
REMARK    9  A    between atoms: C55_45  and  O56_46 
ROOT
ATOM      1  C6  ZIN A   1      19.097  -3.106   6.829  0.00  0.00     0.066 C 
ATOM      2  C8  ZIN A   1      18.622  -3.355   8.250  0.00  0.00    -0.037 A 
ATOM      3  C9  ZIN A   1      18.965  -4.590   8.804  0.00  0.00     0.048 A 
ATOM      4  C10 ZIN A   1      18.560  -4.855  10.102  0.00  0.00     0.105 A 
ATOM      5  C11 ZIN A   1      17.829  -3.908  10.835  0.00  0.00     0.105 A 
ATOM      6  C12 ZIN A   1      17.491  -2.686  10.278  0.00  0.00     0.050 A 
ATOM      7  C13 ZIN A   1      17.896  -2.429   8.967  0.00  0.00    -0.019 A 
ATOM      8  C14 ZIN A   1      17.471  -1.090   8.389  0.00  0.00     0.165 C 
ATOM      9  C40 ZIN A   1      17.563  -1.185   6.876  0.00  0.00     0.058 C 
ATOM     10  C42 ZIN A   1      17.546   0.161   6.134  0.00  0.00     0.187 C 
ATOM     11  O43 ZIN A   1      18.348  -0.114   4.933  0.00  0.00    -0.321 OA
ATOM     12  C44 ZIN A   1      19.190  -1.152   5.146  0.00  0.00     0.264 C 
ATOM     13  O45 ZIN A   1      19.936  -1.638   4.329  0.00  0.00    -0.265 OA
ATOM     14  C46 ZIN A   1      19.035  -1.615   6.571  0.00  0.00     0.107 C 
ATOM     15  O48 ZIN A   1      17.568  -4.414  12.062  0.00  0.00    -0.323 OA
ATOM     16  C49 ZIN A   1      17.799  -5.834  11.950  0.00  0.00     0.352 C 
ATOM     17  O50 ZIN A   1      18.750  -5.951  10.872  0.00  0.00    -0.323 OA
ENDROOT
BRANCH   8  18
ATOM     18  O16 ZIN A   1      18.340  -0.061   8.863  0.00  0.00    -0.348 OA
BRANCH  18  19
ATOM     19  C17 ZIN A   1      18.699  -0.192  10.240  0.00  0.00     0.292 C 
ATOM     20  C37 ZIN A   1      20.130   0.310  10.443  0.00  0.00     0.204 C 
ATOM     21  C34 ZIN A   1      20.488   0.253  11.931  0.00  0.00     0.183 C 
ATOM     22  C32 ZIN A   1      19.460   1.075  12.708  0.00  0.00     0.187 C 
ATOM     23  C20 ZIN A   1      18.066   0.495  12.438  0.00  0.00     0.180 C 
ATOM     24  O31 ZIN A   1      19.711   1.018  14.112  0.00  0.00    -0.346 OA
ATOM     25  O19 ZIN A   1      17.795   0.577  11.041  0.00  0.00    -0.348 OA
ATOM     26  C22 ZIN A   1      17.046   1.293  13.249  0.00  0.00     0.206 C 
ATOM     27  O23 ZIN A   1      17.435   1.254  14.628  0.00  0.00    -0.354 OA
ATOM     28  C24 ZIN A   1      18.751   1.751  14.882  0.00  0.00     0.301 C 
BRANCH  20  29
ATOM     29  O39 ZIN A   1      21.028  -0.521   9.705  0.00  0.00    -0.388 OA
ATOM     30  H69 ZIN A   1      21.416  -1.238  10.225  0.00  0.00     0.210 HD
ENDBRANCH  20  29
BRANCH  21  31
ATOM     31  O36 ZIN A   1      21.793   0.800  12.133  0.00  0.00    -0.390 OA
ATOM     32  H68 ZIN A   1      22.245   0.459  12.917  0.00  0.00     0.210 HD
ENDBRANCH  21  31
BRANCH  28  33
ATOM     33  C26 ZIN A   1      18.818   3.208  14.503  0.00  0.00     0.037 A 
ATOM     34  S30 ZIN A   1      17.839   4.484  15.211  0.00  0.00    -0.102 SA
ATOM     35  C29 ZIN A   1      18.608   5.687  14.184  0.00  0.00     0.050 A 
ATOM     36  C28 ZIN A   1      19.508   5.092  13.398  0.00  0.00     0.008 A 
ATOM     37  C27 ZIN A   1      19.625   3.725  13.575  0.00  0.00     0.020 A 
ENDBRANCH  28  33
ENDBRANCH  18  19
ENDBRANCH   8  18
BRANCH   1  38
ATOM     38  C5  ZIN A   1      18.202  -3.829   5.858  0.00  0.00    -0.043 A 
ATOM     39  C4  ZIN A   1      18.418  -3.706   4.498  0.00  0.00     0.047 A 
ATOM     40  C3  ZIN A   1      17.595  -4.370   3.600  0.00  0.00     0.104 A 
ATOM     41  C55 ZIN A   1      16.550  -5.156   4.069  0.00  0.00     0.132 A 
ATOM     42  C52 ZIN A   1      16.339  -5.282   5.437  0.00  0.00     0.104 A 
ATOM     43  C51 ZIN A   1      17.165  -4.614   6.328  0.00  0.00     0.047 A 
BRANCH  40  44
ATOM     44  O2  ZIN A   1      17.810  -4.249   2.263  0.00  0.00    -0.353 OA
ATOM     45  C1  ZIN A   1      18.512  -5.312   1.619  0.00  0.00     0.210 C 
ENDBRANCH  40  44
BRANCH  41  46
ATOM     46  O56 ZIN A   1      15.741  -5.810   3.191  0.00  0.00    -0.356 OA
ATOM     47  H78 ZIN A   1      15.182  -5.225   2.662  0.00  0.00     0.218 HD
ENDBRANCH  41  46
BRANCH  42  48
ATOM     48  O53 ZIN A   1      15.320  -6.055   5.902  0.00  0.00    -0.353 OA
ATOM     49  C54 ZIN A   1      15.282  -6.302   7.308  0.00  0.00     0.210 C 
ENDBRANCH  42  48
ENDBRANCH   1  38
TORSDOF 9
ENDMDL
MODEL 3
REMARK VINA RESULT:      -9.6      2.761      8.741
REMARK  9 active torsions:
REMARK  status: ('A' for Active; 'I' for Inactive)
REMARK    1  A    between atoms: O2_2  and  C3_3 
REMARK    2  A    between atoms: C5_5  and  C6_6 
REMARK    3  A    between atoms: C14_13  and  O16_14 
REMARK    4  A    between atoms: O16_14  and  C17_15 
REMARK    5  A    between atoms: C24_20  and  C26_21 
REMARK    6  A    between atoms: C34_28  and  O36_29 
REMARK    7  A    between atoms: C37_30  and  O39_31 
REMARK    8  A    between atoms: C52_42  and  O53_43 
REMARK    9  A    between atoms: C55_45  and  O56_46 
ROOT
ATOM      1  C6  ZIN A   1      17.577  -2.991   9.773  0.00  0.00     0.066 C 
ATOM      2  C8  ZIN A   1      18.198  -1.746   9.164  0.00  0.00    -0.037 A 
ATOM      3  C9  ZIN A   1      17.449  -1.105   8.176  0.00  0.00     0.048 A 
ATOM      4  C10 ZIN A   1      17.974   0.039   7.601  0.00  0.00     0.105 A 
ATOM      5  C11 ZIN A   1      19.222   0.539   8.003  0.00  0.00     0.105 A 
ATOM      6  C12 ZIN A   1      19.961  -0.104   8.982  0.00  0.00     0.050 A 
ATOM      7  C13 ZIN A   1      19.429  -1.261   9.552  0.00  0.00    -0.019 A 
ATOM      8  C14 ZIN A   1      20.292  -1.949  10.596  0.00  0.00     0.165 C 
ATOM      9  C40 ZIN A   1      19.805  -3.380  10.735  0.00  0.00     0.058 C 
ATOM     10  C42 ZIN A   1      20.289  -4.116  11.995  0.00  0.00     0.187 C 
ATOM     11  O43 ZIN A   1      19.192  -5.054  12.270  0.00  0.00    -0.321 OA
ATOM     12  C44 ZIN A   1      18.034  -4.611  11.728  0.00  0.00     0.264 C 
ATOM     13  O45 ZIN A   1      16.975  -5.193  11.748  0.00  0.00    -0.265 OA
ATOM     14  C46 ZIN A   1      18.285  -3.275  11.081  0.00  0.00     0.107 C 
ATOM     15  O48 ZIN A   1      19.494   1.657   7.292  0.00  0.00    -0.323 OA
ATOM     16  C49 ZIN A   1      18.589   1.628   6.169  0.00  0.00     0.352 C 
ATOM     17  O50 ZIN A   1      17.471   0.845   6.638  0.00  0.00    -0.323 OA
ENDROOT
BRANCH   8  18
ATOM     18  O16 ZIN A   1      20.169  -1.272  11.847  0.00  0.00    -0.348 OA
BRANCH  18  19
ATOM     19  C17 ZIN A   1      19.219  -0.203  11.839  0.00  0.00     0.292 C 
ATOM     20  C37 ZIN A   1      18.419  -0.224  13.143  0.00  0.00     0.204 C 
ATOM     21  C34 ZIN A   1      17.461   0.970  13.176  0.00  0.00     0.183 C 
ATOM     22  C32 ZIN A   1      18.278   2.251  13.007  0.00  0.00     0.187 C 
ATOM     23  C20 ZIN A   1      19.039   2.172  11.678  0.00  0.00     0.180 C 
ATOM     24  O31 ZIN A   1      17.431   3.400  12.977  0.00  0.00    -0.346 OA
ATOM     25  O19 ZIN A   1      19.910   1.044  11.711  0.00  0.00    -0.348 OA
ATOM     26  C22 ZIN A   1      19.822   3.472  11.492  0.00  0.00     0.206 C 
ATOM     27  O23 ZIN A   1      18.902   4.568  11.572  0.00  0.00    -0.354 OA
ATOM     28  C24 ZIN A   1      18.154   4.622  12.789  0.00  0.00     0.301 C 
BRANCH  20  29
ATOM     29  O39 ZIN A   1      17.669  -1.438  13.214  0.00  0.00    -0.388 OA
ATOM     30  H69 ZIN A   1      17.995  -2.136  12.630  0.00  0.00     0.210 HD
ENDBRANCH  20  29
BRANCH  21  31
ATOM     31  O36 ZIN A   1      16.773   1.000  14.429  0.00  0.00    -0.390 OA
ATOM     32  H68 ZIN A   1      15.971   1.541  14.423  0.00  0.00     0.210 HD
ENDBRANCH  21  31
BRANCH  28  33
ATOM     33  C26 ZIN A   1      19.098   4.825  13.947  0.00  0.00     0.037 A 
ATOM     34  S30 ZIN A   1      19.020   3.968  15.480  0.00  0.00    -0.102 SA
ATOM     35  C29 ZIN A   1      20.422   4.847  16.077  0.00  0.00     0.050 A 
ATOM     36  C28 ZIN A   1      20.846   5.699  15.142  0.00  0.00     0.008 A 
ATOM     37  C27 ZIN A   1      20.116   5.687  13.966  0.00  0.00     0.020 A 
ENDBRANCH  28  33
ENDBRANCH  18  19
ENDBRANCH   8  18
BRANCH   1  38
ATOM     38  C5  ZIN A   1      17.749  -4.157   8.836  0.00  0.00    -0.043 A 
ATOM     39  C4  ZIN A   1      16.662  -4.949   8.512  0.00  0.00     0.047 A 
ATOM     40  C3  ZIN A   1      16.818  -6.024   7.651  0.00  0.00     0.104 A 
ATOM     41  C55 ZIN A   1      18.068  -6.310   7.117  0.00  0.00     0.132 A 
ATOM     42  C52 ZIN A   1      19.157  -5.509   7.440  0.00  0.00     0.104 A 
ATOM     43  C51 ZIN A   1      18.994  -4.435   8.303  0.00  0.00     0.047 A 
BRANCH  40  44
ATOM     44  O2  ZIN A   1      15.748  -6.801   7.333  0.00  0.00    -0.353 OA
ATOM     45  C1  ZIN A   1      14.487  -6.431   7.894  0.00  0.00     0.210 C 
ENDBRANCH  40  44
BRANCH  41  46
ATOM     46  O56 ZIN A   1      18.224  -7.364   6.270  0.00  0.00    -0.356 OA
ATOM     47  H78 ZIN A   1      19.146  -7.606   6.111  0.00  0.00     0.218 HD
ENDBRANCH  41  46
BRANCH  42  48
ATOM     48  O53 ZIN A   1      20.382  -5.780   6.915  0.00  0.00    -0.353 OA
ATOM     49  C54 ZIN A   1      21.519  -5.418   7.701  0.00  0.00     0.210 C 
ENDBRANCH  42  48
ENDBRANCH   1  38
TORSDOF 9
ENDMDL
MODEL 4
REMARK VINA RESULT:      -9.5      2.821      8.725
REMARK  9 active torsions:
REMARK  status: ('A' for Active; 'I' for Inactive)
REMARK    1  A    between atoms: O2_2  and  C3_3 
REMARK    2  A    between atoms: C5_5  and  C6_6 
REMARK    3  A    between atoms: C14_13  and  O16_14 
REMARK    4  A    between atoms: O16_14  and  C17_15 
REMARK    5  A    between atoms: C24_20  and  C26_21 
REMARK    6  A    between atoms: C34_28  and  O36_29 
REMARK    7  A    between atoms: C37_30  and  O39_31 
REMARK    8  A    between atoms: C52_42  and  O53_43 
REMARK    9  A    between atoms: C55_45  and  O56_46 
ROOT
ATOM      1  C6  ZIN A   1      17.563  -3.012   9.736  0.00  0.00     0.066 C 
ATOM      2  C8  ZIN A   1      18.183  -1.761   9.136  0.00  0.00    -0.037 A 
ATOM      3  C9  ZIN A   1      17.434  -1.118   8.149  0.00  0.00     0.048 A 
ATOM      4  C10 ZIN A   1      17.958   0.031   7.581  0.00  0.00     0.105 A 
ATOM      5  C11 ZIN A   1      19.202   0.534   7.991  0.00  0.00     0.105 A 
ATOM      6  C12 ZIN A   1      19.939  -0.111   8.970  0.00  0.00     0.050 A 
ATOM      7  C13 ZIN A   1      19.410  -1.273   9.532  0.00  0.00    -0.019 A 
ATOM      8  C14 ZIN A   1      20.271  -1.963  10.576  0.00  0.00     0.165 C 
ATOM      9  C40 ZIN A   1      19.790  -3.397  10.706  0.00  0.00     0.058 C 
ATOM     10  C42 ZIN A   1      20.271  -4.137  11.963  0.00  0.00     0.187 C 
ATOM     11  O43 ZIN A   1      19.176  -5.082  12.229  0.00  0.00    -0.321 OA
ATOM     12  C44 ZIN A   1      18.019  -4.641  11.684  0.00  0.00     0.264 C 
ATOM     13  O45 ZIN A   1      16.962  -5.226  11.696  0.00  0.00    -0.265 OA
ATOM     14  C46 ZIN A   1      18.267  -3.300  11.046  0.00  0.00     0.107 C 
ATOM     15  O48 ZIN A   1      19.472   1.657   7.288  0.00  0.00    -0.323 OA
ATOM     16  C49 ZIN A   1      18.572   1.630   6.160  0.00  0.00     0.352 C 
ATOM     17  O50 ZIN A   1      17.456   0.840   6.620  0.00  0.00    -0.323 OA
ENDROOT
BRANCH   8  18
ATOM     18  O16 ZIN A   1      20.140  -1.293  11.830  0.00  0.00    -0.348 OA
BRANCH  18  19
ATOM     19  C17 ZIN A   1      19.215  -0.203  11.813  0.00  0.00     0.292 C 
ATOM     20  C37 ZIN A   1      18.346  -0.254  13.071  0.00  0.00     0.204 C 
ATOM     21  C34 ZIN A   1      17.413   0.959  13.100  0.00  0.00     0.183 C 
ATOM     22  C32 ZIN A   1      18.264   2.227  13.023  0.00  0.00     0.187 C 
ATOM     23  C20 ZIN A   1      19.094   2.180  11.734  0.00  0.00     0.180 C 
ATOM     24  O31 ZIN A   1      17.445   3.396  12.994  0.00  0.00    -0.346 OA
ATOM     25  O19 ZIN A   1      19.938   1.031  11.770  0.00  0.00    -0.348 OA
ATOM     26  C22 ZIN A   1      19.913   3.467  11.641  0.00  0.00     0.206 C 
ATOM     27  O23 ZIN A   1      19.013   4.581  11.714  0.00  0.00    -0.354 OA
ATOM     28  C24 ZIN A   1      18.202   4.606  12.891  0.00  0.00     0.301 C 
BRANCH  20  29
ATOM     29  O39 ZIN A   1      17.567  -1.452  13.055  0.00  0.00    -0.388 OA
ATOM     30  H69 ZIN A   1      16.886  -1.488  13.741  0.00  0.00     0.210 HD
ENDBRANCH  20  29
BRANCH  21  31
ATOM     31  O36 ZIN A   1      16.659   0.959  14.314  0.00  0.00    -0.390 OA
ATOM     32  H68 ZIN A   1      15.761   0.614  14.219  0.00  0.00     0.210 HD
ENDBRANCH  21  31
BRANCH  28  33
ATOM     33  C26 ZIN A   1      19.087   4.744  14.104  0.00  0.00     0.037 A 
ATOM     34  S30 ZIN A   1      20.344   5.956  14.309  0.00  0.00    -0.102 SA
ATOM     35  C29 ZIN A   1      20.741   5.319  15.900  0.00  0.00     0.050 A 
ATOM     36  C28 ZIN A   1      19.951   4.278  16.174  0.00  0.00     0.008 A 
ATOM     37  C27 ZIN A   1      19.038   3.961  15.184  0.00  0.00     0.020 A 
ENDBRANCH  28  33
ENDBRANCH  18  19
ENDBRANCH   8  18
BRANCH   1  38
ATOM     38  C5  ZIN A   1      17.745  -4.173   8.794  0.00  0.00    -0.043 A 
ATOM     39  C4  ZIN A   1      18.995  -4.446   8.269  0.00  0.00     0.047 A 
ATOM     40  C3  ZIN A   1      19.166  -5.513   7.400  0.00  0.00     0.104 A 
ATOM     41  C55 ZIN A   1      18.079  -6.306   7.054  0.00  0.00     0.132 A 
ATOM     42  C52 ZIN A   1      16.825  -6.032   7.588  0.00  0.00     0.104 A 
ATOM     43  C51 ZIN A   1      16.662  -4.962   8.455  0.00  0.00     0.047 A 
BRANCH  40  44
ATOM     44  O2  ZIN A   1      20.396  -5.781   6.885  0.00  0.00    -0.353 OA
ATOM     45  C1  ZIN A   1      21.525  -5.457   7.699  0.00  0.00     0.210 C 
ENDBRANCH  40  44
BRANCH  41  46
ATOM     46  O56 ZIN A   1      18.244  -7.356   6.203  0.00  0.00    -0.356 OA
ATOM     47  H78 ZIN A   1      19.000  -7.919   6.416  0.00  0.00     0.218 HD
ENDBRANCH  41  46
BRANCH  42  48
ATOM     48  O53 ZIN A   1      15.759  -6.809   7.257  0.00  0.00    -0.353 OA
ATOM     49  C54 ZIN A   1      14.486  -6.420   7.777  0.00  0.00     0.210 C 
ENDBRANCH  42  48
ENDBRANCH   1  38
TORSDOF 9
ENDMDL
MODEL 5
REMARK VINA RESULT:      -9.1      3.555     10.447
REMARK  9 active torsions:
REMARK  status: ('A' for Active; 'I' for Inactive)
REMARK    1  A    between atoms: O2_2  and  C3_3 
REMARK    2  A    between atoms: C5_5  and  C6_6 
REMARK    3  A    between atoms: C14_13  and  O16_14 
REMARK    4  A    between atoms: O16_14  and  C17_15 
REMARK    5  A    between atoms: C24_20  and  C26_21 
REMARK    6  A    between atoms: C34_28  and  O36_29 
REMARK    7  A    between atoms: C37_30  and  O39_31 
REMARK    8  A    between atoms: C52_42  and  O53_43 
REMARK    9  A    between atoms: C55_45  and  O56_46 
ROOT
ATOM      1  C6  ZIN A   1      19.890  -0.415  11.609  0.00  0.00     0.066 C 
ATOM      2  C8  ZIN A   1      19.346  -0.033  12.974  0.00  0.00    -0.037 A 
ATOM      3  C9  ZIN A   1      19.585  -0.941  14.007  0.00  0.00     0.048 A 
ATOM      4  C10 ZIN A   1      19.114  -0.627  15.271  0.00  0.00     0.105 A 
ATOM      5  C11 ZIN A   1      18.419   0.569  15.503  0.00  0.00     0.105 A 
ATOM      6  C12 ZIN A   1      18.183   1.464  14.473  0.00  0.00     0.050 A 
ATOM      7  C13 ZIN A   1      18.654   1.138  13.200  0.00  0.00    -0.019 A 
ATOM      8  C14 ZIN A   1      18.340   2.133  12.097  0.00  0.00     0.165 C 
ATOM      9  C40 ZIN A   1      18.484   1.417  10.766  0.00  0.00     0.058 C 
ATOM     10  C42 ZIN A   1      18.584   2.334   9.537  0.00  0.00     0.187 C 
ATOM     11  O43 ZIN A   1      19.413   1.552   8.608  0.00  0.00    -0.321 OA
ATOM     12  C44 ZIN A   1      20.176   0.660   9.281  0.00  0.00     0.264 C 
ATOM     13  O45 ZIN A   1      20.920  -0.152   8.784  0.00  0.00    -0.265 OA
ATOM     14  C46 ZIN A   1      19.936   0.836  10.757  0.00  0.00     0.107 C 
ATOM     15  O48 ZIN A   1      18.078   0.629  16.811  0.00  0.00    -0.323 OA
ATOM     16  C49 ZIN A   1      18.220  -0.718  17.307  0.00  0.00     0.352 C 
ATOM     17  O50 ZIN A   1      19.202  -1.313  16.434  0.00  0.00    -0.323 OA
ENDROOT
BRANCH   8  18
ATOM     18  O16 ZIN A   1      19.255   3.228  12.159  0.00  0.00    -0.348 OA
BRANCH  18  19
ATOM     19  C17 ZIN A   1      18.717   4.402  12.772  0.00  0.00     0.292 C 
ATOM     20  C37 ZIN A   1      17.199   4.260  12.897  0.00  0.00     0.204 C 
ATOM     21  C34 ZIN A   1      16.629   5.477  13.631  0.00  0.00     0.183 C 
ATOM     22  C32 ZIN A   1      17.323   5.595  14.988  0.00  0.00     0.187 C 
ATOM     23  C20 ZIN A   1      18.833   5.730  14.752  0.00  0.00     0.180 C 
ATOM     24  O31 ZIN A   1      16.870   6.745  15.700  0.00  0.00    -0.346 OA
ATOM     25  O19 ZIN A   1      19.300   4.569  14.068  0.00  0.00    -0.348 OA
ATOM     26  C22 ZIN A   1      19.520   5.888  16.109  0.00  0.00     0.206 C 
ATOM     27  O23 ZIN A   1      18.932   7.008  16.784  0.00  0.00    -0.354 OA
ATOM     28  C24 ZIN A   1      17.518   6.910  16.966  0.00  0.00     0.301 C 
BRANCH  20  29
ATOM     29  O39 ZIN A   1      16.626   4.180  11.591  0.00  0.00    -0.388 OA
ATOM     30  H69 ZIN A   1      17.082   4.714  10.927  0.00  0.00     0.210 HD
ENDBRANCH  20  29
BRANCH  21  31
ATOM     31  O36 ZIN A   1      15.223   5.308  13.823  0.00  0.00    -0.390 OA
ATOM     32  H68 ZIN A   1      14.901   5.633  14.675  0.00  0.00     0.210 HD
ENDBRANCH  21  31
BRANCH  28  33
ATOM     33  C26 ZIN A   1      17.207   5.724  17.842  0.00  0.00     0.037 A 
ATOM     34  S30 ZIN A   1      15.677   5.443  18.660  0.00  0.00    -0.102 SA
ATOM     35  C29 ZIN A   1      16.286   3.943  19.348  0.00  0.00     0.050 A 
ATOM     36  C28 ZIN A   1      17.545   3.749  18.952  0.00  0.00     0.008 A 
ATOM     37  C27 ZIN A   1      18.054   4.732  18.121  0.00  0.00     0.020 A 
ENDBRANCH  28  33
ENDBRANCH  18  19
ENDBRANCH   8  18
BRANCH   1  38
ATOM     38  C5  ZIN A   1      18.988  -1.436  10.968  0.00  0.00    -0.043 A 
ATOM     39  C4  ZIN A   1      18.903  -1.512   9.590  0.00  0.00     0.047 A 
ATOM     40  C3  ZIN A   1      18.073  -2.451   8.995  0.00  0.00     0.104 A 
ATOM     41  C55 ZIN A   1      17.323  -3.312   9.786  0.00  0.00     0.132 A 
ATOM     42  C52 ZIN A   1      17.416  -3.237  11.171  0.00  0.00     0.104 A 
ATOM     43  C51 ZIN A   1      18.247  -2.295  11.758  0.00  0.00     0.047 A 
BRANCH  40  44
ATOM     44  O2  ZIN A   1      17.990  -2.524   7.640  0.00  0.00    -0.353 OA
ATOM     45  C1  ZIN A   1      19.220  -2.596   6.917  0.00  0.00     0.210 C 
ENDBRANCH  40  44
BRANCH  41  46
ATOM     46  O56 ZIN A   1      16.508  -4.236   9.206  0.00  0.00    -0.356 OA
ATOM     47  H78 ZIN A   1      16.881  -5.127   9.181  0.00  0.00     0.218 HD
ENDBRANCH  41  46
BRANCH  42  48
ATOM     48  O53 ZIN A   1      16.688  -4.082  11.950  0.00  0.00    -0.353 OA
ATOM     49  C54 ZIN A   1      17.264  -5.357  12.238  0.00  0.00     0.210 C 
ENDBRANCH  42  48
ENDBRANCH   1  38
TORSDOF 9
ENDMDL
MODEL 6
REMARK VINA RESULT:      -9.1      1.549      3.125
REMARK  9 active torsions:
REMARK  status: ('A' for Active; 'I' for Inactive)
REMARK    1  A    between atoms: O2_2  and  C3_3 
REMARK    2  A    between atoms: C5_5  and  C6_6 
REMARK    3  A    between atoms: C14_13  and  O16_14 
REMARK    4  A    between atoms: O16_14  and  C17_15 
REMARK    5  A    between atoms: C24_20  and  C26_21 
REMARK    6  A    between atoms: C34_28  and  O36_29 
REMARK    7  A    between atoms: C37_30  and  O39_31 
REMARK    8  A    between atoms: C52_42  and  O53_43 
REMARK    9  A    between atoms: C55_45  and  O56_46 
ROOT
ATOM      1  C6  ZIN A   1      19.634   0.085  11.288  0.00  0.00     0.066 C 
ATOM      2  C8  ZIN A   1      19.073  -0.206   9.907  0.00  0.00    -0.037 A 
ATOM      3  C9  ZIN A   1      19.638   0.511   8.851  0.00  0.00     0.048 A 
ATOM      4  C10 ZIN A   1      19.162   0.270   7.574  0.00  0.00     0.105 A 
ATOM      5  C11 ZIN A   1      18.144  -0.670   7.350  0.00  0.00     0.105 A 
ATOM      6  C12 ZIN A   1      17.587  -1.376   8.404  0.00  0.00     0.050 A 
ATOM      7  C13 ZIN A   1      18.065  -1.122   9.690  0.00  0.00    -0.019 A 
ATOM      8  C14 ZIN A   1      17.399  -1.894  10.814  0.00  0.00     0.165 C 
ATOM      9  C40 ZIN A   1      17.686  -1.166  12.115  0.00  0.00     0.058 C 
ATOM     10  C42 ZIN A   1      17.429  -1.982  13.392  0.00  0.00     0.187 C 
ATOM     11  O43 ZIN A   1      18.408  -1.428  14.340  0.00  0.00    -0.321 OA
ATOM     12  C44 ZIN A   1      19.445  -0.861  13.681  0.00  0.00     0.264 C 
ATOM     13  O45 ZIN A   1      20.376  -0.283  14.191  0.00  0.00    -0.265 OA
ATOM     14  C46 ZIN A   1      19.243  -1.058  12.202  0.00  0.00     0.107 C 
ATOM     15  O48 ZIN A   1      17.873  -0.713   6.026  0.00  0.00    -0.323 OA
ATOM     16  C49 ZIN A   1      18.452   0.488   5.475  0.00  0.00     0.352 C 
ATOM     17  O50 ZIN A   1      19.521   0.813   6.388  0.00  0.00    -0.323 OA
ENDROOT
BRANCH   8  18
ATOM     18  O16 ZIN A   1      17.933  -3.218  10.873  0.00  0.00    -0.348 OA
BRANCH  18  19
ATOM     19  C17 ZIN A   1      18.358  -3.730   9.609  0.00  0.00     0.292 C 
ATOM     20  C37 ZIN A   1      19.437  -4.793   9.827  0.00  0.00     0.204 C 
ATOM     21  C34 ZIN A   1      19.833  -5.406   8.482  0.00  0.00     0.183 C 
ATOM     22  C32 ZIN A   1      18.577  -5.971   7.818  0.00  0.00     0.187 C 
ATOM     23  C20 ZIN A   1      17.563  -4.833   7.646  0.00  0.00     0.180 C 
ATOM     24  O31 ZIN A   1      18.875  -6.513   6.531  0.00  0.00    -0.346 OA
ATOM     25  O19 ZIN A   1      17.237  -4.307   8.930  0.00  0.00    -0.348 OA
ATOM     26  C22 ZIN A   1      16.325  -5.392   6.945  0.00  0.00     0.206 C 
ATOM     27  O23 ZIN A   1      16.739  -5.996   5.712  0.00  0.00    -0.354 OA
ATOM     28  C24 ZIN A   1      17.718  -7.026   5.860  0.00  0.00     0.301 C 
BRANCH  20  29
ATOM     29  O39 ZIN A   1      20.581  -4.183  10.428  0.00  0.00    -0.388 OA
ATOM     30  H69 ZIN A   1      20.853  -4.591  11.261  0.00  0.00     0.210 HD
ENDBRANCH  20  29
BRANCH  21  31
ATOM     31  O36 ZIN A   1      20.780  -6.457   8.691  0.00  0.00    -0.390 OA
ATOM     32  H68 ZIN A   1      21.508  -6.463   8.055  0.00  0.00     0.210 HD
ENDBRANCH  21  31
BRANCH  28  33
ATOM     33  C26 ZIN A   1      17.136  -8.157   6.668  0.00  0.00     0.037 A 
ATOM     34  S30 ZIN A   1      15.633  -8.085   7.576  0.00  0.00    -0.102 SA
ATOM     35  C29 ZIN A   1      15.835  -9.751   8.103  0.00  0.00     0.050 A 
ATOM     36  C28 ZIN A   1      16.968 -10.244   7.599  0.00  0.00     0.008 A 
ATOM     37  C27 ZIN A   1      17.686  -9.365   6.806  0.00  0.00     0.020 A 
ENDBRANCH  28  33
ENDBRANCH  18  19
ENDBRANCH   8  18
BRANCH   1  38
ATOM     38  C5  ZIN A   1      19.059   1.375  11.811  0.00  0.00    -0.043 A 
ATOM     39  C4  ZIN A   1      18.186   2.109  11.027  0.00  0.00     0.047 A 
ATOM     40  C3  ZIN A   1      17.655   3.297  11.505  0.00  0.00     0.104 A 
ATOM     41  C55 ZIN A   1      18.005   3.755  12.769  0.00  0.00     0.132 A 
ATOM     42  C52 ZIN A   1      18.878   3.012  13.556  0.00  0.00     0.104 A 
ATOM     43  C51 ZIN A   1      19.406   1.825  13.071  0.00  0.00     0.047 A 
BRANCH  40  44
ATOM     44  O2  ZIN A   1      16.797   4.017  10.734  0.00  0.00    -0.353 OA
ATOM     45  C1  ZIN A   1      17.345   5.112   9.999  0.00  0.00     0.210 C 
ENDBRANCH  40  44
BRANCH  41  46
ATOM     46  O56 ZIN A   1      17.485   4.921  13.242  0.00  0.00    -0.356 OA
ATOM     47  H78 ZIN A   1      17.079   4.843  14.115  0.00  0.00     0.218 HD
ENDBRANCH  41  46
BRANCH  42  48
ATOM     48  O53 ZIN A   1      19.220   3.452  14.797  0.00  0.00    -0.353 OA
ATOM     49  C54 ZIN A   1      18.641   2.769  15.910  0.00  0.00     0.210 C 
ENDBRANCH  42  48
ENDBRANCH   1  38
TORSDOF 9
ENDMDL
MODEL 7
REMARK VINA RESULT:      -9.1      2.702      5.888
REMARK  9 active torsions:
REMARK  status: ('A' for Active; 'I' for Inactive)
REMARK    1  A    between atoms: O2_2  and  C3_3 
REMARK    2  A    between atoms: C5_5  and  C6_6 
REMARK    3  A    between atoms: C14_13  and  O16_14 
REMARK    4  A    between atoms: O16_14  and  C17_15 
REMARK    5  A    between atoms: C24_20  and  C26_21 
REMARK    6  A    between atoms: C34_28  and  O36_29 
REMARK    7  A    between atoms: C37_30  and  O39_31 
REMARK    8  A    between atoms: C52_42  and  O53_43 
REMARK    9  A    between atoms: C55_45  and  O56_46 
ROOT
ATOM      1  C6  ZIN A   1      17.363   2.827  13.215  0.00  0.00     0.066 C 
ATOM      2  C8  ZIN A   1      18.065   1.622  13.814  0.00  0.00    -0.037 A 
ATOM      3  C9  ZIN A   1      17.382   0.958  14.835  0.00  0.00     0.048 A 
ATOM      4  C10 ZIN A   1      17.983  -0.152  15.404  0.00  0.00     0.105 A 
ATOM      5  C11 ZIN A   1      19.239  -0.595  14.964  0.00  0.00     0.105 A 
ATOM      6  C12 ZIN A   1      19.912   0.070  13.952  0.00  0.00     0.050 A 
ATOM      7  C13 ZIN A   1      19.304   1.193  13.389  0.00  0.00    -0.019 A 
ATOM      8  C14 ZIN A   1      20.096   1.908  12.308  0.00  0.00     0.165 C 
ATOM      9  C40 ZIN A   1      19.535   3.312  12.170  0.00  0.00     0.058 C 
ATOM     10  C42 ZIN A   1      19.938   4.055  10.886  0.00  0.00     0.187 C 
ATOM     11  O43 ZIN A   1      18.787   4.935  10.639  0.00  0.00    -0.321 OA
ATOM     12  C44 ZIN A   1      17.672   4.443  11.227  0.00  0.00     0.264 C 
ATOM     13  O45 ZIN A   1      16.586   4.972  11.238  0.00  0.00    -0.265 OA
ATOM     14  C46 ZIN A   1      18.010   3.129  11.879  0.00  0.00     0.107 C 
ATOM     15  O48 ZIN A   1      19.590  -1.690  15.676  0.00  0.00    -0.323 OA
ATOM     16  C49 ZIN A   1      18.724  -1.691  16.831  0.00  0.00     0.352 C 
ATOM     17  O50 ZIN A   1      17.554  -0.970  16.393  0.00  0.00    -0.323 OA
ENDROOT
BRANCH   8  18
ATOM     18  O16 ZIN A   1      19.962   1.210  11.069  0.00  0.00    -0.348 OA
BRANCH  18  19
ATOM     19  C17 ZIN A   1      19.062   0.101  11.121  0.00  0.00     0.292 C 
ATOM     20  C37 ZIN A   1      18.251   0.044   9.824  0.00  0.00     0.204 C 
ATOM     21  C34 ZIN A   1      17.348  -1.192   9.838  0.00  0.00     0.183 C 
ATOM     22  C32 ZIN A   1      18.222  -2.430  10.041  0.00  0.00     0.187 C 
ATOM     23  C20 ZIN A   1      18.990  -2.273  11.359  0.00  0.00     0.180 C 
ATOM     24  O31 ZIN A   1      17.429  -3.613  10.115  0.00  0.00    -0.346 OA
ATOM     25  O19 ZIN A   1      19.809  -1.109  11.282  0.00  0.00    -0.348 OA
ATOM     26  C22 ZIN A   1      19.832  -3.530  11.579  0.00  0.00     0.206 C 
ATOM     27  O23 ZIN A   1      18.961  -4.668  11.543  0.00  0.00    -0.354 OA
ATOM     28  C24 ZIN A   1      18.207  -4.795  10.335  0.00  0.00     0.301 C 
BRANCH  20  29
ATOM     29  O39 ZIN A   1      17.447   1.220   9.722  0.00  0.00    -0.388 OA
ATOM     30  H69 ZIN A   1      16.541   1.053   9.429  0.00  0.00     0.210 HD
ENDBRANCH  20  29
BRANCH  21  31
ATOM     31  O36 ZIN A   1      16.651  -1.294   8.594  0.00  0.00    -0.390 OA
ATOM     32  H68 ZIN A   1      15.786  -0.863   8.592  0.00  0.00     0.210 HD
ENDBRANCH  21  31
BRANCH  28  33
ATOM     33  C26 ZIN A   1      19.149  -4.993   9.176  0.00  0.00     0.037 A 
ATOM     34  S30 ZIN A   1      18.963  -4.270   7.584  0.00  0.00    -0.102 SA
ATOM     35  C29 ZIN A   1      20.437  -5.050   7.024  0.00  0.00     0.050 A 
ATOM     36  C28 ZIN A   1      20.959  -5.780   8.012  0.00  0.00     0.008 A 
ATOM     37  C27 ZIN A   1      20.249  -5.748   9.199  0.00  0.00     0.020 A 
ENDBRANCH  28  33
ENDBRANCH  18  19
ENDBRANCH   8  18
BRANCH   1  38
ATOM     38  C5  ZIN A   1      17.510   4.012  14.132  0.00  0.00    -0.043 A 
ATOM     39  C4  ZIN A   1      16.452   4.886  14.306  0.00  0.00     0.047 A 
ATOM     40  C3  ZIN A   1      16.585   5.979  15.149  0.00  0.00     0.104 A 
ATOM     41  C55 ZIN A   1      17.784   6.199  15.815  0.00  0.00     0.132 A 
ATOM     42  C52 ZIN A   1      18.843   5.316  15.642  0.00  0.00     0.104 A 
ATOM     43  C51 ZIN A   1      18.703   4.226  14.797  0.00  0.00     0.047 A 
BRANCH  40  44
ATOM     44  O2  ZIN A   1      15.543   6.836  15.320  0.00  0.00    -0.353 OA
ATOM     45  C1  ZIN A   1      14.234   6.327  15.062  0.00  0.00     0.210 C 
ENDBRANCH  40  44
BRANCH  41  46
ATOM     46  O56 ZIN A   1      17.917   7.270  16.645  0.00  0.00    -0.356 OA
ATOM     47  H78 ZIN A   1      17.951   8.120  16.186  0.00  0.00     0.218 HD
ENDBRANCH  41  46
BRANCH  42  48
ATOM     48  O53 ZIN A   1      20.018   5.524  16.297  0.00  0.00    -0.353 OA
ATOM     49  C54 ZIN A   1      21.148   5.885  15.502  0.00  0.00     0.210 C 
ENDBRANCH  42  48
ENDBRANCH   1  38
TORSDOF 9
ENDMDL
MODEL 8
REMARK VINA RESULT:      -8.9      2.827      5.851
REMARK  9 active torsions:
REMARK  status: ('A' for Active; 'I' for Inactive)
REMARK    1  A    between atoms: O2_2  and  C3_3 
REMARK    2  A    between atoms: C5_5  and  C6_6 
REMARK    3  A    between atoms: C14_13  and  O16_14 
REMARK    4  A    between atoms: O16_14  and  C17_15 
REMARK    5  A    between atoms: C24_20  and  C26_21 
REMARK    6  A    between atoms: C34_28  and  O36_29 
REMARK    7  A    between atoms: C37_30  and  O39_31 
REMARK    8  A    between atoms: C52_42  and  O53_43 
REMARK    9  A    between atoms: C55_45  and  O56_46 
ROOT
ATOM      1  C6  ZIN A   1      19.034   3.275  15.725  0.00  0.00     0.066 C 
ATOM      2  C8  ZIN A   1      18.516   3.390  14.302  0.00  0.00    -0.037 A 
ATOM      3  C9  ZIN A   1      18.782   4.594  13.647  0.00  0.00     0.048 A 
ATOM      4  C10 ZIN A   1      18.336   4.738  12.345  0.00  0.00     0.105 A 
ATOM      5  C11 ZIN A   1      17.639   3.703  11.704  0.00  0.00     0.105 A 
ATOM      6  C12 ZIN A   1      17.376   2.512  12.361  0.00  0.00     0.050 A 
ATOM      7  C13 ZIN A   1      17.822   2.376  13.676  0.00  0.00    -0.019 A 
ATOM      8  C14 ZIN A   1      17.479   1.067  14.365  0.00  0.00     0.165 C 
ATOM      9  C40 ZIN A   1      17.600   1.282  15.863  0.00  0.00     0.058 C 
ATOM     10  C42 ZIN A   1      17.668  -0.002  16.705  0.00  0.00     0.187 C 
ATOM     11  O43 ZIN A   1      18.481   0.404  17.861  0.00  0.00    -0.321 OA
ATOM     12  C44 ZIN A   1      19.264   1.463  17.548  0.00  0.00     0.264 C 
ATOM     13  O45 ZIN A   1      20.001   2.046  18.307  0.00  0.00    -0.265 OA
ATOM     14  C46 ZIN A   1      19.054   1.807  16.097  0.00  0.00     0.107 C 
ATOM     15  O48 ZIN A   1      17.326   4.099  10.449  0.00  0.00    -0.323 OA
ATOM     16  C49 ZIN A   1      17.485   5.533  10.448  0.00  0.00     0.352 C 
ATOM     17  O50 ZIN A   1      18.452   5.780  11.489  0.00  0.00    -0.323 OA
ENDROOT
BRANCH   8  18
ATOM     18  O16 ZIN A   1      18.390   0.049  13.948  0.00  0.00    -0.348 OA
BRANCH  18  19
ATOM     19  C17 ZIN A   1      18.752   0.123  12.567  0.00  0.00     0.292 C 
ATOM     20  C37 ZIN A   1      20.195  -0.355  12.394  0.00  0.00     0.204 C 
ATOM     21  C34 ZIN A   1      20.559  -0.360  10.906  0.00  0.00     0.183 C 
ATOM     22  C32 ZIN A   1      19.554  -1.241  10.165  0.00  0.00     0.187 C 
ATOM     23  C20 ZIN A   1      18.146  -0.681  10.402  0.00  0.00     0.180 C 
ATOM     24  O31 ZIN A   1      19.810  -1.244   8.761  0.00  0.00    -0.346 OA
ATOM     25  O19 ZIN A   1      17.870  -0.704  11.801  0.00  0.00    -0.348 OA
ATOM     26  C22 ZIN A   1      17.148  -1.541   9.627  0.00  0.00     0.206 C 
ATOM     27  O23 ZIN A   1      17.543  -1.558   8.249  0.00  0.00    -0.354 OA
ATOM     28  C24 ZIN A   1      18.871  -2.035   8.023  0.00  0.00     0.301 C 
BRANCH  20  29
ATOM     29  O39 ZIN A   1      21.070   0.531  13.094  0.00  0.00    -0.388 OA
ATOM     30  H69 ZIN A   1      21.331   0.215  13.970  0.00  0.00     0.210 HD
ENDBRANCH  20  29
BRANCH  21  31
ATOM     31  O36 ZIN A   1      21.877  -0.885  10.735  0.00  0.00    -0.390 OA
ATOM     32  H68 ZIN A   1      21.898  -1.796  10.409  0.00  0.00     0.210 HD
ENDBRANCH  21  31
BRANCH  28  33
ATOM     33  C26 ZIN A   1      18.969  -3.471   8.471  0.00  0.00     0.037 A 
ATOM     34  S30 ZIN A   1      18.139  -4.826   7.718  0.00  0.00    -0.102 SA
ATOM     35  C29 ZIN A   1      18.852  -5.943   8.875  0.00  0.00     0.050 A 
ATOM     36  C28 ZIN A   1      19.629  -5.271   9.725  0.00  0.00     0.008 A 
ATOM     37  C27 ZIN A   1      19.695  -3.906   9.502  0.00  0.00     0.020 A 
ENDBRANCH  28  33
ENDBRANCH  18  19
ENDBRANCH   8  18
BRANCH   1  38
ATOM     38  C5  ZIN A   1      18.124   4.025  16.661  0.00  0.00    -0.043 A 
ATOM     39  C4  ZIN A   1      18.174   3.775  18.021  0.00  0.00     0.047 A 
ATOM     40  C3  ZIN A   1      17.338   4.463  18.886  0.00  0.00     0.104 A 
ATOM     41  C55 ZIN A   1      16.444   5.403  18.386  0.00  0.00     0.132 A 
ATOM     42  C52 ZIN A   1      16.401   5.656  17.020  0.00  0.00     0.104 A 
ATOM     43  C51 ZIN A   1      17.240   4.963  16.161  0.00  0.00     0.047 A 
BRANCH  40  44
ATOM     44  O2  ZIN A   1      17.389   4.216  20.222  0.00  0.00    -0.353 OA
ATOM     45  C1  ZIN A   1      18.127   5.138  21.025  0.00  0.00     0.210 C 
ENDBRANCH  40  44
BRANCH  41  46
ATOM     46  O56 ZIN A   1      15.623   6.081  19.232  0.00  0.00    -0.356 OA
ATOM     47  H78 ZIN A   1      14.951   6.614  18.784  0.00  0.00     0.218 HD
ENDBRANCH  41  46
BRANCH  42  48
ATOM     48  O53 ZIN A   1      15.532   6.579  16.525  0.00  0.00    -0.353 OA
ATOM     49  C54 ZIN A   1      14.971   6.317  15.238  0.00  0.00     0.210 C 
ENDBRANCH  42  48
ENDBRANCH   1  38
TORSDOF 9
ENDMDL
MODEL 9
REMARK VINA RESULT:      -8.5      3.539     10.023
REMARK  9 active torsions:
REMARK  status: ('A' for Active; 'I' for Inactive)
REMARK    1  A    between atoms: O2_2  and  C3_3 
REMARK    2  A    between atoms: C5_5  and  C6_6 
REMARK    3  A    between atoms: C14_13  and  O16_14 
REMARK    4  A    between atoms: O16_14  and  C17_15 
REMARK    5  A    between atoms: C24_20  and  C26_21 
REMARK    6  A    between atoms: C34_28  and  O36_29 
REMARK    7  A    between atoms: C37_30  and  O39_31 
REMARK    8  A    between atoms: C52_42  and  O53_43 
REMARK    9  A    between atoms: C55_45  and  O56_46 
ROOT
ATOM      1  C6  ZIN A   1      19.439  -1.248  11.219  0.00  0.00     0.066 C 
ATOM      2  C8  ZIN A   1      18.879  -0.979  12.605  0.00  0.00    -0.037 A 
ATOM      3  C9  ZIN A   1      19.603  -1.511  13.674  0.00  0.00     0.048 A 
ATOM      4  C10 ZIN A   1      19.133  -1.282  14.956  0.00  0.00     0.105 A 
ATOM      5  C11 ZIN A   1      17.966  -0.534  15.171  0.00  0.00     0.105 A 
ATOM      6  C12 ZIN A   1      17.252  -0.011  14.106  0.00  0.00     0.050 A 
ATOM      7  C13 ZIN A   1      17.727  -0.253  12.816  0.00  0.00    -0.019 A 
ATOM      8  C14 ZIN A   1      16.891   0.312  11.680  0.00  0.00     0.165 C 
ATOM      9  C40 ZIN A   1      17.265  -0.432  10.411  0.00  0.00     0.058 C 
ATOM     10  C42 ZIN A   1      16.818   0.240   9.103  0.00  0.00     0.187 C 
ATOM     11  O43 ZIN A   1      17.851  -0.182   8.146  0.00  0.00    -0.321 OA
ATOM     12  C44 ZIN A   1      18.998  -0.506   8.788  0.00  0.00     0.264 C 
ATOM     13  O45 ZIN A   1      20.002  -0.933   8.271  0.00  0.00    -0.265 OA
ATOM     14  C46 ZIN A   1      18.811  -0.257  10.261  0.00  0.00     0.107 C 
ATOM     15  O48 ZIN A   1      17.736  -0.458  16.502  0.00  0.00    -0.323 OA
ATOM     16  C49 ZIN A   1      18.547  -1.495  17.092  0.00  0.00     0.352 C 
ATOM     17  O50 ZIN A   1      19.627  -1.674  16.153  0.00  0.00    -0.323 OA
ENDROOT
BRANCH   8  18
ATOM     18  O16 ZIN A   1      17.166   1.704  11.524  0.00  0.00    -0.348 OA
BRANCH  18  19
ATOM     19  C17 ZIN A   1      18.165   2.204  12.416  0.00  0.00     0.292 C 
ATOM     20  C37 ZIN A   1      18.912   3.359  11.747  0.00  0.00     0.204 C 
ATOM     21  C34 ZIN A   1      19.924   3.953  12.730  0.00  0.00     0.183 C 
ATOM     22  C32 ZIN A   1      19.177   4.387  13.992  0.00  0.00     0.187 C 
ATOM     23  C20 ZIN A   1      18.464   3.164  14.581  0.00  0.00     0.180 C 
ATOM     24  O31 ZIN A   1      20.078   4.904  14.971  0.00  0.00    -0.346 OA
ATOM     25  O19 ZIN A   1      17.540   2.660  13.620  0.00  0.00    -0.348 OA
ATOM     26  C22 ZIN A   1      17.752   3.593  15.864  0.00  0.00     0.206 C 
ATOM     27  O23 ZIN A   1      18.720   4.182  16.742  0.00  0.00    -0.354 OA
ATOM     28  C24 ZIN A   1      19.422   5.295  16.182  0.00  0.00     0.301 C 
BRANCH  20  29
ATOM     29  O39 ZIN A   1      19.600   2.868  10.595  0.00  0.00    -0.388 OA
ATOM     30  H69 ZIN A   1      20.563   2.917  10.662  0.00  0.00     0.210 HD
ENDBRANCH  20  29
BRANCH  21  31
ATOM     31  O36 ZIN A   1      20.564   5.085  12.137  0.00  0.00    -0.390 OA
ATOM     32  H68 ZIN A   1      20.221   5.936  12.443  0.00  0.00     0.210 HD
ENDBRANCH  21  31
BRANCH  28  33
ATOM     33  C26 ZIN A   1      18.445   6.403  15.884  0.00  0.00     0.037 A 
ATOM     34  S30 ZIN A   1      17.011   6.772  16.832  0.00  0.00    -0.102 SA
ATOM     35  C29 ZIN A   1      16.604   8.101  15.754  0.00  0.00     0.050 A 
ATOM     36  C28 ZIN A   1      17.517   8.187  14.785  0.00  0.00     0.008 A 
ATOM     37  C27 ZIN A   1      18.534   7.250  14.857  0.00  0.00     0.020 A 
ENDBRANCH  28  33
ENDBRANCH  18  19
ENDBRANCH   8  18
BRANCH   1  38
ATOM     38  C5  ZIN A   1      19.098  -2.652  10.796  0.00  0.00    -0.043 A 
ATOM     39  C4  ZIN A   1      20.064  -3.449  10.207  0.00  0.00     0.047 A 
ATOM     40  C3  ZIN A   1      19.753  -4.742   9.815  0.00  0.00     0.104 A 
ATOM     41  C55 ZIN A   1      18.469  -5.236  10.009  0.00  0.00     0.132 A 
ATOM     42  C52 ZIN A   1      17.503  -4.435  10.606  0.00  0.00     0.104 A 
ATOM     43  C51 ZIN A   1      17.821  -3.142  10.995  0.00  0.00     0.047 A 
BRANCH  40  44
ATOM     44  O2  ZIN A   1      20.704  -5.524   9.237  0.00  0.00    -0.353 OA
ATOM     45  C1  ZIN A   1      20.874  -5.402   7.824  0.00  0.00     0.210 C 
ENDBRANCH  40  44
BRANCH  41  46
ATOM     46  O56 ZIN A   1      18.161  -6.506   9.627  0.00  0.00    -0.356 OA
ATOM     47  H78 ZIN A   1      18.743  -7.181  10.002  0.00  0.00     0.218 HD
ENDBRANCH  41  46
BRANCH  42  48
ATOM     48  O53 ZIN A   1      16.246  -4.916  10.804  0.00  0.00    -0.353 OA
ATOM     49  C54 ZIN A   1      15.542  -5.385   9.652  0.00  0.00     0.210 C 
ENDBRANCH  42  48
ENDBRANCH   1  38
TORSDOF 9
ENDMDL
