MODEL 1
REMARK VINA RESULT:      -6.0      0.000      0.000
REMARK  9 active torsions:
REMARK  status: ('A' for Active; 'I' for Inactive)
REMARK    1  A    between atoms: C2_2  and  C3_3 
REMARK    2  A    between atoms: C3_3  and  C4_4 
REMARK    3  A    between atoms: C4_4  and  C5_5 
REMARK    4  A    between atoms: C5_5  and  C7_6 
REMARK    5  A    between atoms: C5_5  and  C9_8 
REMARK    6  A    between atoms: C9_8  and  O10_9 
REMARK    7  A    between atoms: O10_9  and  C11_10 
REMARK    8  A    between atoms: C11_10  and  C13_12 
REMARK    9  A    between atoms: C16_15  and  N17_16 
ROOT
ATOM      1  C11 ZIN A   1      18.056   2.586  10.763  0.00  0.00     0.293 C 
ATOM      2  O12 ZIN A   1      16.966   3.060  11.010  0.00  0.00    -0.259 OA
ENDROOT
BRANCH   1   3
ATOM      3  O10 ZIN A   1      19.097   2.826  11.586  0.00  0.00    -0.317 OA
BRANCH   3   4
ATOM      4  C9  ZIN A   1      19.097   2.139  12.865  0.00  0.00     0.183 C 
BRANCH   4   5
ATOM      5  C5  ZIN A   1      19.402   0.656  12.648  0.00  0.00     0.010 C 
BRANCH   5   6
ATOM      6  C4  ZIN A   1      19.296  -0.087  13.981  0.00  0.00     0.007 C 
BRANCH   6   7
ATOM      7  C3  ZIN A   1      18.498  -1.378  13.785  0.00  0.00     0.000 C 
BRANCH   7   8
ATOM      8  C2  ZIN A   1      17.542  -1.212  12.602  0.00  0.00    -0.005 C 
ATOM      9  C1  ZIN A   1      17.631  -2.443  11.698  0.00  0.00     0.005 C 
ENDBRANCH   7   8
ENDBRANCH   6   7
ENDBRANCH   5   6
BRANCH   5  10
ATOM     10  C7  ZIN A   1      20.818   0.503  12.091  0.00  0.00     0.002 C 
ATOM     11  C8  ZIN A   1      20.801  -0.480  10.918  0.00  0.00     0.005 C 
ENDBRANCH   5  10
ENDBRANCH   4   5
ENDBRANCH   3   4
ENDBRANCH   1   3
BRANCH   1  12
ATOM     12  C13 ZIN A   1      18.243   1.748   9.565  0.00  0.00     0.039 A 
ATOM     13  C21 ZIN A   1      17.498   0.575   9.409  0.00  0.00     0.020 A 
ATOM     14  C20 ZIN A   1      17.669  -0.200   8.290  0.00  0.00     0.030 A 
ATOM     15  C16 ZIN A   1      18.590   0.175   7.316  0.00  0.00     0.029 A 
ATOM     16  C15 ZIN A   1      19.338   1.340   7.472  0.00  0.00     0.030 A 
ATOM     17  C14 ZIN A   1      19.167   2.121   8.585  0.00  0.00     0.020 A 
BRANCH  15  18
ATOM     18  N17 ZIN A   1      18.765  -0.615   6.186  0.00  0.00    -0.390 N 
ATOM     19  C18 ZIN A   1      18.881  -2.070   6.319  0.00  0.00     0.149 C 
ATOM     20  C19 ZIN A   1      18.834   0.006   4.861  0.00  0.00     0.149 C 
ENDBRANCH  15  18
ENDBRANCH   1  12
TORSDOF 9
ENDMDL
MODEL 2
REMARK VINA RESULT:      -6.0      1.041      2.043
REMARK  9 active torsions:
REMARK  status: ('A' for Active; 'I' for Inactive)
REMARK    1  A    between atoms: C2_2  and  C3_3 
REMARK    2  A    between atoms: C3_3  and  C4_4 
REMARK    3  A    between atoms: C4_4  and  C5_5 
REMARK    4  A    between atoms: C5_5  and  C7_6 
REMARK    5  A    between atoms: C5_5  and  C9_8 
REMARK    6  A    between atoms: C9_8  and  O10_9 
REMARK    7  A    between atoms: O10_9  and  C11_10 
REMARK    8  A    between atoms: C11_10  and  C13_12 
REMARK    9  A    between atoms: C16_15  and  N17_16 
ROOT
ATOM      1  C11 ZIN A   1      17.882   2.534  10.965  0.00  0.00     0.293 C 
ATOM      2  O12 ZIN A   1      16.948   3.310  11.010  0.00  0.00    -0.259 OA
ENDROOT
BRANCH   1   3
ATOM      3  O10 ZIN A   1      18.711   2.416  12.021  0.00  0.00    -0.317 OA
BRANCH   3   4
ATOM      4  C9  ZIN A   1      18.318   1.490  13.068  0.00  0.00     0.183 C 
BRANCH   4   5
ATOM      5  C5  ZIN A   1      19.194   0.238  12.996  0.00  0.00     0.010 C 
BRANCH   5   6
ATOM      6  C4  ZIN A   1      19.526  -0.233  14.414  0.00  0.00     0.007 C 
BRANCH   6   7
ATOM      7  C3  ZIN A   1      18.582  -1.372  14.807  0.00  0.00     0.000 C 
BRANCH   7   8
ATOM      8  C2  ZIN A   1      18.475  -1.443  16.331  0.00  0.00    -0.005 C 
ATOM      9  C1  ZIN A   1      17.160  -0.802  16.780  0.00  0.00     0.005 C 
ENDBRANCH   7   8
ENDBRANCH   6   7
ENDBRANCH   5   6
BRANCH   5  10
ATOM     10  C7  ZIN A   1      20.490   0.565  12.252  0.00  0.00     0.002 C 
ATOM     11  C8  ZIN A   1      20.694  -0.442  11.118  0.00  0.00     0.005 C 
ENDBRANCH   5  10
ENDBRANCH   4   5
ENDBRANCH   3   4
ENDBRANCH   1   3
BRANCH   1  12
ATOM     12  C13 ZIN A   1      18.107   1.722   9.757  0.00  0.00     0.039 A 
ATOM     13  C21 ZIN A   1      19.015   2.151   8.783  0.00  0.00     0.020 A 
ATOM     14  C20 ZIN A   1      19.227   1.390   7.662  0.00  0.00     0.030 A 
ATOM     15  C16 ZIN A   1      18.534   0.196   7.489  0.00  0.00     0.029 A 
ATOM     16  C15 ZIN A   1      17.625  -0.232   8.453  0.00  0.00     0.030 A 
ATOM     17  C14 ZIN A   1      17.412   0.522   9.578  0.00  0.00     0.020 A 
BRANCH  15  18
ATOM     18  N17 ZIN A   1      18.748  -0.571   6.349  0.00  0.00    -0.390 N 
ATOM     19  C18 ZIN A   1      18.526   0.010   5.022  0.00  0.00     0.149 C 
ATOM     20  C19 ZIN A   1      19.194  -1.961   6.474  0.00  0.00     0.149 C 
ENDBRANCH  15  18
ENDBRANCH   1  12
TORSDOF 9
ENDMDL
MODEL 3
REMARK VINA RESULT:      -5.9      1.152      2.321
REMARK  9 active torsions:
REMARK  status: ('A' for Active; 'I' for Inactive)
REMARK    1  A    between atoms: C2_2  and  C3_3 
REMARK    2  A    between atoms: C3_3  and  C4_4 
REMARK    3  A    between atoms: C4_4  and  C5_5 
REMARK    4  A    between atoms: C5_5  and  C7_6 
REMARK    5  A    between atoms: C5_5  and  C9_8 
REMARK    6  A    between atoms: C9_8  and  O10_9 
REMARK    7  A    between atoms: O10_9  and  C11_10 
REMARK    8  A    between atoms: C11_10  and  C13_12 
REMARK    9  A    between atoms: C16_15  and  N17_16 
ROOT
ATOM      1  C11 ZIN A   1      17.782   2.230  11.078  0.00  0.00     0.293 C 
ATOM      2  O12 ZIN A   1      16.979   3.141  11.062  0.00  0.00    -0.259 OA
ENDROOT
BRANCH   1   3
ATOM      3  O10 ZIN A   1      18.371   1.871  12.236  0.00  0.00    -0.317 OA
BRANCH   3   4
ATOM      4  C9  ZIN A   1      17.612   1.007  13.122  0.00  0.00     0.183 C 
BRANCH   4   5
ATOM      5  C5  ZIN A   1      18.573   0.117  13.913  0.00  0.00     0.010 C 
BRANCH   5   6
ATOM      6  C4  ZIN A   1      18.995  -1.071  13.046  0.00  0.00     0.007 C 
BRANCH   6   7
ATOM      7  C3  ZIN A   1      17.763  -1.665  12.359  0.00  0.00     0.000 C 
BRANCH   7   8
ATOM      8  C2  ZIN A   1      18.144  -2.980  11.677  0.00  0.00    -0.005 C 
ATOM      9  C1  ZIN A   1      19.639  -3.243  11.874  0.00  0.00     0.005 C 
ENDBRANCH   7   8
ENDBRANCH   6   7
ENDBRANCH   5   6
BRANCH   5  10
ATOM     10  C7  ZIN A   1      17.873  -0.395  15.173  0.00  0.00     0.002 C 
ATOM     11  C8  ZIN A   1      18.806  -1.348  15.922  0.00  0.00     0.005 C 
ENDBRANCH   5  10
ENDBRANCH   4   5
ENDBRANCH   3   4
ENDBRANCH   1   3
BRANCH   1  12
ATOM     12  C13 ZIN A   1      18.111   1.516   9.832  0.00  0.00     0.039 A 
ATOM     13  C21 ZIN A   1      19.090   2.023   8.971  0.00  0.00     0.020 A 
ATOM     14  C20 ZIN A   1      19.399   1.353   7.815  0.00  0.00     0.030 A 
ATOM     15  C16 ZIN A   1      18.732   0.174   7.493  0.00  0.00     0.029 A 
ATOM     16  C15 ZIN A   1      17.753  -0.331   8.345  0.00  0.00     0.030 A 
ATOM     17  C14 ZIN A   1      17.443   0.332   9.505  0.00  0.00     0.020 A 
BRANCH  15  18
ATOM     18  N17 ZIN A   1      19.044  -0.500   6.318  0.00  0.00    -0.390 N 
ATOM     19  C18 ZIN A   1      19.212   0.245   5.068  0.00  0.00     0.149 C 
ATOM     20  C19 ZIN A   1      19.204  -1.956   6.329  0.00  0.00     0.149 C 
ENDBRANCH  15  18
ENDBRANCH   1  12
TORSDOF 9
ENDMDL
MODEL 4
REMARK VINA RESULT:      -5.8      3.303      7.005
REMARK  9 active torsions:
REMARK  status: ('A' for Active; 'I' for Inactive)
REMARK    1  A    between atoms: C2_2  and  C3_3 
REMARK    2  A    between atoms: C3_3  and  C4_4 
REMARK    3  A    between atoms: C4_4  and  C5_5 
REMARK    4  A    between atoms: C5_5  and  C7_6 
REMARK    5  A    between atoms: C5_5  and  C9_8 
REMARK    6  A    between atoms: C9_8  and  O10_9 
REMARK    7  A    between atoms: O10_9  and  C11_10 
REMARK    8  A    between atoms: C11_10  and  C13_12 
REMARK    9  A    between atoms: C16_15  and  N17_16 
ROOT
ATOM      1  C11 ZIN A   1      17.751  -1.316  11.853  0.00  0.00     0.293 C 
ATOM      2  O12 ZIN A   1      17.048  -2.299  11.727  0.00  0.00    -0.259 OA
ENDROOT
BRANCH   1   3
ATOM      3  O10 ZIN A   1      18.248  -0.700  10.762  0.00  0.00    -0.317 OA
BRANCH   3   4
ATOM      4  C9  ZIN A   1      17.303   0.003   9.914  0.00  0.00     0.183 C 
BRANCH   4   5
ATOM      5  C5  ZIN A   1      17.955   1.276   9.369  0.00  0.00     0.010 C 
BRANCH   5   6
ATOM      6  C4  ZIN A   1      19.175   0.901   8.525  0.00  0.00     0.007 C 
BRANCH   6   7
ATOM      7  C3  ZIN A   1      19.034   1.507   7.127  0.00  0.00     0.000 C 
BRANCH   7   8
ATOM      8  C2  ZIN A   1      18.879   0.386   6.098  0.00  0.00    -0.005 C 
ATOM      9  C1  ZIN A   1      17.411  -0.038   6.022  0.00  0.00     0.005 C 
ENDBRANCH   7   8
ENDBRANCH   6   7
ENDBRANCH   5   6
BRANCH   5  10
ATOM     10  C7  ZIN A   1      18.396   2.162  10.535  0.00  0.00     0.002 C 
ATOM     11  C8  ZIN A   1      18.189   3.632  10.164  0.00  0.00     0.005 C 
ENDBRANCH   5  10
ENDBRANCH   4   5
ENDBRANCH   3   4
ENDBRANCH   1   3
BRANCH   1  12
ATOM     12  C13 ZIN A   1      18.058  -0.798  13.197  0.00  0.00     0.039 A 
ATOM     13  C21 ZIN A   1      18.861  -1.541  14.068  0.00  0.00     0.020 A 
ATOM     14  C20 ZIN A   1      19.151  -1.053  15.317  0.00  0.00     0.030 A 
ATOM     15  C16 ZIN A   1      18.639   0.176  15.721  0.00  0.00     0.029 A 
ATOM     16  C15 ZIN A   1      17.834   0.917  14.858  0.00  0.00     0.030 A 
ATOM     17  C14 ZIN A   1      17.545   0.436  13.607  0.00  0.00     0.020 A 
BRANCH  15  18
ATOM     18  N17 ZIN A   1      18.930   0.666  16.989  0.00  0.00    -0.390 N 
ATOM     19  C18 ZIN A   1      18.912   2.109  17.240  0.00  0.00     0.149 C 
ATOM     20  C19 ZIN A   1      19.256  -0.261  18.075  0.00  0.00     0.149 C 
ENDBRANCH  15  18
ENDBRANCH   1  12
TORSDOF 9
ENDMDL
MODEL 5
REMARK VINA RESULT:      -5.7      3.160      6.973
REMARK  9 active torsions:
REMARK  status: ('A' for Active; 'I' for Inactive)
REMARK    1  A    between atoms: C2_2  and  C3_3 
REMARK    2  A    between atoms: C3_3  and  C4_4 
REMARK    3  A    between atoms: C4_4  and  C5_5 
REMARK    4  A    between atoms: C5_5  and  C7_6 
REMARK    5  A    between atoms: C5_5  and  C9_8 
REMARK    6  A    between atoms: C9_8  and  O10_9 
REMARK    7  A    between atoms: O10_9  and  C11_10 
REMARK    8  A    between atoms: C11_10  and  C13_12 
REMARK    9  A    between atoms: C16_15  and  N17_16 
ROOT
ATOM      1  C11 ZIN A   1      17.511  -1.344  11.534  0.00  0.00     0.293 C 
ATOM      2  O12 ZIN A   1      17.377  -2.539  11.362  0.00  0.00    -0.259 OA
ENDROOT
BRANCH   1   3
ATOM      3  O10 ZIN A   1      17.318  -0.491  10.509  0.00  0.00    -0.317 OA
BRANCH   3   4
ATOM      4  C9  ZIN A   1      18.492  -0.095   9.751  0.00  0.00     0.183 C 
BRANCH   4   5
ATOM      5  C5  ZIN A   1      18.299   1.326   9.218  0.00  0.00     0.010 C 
BRANCH   5   6
ATOM      6  C4  ZIN A   1      19.029   1.472   7.882  0.00  0.00     0.007 C 
BRANCH   6   7
ATOM      7  C3  ZIN A   1      18.410   0.521   6.855  0.00  0.00     0.000 C 
BRANCH   7   8
ATOM      8  C2  ZIN A   1      19.217   0.575   5.557  0.00  0.00    -0.005 C 
ATOM      9  C1  ZIN A   1      18.561  -0.328   4.511  0.00  0.00     0.005 C 
ENDBRANCH   7   8
ENDBRANCH   6   7
ENDBRANCH   5   6
BRANCH   5  10
ATOM     10  C7  ZIN A   1      18.870   2.328  10.223  0.00  0.00     0.002 C 
ATOM     11  C8  ZIN A   1      17.743   3.218  10.752  0.00  0.00     0.005 C 
ENDBRANCH   5  10
ENDBRANCH   4   5
ENDBRANCH   3   4
ENDBRANCH   1   3
BRANCH   1  12
ATOM     12  C13 ZIN A   1      17.882  -0.828  12.863  0.00  0.00     0.039 A 
ATOM     13  C21 ZIN A   1      17.409   0.419  13.287  0.00  0.00     0.020 A 
ATOM     14  C20 ZIN A   1      17.751   0.894  14.527  0.00  0.00     0.030 A 
ATOM     15  C16 ZIN A   1      18.575   0.143  15.359  0.00  0.00     0.029 A 
ATOM     16  C15 ZIN A   1      19.053  -1.096  14.938  0.00  0.00     0.030 A 
ATOM     17  C14 ZIN A   1      18.710  -1.579  13.702  0.00  0.00     0.020 A 
BRANCH  15  18
ATOM     18  N17 ZIN A   1      18.924   0.631  16.614  0.00  0.00    -0.390 N 
ATOM     19  C18 ZIN A   1      19.113   2.070  16.814  0.00  0.00     0.149 C 
ATOM     20  C19 ZIN A   1      19.105  -0.294  17.735  0.00  0.00     0.149 C 
ENDBRANCH  15  18
ENDBRANCH   1  12
TORSDOF 9
ENDMDL
MODEL 6
REMARK VINA RESULT:      -5.7      3.117      6.365
REMARK  9 active torsions:
REMARK  status: ('A' for Active; 'I' for Inactive)
REMARK    1  A    between atoms: C2_2  and  C3_3 
REMARK    2  A    between atoms: C3_3  and  C4_4 
REMARK    3  A    between atoms: C4_4  and  C5_5 
REMARK    4  A    between atoms: C5_5  and  C7_6 
REMARK    5  A    between atoms: C5_5  and  C9_8 
REMARK    6  A    between atoms: C9_8  and  O10_9 
REMARK    7  A    between atoms: O10_9  and  C11_10 
REMARK    8  A    between atoms: C11_10  and  C13_12 
REMARK    9  A    between atoms: C16_15  and  N17_16 
ROOT
ATOM      1  C11 ZIN A   1      18.001  -2.603  10.276  0.00  0.00     0.293 C 
ATOM      2  O12 ZIN A   1      17.275  -3.574  10.192  0.00  0.00    -0.259 OA
ENDROOT
BRANCH   1   3
ATOM      3  O10 ZIN A   1      18.753  -2.231   9.221  0.00  0.00    -0.317 OA
BRANCH   3   4
ATOM      4  C9  ZIN A   1      18.131  -1.354   8.245  0.00  0.00     0.183 C 
BRANCH   4   5
ATOM      5  C5  ZIN A   1      19.134  -0.283   7.811  0.00  0.00     0.010 C 
BRANCH   5   6
ATOM      6  C4  ZIN A   1      19.533   0.562   9.022  0.00  0.00     0.007 C 
BRANCH   6   7
ATOM      7  C3  ZIN A   1      19.021   1.993   8.836  0.00  0.00     0.000 C 
BRANCH   7   8
ATOM      8  C2  ZIN A   1      19.050   2.723  10.179  0.00  0.00    -0.005 C 
ATOM      9  C1  ZIN A   1      17.626   3.126  10.572  0.00  0.00     0.005 C 
ENDBRANCH   7   8
ENDBRANCH   6   7
ENDBRANCH   5   6
BRANCH   5  10
ATOM     10  C7  ZIN A   1      18.493   0.614   6.751  0.00  0.00     0.002 C 
ATOM     11  C8  ZIN A   1      17.187  -0.020   6.268  0.00  0.00     0.005 C 
ENDBRANCH   5  10
ENDBRANCH   4   5
ENDBRANCH   3   4
ENDBRANCH   1   3
BRANCH   1  12
ATOM     12  C13 ZIN A   1      18.059  -1.833  11.530  0.00  0.00     0.039 A 
ATOM     13  C21 ZIN A   1      18.911  -2.238  12.563  0.00  0.00     0.020 A 
ATOM     14  C20 ZIN A   1      18.967  -1.515  13.727  0.00  0.00     0.030 A 
ATOM     15  C16 ZIN A   1      18.170  -0.385  13.885  0.00  0.00     0.029 A 
ATOM     16  C15 ZIN A   1      17.316   0.018  12.862  0.00  0.00     0.030 A 
ATOM     17  C14 ZIN A   1      17.259  -0.697  11.694  0.00  0.00     0.020 A 
BRANCH  15  18
ATOM     18  N17 ZIN A   1      18.226   0.343  15.069  0.00  0.00    -0.390 N 
ATOM     19  C18 ZIN A   1      17.390  -0.045  16.208  0.00  0.00     0.149 C 
ATOM     20  C19 ZIN A   1      19.120   1.498  15.177  0.00  0.00     0.149 C 
ENDBRANCH  15  18
ENDBRANCH   1  12
TORSDOF 9
ENDMDL
MODEL 7
REMARK VINA RESULT:      -5.7      3.325      6.811
REMARK  9 active torsions:
REMARK  status: ('A' for Active; 'I' for Inactive)
REMARK    1  A    between atoms: C2_2  and  C3_3 
REMARK    2  A    between atoms: C3_3  and  C4_4 
REMARK    3  A    between atoms: C4_4  and  C5_5 
REMARK    4  A    between atoms: C5_5  and  C7_6 
REMARK    5  A    between atoms: C5_5  and  C9_8 
REMARK    6  A    between atoms: C9_8  and  O10_9 
REMARK    7  A    between atoms: O10_9  and  C11_10 
REMARK    8  A    between atoms: C11_10  and  C13_12 
REMARK    9  A    between atoms: C16_15  and  N17_16 
ROOT
ATOM      1  C11 ZIN A   1      17.753  -1.185  11.829  0.00  0.00     0.293 C 
ATOM      2  O12 ZIN A   1      16.901  -2.039  11.688  0.00  0.00    -0.259 OA
ENDROOT
BRANCH   1   3
ATOM      3  O10 ZIN A   1      18.398  -0.693  10.753  0.00  0.00    -0.317 OA
BRANCH   3   4
ATOM      4  C9  ZIN A   1      17.858   0.515  10.155  0.00  0.00     0.183 C 
BRANCH   4   5
ATOM      5  C5  ZIN A   1      19.005   1.462   9.794  0.00  0.00     0.010 C 
BRANCH   5   6
ATOM      6  C4  ZIN A   1      18.454   2.875   9.591  0.00  0.00     0.007 C 
BRANCH   6   7
ATOM      7  C3  ZIN A   1      18.255   3.545  10.953  0.00  0.00     0.000 C 
BRANCH   7   8
ATOM      8  C2  ZIN A   1      19.564   3.494  11.742  0.00  0.00    -0.005 C 
ATOM      9  C1  ZIN A   1      19.621   4.677  12.713  0.00  0.00     0.005 C 
ENDBRANCH   7   8
ENDBRANCH   6   7
ENDBRANCH   5   6
BRANCH   5  10
ATOM     10  C7  ZIN A   1      19.672   0.984   8.503  0.00  0.00     0.002 C 
ATOM     11  C8  ZIN A   1      18.913   1.548   7.300  0.00  0.00     0.005 C 
ENDBRANCH   5  10
ENDBRANCH   4   5
ENDBRANCH   3   4
ENDBRANCH   1   3
BRANCH   1  12
ATOM     12  C13 ZIN A   1      18.081  -0.685  13.176  0.00  0.00     0.039 A 
ATOM     13  C21 ZIN A   1      18.898  -1.440  14.024  0.00  0.00     0.020 A 
ATOM     14  C20 ZIN A   1      19.207  -0.970  15.274  0.00  0.00     0.030 A 
ATOM     15  C16 ZIN A   1      18.699   0.253  15.704  0.00  0.00     0.029 A 
ATOM     16  C15 ZIN A   1      17.881   1.005  14.865  0.00  0.00     0.030 A 
ATOM     17  C14 ZIN A   1      17.573   0.542  13.612  0.00  0.00     0.020 A 
BRANCH  15  18
ATOM     18  N17 ZIN A   1      19.010   0.724  16.975  0.00  0.00    -0.390 N 
ATOM     19  C18 ZIN A   1      19.226  -0.220  18.074  0.00  0.00     0.149 C 
ATOM     20  C19 ZIN A   1      19.120   2.165  17.215  0.00  0.00     0.149 C 
ENDBRANCH  15  18
ENDBRANCH   1  12
TORSDOF 9
ENDMDL
MODEL 8
REMARK VINA RESULT:      -5.7      1.385      2.618
REMARK  9 active torsions:
REMARK  status: ('A' for Active; 'I' for Inactive)
REMARK    1  A    between atoms: C2_2  and  C3_3 
REMARK    2  A    between atoms: C3_3  and  C4_4 
REMARK    3  A    between atoms: C4_4  and  C5_5 
REMARK    4  A    between atoms: C5_5  and  C7_6 
REMARK    5  A    between atoms: C5_5  and  C9_8 
REMARK    6  A    between atoms: C9_8  and  O10_9 
REMARK    7  A    between atoms: O10_9  and  C11_10 
REMARK    8  A    between atoms: C11_10  and  C13_12 
REMARK    9  A    between atoms: C16_15  and  N17_16 
ROOT
ATOM      1  C11 ZIN A   1      17.878   2.552  11.005  0.00  0.00     0.293 C 
ATOM      2  O12 ZIN A   1      16.878   3.240  11.055  0.00  0.00    -0.259 OA
ENDROOT
BRANCH   1   3
ATOM      3  O10 ZIN A   1      18.727   2.522  12.052  0.00  0.00    -0.317 OA
BRANCH   3   4
ATOM      4  C9  ZIN A   1      19.248   1.224  12.442  0.00  0.00     0.183 C 
BRANCH   4   5
ATOM      5  C5  ZIN A   1      19.123   1.059  13.958  0.00  0.00     0.010 C 
BRANCH   5   6
ATOM      6  C4  ZIN A   1      18.286  -0.183  14.268  0.00  0.00     0.007 C 
BRANCH   6   7
ATOM      7  C3  ZIN A   1      19.129  -1.180  15.067  0.00  0.00     0.000 C 
BRANCH   7   8
ATOM      8  C2  ZIN A   1      18.433  -1.489  16.393  0.00  0.00    -0.005 C 
ATOM      9  C1  ZIN A   1      19.038  -0.622  17.500  0.00  0.00     0.005 C 
ENDBRANCH   7   8
ENDBRANCH   6   7
ENDBRANCH   5   6
BRANCH   5  10
ATOM     10  C7  ZIN A   1      18.442   2.294  14.550  0.00  0.00     0.002 C 
ATOM     11  C8  ZIN A   1      19.135   2.680  15.859  0.00  0.00     0.005 C 
ENDBRANCH   5  10
ENDBRANCH   4   5
ENDBRANCH   3   4
ENDBRANCH   1   3
BRANCH   1  12
ATOM     12  C13 ZIN A   1      18.162   1.749   9.803  0.00  0.00     0.039 A 
ATOM     13  C21 ZIN A   1      19.088   2.204   8.860  0.00  0.00     0.020 A 
ATOM     14  C20 ZIN A   1      19.355   1.451   7.744  0.00  0.00     0.030 A 
ATOM     15  C16 ZIN A   1      18.698   0.241   7.546  0.00  0.00     0.029 A 
ATOM     16  C15 ZIN A   1      17.770  -0.213   8.481  0.00  0.00     0.030 A 
ATOM     17  C14 ZIN A   1      17.503   0.532   9.600  0.00  0.00     0.020 A 
BRANCH  15  18
ATOM     18  N17 ZIN A   1      18.967  -0.517   6.412  0.00  0.00    -0.390 N 
ATOM     19  C18 ZIN A   1      19.106  -1.972   6.518  0.00  0.00     0.149 C 
ATOM     20  C19 ZIN A   1      19.113   0.139   5.111  0.00  0.00     0.149 C 
ENDBRANCH  15  18
ENDBRANCH   1  12
TORSDOF 9
ENDMDL
MODEL 9
REMARK VINA RESULT:      -5.6      2.308      4.860
REMARK  9 active torsions:
REMARK  status: ('A' for Active; 'I' for Inactive)
REMARK    1  A    between atoms: C2_2  and  C3_3 
REMARK    2  A    between atoms: C3_3  and  C4_4 
REMARK    3  A    between atoms: C4_4  and  C5_5 
REMARK    4  A    between atoms: C5_5  and  C7_6 
REMARK    5  A    between atoms: C5_5  and  C9_8 
REMARK    6  A    between atoms: C9_8  and  O10_9 
REMARK    7  A    between atoms: O10_9  and  C11_10 
REMARK    8  A    between atoms: C11_10  and  C13_12 
REMARK    9  A    between atoms: C16_15  and  N17_16 
ROOT
ATOM      1  C11 ZIN A   1      17.969   1.186  14.305  0.00  0.00     0.293 C 
ATOM      2  O12 ZIN A   1      18.084   1.097  15.511  0.00  0.00    -0.259 OA
ENDROOT
BRANCH   1   3
ATOM      3  O10 ZIN A   1      17.685   2.377  13.742  0.00  0.00    -0.317 OA
BRANCH   3   4
ATOM      4  C9  ZIN A   1      18.741   3.012  12.975  0.00  0.00     0.183 C 
BRANCH   4   5
ATOM      5  C5  ZIN A   1      18.326   3.090  11.504  0.00  0.00     0.010 C 
BRANCH   5   6
ATOM      6  C4  ZIN A   1      19.391   2.412  10.639  0.00  0.00     0.007 C 
BRANCH   6   7
ATOM      7  C3  ZIN A   1      18.876   2.285   9.203  0.00  0.00     0.000 C 
BRANCH   7   8
ATOM      8  C2  ZIN A   1      18.476   0.834   8.932  0.00  0.00    -0.005 C 
ATOM      9  C1  ZIN A   1      19.700  -0.071   9.093  0.00  0.00     0.005 C 
ENDBRANCH   7   8
ENDBRANCH   6   7
ENDBRANCH   5   6
BRANCH   5  10
ATOM     10  C7  ZIN A   1      18.190   4.556  11.090  0.00  0.00     0.002 C 
ATOM     11  C8  ZIN A   1      16.708   4.920  10.983  0.00  0.00     0.005 C 
ENDBRANCH   5  10
ENDBRANCH   4   5
ENDBRANCH   3   4
ENDBRANCH   1   3
BRANCH   1  12
ATOM     12  C13 ZIN A   1      18.141  -0.007  13.458  0.00  0.00     0.039 A 
ATOM     13  C21 ZIN A   1      19.248  -0.842  13.640  0.00  0.00     0.020 A 
ATOM     14  C20 ZIN A   1      19.402  -1.955  12.854  0.00  0.00     0.030 A 
ATOM     15  C16 ZIN A   1      18.464  -2.249  11.869  0.00  0.00     0.029 A 
ATOM     16  C15 ZIN A   1      17.363  -1.416  11.681  0.00  0.00     0.030 A 
ATOM     17  C14 ZIN A   1      17.201  -0.305  12.467  0.00  0.00     0.020 A 
BRANCH  15  18
ATOM     18  N17 ZIN A   1      18.626  -3.375  11.070  0.00  0.00    -0.390 N 
ATOM     19  C18 ZIN A   1      17.736  -3.598   9.927  0.00  0.00     0.149 C 
ATOM     20  C19 ZIN A   1      19.686  -4.340  11.371  0.00  0.00     0.149 C 
ENDBRANCH  15  18
ENDBRANCH   1  12
TORSDOF 9
ENDMDL
