MODEL 1
REMARK VINA RESULT:      -8.9      0.000      0.000
REMARK  6 active torsions:
REMARK  status: ('A' for Active; 'I' for Inactive)
REMARK    1  A    between atoms: C5_5  and  C6_6 
REMARK    2  A    between atoms: C6_6  and  C15_15 
REMARK    3  A    between atoms: C7_7  and  C8_8 
REMARK    4  A    between atoms: C8_8  and  N9_9 
REMARK    5  A    between atoms: C19_19  and  C20_20 
REMARK    6  A    between atoms: C21_21  and  C22_22 
ROOT
ATOM      1  C6  ZIN A   1      17.837  -0.886  12.783  0.00  0.00     0.001 C 
ATOM      2  C7  ZIN A   1      17.171   0.023  12.062  0.00  0.00     0.015 C 
ENDROOT
BRANCH   1   3
ATOM      3  C5  ZIN A   1      18.183  -0.601  14.198  0.00  0.00    -0.024 A 
ATOM      4  C4  ZIN A   1      18.316  -1.647  15.108  0.00  0.00     0.013 A 
ATOM      5  C3  ZIN A   1      18.636  -1.377  16.424  0.00  0.00     0.007 A 
ATOM      6  C2  ZIN A   1      18.827  -0.071  16.837  0.00  0.00    -0.062 A 
ATOM      7  C1  ZIN A   1      19.177   0.217  18.274  0.00  0.00     0.048 C 
ATOM      8  C27 ZIN A   1      18.691   0.971  15.938  0.00  0.00     0.007 A 
ATOM      9  C26 ZIN A   1      18.375   0.713  14.620  0.00  0.00     0.013 A 
ENDBRANCH   1   3
BRANCH   1  10
ATOM     10  C15 ZIN A   1      18.232  -2.176  12.170  0.00  0.00     0.068 A 
ATOM     11  N25 ZIN A   1      17.304  -2.963  11.646  0.00  0.00    -0.248 NA
ATOM     12  C19 ZIN A   1      17.618  -4.124  11.081  0.00  0.00     0.057 A 
ATOM     13  C18 ZIN A   1      18.945  -4.557  11.034  0.00  0.00     0.031 A 
ATOM     14  C17 ZIN A   1      19.938  -3.758  11.579  0.00  0.00     0.005 A 
ATOM     15  C16 ZIN A   1      19.577  -2.551  12.154  0.00  0.00     0.032 A 
BRANCH  12  16
ATOM     16  C20 ZIN A   1      16.554  -4.965  10.507  0.00  0.00     0.038 C 
ATOM     17  C21 ZIN A   1      16.511  -5.185   9.176  0.00  0.00     0.086 C 
BRANCH  17  18
ATOM     18  C22 ZIN A   1      15.456  -6.021   8.607  0.00  0.00     0.198 C 
ATOM     19  O23 ZIN A   1      14.304  -5.606   8.559  0.00  0.00    -0.645 OA
ATOM     20  O24 ZIN A   1      15.723  -7.137   8.178  0.00  0.00    -0.645 OA
ENDBRANCH  17  18
ENDBRANCH  12  16
ENDBRANCH   1  10
BRANCH   2  21
ATOM     21  C8  ZIN A   1      16.950  -0.200  10.587  0.00  0.00     0.263 C 
BRANCH  21  22
ATOM     22  N9  ZIN A   1      17.266   1.032   9.853  0.00  0.00    -0.068 N 
ATOM     23  H10 ZIN A   1      16.454   1.356   9.349  0.00  0.00     0.280 HD
ATOM     24  C14 ZIN A   1      18.386   0.795   8.916  0.00  0.00     0.235 C 
ATOM     25  C13 ZIN A   1      19.228   2.084   8.883  0.00  0.00     0.029 C 
ATOM     26  C12 ZIN A   1      18.535   3.045   9.876  0.00  0.00     0.029 C 
ATOM     27  C11 ZIN A   1      17.738   2.082  10.791  0.00  0.00     0.235 C 
ENDBRANCH  21  22
ENDBRANCH   2  21
TORSDOF 6
ENDMDL
MODEL 2
REMARK VINA RESULT:      -8.8      4.525      8.550
REMARK  6 active torsions:
REMARK  status: ('A' for Active; 'I' for Inactive)
REMARK    1  A    between atoms: C5_5  and  C6_6 
REMARK    2  A    between atoms: C6_6  and  C15_15 
REMARK    3  A    between atoms: C7_7  and  C8_8 
REMARK    4  A    between atoms: C8_8  and  N9_9 
REMARK    5  A    between atoms: C19_19  and  C20_20 
REMARK    6  A    between atoms: C21_21  and  C22_22 
ROOT
ATOM      1  C6  ZIN A   1      17.628   0.941  10.145  0.00  0.00     0.001 C 
ATOM      2  C7  ZIN A   1      16.925   0.021  10.815  0.00  0.00     0.015 C 
ENDROOT
BRANCH   1   3
ATOM      3  C5  ZIN A   1      17.925   0.745   8.705  0.00  0.00    -0.024 A 
ATOM      4  C4  ZIN A   1      18.868   1.550   8.071  0.00  0.00     0.013 A 
ATOM      5  C3  ZIN A   1      19.140   1.365   6.730  0.00  0.00     0.007 A 
ATOM      6  C2  ZIN A   1      18.479   0.380   6.017  0.00  0.00    -0.062 A 
ATOM      7  C1  ZIN A   1      18.781   0.182   4.555  0.00  0.00     0.048 C 
ATOM      8  C27 ZIN A   1      17.538  -0.419   6.642  0.00  0.00     0.007 A 
ATOM      9  C26 ZIN A   1      17.262  -0.245   7.983  0.00  0.00     0.013 A 
ENDBRANCH   1   3
BRANCH   1  10
ATOM     10  C15 ZIN A   1      18.113   2.157  10.842  0.00  0.00     0.068 A 
ATOM     11  N25 ZIN A   1      17.239   3.027  11.323  0.00  0.00    -0.248 NA
ATOM     12  C19 ZIN A   1      17.633   4.125  11.960  0.00  0.00     0.057 A 
ATOM     13  C18 ZIN A   1      18.992   4.400  12.131  0.00  0.00     0.031 A 
ATOM     14  C17 ZIN A   1      19.930   3.510  11.633  0.00  0.00     0.005 A 
ATOM     15  C16 ZIN A   1      19.486   2.373  10.981  0.00  0.00     0.032 A 
BRANCH  12  16
ATOM     16  C20 ZIN A   1      16.626   5.065  12.484  0.00  0.00     0.038 C 
ATOM     17  C21 ZIN A   1      16.482   5.228  13.815  0.00  0.00     0.086 C 
BRANCH  17  18
ATOM     18  C22 ZIN A   1      15.484   6.161  14.333  0.00  0.00     0.198 C 
ATOM     19  O23 ZIN A   1      14.311   5.819  14.419  0.00  0.00    -0.645 OA
ATOM     20  O24 ZIN A   1      15.821   7.286  14.683  0.00  0.00    -0.645 OA
ENDBRANCH  17  18
ENDBRANCH  12  16
ENDBRANCH   1  10
BRANCH   2  21
ATOM     21  C8  ZIN A   1      16.750   0.144  12.307  0.00  0.00     0.263 C 
BRANCH  21  22
ATOM     22  N9  ZIN A   1      17.458  -0.956  12.976  0.00  0.00    -0.068 N 
ATOM     23  H10 ZIN A   1      16.797  -1.577  13.420  0.00  0.00     0.280 HD
ATOM     24  C14 ZIN A   1      18.407  -0.420  13.975  0.00  0.00     0.235 C 
ATOM     25  C13 ZIN A   1      19.642  -1.341  13.963  0.00  0.00     0.029 C 
ATOM     26  C12 ZIN A   1      19.344  -2.404  12.881  0.00  0.00     0.029 C 
ATOM     27  C11 ZIN A   1      18.283  -1.707  11.994  0.00  0.00     0.235 C 
ENDBRANCH  21  22
ENDBRANCH   2  21
TORSDOF 6
ENDMDL
MODEL 3
REMARK VINA RESULT:      -8.6      3.636      7.226
REMARK  6 active torsions:
REMARK  status: ('A' for Active; 'I' for Inactive)
REMARK    1  A    between atoms: C5_5  and  C6_6 
REMARK    2  A    between atoms: C6_6  and  C15_15 
REMARK    3  A    between atoms: C7_7  and  C8_8 
REMARK    4  A    between atoms: C8_8  and  N9_9 
REMARK    5  A    between atoms: C19_19  and  C20_20 
REMARK    6  A    between atoms: C21_21  and  C22_22 
ROOT
ATOM      1  C6  ZIN A   1      18.959  -1.797  11.825  0.00  0.00     0.001 C 
ATOM      2  C7  ZIN A   1      19.270  -1.699  13.123  0.00  0.00     0.015 C 
ENDROOT
BRANCH   1   3
ATOM      3  C5  ZIN A   1      18.544  -3.104  11.258  0.00  0.00    -0.024 A 
ATOM      4  C4  ZIN A   1      19.495  -3.957  10.700  0.00  0.00     0.013 A 
ATOM      5  C3  ZIN A   1      19.104  -5.172  10.173  0.00  0.00     0.007 A 
ATOM      6  C2  ZIN A   1      17.771  -5.543  10.200  0.00  0.00    -0.062 A 
ATOM      7  C1  ZIN A   1      17.351  -6.870   9.624  0.00  0.00     0.048 C 
ATOM      8  C27 ZIN A   1      16.824  -4.698  10.749  0.00  0.00     0.007 A 
ATOM      9  C26 ZIN A   1      17.204  -3.483  11.283  0.00  0.00     0.013 A 
ENDBRANCH   1   3
BRANCH   1  10
ATOM     10  C15 ZIN A   1      19.031  -0.601  10.952  0.00  0.00     0.068 A 
ATOM     11  N25 ZIN A   1      18.319   0.473  11.254  0.00  0.00    -0.248 NA
ATOM     12  C19 ZIN A   1      18.361   1.567  10.501  0.00  0.00     0.057 A 
ATOM     13  C18 ZIN A   1      19.156   1.611   9.353  0.00  0.00     0.031 A 
ATOM     14  C17 ZIN A   1      19.908   0.500   9.007  0.00  0.00     0.005 A 
ATOM     15  C16 ZIN A   1      19.846  -0.621   9.818  0.00  0.00     0.032 A 
BRANCH  12  16
ATOM     16  C20 ZIN A   1      17.555   2.742  10.877  0.00  0.00     0.038 C 
ATOM     17  C21 ZIN A   1      17.796   3.939  10.302  0.00  0.00     0.086 C 
BRANCH  17  18
ATOM     18  C22 ZIN A   1      16.996   5.103  10.675  0.00  0.00     0.198 C 
ATOM     19  O23 ZIN A   1      16.089   4.988  11.490  0.00  0.00    -0.645 OA
ATOM     20  O24 ZIN A   1      17.232   6.195  10.172  0.00  0.00    -0.645 OA
ENDBRANCH  17  18
ENDBRANCH  12  16
ENDBRANCH   1  10
BRANCH   2  21
ATOM     21  C8  ZIN A   1      19.835  -0.412  13.667  0.00  0.00     0.263 C 
BRANCH  21  22
ATOM     22  N9  ZIN A   1      19.254  -0.143  14.989  0.00  0.00    -0.068 N 
ATOM     23  H10 ZIN A   1      19.833   0.508  15.499  0.00  0.00     0.280 HD
ATOM     24  C14 ZIN A   1      19.111  -1.403  15.749  0.00  0.00     0.235 C 
ATOM     25  C13 ZIN A   1      17.819  -1.286  16.579  0.00  0.00     0.029 C 
ATOM     26  C12 ZIN A   1      17.231   0.098  16.219  0.00  0.00     0.029 C 
ATOM     27  C11 ZIN A   1      17.880   0.402  14.845  0.00  0.00     0.235 C 
ENDBRANCH  21  22
ENDBRANCH   2  21
TORSDOF 6
ENDMDL
MODEL 4
REMARK VINA RESULT:      -8.4      5.246      9.031
REMARK  6 active torsions:
REMARK  status: ('A' for Active; 'I' for Inactive)
REMARK    1  A    between atoms: C5_5  and  C6_6 
REMARK    2  A    between atoms: C6_6  and  C15_15 
REMARK    3  A    between atoms: C7_7  and  C8_8 
REMARK    4  A    between atoms: C8_8  and  N9_9 
REMARK    5  A    between atoms: C19_19  and  C20_20 
REMARK    6  A    between atoms: C21_21  and  C22_22 
ROOT
ATOM      1  C6  ZIN A   1      19.132   1.249  10.449  0.00  0.00     0.001 C 
ATOM      2  C7  ZIN A   1      19.768   0.402  11.267  0.00  0.00     0.015 C 
ENDROOT
BRANCH   1   3
ATOM      3  C5  ZIN A   1      18.886   0.872   9.036  0.00  0.00    -0.024 A 
ATOM      4  C4  ZIN A   1      18.246  -0.329   8.735  0.00  0.00     0.013 A 
ATOM      5  C3  ZIN A   1      18.020  -0.678   7.418  0.00  0.00     0.007 A 
ATOM      6  C2  ZIN A   1      18.428   0.164   6.399  0.00  0.00    -0.062 A 
ATOM      7  C1  ZIN A   1      18.178  -0.221   4.964  0.00  0.00     0.048 C 
ATOM      8  C27 ZIN A   1      19.067   1.355   6.692  0.00  0.00     0.007 A 
ATOM      9  C26 ZIN A   1      19.294   1.715   8.005  0.00  0.00     0.013 A 
ENDBRANCH   1   3
BRANCH   1  10
ATOM     10  C15 ZIN A   1      18.675   2.566  10.954  0.00  0.00     0.068 A 
ATOM     11  N25 ZIN A   1      19.416   3.224  11.832  0.00  0.00    -0.248 NA
ATOM     12  C19 ZIN A   1      19.045   4.409  12.303  0.00  0.00     0.057 A 
ATOM     13  C18 ZIN A   1      17.845   4.995  11.892  0.00  0.00     0.031 A 
ATOM     14  C17 ZIN A   1      17.045   4.328  10.978  0.00  0.00     0.005 A 
ATOM     15  C16 ZIN A   1      17.465   3.098  10.502  0.00  0.00     0.032 A 
BRANCH  12  16
ATOM     16  C20 ZIN A   1      19.903   5.108  13.275  0.00  0.00     0.038 C 
ATOM     17  C21 ZIN A   1      19.467   5.316  14.535  0.00  0.00     0.086 C 
BRANCH  17  18
ATOM     18  C22 ZIN A   1      20.319   6.009  15.499  0.00  0.00     0.198 C 
ATOM     19  O23 ZIN A   1      19.835   6.473  16.523  0.00  0.00    -0.645 OA
ATOM     20  O24 ZIN A   1      21.519   6.125  15.282  0.00  0.00    -0.645 OA
ENDBRANCH  17  18
ENDBRANCH  12  16
ENDBRANCH   1  10
BRANCH   2  21
ATOM     21  C8  ZIN A   1      20.151   0.842  12.657  0.00  0.00     0.263 C 
BRANCH  21  22
ATOM     22  N9  ZIN A   1      19.143   0.368  13.615  0.00  0.00    -0.068 N 
ATOM     23  H10 ZIN A   1      18.223   0.414  13.204  0.00  0.00     0.280 HD
ATOM     24  C14 ZIN A   1      19.192   1.180  14.850  0.00  0.00     0.235 C 
ATOM     25  C13 ZIN A   1      18.891   0.232  16.026  0.00  0.00     0.029 C 
ATOM     26  C12 ZIN A   1      18.700  -1.162  15.383  0.00  0.00     0.029 C 
ATOM     27  C11 ZIN A   1      19.447  -1.025  14.033  0.00  0.00     0.235 C 
ENDBRANCH  21  22
ENDBRANCH   2  21
TORSDOF 6
ENDMDL
MODEL 5
REMARK VINA RESULT:      -8.3      3.898      7.046
REMARK  6 active torsions:
REMARK  status: ('A' for Active; 'I' for Inactive)
REMARK    1  A    between atoms: C5_5  and  C6_6 
REMARK    2  A    between atoms: C6_6  and  C15_15 
REMARK    3  A    between atoms: C7_7  and  C8_8 
REMARK    4  A    between atoms: C8_8  and  N9_9 
REMARK    5  A    between atoms: C19_19  and  C20_20 
REMARK    6  A    between atoms: C21_21  and  C22_22 
ROOT
ATOM      1  C6  ZIN A   1      18.920   1.287  10.157  0.00  0.00     0.001 C 
ATOM      2  C7  ZIN A   1      19.126   2.568  10.481  0.00  0.00     0.015 C 
ENDROOT
BRANCH   1   3
ATOM      3  C5  ZIN A   1      18.586   0.920   8.759  0.00  0.00    -0.024 A 
ATOM      4  C4  ZIN A   1      19.345   1.424   7.705  0.00  0.00     0.013 A 
ATOM      5  C3  ZIN A   1      19.029   1.081   6.405  0.00  0.00     0.007 A 
ATOM      6  C2  ZIN A   1      17.963   0.238   6.149  0.00  0.00    -0.062 A 
ATOM      7  C1  ZIN A   1      17.624  -0.133   4.729  0.00  0.00     0.048 C 
ATOM      8  C27 ZIN A   1      17.204  -0.261   7.193  0.00  0.00     0.007 A 
ATOM      9  C26 ZIN A   1      17.513   0.071   8.496  0.00  0.00     0.013 A 
ENDBRANCH   1   3
BRANCH   1  10
ATOM     10  C15 ZIN A   1      19.023   0.233  11.195  0.00  0.00     0.068 A 
ATOM     11  N25 ZIN A   1      18.405   0.393  12.354  0.00  0.00    -0.248 NA
ATOM     12  C19 ZIN A   1      18.467  -0.531  13.307  0.00  0.00     0.057 A 
ATOM     13  C18 ZIN A   1      19.204  -1.703  13.115  0.00  0.00     0.031 A 
ATOM     14  C17 ZIN A   1      19.866  -1.897  11.914  0.00  0.00     0.005 A 
ATOM     15  C16 ZIN A   1      19.775  -0.917  10.940  0.00  0.00     0.032 A 
BRANCH  12  16
ATOM     16  C20 ZIN A   1      17.760  -0.313  14.581  0.00  0.00     0.038 C 
ATOM     17  C21 ZIN A   1      18.383  -0.562  15.751  0.00  0.00     0.086 C 
BRANCH  17  18
ATOM     18  C22 ZIN A   1      17.681  -0.345  17.014  0.00  0.00     0.198 C 
ATOM     19  O23 ZIN A   1      16.464  -0.205  17.023  0.00  0.00    -0.645 OA
ATOM     20  O24 ZIN A   1      18.309  -0.304  18.065  0.00  0.00    -0.645 OA
ENDBRANCH  17  18
ENDBRANCH  12  16
ENDBRANCH   1  10
BRANCH   2  21
ATOM     21  C8  ZIN A   1      19.317   2.959  11.925  0.00  0.00     0.263 C 
BRANCH  21  22
ATOM     22  N9  ZIN A   1      18.068   3.530  12.447  0.00  0.00    -0.068 N 
ATOM     23  H10 ZIN A   1      17.539   2.823  12.936  0.00  0.00     0.280 HD
ATOM     24  C14 ZIN A   1      17.265   4.096  11.342  0.00  0.00     0.235 C 
ATOM     25  C13 ZIN A   1      16.564   5.353  11.890  0.00  0.00     0.029 C 
ATOM     26  C12 ZIN A   1      17.043   5.476  13.355  0.00  0.00     0.029 C 
ATOM     27  C11 ZIN A   1      18.364   4.667  13.356  0.00  0.00     0.235 C 
ENDBRANCH  21  22
ENDBRANCH   2  21
TORSDOF 6
ENDMDL
MODEL 6
REMARK VINA RESULT:      -8.2      3.620      6.102
REMARK  6 active torsions:
REMARK  status: ('A' for Active; 'I' for Inactive)
REMARK    1  A    between atoms: C5_5  and  C6_6 
REMARK    2  A    between atoms: C6_6  and  C15_15 
REMARK    3  A    between atoms: C7_7  and  C8_8 
REMARK    4  A    between atoms: C8_8  and  N9_9 
REMARK    5  A    between atoms: C19_19  and  C20_20 
REMARK    6  A    between atoms: C21_21  and  C22_22 
ROOT
ATOM      1  C6  ZIN A   1      18.259  -1.473  12.237  0.00  0.00     0.001 C 
ATOM      2  C7  ZIN A   1      17.787  -2.686  11.928  0.00  0.00     0.015 C 
ENDROOT
BRANCH   1   3
ATOM      3  C5  ZIN A   1      18.318  -1.040  13.655  0.00  0.00    -0.024 A 
ATOM      4  C4  ZIN A   1      19.169  -1.688  14.548  0.00  0.00     0.013 A 
ATOM      5  C3  ZIN A   1      19.220  -1.282  15.867  0.00  0.00     0.007 A 
ATOM      6  C2  ZIN A   1      18.428  -0.234  16.301  0.00  0.00    -0.062 A 
ATOM      7  C1  ZIN A   1      18.488   0.205  17.741  0.00  0.00     0.048 C 
ATOM      8  C27 ZIN A   1      17.578   0.409  15.419  0.00  0.00     0.007 A 
ATOM      9  C26 ZIN A   1      17.523   0.015  14.098  0.00  0.00     0.013 A 
ENDBRANCH   1   3
BRANCH   1  10
ATOM     10  C15 ZIN A   1      18.720  -0.560  11.164  0.00  0.00     0.068 A 
ATOM     11  N25 ZIN A   1      18.172   0.639  11.044  0.00  0.00    -0.248 NA
ATOM     12  C19 ZIN A   1      18.563   1.488  10.100  0.00  0.00     0.057 A 
ATOM     13  C18 ZIN A   1      19.564   1.133   9.192  0.00  0.00     0.031 A 
ATOM     14  C17 ZIN A   1      20.152  -0.118   9.289  0.00  0.00     0.005 A 
ATOM     15  C16 ZIN A   1      19.727  -0.976  10.289  0.00  0.00     0.032 A 
BRANCH  12  16
ATOM     16  C20 ZIN A   1      17.928   2.814  10.005  0.00  0.00     0.038 C 
ATOM     17  C21 ZIN A   1      17.591   3.484  11.128  0.00  0.00     0.086 C 
BRANCH  17  18
ATOM     18  C22 ZIN A   1      16.962   4.799  11.033  0.00  0.00     0.198 C 
ATOM     19  O23 ZIN A   1      17.165   5.506  10.054  0.00  0.00    -0.645 OA
ATOM     20  O24 ZIN A   1      16.231   5.194  11.933  0.00  0.00    -0.645 OA
ENDBRANCH  17  18
ENDBRANCH  12  16
ENDBRANCH   1  10
BRANCH   2  21
ATOM     21  C8  ZIN A   1      17.586  -3.071  10.484  0.00  0.00     0.263 C 
BRANCH  21  22
ATOM     22  N9  ZIN A   1      17.969  -4.477  10.294  0.00  0.00    -0.068 N 
ATOM     23  H10 ZIN A   1      17.600  -5.043  11.045  0.00  0.00     0.280 HD
ATOM     24  C14 ZIN A   1      19.441  -4.602  10.237  0.00  0.00     0.235 C 
ATOM     25  C13 ZIN A   1      19.760  -5.715   9.221  0.00  0.00     0.029 C 
ATOM     26  C12 ZIN A   1      18.386  -6.185   8.692  0.00  0.00     0.029 C 
ATOM     27  C11 ZIN A   1      17.468  -4.973   8.987  0.00  0.00     0.235 C 
ENDBRANCH  21  22
ENDBRANCH   2  21
TORSDOF 6
ENDMDL
MODEL 7
REMARK VINA RESULT:      -8.2      4.493      7.509
REMARK  6 active torsions:
REMARK  status: ('A' for Active; 'I' for Inactive)
REMARK    1  A    between atoms: C5_5  and  C6_6 
REMARK    2  A    between atoms: C6_6  and  C15_15 
REMARK    3  A    between atoms: C7_7  and  C8_8 
REMARK    4  A    between atoms: C8_8  and  N9_9 
REMARK    5  A    between atoms: C19_19  and  C20_20 
REMARK    6  A    between atoms: C21_21  and  C22_22 
ROOT
ATOM      1  C6  ZIN A   1      18.339   1.545  11.675  0.00  0.00     0.001 C 
ATOM      2  C7  ZIN A   1      18.142   2.795  12.112  0.00  0.00     0.015 C 
ENDROOT
BRANCH   1   3
ATOM      3  C5  ZIN A   1      18.314   1.256  10.220  0.00  0.00    -0.024 A 
ATOM      4  C4  ZIN A   1      17.417   0.320   9.710  0.00  0.00     0.013 A 
ATOM      5  C3  ZIN A   1      17.398   0.053   8.355  0.00  0.00     0.007 A 
ATOM      6  C2  ZIN A   1      18.266   0.714   7.505  0.00  0.00    -0.062 A 
ATOM      7  C1  ZIN A   1      18.240   0.419   6.028  0.00  0.00     0.048 C 
ATOM      8  C27 ZIN A   1      19.161   1.641   8.008  0.00  0.00     0.007 A 
ATOM      9  C26 ZIN A   1      19.186   1.919   9.359  0.00  0.00     0.013 A 
ENDBRANCH   1   3
BRANCH   1  10
ATOM     10  C15 ZIN A   1      18.581   0.450  12.643  0.00  0.00     0.068 A 
ATOM     11  N25 ZIN A   1      18.411   0.671  13.938  0.00  0.00    -0.248 NA
ATOM     12  C19 ZIN A   1      18.611  -0.287  14.837  0.00  0.00     0.057 A 
ATOM     13  C18 ZIN A   1      19.021  -1.562  14.440  0.00  0.00     0.031 A 
ATOM     14  C17 ZIN A   1      19.213  -1.822  13.092  0.00  0.00     0.005 A 
ATOM     15  C16 ZIN A   1      18.989  -0.804  12.181  0.00  0.00     0.032 A 
BRANCH  12  16
ATOM     16  C20 ZIN A   1      18.406   0.002  16.267  0.00  0.00     0.038 C 
ATOM     17  C21 ZIN A   1      19.188   0.907  16.893  0.00  0.00     0.086 C 
BRANCH  17  18
ATOM     18  C22 ZIN A   1      18.983   1.193  18.311  0.00  0.00     0.198 C 
ATOM     19  O23 ZIN A   1      19.663   2.045  18.869  0.00  0.00    -0.645 OA
ATOM     20  O24 ZIN A   1      18.130   0.581  18.941  0.00  0.00    -0.645 OA
ENDBRANCH  17  18
ENDBRANCH  12  16
ENDBRANCH   1  10
BRANCH   2  21
ATOM     21  C8  ZIN A   1      18.019   3.065  13.590  0.00  0.00     0.263 C 
BRANCH  21  22
ATOM     22  N9  ZIN A   1      19.214   3.780  14.058  0.00  0.00    -0.068 N 
ATOM     23  H10 ZIN A   1      20.030   3.194  13.963  0.00  0.00     0.280 HD
ATOM     24  C14 ZIN A   1      19.042   4.192  15.468  0.00  0.00     0.235 C 
ATOM     25  C13 ZIN A   1      19.735   5.558  15.627  0.00  0.00     0.029 C 
ATOM     26  C12 ZIN A   1      20.279   5.901  14.221  0.00  0.00     0.029 C 
ATOM     27  C11 ZIN A   1      19.395   5.037  13.287  0.00  0.00     0.235 C 
ENDBRANCH  21  22
ENDBRANCH   2  21
TORSDOF 6
ENDMDL
MODEL 8
REMARK VINA RESULT:      -8.1      4.161      6.968
REMARK  6 active torsions:
REMARK  status: ('A' for Active; 'I' for Inactive)
REMARK    1  A    between atoms: C5_5  and  C6_6 
REMARK    2  A    between atoms: C6_6  and  C15_15 
REMARK    3  A    between atoms: C7_7  and  C8_8 
REMARK    4  A    between atoms: C8_8  and  N9_9 
REMARK    5  A    between atoms: C19_19  and  C20_20 
REMARK    6  A    between atoms: C21_21  and  C22_22 
ROOT
ATOM      1  C6  ZIN A   1      19.526  -1.102  12.406  0.00  0.00     0.001 C 
ATOM      2  C7  ZIN A   1      20.242  -0.347  11.566  0.00  0.00     0.015 C 
ENDROOT
BRANCH   1   3
ATOM      3  C5  ZIN A   1      18.974  -2.401  11.949  0.00  0.00    -0.024 A 
ATOM      4  C4  ZIN A   1      17.606  -2.536  11.721  0.00  0.00     0.013 A 
ATOM      5  C3  ZIN A   1      17.096  -3.747  11.297  0.00  0.00     0.007 A 
ATOM      6  C2  ZIN A   1      17.941  -4.825  11.098  0.00  0.00    -0.062 A 
ATOM      7  C1  ZIN A   1      17.379  -6.143  10.634  0.00  0.00     0.048 C 
ATOM      8  C27 ZIN A   1      19.299  -4.696  11.328  0.00  0.00     0.007 A 
ATOM      9  C26 ZIN A   1      19.820  -3.489  11.748  0.00  0.00     0.013 A 
ENDBRANCH   1   3
BRANCH   1  10
ATOM     10  C15 ZIN A   1      19.282  -0.641  13.794  0.00  0.00     0.068 A 
ATOM     11  N25 ZIN A   1      19.160   0.654  14.042  0.00  0.00    -0.248 NA
ATOM     12  C19 ZIN A   1      18.934   1.106  15.270  0.00  0.00     0.057 A 
ATOM     13  C18 ZIN A   1      18.831   0.222  16.347  0.00  0.00     0.031 A 
ATOM     14  C17 ZIN A   1      18.960  -1.139  16.120  0.00  0.00     0.005 A 
ATOM     15  C16 ZIN A   1      19.187  -1.577  14.827  0.00  0.00     0.032 A 
BRANCH  12  16
ATOM     16  C20 ZIN A   1      18.801   2.555  15.499  0.00  0.00     0.038 C 
ATOM     17  C21 ZIN A   1      17.987   3.292  14.714  0.00  0.00     0.086 C 
BRANCH  17  18
ATOM     18  C22 ZIN A   1      17.854   4.729  14.943  0.00  0.00     0.198 C 
ATOM     19  O23 ZIN A   1      18.146   5.520  14.055  0.00  0.00    -0.645 OA
ATOM     20  O24 ZIN A   1      17.451   5.142  16.023  0.00  0.00    -0.645 OA
ENDBRANCH  17  18
ENDBRANCH  12  16
ENDBRANCH   1  10
BRANCH   2  21
ATOM     21  C8  ZIN A   1      20.676   1.037  11.979  0.00  0.00     0.263 C 
BRANCH  21  22
ATOM     22  N9  ZIN A   1      20.178   2.017  11.005  0.00  0.00    -0.068 N 
ATOM     23  H10 ZIN A   1      20.866   2.171  10.282  0.00  0.00     0.280 HD
ATOM     24  C14 ZIN A   1      19.855   3.291  11.683  0.00  0.00     0.235 C 
ATOM     25  C13 ZIN A   1      18.618   3.877  10.976  0.00  0.00     0.029 C 
ATOM     26  C12 ZIN A   1      18.250   2.846   9.884  0.00  0.00     0.029 C 
ATOM     27  C11 ZIN A   1      18.905   1.543  10.405  0.00  0.00     0.235 C 
ENDBRANCH  21  22
ENDBRANCH   2  21
TORSDOF 6
ENDMDL
MODEL 9
REMARK VINA RESULT:      -8.1      4.735      8.201
REMARK  6 active torsions:
REMARK  status: ('A' for Active; 'I' for Inactive)
REMARK    1  A    between atoms: C5_5  and  C6_6 
REMARK    2  A    between atoms: C6_6  and  C15_15 
REMARK    3  A    between atoms: C7_7  and  C8_8 
REMARK    4  A    between atoms: C8_8  and  N9_9 
REMARK    5  A    between atoms: C19_19  and  C20_20 
REMARK    6  A    between atoms: C21_21  and  C22_22 
ROOT
ATOM      1  C6  ZIN A   1      18.188   0.007  12.899  0.00  0.00     0.001 C 
ATOM      2  C7  ZIN A   1      17.862   0.035  14.197  0.00  0.00     0.015 C 
ENDROOT
BRANCH   1   3
ATOM      3  C5  ZIN A   1      18.442  -1.291  12.226  0.00  0.00    -0.024 A 
ATOM      4  C4  ZIN A   1      17.379  -2.029  11.710  0.00  0.00     0.013 A 
ATOM      5  C3  ZIN A   1      17.620  -3.237  11.085  0.00  0.00     0.007 A 
ATOM      6  C2  ZIN A   1      18.914  -3.712  10.971  0.00  0.00    -0.062 A 
ATOM      7  C1  ZIN A   1      19.171  -5.030  10.287  0.00  0.00     0.048 C 
ATOM      8  C27 ZIN A   1      19.972  -2.985  11.486  0.00  0.00     0.007 A 
ATOM      9  C26 ZIN A   1      19.743  -1.775  12.108  0.00  0.00     0.013 A 
ENDBRANCH   1   3
BRANCH   1  10
ATOM     10  C15 ZIN A   1      18.297   1.272  12.134  0.00  0.00     0.068 A 
ATOM     11  N25 ZIN A   1      18.866   2.328  12.694  0.00  0.00    -0.248 NA
ATOM     12  C19 ZIN A   1      18.989   3.478  12.039  0.00  0.00     0.057 A 
ATOM     13  C18 ZIN A   1      18.506   3.610  10.735  0.00  0.00     0.031 A 
ATOM     14  C17 ZIN A   1      17.901   2.523  10.124  0.00  0.00     0.005 A 
ATOM     15  C16 ZIN A   1      17.795   1.338  10.832  0.00  0.00     0.032 A 
BRANCH  12  16
ATOM     16  C20 ZIN A   1      19.633   4.627  12.699  0.00  0.00     0.038 C 
ATOM     17  C21 ZIN A   1      19.294   4.957  13.963  0.00  0.00     0.086 C 
BRANCH  17  18
ATOM     18  C22 ZIN A   1      19.934   6.097  14.617  0.00  0.00     0.198 C 
ATOM     19  O23 ZIN A   1      21.118   6.042  14.924  0.00  0.00    -0.645 OA
ATOM     20  O24 ZIN A   1      19.285   7.107  14.858  0.00  0.00    -0.645 OA
ENDBRANCH  17  18
ENDBRANCH  12  16
ENDBRANCH   1  10
BRANCH   2  21
ATOM     21  C8  ZIN A   1      17.751   1.354  14.918  0.00  0.00     0.263 C 
BRANCH  21  22
ATOM     22  N9  ZIN A   1      17.719   1.118  16.368  0.00  0.00    -0.068 N 
ATOM     23  H10 ZIN A   1      16.779   1.229  16.718  0.00  0.00     0.280 HD
ATOM     24  C14 ZIN A   1      18.634   2.053  17.057  0.00  0.00     0.235 C 
ATOM     25  C13 ZIN A   1      19.252   1.288  18.242  0.00  0.00     0.029 C 
ATOM     26  C12 ZIN A   1      18.654  -0.136  18.161  0.00  0.00     0.029 C 
ATOM     27  C11 ZIN A   1      18.222  -0.245  16.677  0.00  0.00     0.235 C 
ENDBRANCH  21  22
ENDBRANCH   2  21
TORSDOF 6
ENDMDL
