MODEL 1
REMARK VINA RESULT:      -4.2      0.000      0.000
REMARK  5 active torsions:
REMARK  status: ('A' for Active; 'I' for Inactive)
REMARK    1  A    between atoms: C2_2  and  C3_3 
REMARK    2  A    between atoms: C3_3  and  N5_4 
REMARK    3  A    between atoms: C3_3  and  C9_8 
REMARK    4  A    between atoms: C9_8  and  C10_9 
REMARK    5  A    between atoms: C10_9  and  C11_10 
ROOT
ATOM      1  C3  <0> d   1      19.461   1.286   8.216  0.00  0.00     0.206 C 
ENDROOT
BRANCH   1   2
ATOM      2  C2  <0> d   1      18.851   2.351   9.092  0.00  0.00    -0.005 C 
ATOM      3  C1  <0> d   1      18.057   2.012  10.077  0.00  0.00     0.009 C 
ENDBRANCH   1   2
BRANCH   1   4
ATOM      4  N5  <0> d   1      20.076   0.253   9.058  0.00  0.00    -0.072 N 
ATOM      5  H6  <0> d   1      19.991  -0.645   8.605  0.00  0.00     0.275 HD
ATOM      6  H7  <0> d   1      21.053   0.468   9.195  0.00  0.00     0.275 HD
ATOM      7  H8  <0> d   1      19.609   0.225   9.951  0.00  0.00     0.275 HD
ENDBRANCH   1   4
BRANCH   1   8
ATOM      8  C9  <0> d   1      18.371   0.655   7.347  0.00  0.00     0.047 C 
BRANCH   8   9
ATOM      9  C10 <0> d   1      18.855   0.576   5.898  0.00  0.00     0.115 C 
BRANCH   9  10
ATOM     10  C11 <0> d   1      19.375  -0.809   5.616  0.00  0.00     0.172 C 
ATOM     11  O12 <0> d   1      19.859  -1.070   4.528  0.00  0.00    -0.648 OA
ATOM     12  O13 <0> d   1      19.311  -1.671   6.477  0.00  0.00    -0.648 OA
ENDBRANCH   9  10
ENDBRANCH   8   9
ENDBRANCH   1   8
TORSDOF 5
ENDMDL
MODEL 2
REMARK VINA RESULT:      -4.1      1.603      1.906
REMARK  5 active torsions:
REMARK  status: ('A' for Active; 'I' for Inactive)
REMARK    1  A    between atoms: C2_2  and  C3_3 
REMARK    2  A    between atoms: C3_3  and  N5_4 
REMARK    3  A    between atoms: C3_3  and  C9_8 
REMARK    4  A    between atoms: C9_8  and  C10_9 
REMARK    5  A    between atoms: C10_9  and  C11_10 
ROOT
ATOM      1  C3  <0> d   1      18.420  -0.049   7.520  0.00  0.00     0.206 C 
ENDROOT
BRANCH   1   2
ATOM      2  C2  <0> d   1      18.451   0.928   8.668  0.00  0.00    -0.005 C 
ATOM      3  C1  <0> d   1      19.163   2.023   8.575  0.00  0.00     0.009 C 
ENDBRANCH   1   2
BRANCH   1   4
ATOM      4  N5  <0> d   1      17.356  -1.036   7.746  0.00  0.00    -0.072 N 
ATOM      5  H6  <0> d   1      16.458  -0.581   7.684  0.00  0.00     0.275 HD
ATOM      6  H7  <0> d   1      17.415  -1.761   7.046  0.00  0.00     0.275 HD
ATOM      7  H8  <0> d   1      17.464  -1.444   8.662  0.00  0.00     0.275 HD
ENDBRANCH   1   4
BRANCH   1   8
ATOM      8  C9  <0> d   1      18.150   0.703   6.216  0.00  0.00     0.047 C 
BRANCH   8   9
ATOM      9  C10 <0> d   1      19.228   0.350   5.190  0.00  0.00     0.115 C 
BRANCH   9  10
ATOM     10  C11 <0> d   1      18.881  -0.957   4.526  0.00  0.00     0.172 C 
ATOM     11  O12 <0> d   1      17.743  -1.160   4.138  0.00  0.00    -0.648 OA
ATOM     12  O13 <0> d   1      19.738  -1.812   4.377  0.00  0.00    -0.648 OA
ENDBRANCH   9  10
ENDBRANCH   8   9
ENDBRANCH   1   8
TORSDOF 5
ENDMDL
MODEL 3
REMARK VINA RESULT:      -4.1      4.665      5.492
REMARK  5 active torsions:
REMARK  status: ('A' for Active; 'I' for Inactive)
REMARK    1  A    between atoms: C2_2  and  C3_3 
REMARK    2  A    between atoms: C3_3  and  N5_4 
REMARK    3  A    between atoms: C3_3  and  C9_8 
REMARK    4  A    between atoms: C9_8  and  C10_9 
REMARK    5  A    between atoms: C10_9  and  C11_10 
ROOT
ATOM      1  C3  <0> d   1      20.128   0.514  12.438  0.00  0.00     0.206 C 
ENDROOT
BRANCH   1   2
ATOM      2  C2  <0> d   1      19.922   0.157  13.887  0.00  0.00    -0.005 C 
ATOM      3  C1  <0> d   1      19.527  -1.048  14.215  0.00  0.00     0.009 C 
ENDBRANCH   1   2
BRANCH   1   4
ATOM      4  N5  <0> d   1      21.565   0.607  12.156  0.00  0.00    -0.072 N 
ATOM      5  H6  <0> d   1      21.703   0.894  11.198  0.00  0.00     0.275 HD
ATOM      6  H7  <0> d   1      21.986   1.285  12.773  0.00  0.00     0.275 HD
ATOM      7  H8  <0> d   1      21.996  -0.294  12.302  0.00  0.00     0.275 HD
ENDBRANCH   1   4
BRANCH   1   8
ATOM      8  C9  <0> d   1      19.503  -0.566  11.553  0.00  0.00     0.047 C 
BRANCH   8   9
ATOM      9  C10 <0> d   1      18.289   0.011  10.822  0.00  0.00     0.115 C 
BRANCH   9  10
ATOM     10  C11 <0> d   1      17.027  -0.561  11.413  0.00  0.00     0.172 C 
ATOM     11  O12 <0> d   1      16.039   0.142  11.539  0.00  0.00    -0.648 OA
ATOM     12  O13 <0> d   1      16.995  -1.728  11.768  0.00  0.00    -0.648 OA
ENDBRANCH   9  10
ENDBRANCH   8   9
ENDBRANCH   1   8
TORSDOF 5
ENDMDL
MODEL 4
REMARK VINA RESULT:      -4.1      8.749     10.111
REMARK  5 active torsions:
REMARK  status: ('A' for Active; 'I' for Inactive)
REMARK    1  A    between atoms: C2_2  and  C3_3 
REMARK    2  A    between atoms: C3_3  and  N5_4 
REMARK    3  A    between atoms: C3_3  and  C9_8 
REMARK    4  A    between atoms: C9_8  and  C10_9 
REMARK    5  A    between atoms: C10_9  and  C11_10 
ROOT
ATOM      1  C3  <0> d   1      18.325  -0.027  15.344  0.00  0.00     0.206 C 
ENDROOT
BRANCH   1   2
ATOM      2  C2  <0> d   1      18.316  -0.930  14.138  0.00  0.00    -0.005 C 
ATOM      3  C1  <0> d   1      19.392  -1.605  13.817  0.00  0.00     0.009 C 
ENDBRANCH   1   2
BRANCH   1   4
ATOM      4  N5  <0> d   1      17.298   1.010  15.187  0.00  0.00    -0.072 N 
ATOM      5  H6  <0> d   1      17.724   1.921  15.270  0.00  0.00     0.275 HD
ATOM      6  H7  <0> d   1      16.868   0.923  14.278  0.00  0.00     0.275 HD
ATOM      7  H8  <0> d   1      16.596   0.900  15.903  0.00  0.00     0.275 HD
ENDBRANCH   1   4
BRANCH   1   8
ATOM      8  C9  <0> d   1      18.032  -0.850  16.600  0.00  0.00     0.047 C 
BRANCH   8   9
ATOM      9  C10 <0> d   1      19.165  -0.662  17.611  0.00  0.00     0.115 C 
BRANCH   9  10
ATOM     10  C11 <0> d   1      18.954   0.622  18.369  0.00  0.00     0.172 C 
ATOM     11  O12 <0> d   1      19.887   1.387  18.546  0.00  0.00    -0.648 OA
ATOM     12  O13 <0> d   1      17.849   0.896  18.808  0.00  0.00    -0.648 OA
ENDBRANCH   9  10
ENDBRANCH   8   9
ENDBRANCH   1   8
TORSDOF 5
ENDMDL
MODEL 5
REMARK VINA RESULT:      -4.1      3.978      5.078
REMARK  5 active torsions:
REMARK  status: ('A' for Active; 'I' for Inactive)
REMARK    1  A    between atoms: C2_2  and  C3_3 
REMARK    2  A    between atoms: C3_3  and  N5_4 
REMARK    3  A    between atoms: C3_3  and  C9_8 
REMARK    4  A    between atoms: C9_8  and  C10_9 
REMARK    5  A    between atoms: C10_9  and  C11_10 
ROOT
ATOM      1  C3  <0> d   1      18.843   0.863   8.957  0.00  0.00     0.206 C 
ENDROOT
BRANCH   1   2
ATOM      2  C2  <0> d   1      19.138   1.654   7.709  0.00  0.00    -0.005 C 
ATOM      3  C1  <0> d   1      18.897   1.133   6.531  0.00  0.00     0.009 C 
ENDBRANCH   1   2
BRANCH   1   4
ATOM      4  N5  <0> d   1      20.101   0.387   9.544  0.00  0.00    -0.072 N 
ATOM      5  H6  <0> d   1      19.979  -0.556   9.883  0.00  0.00     0.275 HD
ATOM      6  H7  <0> d   1      20.826   0.399   8.841  0.00  0.00     0.275 HD
ATOM      7  H8  <0> d   1      20.365   0.988  10.310  0.00  0.00     0.275 HD
ENDBRANCH   1   4
BRANCH   1   8
ATOM      8  C9  <0> d   1      18.115   1.755   9.965  0.00  0.00     0.047 C 
BRANCH   8   9
ATOM      9  C10 <0> d   1      18.597   3.199   9.812  0.00  0.00     0.115 C 
BRANCH   9  10
ATOM     10  C11 <0> d   1      17.554   4.138  10.359  0.00  0.00     0.172 C 
ATOM     11  O12 <0> d   1      17.446   5.263   9.903  0.00  0.00    -0.648 OA
ATOM     12  O13 <0> d   1      16.818   3.772  11.261  0.00  0.00    -0.648 OA
ENDBRANCH   9  10
ENDBRANCH   8   9
ENDBRANCH   1   8
TORSDOF 5
ENDMDL
MODEL 6
REMARK VINA RESULT:      -4.0      5.628      6.905
REMARK  5 active torsions:
REMARK  status: ('A' for Active; 'I' for Inactive)
REMARK    1  A    between atoms: C2_2  and  C3_3 
REMARK    2  A    between atoms: C3_3  and  N5_4 
REMARK    3  A    between atoms: C3_3  and  C9_8 
REMARK    4  A    between atoms: C9_8  and  C10_9 
REMARK    5  A    between atoms: C10_9  and  C11_10 
ROOT
ATOM      1  C3  <0> d   1      19.176  -0.638  14.741  0.00  0.00     0.206 C 
ENDROOT
BRANCH   1   2
ATOM      2  C2  <0> d   1      19.012  -1.330  16.070  0.00  0.00    -0.005 C 
ATOM      3  C1  <0> d   1      17.860  -1.289  16.692  0.00  0.00     0.009 C 
ENDBRANCH   1   2
BRANCH   1   4
ATOM      4  N5  <0> d   1      19.744  -1.577  13.766  0.00  0.00    -0.072 N 
ATOM      5  H6  <0> d   1      20.609  -1.205  13.405  0.00  0.00     0.275 HD
ATOM      6  H7  <0> d   1      19.921  -2.463  14.217  0.00  0.00     0.275 HD
ATOM      7  H8  <0> d   1      19.092  -1.710  13.008  0.00  0.00     0.275 HD
ENDBRANCH   1   4
BRANCH   1   8
ATOM      8  C9  <0> d   1      17.812  -0.153  14.247  0.00  0.00     0.047 C 
BRANCH   8   9
ATOM      9  C10 <0> d   1      17.929   0.308  12.793  0.00  0.00     0.115 C 
BRANCH   9  10
ATOM     10  C11 <0> d   1      16.935  -0.444  11.946  0.00  0.00     0.172 C 
ATOM     11  O12 <0> d   1      16.033   0.156  11.386  0.00  0.00    -0.648 OA
ATOM     12  O13 <0> d   1      17.033  -1.653  11.822  0.00  0.00    -0.648 OA
ENDBRANCH   9  10
ENDBRANCH   8   9
ENDBRANCH   1   8
TORSDOF 5
ENDMDL
MODEL 7
REMARK VINA RESULT:      -4.0      3.463      4.598
REMARK  5 active torsions:
REMARK  status: ('A' for Active; 'I' for Inactive)
REMARK    1  A    between atoms: C2_2  and  C3_3 
REMARK    2  A    between atoms: C3_3  and  N5_4 
REMARK    3  A    between atoms: C3_3  and  C9_8 
REMARK    4  A    between atoms: C9_8  and  C10_9 
REMARK    5  A    between atoms: C10_9  and  C11_10 
ROOT
ATOM      1  C3  <0> d   1      19.061   0.680   8.043  0.00  0.00     0.206 C 
ENDROOT
BRANCH   1   2
ATOM      2  C2  <0> d   1      18.966   1.220   6.640  0.00  0.00    -0.005 C 
ATOM      3  C1  <0> d   1      18.743   0.406   5.638  0.00  0.00     0.009 C 
ENDBRANCH   1   2
BRANCH   1   4
ATOM      4  N5  <0> d   1      19.639   1.703   8.924  0.00  0.00    -0.072 N 
ATOM      5  H6  <0> d   1      18.905   2.138   9.461  0.00  0.00     0.275 HD
ATOM      6  H7  <0> d   1      20.303   1.271   9.550  0.00  0.00     0.275 HD
ATOM      7  H8  <0> d   1      20.108   2.401   8.366  0.00  0.00     0.275 HD
ENDBRANCH   1   4
BRANCH   1   8
ATOM      8  C9  <0> d   1      17.663   0.308   8.542  0.00  0.00     0.047 C 
BRANCH   8   9
ATOM      9  C10 <0> d   1      17.768  -0.322   9.932  0.00  0.00     0.115 C 
BRANCH   9  10
ATOM     10  C11 <0> d   1      16.970   0.494  10.915  0.00  0.00     0.172 C 
ATOM     11  O12 <0> d   1      16.073  -0.028  11.555  0.00  0.00    -0.648 OA
ATOM     12  O13 <0> d   1      17.220   1.678  11.069  0.00  0.00    -0.648 OA
ENDBRANCH   9  10
ENDBRANCH   8   9
ENDBRANCH   1   8
TORSDOF 5
ENDMDL
MODEL 8
REMARK VINA RESULT:      -4.0      3.574      4.892
REMARK  5 active torsions:
REMARK  status: ('A' for Active; 'I' for Inactive)
REMARK    1  A    between atoms: C2_2  and  C3_3 
REMARK    2  A    between atoms: C3_3  and  N5_4 
REMARK    3  A    between atoms: C3_3  and  C9_8 
REMARK    4  A    between atoms: C9_8  and  C10_9 
REMARK    5  A    between atoms: C10_9  and  C11_10 
ROOT
ATOM      1  C3  <0> d   1      19.030   0.698   8.861  0.00  0.00     0.206 C 
ENDROOT
BRANCH   1   2
ATOM      2  C2  <0> d   1      18.913   0.268   7.421  0.00  0.00    -0.005 C 
ATOM      3  C1  <0> d   1      18.901   1.167   6.468  0.00  0.00     0.009 C 
ENDBRANCH   1   2
BRANCH   1   4
ATOM      4  N5  <0> d   1      20.306   0.224   9.411  0.00  0.00    -0.072 N 
ATOM      5  H6  <0> d   1      20.423  -0.754   9.193  0.00  0.00     0.275 HD
ATOM      6  H7  <0> d   1      21.065   0.752   9.004  0.00  0.00     0.275 HD
ATOM      7  H8  <0> d   1      20.308   0.349  10.412  0.00  0.00     0.275 HD
ENDBRANCH   1   4
BRANCH   1   8
ATOM      8  C9  <0> d   1      18.975   2.225   8.944  0.00  0.00     0.047 C 
BRANCH   8   9
ATOM      9  C10 <0> d   1      19.019   2.659  10.410  0.00  0.00     0.115 C 
BRANCH   9  10
ATOM     10  C11 <0> d   1      17.616   2.740  10.952  0.00  0.00     0.172 C 
ATOM     11  O12 <0> d   1      17.124   1.779  11.519  0.00  0.00    -0.648 OA
ATOM     12  O13 <0> d   1      16.971   3.768  10.823  0.00  0.00    -0.648 OA
ENDBRANCH   9  10
ENDBRANCH   8   9
ENDBRANCH   1   8
TORSDOF 5
ENDMDL
MODEL 9
REMARK VINA RESULT:      -3.8      4.499      5.142
REMARK  5 active torsions:
REMARK  status: ('A' for Active; 'I' for Inactive)
REMARK    1  A    between atoms: C2_2  and  C3_3 
REMARK    2  A    between atoms: C3_3  and  N5_4 
REMARK    3  A    between atoms: C3_3  and  C9_8 
REMARK    4  A    between atoms: C9_8  and  C10_9 
REMARK    5  A    between atoms: C10_9  and  C11_10 
ROOT
ATOM      1  C3  <0> d   1      19.352   1.948  11.075  0.00  0.00     0.206 C 
ENDROOT
BRANCH   1   2
ATOM      2  C2  <0> d   1      18.734   2.817  10.010  0.00  0.00    -0.005 C 
ATOM      3  C1  <0> d   1      17.869   3.743  10.343  0.00  0.00     0.009 C 
ENDBRANCH   1   2
BRANCH   1   4
ATOM      4  N5  <0> d   1      20.487   2.653  11.684  0.00  0.00    -0.072 N 
ATOM      5  H6  <0> d   1      20.256   3.628  11.797  0.00  0.00     0.275 HD
ATOM      6  H7  <0> d   1      20.690   2.248  12.586  0.00  0.00     0.275 HD
ATOM      7  H8  <0> d   1      21.296   2.566  11.087  0.00  0.00     0.275 HD
ENDBRANCH   1   4
BRANCH   1   8
ATOM      8  C9  <0> d   1      18.309   1.636  12.149  0.00  0.00     0.047 C 
BRANCH   8   9
ATOM      9  C10 <0> d   1      18.305   0.134  12.438  0.00  0.00     0.115 C 
BRANCH   9  10
ATOM     10  C11 <0> d   1      17.052  -0.483  11.874  0.00  0.00     0.172 C 
ATOM     11  O12 <0> d   1      16.967  -1.693  11.756  0.00  0.00    -0.648 OA
ATOM     12  O13 <0> d   1      16.122   0.230  11.534  0.00  0.00    -0.648 OA
ENDBRANCH   9  10
ENDBRANCH   8   9
ENDBRANCH   1   8
TORSDOF 5
ENDMDL
