MODEL 1
REMARK VINA RESULT:      -4.1      0.000      0.000
REMARK  5 active torsions:
REMARK  status: ('A' for Active; 'I' for Inactive)
REMARK    1  A    between atoms: N2_2  and  C5_5 
REMARK    2  A    between atoms: C5_5  and  C6_6 
REMARK    3  A    between atoms: C6_6  and  O8_7 
REMARK    4  A    between atoms: C6_6  and  C9_8 
REMARK    5  A    between atoms: C9_8  and  C10_9 
ROOT
ATOM      1  C6  <0> d   1      18.229  -0.042   7.096  0.00  0.00     0.154 C 
ENDROOT
BRANCH   1   2
ATOM      2  C5  <0> d   1      19.294  -0.245   8.176  0.00  0.00     0.268 C 
BRANCH   2   3
ATOM      3  N2  <0> d   1      18.914   0.498   9.384  0.00  0.00    -0.076 N 
ATOM      4  C1  <0> d   1      19.192   1.927   9.188  0.00  0.00     0.271 C 
ATOM      5  C3  <0> d   1      19.689   0.001  10.529  0.00  0.00     0.271 C 
ATOM      6  C4  <0> d   1      17.480   0.309   9.645  0.00  0.00     0.271 C 
ENDBRANCH   2   3
ENDBRANCH   1   2
BRANCH   1   7
ATOM      7  O8  <0> d   1      17.709  -1.312   6.696  0.00  0.00    -0.393 OA
ATOM      8  H24 <0> d   1      16.970  -1.622   7.237  0.00  0.00     0.210 HD
ENDBRANCH   1   7
BRANCH   1   9
ATOM      9  C9  <0> d   1      18.856   0.657   5.887  0.00  0.00     0.146 C 
BRANCH   9  10
ATOM     10  C10 <0> d   1      18.995  -0.328   4.755  0.00  0.00     0.175 C 
ATOM     11  O11 <0> d   1      20.000  -1.014   4.664  0.00  0.00    -0.648 OA
ATOM     12  O12 <0> d   1      18.104  -0.439   3.931  0.00  0.00    -0.648 OA
ENDBRANCH   9  10
ENDBRANCH   1   9
TORSDOF 5
ENDMDL
MODEL 2
REMARK VINA RESULT:      -4.0      7.465      9.650
REMARK  5 active torsions:
REMARK  status: ('A' for Active; 'I' for Inactive)
REMARK    1  A    between atoms: N2_2  and  C5_5 
REMARK    2  A    between atoms: C5_5  and  C6_6 
REMARK    3  A    between atoms: C6_6  and  O8_7 
REMARK    4  A    between atoms: C6_6  and  C9_8 
REMARK    5  A    between atoms: C9_8  and  C10_9 
ROOT
ATOM      1  C6  <0> d   1      18.263   0.198  15.866  0.00  0.00     0.154 C 
ENDROOT
BRANCH   1   2
ATOM      2  C5  <0> d   1      19.359   0.527  14.850  0.00  0.00     0.268 C 
BRANCH   2   3
ATOM      3  N2  <0> d   1      19.017  -0.068  13.552  0.00  0.00    -0.076 N 
ATOM      4  C1  <0> d   1      17.592   0.149  13.273  0.00  0.00     0.271 C 
ATOM      5  C3  <0> d   1      19.296  -1.510  13.585  0.00  0.00     0.271 C 
ATOM      6  C4  <0> d   1      19.824   0.562  12.497  0.00  0.00     0.271 C 
ENDBRANCH   2   3
ENDBRANCH   1   2
BRANCH   1   7
ATOM      7  O8  <0> d   1      17.693   1.411  16.362  0.00  0.00    -0.393 OA
ATOM      8  H24 <0> d   1      18.332   2.002  16.783  0.00  0.00     0.210 HD
ENDBRANCH   1   7
BRANCH   1   9
ATOM      9  C9  <0> d   1      18.866  -0.594  17.028  0.00  0.00     0.146 C 
BRANCH   9  10
ATOM     10  C10 <0> d   1      18.960   0.291  18.244  0.00  0.00     0.175 C 
ATOM     11  O11 <0> d   1      18.061   0.292  19.068  0.00  0.00    -0.648 OA
ATOM     12  O12 <0> d   1      19.935   1.006  18.403  0.00  0.00    -0.648 OA
ENDBRANCH   9  10
ENDBRANCH   1   9
TORSDOF 5
ENDMDL
MODEL 3
REMARK VINA RESULT:      -4.0      3.814      5.289
REMARK  5 active torsions:
REMARK  status: ('A' for Active; 'I' for Inactive)
REMARK    1  A    between atoms: N2_2  and  C5_5 
REMARK    2  A    between atoms: C5_5  and  C6_6 
REMARK    3  A    between atoms: C6_6  and  O8_7 
REMARK    4  A    between atoms: C6_6  and  C9_8 
REMARK    5  A    between atoms: C9_8  and  C10_9 
ROOT
ATOM      1  C6  <0> d   1      20.204  -0.698  10.767  0.00  0.00     0.154 C 
ENDROOT
BRANCH   1   2
ATOM      2  C5  <0> d   1      19.890  -0.381   9.304  0.00  0.00     0.268 C 
BRANCH   2   3
ATOM      3  N2  <0> d   1      18.949   0.744   9.237  0.00  0.00    -0.076 N 
ATOM      4  C1  <0> d   1      18.922   1.438  10.531  0.00  0.00     0.271 C 
ATOM      5  C3  <0> d   1      17.605   0.240   8.924  0.00  0.00     0.271 C 
ATOM      6  C4  <0> d   1      19.377   1.680   8.188  0.00  0.00     0.271 C 
ENDBRANCH   2   3
ENDBRANCH   1   2
BRANCH   1   7
ATOM      7  O8  <0> d   1      21.618  -0.667  10.969  0.00  0.00    -0.393 OA
ATOM      8  H24 <0> d   1      22.131  -0.962  10.204  0.00  0.00     0.210 HD
ENDBRANCH   1   7
BRANCH   1   9
ATOM      9  C9  <0> d   1      19.670  -2.090  11.114  0.00  0.00     0.146 C 
BRANCH   9  10
ATOM     10  C10 <0> d   1      18.506  -1.959  12.061  0.00  0.00     0.175 C 
ATOM     11  O11 <0> d   1      17.364  -2.006  11.634  0.00  0.00    -0.648 OA
ATOM     12  O12 <0> d   1      18.705  -1.806  13.254  0.00  0.00    -0.648 OA
ENDBRANCH   9  10
ENDBRANCH   1   9
TORSDOF 5
ENDMDL
MODEL 4
REMARK VINA RESULT:      -3.9      4.765      6.635
REMARK  5 active torsions:
REMARK  status: ('A' for Active; 'I' for Inactive)
REMARK    1  A    between atoms: N2_2  and  C5_5 
REMARK    2  A    between atoms: C5_5  and  C6_6 
REMARK    3  A    between atoms: C6_6  and  O8_7 
REMARK    4  A    between atoms: C6_6  and  C9_8 
REMARK    5  A    between atoms: C9_8  and  C10_9 
ROOT
ATOM      1  C6  <0> d   1      20.377   0.870  12.253  0.00  0.00     0.154 C 
ENDROOT
BRANCH   1   2
ATOM      2  C5  <0> d   1      19.715   0.606  10.899  0.00  0.00     0.268 C 
BRANCH   2   3
ATOM      3  N2  <0> d   1      19.019   1.818  10.449  0.00  0.00    -0.076 N 
ATOM      4  C1  <0> d   1      17.591   1.714  10.778  0.00  0.00     0.271 C 
ATOM      5  C3  <0> d   1      19.177   1.962   8.995  0.00  0.00     0.271 C 
ATOM      6  C4  <0> d   1      19.593   2.992  11.122  0.00  0.00     0.271 C 
ENDBRANCH   2   3
ENDBRANCH   1   2
BRANCH   1   7
ATOM      7  O8  <0> d   1      21.776   0.594  12.161  0.00  0.00    -0.393 OA
ATOM      8  H24 <0> d   1      22.000  -0.342  12.261  0.00  0.00     0.210 HD
ENDBRANCH   1   7
BRANCH   1   9
ATOM      9  C9  <0> d   1      19.747  -0.033  13.315  0.00  0.00     0.146 C 
BRANCH   9  10
ATOM     10  C10 <0> d   1      18.809   0.777  14.171  0.00  0.00     0.175 C 
ATOM     11  O11 <0> d   1      19.114   1.910  14.505  0.00  0.00    -0.648 OA
ATOM     12  O12 <0> d   1      17.746   0.300  14.530  0.00  0.00    -0.648 OA
ENDBRANCH   9  10
ENDBRANCH   1   9
TORSDOF 5
ENDMDL
MODEL 5
REMARK VINA RESULT:      -3.9      4.322      5.513
REMARK  5 active torsions:
REMARK  status: ('A' for Active; 'I' for Inactive)
REMARK    1  A    between atoms: N2_2  and  C5_5 
REMARK    2  A    between atoms: C5_5  and  C6_6 
REMARK    3  A    between atoms: C6_6  and  O8_7 
REMARK    4  A    between atoms: C6_6  and  C9_8 
REMARK    5  A    between atoms: C9_8  and  C10_9 
ROOT
ATOM      1  C6  <0> d   1      20.265   0.579  11.760  0.00  0.00     0.154 C 
ENDROOT
BRANCH   1   2
ATOM      2  C5  <0> d   1      19.565  -0.530  12.549  0.00  0.00     0.268 C 
BRANCH   2   3
ATOM      3  N2  <0> d   1      19.028  -1.531  11.618  0.00  0.00    -0.076 N 
ATOM      4  C1  <0> d   1      17.561  -1.473  11.629  0.00  0.00     0.271 C 
ATOM      5  C3  <0> d   1      19.468  -2.870  12.031  0.00  0.00     0.271 C 
ATOM      6  C4  <0> d   1      19.519  -1.251  10.261  0.00  0.00     0.271 C 
ENDBRANCH   2   3
ENDBRANCH   1   2
BRANCH   1   7
ATOM      7  O8  <0> d   1      21.641   0.637  12.139  0.00  0.00    -0.393 OA
ATOM      8  H24 <0> d   1      22.100   1.433  11.835  0.00  0.00     0.210 HD
ENDBRANCH   1   7
BRANCH   1   9
ATOM      9  C9  <0> d   1      19.595   1.921  12.062  0.00  0.00     0.146 C 
BRANCH   9  10
ATOM     10  C10 <0> d   1      18.502   2.174  11.054  0.00  0.00     0.175 C 
ATOM     11  O11 <0> d   1      17.333   2.103  11.393  0.00  0.00    -0.648 OA
ATOM     12  O12 <0> d   1      18.789   2.451   9.902  0.00  0.00    -0.648 OA
ENDBRANCH   9  10
ENDBRANCH   1   9
TORSDOF 5
ENDMDL
MODEL 6
REMARK VINA RESULT:      -3.9      4.739      6.357
REMARK  5 active torsions:
REMARK  status: ('A' for Active; 'I' for Inactive)
REMARK    1  A    between atoms: N2_2  and  C5_5 
REMARK    2  A    between atoms: C5_5  and  C6_6 
REMARK    3  A    between atoms: C6_6  and  O8_7 
REMARK    4  A    between atoms: C6_6  and  C9_8 
REMARK    5  A    between atoms: C9_8  and  C10_9 
ROOT
ATOM      1  C6  <0> d   1      19.551   2.770  10.851  0.00  0.00     0.154 C 
ENDROOT
BRANCH   1   2
ATOM      2  C5  <0> d   1      18.749   1.467  10.804  0.00  0.00     0.268 C 
BRANCH   2   3
ATOM      3  N2  <0> d   1      18.903   0.843   9.484  0.00  0.00    -0.076 N 
ATOM      4  C1  <0> d   1      19.934  -0.201   9.553  0.00  0.00     0.271 C 
ATOM      5  C3  <0> d   1      19.304   1.862   8.505  0.00  0.00     0.271 C 
ATOM      6  C4  <0> d   1      17.626   0.244   9.072  0.00  0.00     0.271 C 
ENDBRANCH   2   3
ENDBRANCH   1   2
BRANCH   1   7
ATOM      7  O8  <0> d   1      20.721   2.580  11.649  0.00  0.00    -0.393 OA
ATOM      8  H24 <0> d   1      21.319   1.898  11.314  0.00  0.00     0.210 HD
ENDBRANCH   1   7
BRANCH   1   9
ATOM      9  C9  <0> d   1      18.690   3.877  11.461  0.00  0.00     0.146 C 
BRANCH   9  10
ATOM     10  C10 <0> d   1      19.207   4.214  12.836  0.00  0.00     0.175 C 
ATOM     11  O11 <0> d   1      19.987   5.140  12.984  0.00  0.00    -0.648 OA
ATOM     12  O12 <0> d   1      18.844   3.561  13.800  0.00  0.00    -0.648 OA
ENDBRANCH   9  10
ENDBRANCH   1   9
TORSDOF 5
ENDMDL
MODEL 7
REMARK VINA RESULT:      -3.8      3.139      4.464
REMARK  5 active torsions:
REMARK  status: ('A' for Active; 'I' for Inactive)
REMARK    1  A    between atoms: N2_2  and  C5_5 
REMARK    2  A    between atoms: C5_5  and  C6_6 
REMARK    3  A    between atoms: C6_6  and  O8_7 
REMARK    4  A    between atoms: C6_6  and  C9_8 
REMARK    5  A    between atoms: C9_8  and  C10_9 
ROOT
ATOM      1  C6  <0> d   1      20.166  -0.477  11.048  0.00  0.00     0.154 C 
ENDROOT
BRANCH   1   2
ATOM      2  C5  <0> d   1      19.940  -0.097  12.513  0.00  0.00     0.268 C 
BRANCH   2   3
ATOM      3  N2  <0> d   1      19.043  -1.077  13.140  0.00  0.00    -0.076 N 
ATOM      4  C1  <0> d   1      17.662  -0.579  13.091  0.00  0.00     0.271 C 
ATOM      5  C3  <0> d   1      19.441  -1.279  14.540  0.00  0.00     0.271 C 
ATOM      6  C4  <0> d   1      19.129  -2.353  12.418  0.00  0.00     0.271 C 
ENDBRANCH   2   3
ENDBRANCH   1   2
BRANCH   1   7
ATOM      7  O8  <0> d   1      21.568  -0.577  10.793  0.00  0.00    -0.393 OA
ATOM      8  H24 <0> d   1      21.869  -1.474  10.596  0.00  0.00     0.210 HD
ENDBRANCH   1   7
BRANCH   1   9
ATOM      9  C9  <0> d   1      19.558   0.597  10.143  0.00  0.00     0.146 C 
BRANCH   9  10
ATOM     10  C10 <0> d   1      19.503   0.087   8.726  0.00  0.00     0.175 C 
ATOM     11  O11 <0> d   1      19.294   0.861   7.807  0.00  0.00    -0.648 OA
ATOM     12  O12 <0> d   1      19.668  -1.100   8.499  0.00  0.00    -0.648 OA
ENDBRANCH   9  10
ENDBRANCH   1   9
TORSDOF 5
ENDMDL
MODEL 8
REMARK VINA RESULT:      -3.8      3.450      4.775
REMARK  5 active torsions:
REMARK  status: ('A' for Active; 'I' for Inactive)
REMARK    1  A    between atoms: N2_2  and  C5_5 
REMARK    2  A    between atoms: C5_5  and  C6_6 
REMARK    3  A    between atoms: C6_6  and  O8_7 
REMARK    4  A    between atoms: C6_6  and  C9_8 
REMARK    5  A    between atoms: C9_8  and  C10_9 
ROOT
ATOM      1  C6  <0> d   1      20.100  -0.604  10.681  0.00  0.00     0.154 C 
ENDROOT
BRANCH   1   2
ATOM      2  C5  <0> d   1      19.538  -1.546  11.749  0.00  0.00     0.268 C 
BRANCH   2   3
ATOM      3  N2  <0> d   1      19.074  -2.786  11.113  0.00  0.00    -0.076 N 
ATOM      4  C1  <0> d   1      20.037  -3.863  11.379  0.00  0.00     0.271 C 
ATOM      5  C3  <0> d   1      18.958  -2.580   9.664  0.00  0.00     0.271 C 
ATOM      6  C4  <0> d   1      17.762  -3.156  11.662  0.00  0.00     0.271 C 
ENDBRANCH   2   3
ENDBRANCH   1   2
BRANCH   1   7
ATOM      7  O8  <0> d   1      21.524  -0.560  10.788  0.00  0.00    -0.393 OA
ATOM      8  H24 <0> d   1      21.987  -0.933  10.025  0.00  0.00     0.210 HD
ENDBRANCH   1   7
BRANCH   1   9
ATOM      9  C9  <0> d   1      19.529   0.800  10.887  0.00  0.00     0.146 C 
BRANCH   9  10
ATOM     10  C10 <0> d   1      19.334   1.464   9.549  0.00  0.00     0.175 C 
ATOM     11  O11 <0> d   1      19.709   0.906   8.531  0.00  0.00    -0.648 OA
ATOM     12  O12 <0> d   1      18.801   2.559   9.483  0.00  0.00    -0.648 OA
ENDBRANCH   9  10
ENDBRANCH   1   9
TORSDOF 5
ENDMDL
MODEL 9
REMARK VINA RESULT:      -3.8      4.897      5.973
REMARK  5 active torsions:
REMARK  status: ('A' for Active; 'I' for Inactive)
REMARK    1  A    between atoms: N2_2  and  C5_5 
REMARK    2  A    between atoms: C5_5  and  C6_6 
REMARK    3  A    between atoms: C6_6  and  O8_7 
REMARK    4  A    between atoms: C6_6  and  C9_8 
REMARK    5  A    between atoms: C9_8  and  C10_9 
ROOT
ATOM      1  C6  <0> d   1      19.596   3.193  11.441  0.00  0.00     0.154 C 
ENDROOT
BRANCH   1   2
ATOM      2  C5  <0> d   1      19.136   2.080  12.385  0.00  0.00     0.268 C 
BRANCH   2   3
ATOM      3  N2  <0> d   1      18.731   0.907  11.601  0.00  0.00    -0.076 N 
ATOM      4  C1  <0> d   1      19.532  -0.255  12.007  0.00  0.00     0.271 C 
ATOM      5  C3  <0> d   1      18.946   1.175  10.173  0.00  0.00     0.271 C 
ATOM      6  C4  <0> d   1      17.308   0.627  11.837  0.00  0.00     0.271 C 
ENDBRANCH   2   3
ENDBRANCH   1   2
BRANCH   1   7
ATOM      7  O8  <0> d   1      20.992   3.434  11.633  0.00  0.00    -0.393 OA
ATOM      8  H24 <0> d   1      21.216   4.366  11.763  0.00  0.00     0.210 HD
ENDBRANCH   1   7
BRANCH   1   9
ATOM      9  C9  <0> d   1      18.812   4.472  11.739  0.00  0.00     0.146 C 
BRANCH   9  10
ATOM     10  C10 <0> d   1      17.629   4.563  10.809  0.00  0.00     0.175 C 
ATOM     11  O11 <0> d   1      16.570   4.042  11.116  0.00  0.00    -0.648 OA
ATOM     12  O12 <0> d   1      17.731   5.159   9.750  0.00  0.00    -0.648 OA
ENDBRANCH   9  10
ENDBRANCH   1   9
TORSDOF 5
ENDMDL
