MODEL 1
REMARK VINA RESULT:      -8.3      0.000      0.000
REMARK  10 active torsions:
REMARK  status: ('A' for Active; 'I' for Inactive)
REMARK    1  A    between atoms: C2_2  and  O3_3 
REMARK    2  A    between atoms: O3_3  and  C4_4 
REMARK    3  A    between atoms: C6_6  and  C7_7 
REMARK    4  A    between atoms: C7_7  and  C8_8 
REMARK       I    between atoms: C8_8  and  N10_10 
REMARK    5  A    between atoms: N10_10  and  C11_11 
REMARK    6  A    between atoms: C11_11  and  C13_12 
REMARK    7  A    between atoms: C11_11  and  C17_16 
REMARK    8  A    between atoms: C13_12  and  C14_13 
REMARK    9  A    between atoms: C22_21  and  N23_22 
REMARK   10  A    between atoms: C31_30  and  C32_31 
ROOT
ATOM      1  C8  <0> d   1      18.628  -1.408  11.912  0.00  0.00     0.222 C 
ATOM      2  O9  <0> d   1      17.484  -1.618  12.253  0.00  0.00    -0.273 OA
ATOM      3  N10 <0> d   1      18.888  -0.961  10.667  0.00  0.00    -0.352 N 
ATOM      4  H43 <0> d   1      19.796  -0.722  10.418  0.00  0.00     0.163 HD
ENDROOT
BRANCH   3   5
ATOM      5  C11 <0> d   1      17.803  -0.837   9.691  0.00  0.00     0.120 C 
BRANCH   5   6
ATOM      6  C13 <0> d   1      17.314   0.613   9.654  0.00  0.00     0.034 C 
BRANCH   6   7
ATOM      7  C14 <0> d   1      18.298   1.502  10.417  0.00  0.00    -0.021 C 
ATOM      8  C15 <0> d   1      18.887   2.545   9.466  0.00  0.00     0.009 C 
ATOM      9  C16 <0> d   1      17.565   2.209  11.558  0.00  0.00     0.009 C 
ENDBRANCH   6   7
ENDBRANCH   5   6
BRANCH   5  10
ATOM     10  C17 <0> d   1      18.307  -1.232   8.327  0.00  0.00    -0.009 A 
ATOM     11  C22 <0> d   1      18.525  -2.572   8.028  0.00  0.00     0.038 A 
ATOM     12  C21 <0> d   1      18.984  -2.933   6.768  0.00  0.00     0.030 A 
ATOM     13  C20 <0> d   1      19.233  -1.960   5.820  0.00  0.00     0.002 A 
ATOM     14  C19 <0> d   1      19.021  -0.628   6.123  0.00  0.00     0.001 A 
ATOM     15  C18 <0> d   1      18.559  -0.265   7.375  0.00  0.00     0.011 A 
BRANCH  11  16
ATOM     16  N23 <0> d   1      18.272  -3.553   8.988  0.00  0.00    -0.380 N 
ATOM     17  C28 <0> d   1      19.379  -4.290   9.616  0.00  0.00     0.123 C 
ATOM     18  C27 <0> d   1      19.131  -5.788   9.461  0.00  0.00     0.020 C 
ATOM     19  C26 <0> d   1      17.748  -6.135  10.019  0.00  0.00     0.003 C 
ATOM     20  C25 <0> d   1      16.674  -5.382   9.230  0.00  0.00     0.020 C 
ATOM     21  C24 <0> d   1      16.895  -3.874   9.387  0.00  0.00     0.123 C 
ENDBRANCH  11  16
ENDBRANCH   5  10
ENDBRANCH   3   5
BRANCH   1  22
ATOM     22  C7  <0> d   1      19.760  -1.644  12.879  0.00  0.00     0.141 C 
BRANCH  22  23
ATOM     23  C6  <0> d   1      19.468  -0.932  14.175  0.00  0.00    -0.047 A 
ATOM     24  C5  <0> d   1      19.551   0.445  14.235  0.00  0.00     0.045 A 
ATOM     25  C4  <0> d   1      19.284   1.107  15.424  0.00  0.00     0.086 A 
ATOM     26  C31 <0> d   1      18.935   0.370  16.567  0.00  0.00     0.074 A 
ATOM     27  C30 <0> d   1      18.849  -1.024  16.489  0.00  0.00     0.022 A 
ATOM     28  C29 <0> d   1      19.118  -1.664  15.299  0.00  0.00     0.009 A 
BRANCH  25  29
ATOM     29  O3  <0> d   1      19.366   2.458  15.485  0.00  0.00    -0.350 OA
BRANCH  29  30
ATOM     30  C2  <0> d   1      18.316   3.201  14.859  0.00  0.00     0.171 C 
ATOM     31  C1  <0> d   1      18.893   4.476  14.242  0.00  0.00     0.034 C 
ENDBRANCH  29  30
ENDBRANCH  25  29
BRANCH  26  32
ATOM     32  C32 <0> d   1      18.649   1.060  17.834  0.00  0.00     0.212 C 
ATOM     33  O33 <0> d   1      17.492   1.303  18.150  0.00  0.00    -0.644 OA
ATOM     34  O34 <0> d   1      19.567   1.389  18.573  0.00  0.00    -0.644 OA
ENDBRANCH  26  32
ENDBRANCH  22  23
ENDBRANCH   1  22
TORSDOF 10
ENDMDL
MODEL 2
REMARK VINA RESULT:      -8.0      1.130      2.067
REMARK  10 active torsions:
REMARK  status: ('A' for Active; 'I' for Inactive)
REMARK    1  A    between atoms: C2_2  and  O3_3 
REMARK    2  A    between atoms: O3_3  and  C4_4 
REMARK    3  A    between atoms: C6_6  and  C7_7 
REMARK    4  A    between atoms: C7_7  and  C8_8 
REMARK       I    between atoms: C8_8  and  N10_10 
REMARK    5  A    between atoms: N10_10  and  C11_11 
REMARK    6  A    between atoms: C11_11  and  C13_12 
REMARK    7  A    between atoms: C11_11  and  C17_16 
REMARK    8  A    between atoms: C13_12  and  C14_13 
REMARK    9  A    between atoms: C22_21  and  N23_22 
REMARK   10  A    between atoms: C31_30  and  C32_31 
ROOT
ATOM      1  C8  <0> d   1      18.220  -1.668  11.347  0.00  0.00     0.222 C 
ATOM      2  O9  <0> d   1      17.032  -1.816  11.539  0.00  0.00    -0.273 OA
ATOM      3  N10 <0> d   1      18.666  -1.327  10.122  0.00  0.00    -0.352 N 
ATOM      4  H43 <0> d   1      19.608  -1.136   9.985  0.00  0.00     0.163 HD
ENDROOT
BRANCH   3   5
ATOM      5  C11 <0> d   1      17.732  -1.248   8.997  0.00  0.00     0.120 C 
BRANCH   5   6
ATOM      6  C13 <0> d   1      17.394   0.218   8.717  0.00  0.00     0.034 C 
BRANCH   6   7
ATOM      7  C14 <0> d   1      18.382   1.120   9.461  0.00  0.00    -0.021 C 
ATOM      8  C15 <0> d   1      19.080   2.045   8.464  0.00  0.00     0.009 C 
ATOM      9  C16 <0> d   1      17.627   1.959  10.493  0.00  0.00     0.009 C 
ENDBRANCH   6   7
ENDBRANCH   5   6
BRANCH   5  10
ATOM     10  C17 <0> d   1      18.365  -1.860   7.774  0.00  0.00    -0.009 A 
ATOM     11  C22 <0> d   1      18.540  -3.236   7.696  0.00  0.00     0.038 A 
ATOM     12  C21 <0> d   1      19.119  -3.797   6.566  0.00  0.00     0.030 A 
ATOM     13  C20 <0> d   1      19.527  -2.985   5.526  0.00  0.00     0.002 A 
ATOM     14  C19 <0> d   1      19.357  -1.615   5.608  0.00  0.00     0.001 A 
ATOM     15  C18 <0> d   1      18.776  -1.053   6.731  0.00  0.00     0.011 A 
BRANCH  11  16
ATOM     16  N23 <0> d   1      18.126  -4.055   8.749  0.00  0.00    -0.380 N 
ATOM     17  C28 <0> d   1      19.111  -4.721   9.612  0.00  0.00     0.123 C 
ATOM     18  C27 <0> d   1      18.812  -6.218   9.646  0.00  0.00     0.020 C 
ATOM     19  C26 <0> d   1      17.356  -6.436  10.067  0.00  0.00     0.003 C 
ATOM     20  C25 <0> d   1      16.423  -5.777   9.048  0.00  0.00     0.020 C 
ATOM     21  C24 <0> d   1      16.696  -4.271   9.012  0.00  0.00     0.123 C 
ENDBRANCH  11  16
ENDBRANCH   5  10
ENDBRANCH   3   5
BRANCH   1  22
ATOM     22  C7  <0> d   1      19.197  -1.861  12.478  0.00  0.00     0.141 C 
BRANCH  22  23
ATOM     23  C6  <0> d   1      19.168  -0.653  13.378  0.00  0.00    -0.047 A 
ATOM     24  C5  <0> d   1      18.424  -0.681  14.542  0.00  0.00     0.045 A 
ATOM     25  C4  <0> d   1      18.393   0.427  15.374  0.00  0.00     0.086 A 
ATOM     26  C31 <0> d   1      19.116   1.580  15.026  0.00  0.00     0.074 A 
ATOM     27  C30 <0> d   1      19.869   1.591  13.847  0.00  0.00     0.022 A 
ATOM     28  C29 <0> d   1      19.888   0.480  13.033  0.00  0.00     0.009 A 
BRANCH  25  29
ATOM     29  O3  <0> d   1      17.663   0.402  16.516  0.00  0.00    -0.350 OA
BRANCH  29  30
ATOM     30  C2  <0> d   1      17.975  -0.624  17.462  0.00  0.00     0.171 C 
ATOM     31  C1  <0> d   1      19.257  -0.254  18.211  0.00  0.00     0.034 C 
ENDBRANCH  29  30
ENDBRANCH  25  29
BRANCH  26  32
ATOM     32  C32 <0> d   1      19.091   2.762  15.901  0.00  0.00     0.212 C 
ATOM     33  O33 <0> d   1      18.267   3.646  15.711  0.00  0.00    -0.644 OA
ATOM     34  O34 <0> d   1      19.894   2.860  16.819  0.00  0.00    -0.644 OA
ENDBRANCH  26  32
ENDBRANCH  22  23
ENDBRANCH   1  22
TORSDOF 10
ENDMDL
MODEL 3
REMARK VINA RESULT:      -7.8      3.092      6.512
REMARK  10 active torsions:
REMARK  status: ('A' for Active; 'I' for Inactive)
REMARK    1  A    between atoms: C2_2  and  O3_3 
REMARK    2  A    between atoms: O3_3  and  C4_4 
REMARK    3  A    between atoms: C6_6  and  C7_7 
REMARK    4  A    between atoms: C7_7  and  C8_8 
REMARK       I    between atoms: C8_8  and  N10_10 
REMARK    5  A    between atoms: N10_10  and  C11_11 
REMARK    6  A    between atoms: C11_11  and  C13_12 
REMARK    7  A    between atoms: C11_11  and  C17_16 
REMARK    8  A    between atoms: C13_12  and  C14_13 
REMARK    9  A    between atoms: C22_21  and  N23_22 
REMARK   10  A    between atoms: C31_30  and  C32_31 
ROOT
ATOM      1  C8  <0> d   1      19.105  -3.763   6.903  0.00  0.00     0.222 C 
ATOM      2  O9  <0> d   1      19.970  -4.563   6.615  0.00  0.00    -0.273 OA
ATOM      3  N10 <0> d   1      17.934  -4.193   7.413  0.00  0.00    -0.352 N 
ATOM      4  H43 <0> d   1      17.271  -3.550   7.713  0.00  0.00     0.163 HD
ENDROOT
BRANCH   3   5
ATOM      5  C11 <0> d   1      17.660  -5.628   7.512  0.00  0.00     0.120 C 
BRANCH   5   6
ATOM      6  C13 <0> d   1      17.957  -6.107   8.935  0.00  0.00     0.034 C 
BRANCH   6   7
ATOM      7  C14 <0> d   1      18.282  -4.901   9.820  0.00  0.00    -0.021 C 
ATOM      8  C15 <0> d   1      17.318  -4.865  11.007  0.00  0.00     0.009 C 
ATOM      9  C16 <0> d   1      19.718  -5.019  10.334  0.00  0.00     0.009 C 
ENDBRANCH   6   7
ENDBRANCH   5   6
BRANCH   5  10
ATOM     10  C17 <0> d   1      16.212  -5.887   7.187  0.00  0.00    -0.009 A 
ATOM     11  C22 <0> d   1      15.799  -5.966   5.863  0.00  0.00     0.038 A 
ATOM     12  C21 <0> d   1      14.465  -6.210   5.567  0.00  0.00     0.030 A 
ATOM     13  C20 <0> d   1      13.549  -6.364   6.590  0.00  0.00     0.002 A 
ATOM     14  C19 <0> d   1      13.961  -6.278   7.907  0.00  0.00     0.001 A 
ATOM     15  C18 <0> d   1      15.291  -6.040   8.205  0.00  0.00     0.011 A 
BRANCH  11  16
ATOM     16  N23 <0> d   1      16.727  -5.811   4.831  0.00  0.00    -0.380 N 
ATOM     17  C28 <0> d   1      16.828  -4.541   4.098  0.00  0.00     0.123 C 
ATOM     18  C27 <0> d   1      16.702  -4.817   2.602  0.00  0.00     0.020 C 
ATOM     19  C26 <0> d   1      17.739  -5.865   2.190  0.00  0.00     0.003 C 
ATOM     20  C25 <0> d   1      17.479  -7.169   2.948  0.00  0.00     0.020 C 
ATOM     21  C24 <0> d   1      17.618  -6.917   4.452  0.00  0.00     0.123 C 
ENDBRANCH  11  16
ENDBRANCH   5  10
ENDBRANCH   3   5
BRANCH   1  22
ATOM     22  C7  <0> d   1      19.340  -2.289   6.695  0.00  0.00     0.141 C 
BRANCH  22  23
ATOM     23  C6  <0> d   1      18.737  -1.518   7.840  0.00  0.00    -0.047 A 
ATOM     24  C5  <0> d   1      19.373  -1.501   9.067  0.00  0.00     0.045 A 
ATOM     25  C4  <0> d   1      18.823  -0.794  10.125  0.00  0.00     0.086 A 
ATOM     26  C31 <0> d   1      17.616  -0.100   9.946  0.00  0.00     0.074 A 
ATOM     27  C30 <0> d   1      16.987  -0.122   8.697  0.00  0.00     0.022 A 
ATOM     28  C29 <0> d   1      17.548  -0.831   7.657  0.00  0.00     0.009 A 
BRANCH  25  29
ATOM     29  O3  <0> d   1      19.445  -0.777  11.329  0.00  0.00    -0.350 OA
BRANCH  29  30
ATOM     30  C2  <0> d   1      19.375  -1.970  12.113  0.00  0.00     0.171 C 
ATOM     31  C1  <0> d   1      18.838  -1.635  13.506  0.00  0.00     0.034 C 
ENDBRANCH  29  30
ENDBRANCH  25  29
BRANCH  26  32
ATOM     32  C32 <0> d   1      17.023   0.654  11.061  0.00  0.00     0.212 C 
ATOM     33  O33 <0> d   1      17.330   1.825  11.238  0.00  0.00    -0.644 OA
ATOM     34  O34 <0> d   1      16.222   0.112  11.810  0.00  0.00    -0.644 OA
ENDBRANCH  26  32
ENDBRANCH  22  23
ENDBRANCH   1  22
TORSDOF 10
ENDMDL
MODEL 4
REMARK VINA RESULT:      -7.7      2.175      5.245
REMARK  10 active torsions:
REMARK  status: ('A' for Active; 'I' for Inactive)
REMARK    1  A    between atoms: C2_2  and  O3_3 
REMARK    2  A    between atoms: O3_3  and  C4_4 
REMARK    3  A    between atoms: C6_6  and  C7_7 
REMARK    4  A    between atoms: C7_7  and  C8_8 
REMARK       I    between atoms: C8_8  and  N10_10 
REMARK    5  A    between atoms: N10_10  and  C11_11 
REMARK    6  A    between atoms: C11_11  and  C13_12 
REMARK    7  A    between atoms: C11_11  and  C17_16 
REMARK    8  A    between atoms: C13_12  and  C14_13 
REMARK    9  A    between atoms: C22_21  and  N23_22 
REMARK   10  A    between atoms: C31_30  and  C32_31 
ROOT
ATOM      1  C8  <0> d   1      18.176   1.244   9.844  0.00  0.00     0.222 C 
ATOM      2  O9  <0> d   1      16.974   1.309   9.991  0.00  0.00    -0.273 OA
ATOM      3  N10 <0> d   1      18.755   0.063   9.551  0.00  0.00    -0.352 N 
ATOM      4  H43 <0> d   1      19.706   0.023   9.360  0.00  0.00     0.163 HD
ENDROOT
BRANCH   3   5
ATOM      5  C11 <0> d   1      17.950  -1.161   9.520  0.00  0.00     0.120 C 
BRANCH   5   6
ATOM      6  C13 <0> d   1      17.576  -1.489   8.073  0.00  0.00     0.034 C 
BRANCH   6   7
ATOM      7  C14 <0> d   1      18.423  -0.640   7.123  0.00  0.00    -0.021 C 
ATOM      8  C15 <0> d   1      19.268  -1.554   6.235  0.00  0.00     0.009 C 
ATOM      9  C16 <0> d   1      17.503   0.213   6.247  0.00  0.00     0.009 C 
ENDBRANCH   6   7
ENDBRANCH   5   6
BRANCH   5  10
ATOM     10  C17 <0> d   1      18.746  -2.300  10.105  0.00  0.00    -0.009 A 
ATOM     11  C22 <0> d   1      19.212  -2.224  11.412  0.00  0.00     0.038 A 
ATOM     12  C21 <0> d   1      19.939  -3.278  11.948  0.00  0.00     0.030 A 
ATOM     13  C20 <0> d   1      20.207  -4.393  11.179  0.00  0.00     0.002 A 
ATOM     14  C19 <0> d   1      19.748  -4.463   9.877  0.00  0.00     0.001 A 
ATOM     15  C18 <0> d   1      19.018  -3.417   9.341  0.00  0.00     0.011 A 
BRANCH  11  16
ATOM     16  N23 <0> d   1      18.939  -1.095  12.187  0.00  0.00    -0.380 N 
ATOM     17  C28 <0> d   1      19.976  -0.081  12.425  0.00  0.00     0.123 C 
ATOM     18  C27 <0> d   1      20.116   0.146  13.928  0.00  0.00     0.020 C 
ATOM     19  C26 <0> d   1      18.747   0.496  14.518  0.00  0.00     0.003 C 
ATOM     20  C25 <0> d   1      17.779  -0.668  14.292  0.00  0.00     0.020 C 
ATOM     21  C24 <0> d   1      17.611  -0.902  12.787  0.00  0.00     0.123 C 
ENDBRANCH  11  16
ENDBRANCH   5  10
ENDBRANCH   3   5
BRANCH   1  22
ATOM     22  C7  <0> d   1      19.022   2.482   9.988  0.00  0.00     0.141 C 
BRANCH  22  23
ATOM     23  C6  <0> d   1      18.343   3.447  10.926  0.00  0.00    -0.047 A 
ATOM     24  C5  <0> d   1      18.507   3.309  12.291  0.00  0.00     0.045 A 
ATOM     25  C4  <0> d   1      17.885   4.193  13.159  0.00  0.00     0.086 A 
ATOM     26  C31 <0> d   1      17.084   5.225  12.645  0.00  0.00     0.074 A 
ATOM     27  C30 <0> d   1      16.931   5.356  11.261  0.00  0.00     0.022 A 
ATOM     28  C29 <0> d   1      17.557   4.467  10.414  0.00  0.00     0.009 A 
BRANCH  25  29
ATOM     29  O3  <0> d   1      18.045   4.058  14.498  0.00  0.00    -0.350 OA
BRANCH  29  30
ATOM     30  C2  <0> d   1      19.310   4.442  15.043  0.00  0.00     0.171 C 
ATOM     31  C1  <0> d   1      19.594   3.620  16.302  0.00  0.00     0.034 C 
ENDBRANCH  29  30
ENDBRANCH  25  29
BRANCH  26  32
ATOM     32  C32 <0> d   1      16.419   6.169  13.556  0.00  0.00     0.212 C 
ATOM     33  O33 <0> d   1      17.005   7.179  13.924  0.00  0.00    -0.644 OA
ATOM     34  O34 <0> d   1      15.281   5.946  13.946  0.00  0.00    -0.644 OA
ENDBRANCH  26  32
ENDBRANCH  22  23
ENDBRANCH   1  22
TORSDOF 10
ENDMDL
MODEL 5
REMARK VINA RESULT:      -7.7      2.504      8.394
REMARK  10 active torsions:
REMARK  status: ('A' for Active; 'I' for Inactive)
REMARK    1  A    between atoms: C2_2  and  O3_3 
REMARK    2  A    between atoms: O3_3  and  C4_4 
REMARK    3  A    between atoms: C6_6  and  C7_7 
REMARK    4  A    between atoms: C7_7  and  C8_8 
REMARK       I    between atoms: C8_8  and  N10_10 
REMARK    5  A    between atoms: N10_10  and  C11_11 
REMARK    6  A    between atoms: C11_11  and  C13_12 
REMARK    7  A    between atoms: C11_11  and  C17_16 
REMARK    8  A    between atoms: C13_12  and  C14_13 
REMARK    9  A    between atoms: C22_21  and  N23_22 
REMARK   10  A    between atoms: C31_30  and  C32_31 
ROOT
ATOM      1  C8  <0> d   1      18.696  -0.521  13.514  0.00  0.00     0.222 C 
ATOM      2  O9  <0> d   1      17.542  -0.579  13.149  0.00  0.00    -0.273 OA
ATOM      3  N10 <0> d   1      19.070   0.406  14.419  0.00  0.00    -0.352 N 
ATOM      4  H43 <0> d   1      19.976   0.406  14.767  0.00  0.00     0.163 HD
ENDROOT
BRANCH   3   5
ATOM      5  C11 <0> d   1      18.109   1.413  14.876  0.00  0.00     0.120 C 
BRANCH   5   6
ATOM      6  C13 <0> d   1      17.452   0.939  16.174  0.00  0.00     0.034 C 
BRANCH   6   7
ATOM      7  C14 <0> d   1      18.150  -0.330  16.665  0.00  0.00    -0.021 C 
ATOM      8  C15 <0> d   1      18.789  -0.066  18.029  0.00  0.00     0.009 C 
ATOM      9  C16 <0> d   1      17.126  -1.459  16.792  0.00  0.00     0.009 C 
ENDBRANCH   6   7
ENDBRANCH   5   6
BRANCH   5  10
ATOM     10  C17 <0> d   1      18.827   2.715  15.122  0.00  0.00    -0.009 A 
ATOM     11  C22 <0> d   1      18.913   3.665  14.111  0.00  0.00     0.038 A 
ATOM     12  C21 <0> d   1      19.569   4.866  14.344  0.00  0.00     0.030 A 
ATOM     13  C20 <0> d   1      20.145   5.109  15.576  0.00  0.00     0.002 A 
ATOM     14  C19 <0> d   1      20.063   4.160  16.578  0.00  0.00     0.001 A 
ATOM     15  C18 <0> d   1      19.405   2.965  16.352  0.00  0.00     0.011 A 
BRANCH  11  16
ATOM     16  N23 <0> d   1      18.330   3.416  12.867  0.00  0.00    -0.380 N 
ATOM     17  C28 <0> d   1      18.965   2.496  11.913  0.00  0.00     0.123 C 
ATOM     18  C27 <0> d   1      19.141   3.210  10.575  0.00  0.00     0.020 C 
ATOM     19  C26 <0> d   1      17.790   3.763  10.112  0.00  0.00     0.003 C 
ATOM     20  C25 <0> d   1      17.273   4.775  11.137  0.00  0.00     0.020 C 
ATOM     21  C24 <0> d   1      17.072   4.074  12.484  0.00  0.00     0.123 C 
ENDBRANCH  11  16
ENDBRANCH   5  10
ENDBRANCH   3   5
BRANCH   1  22
ATOM     22  C7  <0> d   1      19.714  -1.484  12.959  0.00  0.00     0.141 C 
BRANCH  22  23
ATOM     23  C6  <0> d   1      19.536  -1.596  11.467  0.00  0.00    -0.047 A 
ATOM     24  C5  <0> d   1      18.956  -2.727  10.927  0.00  0.00     0.045 A 
ATOM     25  C4  <0> d   1      18.790  -2.837   9.555  0.00  0.00     0.086 A 
ATOM     26  C31 <0> d   1      19.219  -1.795   8.717  0.00  0.00     0.074 A 
ATOM     27  C30 <0> d   1      19.800  -0.653   9.278  0.00  0.00     0.022 A 
ATOM     28  C29 <0> d   1      19.957  -0.563  10.645  0.00  0.00     0.009 A 
BRANCH  25  29
ATOM     29  O3  <0> d   1      18.221  -3.946   9.024  0.00  0.00    -0.350 OA
BRANCH  29  30
ATOM     30  C2  <0> d   1      18.640  -5.207   9.553  0.00  0.00     0.171 C 
ATOM     31  C1  <0> d   1      19.925  -5.651   8.854  0.00  0.00     0.034 C 
ENDBRANCH  29  30
ENDBRANCH  25  29
BRANCH  26  32
ATOM     32  C32 <0> d   1      19.048  -1.899   7.260  0.00  0.00     0.212 C 
ATOM     33  O33 <0> d   1      19.852  -2.536   6.594  0.00  0.00    -0.644 OA
ATOM     34  O34 <0> d   1      18.101  -1.349   6.714  0.00  0.00    -0.644 OA
ENDBRANCH  26  32
ENDBRANCH  22  23
ENDBRANCH   1  22
TORSDOF 10
ENDMDL
MODEL 6
REMARK VINA RESULT:      -7.5      2.641      7.936
REMARK  10 active torsions:
REMARK  status: ('A' for Active; 'I' for Inactive)
REMARK    1  A    between atoms: C2_2  and  O3_3 
REMARK    2  A    between atoms: O3_3  and  C4_4 
REMARK    3  A    between atoms: C6_6  and  C7_7 
REMARK    4  A    between atoms: C7_7  and  C8_8 
REMARK       I    between atoms: C8_8  and  N10_10 
REMARK    5  A    between atoms: N10_10  and  C11_11 
REMARK    6  A    between atoms: C11_11  and  C13_12 
REMARK    7  A    between atoms: C11_11  and  C17_16 
REMARK    8  A    between atoms: C13_12  and  C14_13 
REMARK    9  A    between atoms: C22_21  and  N23_22 
REMARK   10  A    between atoms: C31_30  and  C32_31 
ROOT
ATOM      1  C8  <0> d   1      19.246   0.272  13.948  0.00  0.00     0.222 C 
ATOM      2  O9  <0> d   1      18.109   0.179  13.536  0.00  0.00    -0.273 OA
ATOM      3  N10 <0> d   1      19.568   1.248  14.820  0.00  0.00    -0.352 N 
ATOM      4  H43 <0> d   1      20.458   1.278  15.207  0.00  0.00     0.163 HD
ENDROOT
BRANCH   3   5
ATOM      5  C11 <0> d   1      18.576   2.264  15.182  0.00  0.00     0.120 C 
BRANCH   5   6
ATOM      6  C13 <0> d   1      18.115   2.035  16.623  0.00  0.00     0.034 C 
BRANCH   6   7
ATOM      7  C14 <0> d   1      18.367   0.577  17.013  0.00  0.00    -0.021 C 
ATOM      8  C15 <0> d   1      19.011   0.524  18.400  0.00  0.00     0.009 C 
ATOM      9  C16 <0> d   1      17.039  -0.180  17.039  0.00  0.00     0.009 C 
ENDBRANCH   6   7
ENDBRANCH   5   6
BRANCH   5  10
ATOM     10  C17 <0> d   1      19.194   3.633  15.063  0.00  0.00    -0.009 A 
ATOM     11  C22 <0> d   1      19.209   4.286  13.836  0.00  0.00     0.038 A 
ATOM     12  C21 <0> d   1      19.774   5.550  13.732  0.00  0.00     0.030 A 
ATOM     13  C20 <0> d   1      20.329   6.151  14.845  0.00  0.00     0.002 A 
ATOM     14  C19 <0> d   1      20.318   5.496  16.064  0.00  0.00     0.001 A 
ATOM     15  C18 <0> d   1      19.751   4.239  16.172  0.00  0.00     0.011 A 
BRANCH  11  16
ATOM     16  N23 <0> d   1      18.647   3.676  12.713  0.00  0.00    -0.380 N 
ATOM     17  C28 <0> d   1      19.455   2.799  11.854  0.00  0.00     0.123 C 
ATOM     18  C27 <0> d   1      19.352   3.284  10.410  0.00  0.00     0.020 C 
ATOM     19  C26 <0> d   1      17.877   3.374  10.008  0.00  0.00     0.003 C 
ATOM     20  C25 <0> d   1      17.161   4.381  10.910  0.00  0.00     0.020 C 
ATOM     21  C24 <0> d   1      17.238   3.904  12.363  0.00  0.00     0.123 C 
ENDBRANCH  11  16
ENDBRANCH   5  10
ENDBRANCH   3   5
BRANCH   1  22
ATOM     22  C7  <0> d   1      20.298  -0.704  13.488  0.00  0.00     0.141 C 
BRANCH  22  23
ATOM     23  C6  <0> d   1      19.771  -1.495  12.318  0.00  0.00    -0.047 A 
ATOM     24  C5  <0> d   1      19.882  -0.984  11.039  0.00  0.00     0.045 A 
ATOM     25  C4  <0> d   1      19.399  -1.706   9.958  0.00  0.00     0.086 A 
ATOM     26  C31 <0> d   1      18.793  -2.954  10.170  0.00  0.00     0.074 A 
ATOM     27  C30 <0> d   1      18.693  -3.461  11.470  0.00  0.00     0.022 A 
ATOM     28  C29 <0> d   1      19.179  -2.729  12.532  0.00  0.00     0.009 A 
BRANCH  25  29
ATOM     29  O3  <0> d   1      19.506  -1.207   8.703  0.00  0.00    -0.350 OA
BRANCH  29  30
ATOM     30  C2  <0> d   1      18.948   0.089   8.470  0.00  0.00     0.171 C 
ATOM     31  C1  <0> d   1      17.423  -0.015   8.413  0.00  0.00     0.034 C 
ENDBRANCH  29  30
ENDBRANCH  25  29
BRANCH  26  32
ATOM     32  C32 <0> d   1      18.277  -3.730   9.032  0.00  0.00     0.212 C 
ATOM     33  O33 <0> d   1      17.070  -3.834   8.859  0.00  0.00    -0.644 OA
ATOM     34  O34 <0> d   1      19.055  -4.271   8.257  0.00  0.00    -0.644 OA
ENDBRANCH  26  32
ENDBRANCH  22  23
ENDBRANCH   1  22
TORSDOF 10
ENDMDL
MODEL 7
REMARK VINA RESULT:      -7.4      3.026      8.037
REMARK  10 active torsions:
REMARK  status: ('A' for Active; 'I' for Inactive)
REMARK    1  A    between atoms: C2_2  and  O3_3 
REMARK    2  A    between atoms: O3_3  and  C4_4 
REMARK    3  A    between atoms: C6_6  and  C7_7 
REMARK    4  A    between atoms: C7_7  and  C8_8 
REMARK       I    between atoms: C8_8  and  N10_10 
REMARK    5  A    between atoms: N10_10  and  C11_11 
REMARK    6  A    between atoms: C11_11  and  C13_12 
REMARK    7  A    between atoms: C11_11  and  C17_16 
REMARK    8  A    between atoms: C13_12  and  C14_13 
REMARK    9  A    between atoms: C22_21  and  N23_22 
REMARK   10  A    between atoms: C31_30  and  C32_31 
ROOT
ATOM      1  C8  <0> d   1      17.363  -3.110  11.209  0.00  0.00     0.222 C 
ATOM      2  O9  <0> d   1      16.827  -2.206  11.815  0.00  0.00    -0.273 OA
ATOM      3  N10 <0> d   1      18.396  -2.847  10.385  0.00  0.00    -0.352 N 
ATOM      4  H43 <0> d   1      18.873  -3.577   9.957  0.00  0.00     0.163 HD
ENDROOT
BRANCH   3   5
ATOM      5  C11 <0> d   1      18.799  -1.462  10.132  0.00  0.00     0.120 C 
BRANCH   5   6
ATOM      6  C13 <0> d   1      20.146  -1.192  10.808  0.00  0.00     0.034 C 
BRANCH   6   7
ATOM      7  C14 <0> d   1      19.913  -0.463  12.133  0.00  0.00    -0.021 C 
ATOM      8  C15 <0> d   1      19.851  -1.482  13.272  0.00  0.00     0.009 C 
ATOM      9  C16 <0> d   1      21.063   0.513  12.386  0.00  0.00     0.009 C 
ENDBRANCH   6   7
ENDBRANCH   5   6
BRANCH   5  10
ATOM     10  C17 <0> d   1      18.928  -1.239   8.648  0.00  0.00    -0.009 A 
ATOM     11  C22 <0> d   1      18.605  -0.004   8.099  0.00  0.00     0.038 A 
ATOM     12  C21 <0> d   1      18.731   0.200   6.732  0.00  0.00     0.030 A 
ATOM     13  C20 <0> d   1      19.167  -0.829   5.919  0.00  0.00     0.002 A 
ATOM     14  C19 <0> d   1      19.482  -2.059   6.467  0.00  0.00     0.001 A 
ATOM     15  C18 <0> d   1      19.363  -2.263   7.829  0.00  0.00     0.011 A 
BRANCH  11  16
ATOM     16  N23 <0> d   1      18.166   1.034   8.923  0.00  0.00    -0.380 N 
ATOM     17  C28 <0> d   1      18.869   2.325   8.941  0.00  0.00     0.123 C 
ATOM     18  C27 <0> d   1      19.238   2.672  10.381  0.00  0.00     0.020 C 
ATOM     19  C26 <0> d   1      17.980   2.629  11.253  0.00  0.00     0.003 C 
ATOM     20  C25 <0> d   1      17.389   1.217  11.230  0.00  0.00     0.020 C 
ATOM     21  C24 <0> d   1      16.996   0.856   9.794  0.00  0.00     0.123 C 
ENDBRANCH  11  16
ENDBRANCH   5  10
ENDBRANCH   3   5
BRANCH   1  22
ATOM     22  C7  <0> d   1      16.875  -4.525  11.379  0.00  0.00     0.141 C 
BRANCH  22  23
ATOM     23  C6  <0> d   1      17.118  -5.295  10.106  0.00  0.00    -0.047 A 
ATOM     24  C5  <0> d   1      16.086  -5.473   9.204  0.00  0.00     0.045 A 
ATOM     25  C4  <0> d   1      16.302  -6.180   8.032  0.00  0.00     0.086 A 
ATOM     26  C31 <0> d   1      17.571  -6.719   7.768  0.00  0.00     0.074 A 
ATOM     27  C30 <0> d   1      18.607  -6.526   8.688  0.00  0.00     0.022 A 
ATOM     28  C29 <0> d   1      18.373  -5.821   9.848  0.00  0.00     0.009 A 
BRANCH  25  29
ATOM     29  O3  <0> d   1      15.291  -6.355   7.146  0.00  0.00    -0.350 OA
BRANCH  29  30
ATOM     30  C2  <0> d   1      14.213  -7.203   7.551  0.00  0.00     0.171 C 
ATOM     31  C1  <0> d   1      12.902  -6.417   7.504  0.00  0.00     0.034 C 
ENDBRANCH  29  30
ENDBRANCH  25  29
BRANCH  26  32
ATOM     32  C32 <0> d   1      17.813  -7.471   6.527  0.00  0.00     0.212 C 
ATOM     33  O33 <0> d   1      18.083  -6.874   5.494  0.00  0.00    -0.644 OA
ATOM     34  O34 <0> d   1      17.745  -8.692   6.528  0.00  0.00    -0.644 OA
ENDBRANCH  26  32
ENDBRANCH  22  23
ENDBRANCH   1  22
TORSDOF 10
ENDMDL
MODEL 8
REMARK VINA RESULT:      -7.4      2.802      9.030
REMARK  10 active torsions:
REMARK  status: ('A' for Active; 'I' for Inactive)
REMARK    1  A    between atoms: C2_2  and  O3_3 
REMARK    2  A    between atoms: O3_3  and  C4_4 
REMARK    3  A    between atoms: C6_6  and  C7_7 
REMARK    4  A    between atoms: C7_7  and  C8_8 
REMARK       I    between atoms: C8_8  and  N10_10 
REMARK    5  A    between atoms: N10_10  and  C11_11 
REMARK    6  A    between atoms: C11_11  and  C13_12 
REMARK    7  A    between atoms: C11_11  and  C17_16 
REMARK    8  A    between atoms: C13_12  and  C14_13 
REMARK    9  A    between atoms: C22_21  and  N23_22 
REMARK   10  A    between atoms: C31_30  and  C32_31 
ROOT
ATOM      1  C8  <0> d   1      18.314   1.975  11.313  0.00  0.00     0.222 C 
ATOM      2  O9  <0> d   1      17.138   2.148  11.074  0.00  0.00    -0.273 OA
ATOM      3  N10 <0> d   1      18.690   1.435  12.489  0.00  0.00    -0.352 N 
ATOM      4  H43 <0> d   1      19.625   1.228  12.651  0.00  0.00     0.163 HD
ENDROOT
BRANCH   3   5
ATOM      5  C11 <0> d   1      17.690   1.162  13.524  0.00  0.00     0.120 C 
BRANCH   5   6
ATOM      6  C13 <0> d   1      17.268  -0.307  13.450  0.00  0.00     0.034 C 
BRANCH   6   7
ATOM      7  C14 <0> d   1      18.189  -1.054  12.482  0.00  0.00    -0.021 C 
ATOM      8  C15 <0> d   1      19.174  -1.913  13.276  0.00  0.00     0.009 C 
ATOM      9  C16 <0> d   1      17.350  -1.951  11.570  0.00  0.00     0.009 C 
ENDBRANCH   6   7
ENDBRANCH   5   6
BRANCH   5  10
ATOM     10  C17 <0> d   1      18.279   1.448  14.880  0.00  0.00    -0.009 A 
ATOM     11  C22 <0> d   1      18.519   2.759  15.273  0.00  0.00     0.038 A 
ATOM     12  C21 <0> d   1      19.057   3.019  16.526  0.00  0.00     0.030 A 
ATOM     13  C20 <0> d   1      19.363   1.974  17.375  0.00  0.00     0.002 A 
ATOM     14  C19 <0> d   1      19.129   0.669  16.980  0.00  0.00     0.001 A 
ATOM     15  C18 <0> d   1      18.588   0.407  15.734  0.00  0.00     0.011 A 
BRANCH  11  16
ATOM     16  N23 <0> d   1      18.208   3.815  14.412  0.00  0.00    -0.380 N 
ATOM     17  C28 <0> d   1      19.273   4.634  13.818  0.00  0.00     0.123 C 
ATOM     18  C27 <0> d   1      18.993   6.106  14.114  0.00  0.00     0.020 C 
ATOM     19  C26 <0> d   1      17.583   6.462  13.635  0.00  0.00     0.003 C 
ATOM     20  C25 <0> d   1      16.557   5.612  14.387  0.00  0.00     0.020 C 
ATOM     21  C24 <0> d   1      16.810   4.131  14.089  0.00  0.00     0.123 C 
ENDBRANCH  11  16
ENDBRANCH   5  10
ENDBRANCH   3   5
BRANCH   1  22
ATOM     22  C7  <0> d   1      19.355   2.362  10.294  0.00  0.00     0.141 C 
BRANCH  22  23
ATOM     23  C6  <0> d   1      19.154   1.552   9.039  0.00  0.00    -0.047 A 
ATOM     24  C5  <0> d   1      18.815   0.216   9.131  0.00  0.00     0.045 A 
ATOM     25  C4  <0> d   1      18.629  -0.535   7.981  0.00  0.00     0.086 A 
ATOM     26  C31 <0> d   1      18.791   0.067   6.723  0.00  0.00     0.074 A 
ATOM     27  C30 <0> d   1      19.128   1.423   6.646  0.00  0.00     0.022 A 
ATOM     28  C29 <0> d   1      19.310   2.152   7.800  0.00  0.00     0.009 A 
BRANCH  25  29
ATOM     29  O3  <0> d   1      18.297  -1.846   8.069  0.00  0.00    -0.350 OA
BRANCH  29  30
ATOM     30  C2  <0> d   1      19.319  -2.746   8.505  0.00  0.00     0.171 C 
ATOM     31  C1  <0> d   1      18.876  -4.186   8.242  0.00  0.00     0.034 C 
ENDBRANCH  29  30
ENDBRANCH  25  29
BRANCH  26  32
ATOM     32  C32 <0> d   1      18.595  -0.718   5.495  0.00  0.00     0.212 C 
ATOM     33  O33 <0> d   1      19.564  -1.138   4.876  0.00  0.00    -0.644 OA
ATOM     34  O34 <0> d   1      17.464  -0.953   5.093  0.00  0.00    -0.644 OA
ENDBRANCH  26  32
ENDBRANCH  22  23
ENDBRANCH   1  22
TORSDOF 10
ENDMDL
MODEL 9
REMARK VINA RESULT:      -7.2      1.825      3.280
REMARK  10 active torsions:
REMARK  status: ('A' for Active; 'I' for Inactive)
REMARK    1  A    between atoms: C2_2  and  O3_3 
REMARK    2  A    between atoms: O3_3  and  C4_4 
REMARK    3  A    between atoms: C6_6  and  C7_7 
REMARK    4  A    between atoms: C7_7  and  C8_8 
REMARK       I    between atoms: C8_8  and  N10_10 
REMARK    5  A    between atoms: N10_10  and  C11_11 
REMARK    6  A    between atoms: C11_11  and  C13_12 
REMARK    7  A    between atoms: C11_11  and  C17_16 
REMARK    8  A    between atoms: C13_12  and  C14_13 
REMARK    9  A    between atoms: C22_21  and  N23_22 
REMARK   10  A    between atoms: C31_30  and  C32_31 
ROOT
ATOM      1  C8  <0> d   1      19.026  -0.467  10.802  0.00  0.00     0.222 C 
ATOM      2  O9  <0> d   1      17.900  -0.619  11.227  0.00  0.00    -0.273 OA
ATOM      3  N10 <0> d   1      19.298  -0.731   9.508  0.00  0.00    -0.352 N 
ATOM      4  H43 <0> d   1      20.179  -0.540   9.150  0.00  0.00     0.163 HD
ENDROOT
BRANCH   3   5
ATOM      5  C11 <0> d   1      18.264  -1.307   8.644  0.00  0.00     0.120 C 
BRANCH   5   6
ATOM      6  C13 <0> d   1      17.819  -0.263   7.617  0.00  0.00     0.034 C 
BRANCH   6   7
ATOM      7  C14 <0> d   1      18.969   0.709   7.347  0.00  0.00    -0.021 C 
ATOM      8  C15 <0> d   1      19.060   0.989   5.846  0.00  0.00     0.009 C 
ATOM      9  C16 <0> d   1      18.716   2.019   8.095  0.00  0.00     0.009 C 
ENDBRANCH   6   7
ENDBRANCH   5   6
BRANCH   5  10
ATOM     10  C17 <0> d   1      18.821  -2.510   7.929  0.00  0.00    -0.009 A 
ATOM     11  C22 <0> d   1      18.865  -3.742   8.570  0.00  0.00     0.038 A 
ATOM     12  C21 <0> d   1      19.373  -4.850   7.906  0.00  0.00     0.030 A 
ATOM     13  C20 <0> d   1      19.844  -4.723   6.614  0.00  0.00     0.002 A 
ATOM     14  C19 <0> d   1      19.805  -3.494   5.980  0.00  0.00     0.001 A 
ATOM     15  C18 <0> d   1      19.295  -2.390   6.637  0.00  0.00     0.011 A 
BRANCH  11  16
ATOM     16  N23 <0> d   1      18.388  -3.868   9.877  0.00  0.00    -0.380 N 
ATOM     17  C28 <0> d   1      19.320  -3.977  11.007  0.00  0.00     0.123 C 
ATOM     18  C27 <0> d   1      18.973  -5.222  11.821  0.00  0.00     0.020 C 
ATOM     19  C26 <0> d   1      17.497  -5.169  12.225  0.00  0.00     0.003 C 
ATOM     20  C25 <0> d   1      16.623  -5.151  10.969  0.00  0.00     0.020 C 
ATOM     21  C24 <0> d   1      16.944  -3.899  10.147  0.00  0.00     0.123 C 
ENDBRANCH  11  16
ENDBRANCH   5  10
ENDBRANCH   3   5
BRANCH   1  22
ATOM     22  C7  <0> d   1      20.120   0.017  11.718  0.00  0.00     0.141 C 
BRANCH  22  23
ATOM     23  C6  <0> d   1      19.753   1.374  12.262  0.00  0.00    -0.047 A 
ATOM     24  C5  <0> d   1      19.219   1.483  13.532  0.00  0.00     0.045 A 
ATOM     25  C4  <0> d   1      18.879   2.728  14.039  0.00  0.00     0.086 A 
ATOM     26  C31 <0> d   1      19.077   3.875  13.254  0.00  0.00     0.074 A 
ATOM     27  C30 <0> d   1      19.625   3.750  11.974  0.00  0.00     0.022 A 
ATOM     28  C29 <0> d   1      19.956   2.504  11.487  0.00  0.00     0.009 A 
BRANCH  25  29
ATOM     29  O3  <0> d   1      18.354   2.836  15.283  0.00  0.00    -0.350 OA
BRANCH  29  30
ATOM     30  C2  <0> d   1      19.254   2.679  16.383  0.00  0.00     0.171 C 
ATOM     31  C1  <0> d   1      18.774   1.531  17.273  0.00  0.00     0.034 C 
ENDBRANCH  29  30
ENDBRANCH  25  29
BRANCH  26  32
ATOM     32  C32 <0> d   1      18.722   5.202  13.781  0.00  0.00     0.212 C 
ATOM     33  O33 <0> d   1      17.613   5.671  13.562  0.00  0.00    -0.644 OA
ATOM     34  O34 <0> d   1      19.535   5.837  14.440  0.00  0.00    -0.644 OA
ENDBRANCH  26  32
ENDBRANCH  22  23
ENDBRANCH   1  22
TORSDOF 10
ENDMDL
