MODEL 1
REMARK VINA RESULT:      -8.7      0.000      0.000
REMARK  3 active torsions:
REMARK  status: ('A' for Active; 'I' for Inactive)
REMARK       I    between atoms: N5_5  and  C6_6 
REMARK    1  A    between atoms: C6_6  and  O8_8 
REMARK    2  A    between atoms: O8_8  and  C9_9 
REMARK    3  A    between atoms: N18_18  and  C19_19 
ROOT
ATOM      1  C9  ZIN A   1      19.068   0.665  11.758  0.00  0.00     0.193 A 
ATOM      2  C10 ZIN A   1      18.990   1.268  12.951  0.00  0.00     0.119 A 
ATOM      3  N11 ZIN A   1      19.475   0.999  14.239  0.00  0.00    -0.359 N 
ATOM      4  C12 ZIN A   1      19.175   1.881  15.233  0.00  0.00     0.107 A 
ATOM      5  C13 ZIN A   1      18.431   2.990  14.987  0.00  0.00     0.134 A 
ATOM      6  N14 ZIN A   1      17.954   3.282  13.784  0.00  0.00    -0.252 NA
ATOM      7  C15 ZIN A   1      18.186   2.498  12.758  0.00  0.00     0.156 A 
ATOM      8  C16 ZIN A   1      17.832   2.501  11.336  0.00  0.00     0.286 A 
ATOM      9  O17 ZIN A   1      17.168   3.342  10.753  0.00  0.00    -0.265 OA
ATOM     10  N18 ZIN A   1      18.386   1.397  10.795  0.00  0.00    -0.237 N 
ATOM     11  H35 ZIN A   1      20.006   0.207  14.418  0.00  0.00     0.165 HD
ENDROOT
BRANCH   1  12
ATOM     12  O8  ZIN A   1      19.730  -0.501  11.520  0.00  0.00    -0.241 OA
BRANCH  12  13
ATOM     13  C6  ZIN A   1      19.223  -1.616  12.077  0.00  0.00     0.369 C 
ATOM     14  N5  ZIN A   1      18.987  -2.702  11.315  0.00  0.00    -0.324 N 
ATOM     15  C4  ZIN A   1      18.540  -3.966  11.920  0.00  0.00     0.158 C 
ATOM     16  C26 ZIN A   1      19.171  -2.656   9.857  0.00  0.00     0.158 C 
ATOM     17  C3  ZIN A   1      17.295  -4.451  11.171  0.00  0.00     0.291 C 
ATOM     18  N2  ZIN A   1      17.589  -4.520   9.733  0.00  0.00     0.087 N 
ATOM     19  C1  ZIN A   1      16.479  -5.143   9.000  0.00  0.00     0.310 C 
ATOM     20  C27 ZIN A   1      17.901  -3.193   9.189  0.00  0.00     0.291 C 
ATOM     21  O7  ZIN A   1      18.977  -1.644  13.268  0.00  0.00    -0.238 OA
ENDBRANCH  12  13
ENDBRANCH   1  12
BRANCH  10  22
ATOM     22  C19 ZIN A   1      18.281   1.034   9.451  0.00  0.00     0.138 A 
ATOM     23  N25 ZIN A   1      17.294   0.241   9.062  0.00  0.00    -0.241 NA
ATOM     24  C24 ZIN A   1      17.155  -0.122   7.801  0.00  0.00     0.142 A 
ATOM     25  C22 ZIN A   1      18.048   0.307   6.838  0.00  0.00     0.051 A 
ATOM     26  C21 ZIN A   1      19.099   1.135   7.207  0.00  0.00     0.029 A 
ATOM     27 Cl23 ZIN A   1      17.857  -0.184   5.184  0.00  0.00    -0.083 Cl
ATOM     28  C20 ZIN A   1      19.215   1.503   8.536  0.00  0.00     0.053 A 
ENDBRANCH  10  22
TORSDOF 3
ENDMDL
MODEL 2
REMARK VINA RESULT:      -8.7      1.416      1.710
REMARK  3 active torsions:
REMARK  status: ('A' for Active; 'I' for Inactive)
REMARK       I    between atoms: N5_5  and  C6_6 
REMARK    1  A    between atoms: C6_6  and  O8_8 
REMARK    2  A    between atoms: O8_8  and  C9_9 
REMARK    3  A    between atoms: N18_18  and  C19_19 
ROOT
ATOM      1  C9  ZIN A   1      19.013   2.231  12.354  0.00  0.00     0.193 A 
ATOM      2  C10 ZIN A   1      18.786   3.067  13.375  0.00  0.00     0.119 A 
ATOM      3  N11 ZIN A   1      19.272   3.200  14.683  0.00  0.00    -0.359 N 
ATOM      4  C12 ZIN A   1      18.781   4.214  15.449  0.00  0.00     0.107 A 
ATOM      5  C13 ZIN A   1      17.848   5.073  14.962  0.00  0.00     0.134 A 
ATOM      6  N14 ZIN A   1      17.362   4.982  13.731  0.00  0.00    -0.252 NA
ATOM      7  C15 ZIN A   1      17.769   4.041  12.912  0.00  0.00     0.156 A 
ATOM      8  C16 ZIN A   1      17.465   3.648  11.535  0.00  0.00     0.286 A 
ATOM      9  O17 ZIN A   1      16.672   4.189  10.781  0.00  0.00    -0.265 OA
ATOM     10  N18 ZIN A   1      18.235   2.576  11.257  0.00  0.00    -0.237 N 
ATOM     11  H35 ZIN A   1      19.939   2.588  15.033  0.00  0.00     0.165 HD
ENDROOT
BRANCH   1  12
ATOM     12  O8  ZIN A   1      19.890   1.191  12.384  0.00  0.00    -0.241 OA
BRANCH  12  13
ATOM     13  C6  ZIN A   1      19.459   0.043  12.939  0.00  0.00     0.369 C 
ATOM     14  N5  ZIN A   1      19.661  -1.129  12.305  0.00  0.00    -0.324 N 
ATOM     15  C4  ZIN A   1      19.299  -2.404  12.943  0.00  0.00     0.158 C 
ATOM     16  C26 ZIN A   1      20.250  -1.167  10.958  0.00  0.00     0.158 C 
ATOM     17  C3  ZIN A   1      18.438  -3.210  11.965  0.00  0.00     0.291 C 
ATOM     18  N2  ZIN A   1      19.146  -3.336  10.684  0.00  0.00     0.087 N 
ATOM     19  C1  ZIN A   1      18.433  -4.245   9.777  0.00  0.00     0.310 C 
ATOM     20  C27 ZIN A   1      19.352  -2.023  10.058  0.00  0.00     0.291 C 
ATOM     21  O7  ZIN A   1      18.887   0.063  14.012  0.00  0.00    -0.238 OA
ENDBRANCH  12  13
ENDBRANCH   1  12
BRANCH  10  22
ATOM     22  C19 ZIN A   1      18.241   1.899  10.036  0.00  0.00     0.138 A 
ATOM     23  N25 ZIN A   1      17.374   0.921   9.824  0.00  0.00    -0.241 NA
ATOM     24  C24 ZIN A   1      17.343   0.259   8.684  0.00  0.00     0.142 A 
ATOM     25  C22 ZIN A   1      18.229   0.560   7.666  0.00  0.00     0.051 A 
ATOM     26  C21 ZIN A   1      19.158   1.575   7.851  0.00  0.00     0.029 A 
ATOM     27 Cl23 ZIN A   1      18.182  -0.324   6.173  0.00  0.00    -0.083 Cl
ATOM     28  C20 ZIN A   1      19.161   2.254   9.057  0.00  0.00     0.053 A 
ENDBRANCH  10  22
TORSDOF 3
ENDMDL
MODEL 3
REMARK VINA RESULT:      -8.5      2.542      4.453
REMARK  3 active torsions:
REMARK  status: ('A' for Active; 'I' for Inactive)
REMARK       I    between atoms: N5_5  and  C6_6 
REMARK    1  A    between atoms: C6_6  and  O8_8 
REMARK    2  A    between atoms: O8_8  and  C9_9 
REMARK    3  A    between atoms: N18_18  and  C19_19 
ROOT
ATOM      1  C9  ZIN A   1      19.504   0.375  11.058  0.00  0.00     0.193 A 
ATOM      2  C10 ZIN A   1      19.543   1.616  11.559  0.00  0.00     0.119 A 
ATOM      3  N11 ZIN A   1      20.092   2.841  11.152  0.00  0.00    -0.359 N 
ATOM      4  C12 ZIN A   1      19.917   3.922  11.961  0.00  0.00     0.107 A 
ATOM      5  C13 ZIN A   1      19.230   3.821  13.129  0.00  0.00     0.134 A 
ATOM      6  N14 ZIN A   1      18.695   2.684  13.551  0.00  0.00    -0.252 NA
ATOM      7  C15 ZIN A   1      18.807   1.583  12.845  0.00  0.00     0.156 A 
ATOM      8  C16 ZIN A   1      18.363   0.195  12.993  0.00  0.00     0.286 A 
ATOM      9  O17 ZIN A   1      17.719  -0.269  13.919  0.00  0.00    -0.265 OA
ATOM     10  N18 ZIN A   1      18.798  -0.471  11.903  0.00  0.00    -0.237 N 
ATOM     11  H35 ZIN A   1      20.584   2.915  10.318  0.00  0.00     0.165 HD
ENDROOT
BRANCH   1  12
ATOM     12  O8  ZIN A   1      20.070  -0.002   9.879  0.00  0.00    -0.241 OA
BRANCH  12  13
ATOM     13  C6  ZIN A   1      19.502   0.461   8.751  0.00  0.00     0.369 C 
ATOM     14  N5  ZIN A   1      18.908  -0.394   7.895  0.00  0.00    -0.324 N 
ATOM     15  C4  ZIN A   1      18.184   0.101   6.715  0.00  0.00     0.158 C 
ATOM     16  C26 ZIN A   1      18.966  -1.846   8.117  0.00  0.00     0.158 C 
ATOM     17  C3  ZIN A   1      18.698  -0.646   5.479  0.00  0.00     0.291 C 
ATOM     18  N2  ZIN A   1      18.595  -2.093   5.710  0.00  0.00     0.087 N 
ATOM     19  C1  ZIN A   1      18.916  -2.843   4.488  0.00  0.00     0.310 C 
ATOM     20  C27 ZIN A   1      19.448  -2.517   6.827  0.00  0.00     0.291 C 
ATOM     21  O7  ZIN A   1      19.524   1.652   8.504  0.00  0.00    -0.238 OA
ENDBRANCH  12  13
ENDBRANCH   1  12
BRANCH  10  22
ATOM     22  C19 ZIN A   1      18.579  -1.828  11.662  0.00  0.00     0.138 A 
ATOM     23  N25 ZIN A   1      17.369  -2.246  11.320  0.00  0.00    -0.241 NA
ATOM     24  C24 ZIN A   1      17.120  -3.519  11.079  0.00  0.00     0.142 A 
ATOM     25  C22 ZIN A   1      18.118  -4.469  11.187  0.00  0.00     0.051 A 
ATOM     26  C21 ZIN A   1      19.398  -4.072  11.548  0.00  0.00     0.029 A 
ATOM     27 Cl23 ZIN A   1      17.774  -6.141  10.873  0.00  0.00    -0.083 Cl
ATOM     28  C20 ZIN A   1      19.629  -2.729  11.789  0.00  0.00     0.053 A 
ENDBRANCH  10  22
TORSDOF 3
ENDMDL
MODEL 4
REMARK VINA RESULT:      -8.4      3.019      7.098
REMARK  3 active torsions:
REMARK  status: ('A' for Active; 'I' for Inactive)
REMARK       I    between atoms: N5_5  and  C6_6 
REMARK    1  A    between atoms: C6_6  and  O8_8 
REMARK    2  A    between atoms: O8_8  and  C9_9 
REMARK    3  A    between atoms: N18_18  and  C19_19 
ROOT
ATOM      1  C9  ZIN A   1      19.109  -1.045  10.259  0.00  0.00     0.193 A 
ATOM      2  C10 ZIN A   1      19.064  -1.805   9.157  0.00  0.00     0.119 A 
ATOM      3  N11 ZIN A   1      19.498  -1.668   7.831  0.00  0.00    -0.359 N 
ATOM      4  C12 ZIN A   1      19.260  -2.696   6.970  0.00  0.00     0.107 A 
ATOM      5  C13 ZIN A   1      18.624  -3.824   7.381  0.00  0.00     0.134 A 
ATOM      6  N14 ZIN A   1      18.198  -3.994   8.625  0.00  0.00    -0.252 NA
ATOM      7  C15 ZIN A   1      18.377  -3.064   9.533  0.00  0.00     0.156 A 
ATOM      8  C16 ZIN A   1      18.051  -2.910  10.953  0.00  0.00     0.286 A 
ATOM      9  O17 ZIN A   1      17.477  -3.720  11.660  0.00  0.00    -0.265 OA
ATOM     10  N18 ZIN A   1      18.514  -1.700  11.329  0.00  0.00    -0.237 N 
ATOM     11  H35 ZIN A   1      19.952  -0.863   7.535  0.00  0.00     0.165 HD
ENDROOT
BRANCH   1  12
ATOM     12  O8  ZIN A   1      19.667   0.195  10.322  0.00  0.00    -0.241 OA
BRANCH  12  13
ATOM     13  C6  ZIN A   1      18.917   1.226   9.893  0.00  0.00     0.369 C 
ATOM     14  N5  ZIN A   1      18.997   2.421  10.510  0.00  0.00    -0.324 N 
ATOM     15  C4  ZIN A   1      18.272   3.590   9.990  0.00  0.00     0.158 C 
ATOM     16  C26 ZIN A   1      19.813   2.591  11.722  0.00  0.00     0.158 C 
ATOM     17  C3  ZIN A   1      17.470   4.216  11.136  0.00  0.00     0.291 C 
ATOM     18  N2  ZIN A   1      18.370   4.494  12.263  0.00  0.00     0.087 N 
ATOM     19  C1  ZIN A   1      17.676   5.250  13.315  0.00  0.00     0.310 C 
ATOM     20  C27 ZIN A   1      18.950   3.257  12.800  0.00  0.00     0.291 C 
ATOM     21  O7  ZIN A   1      18.166   1.079   8.947  0.00  0.00    -0.238 OA
ENDBRANCH  12  13
ENDBRANCH   1  12
BRANCH  10  22
ATOM     22  C19 ZIN A   1      18.401  -1.173  12.617  0.00  0.00     0.138 A 
ATOM     23  N25 ZIN A   1      17.476  -0.260  12.873  0.00  0.00    -0.241 NA
ATOM     24  C24 ZIN A   1      17.332   0.260  14.077  0.00  0.00     0.142 A 
ATOM     25  C22 ZIN A   1      18.156  -0.125  15.118  0.00  0.00     0.051 A 
ATOM     26  C21 ZIN A   1      19.142  -1.075  14.888  0.00  0.00     0.029 A 
ATOM     27 Cl23 ZIN A   1      17.961   0.573  16.695  0.00  0.00    -0.083 Cl
ATOM     28  C20 ZIN A   1      19.264  -1.606  13.616  0.00  0.00     0.053 A 
ENDBRANCH  10  22
TORSDOF 3
ENDMDL
MODEL 5
REMARK VINA RESULT:      -8.2      3.524      6.318
REMARK  3 active torsions:
REMARK  status: ('A' for Active; 'I' for Inactive)
REMARK       I    between atoms: N5_5  and  C6_6 
REMARK    1  A    between atoms: C6_6  and  O8_8 
REMARK    2  A    between atoms: O8_8  and  C9_9 
REMARK    3  A    between atoms: N18_18  and  C19_19 
ROOT
ATOM      1  C9  ZIN A   1      19.425   1.809  11.487  0.00  0.00     0.193 A 
ATOM      2  C10 ZIN A   1      19.410   1.158  10.317  0.00  0.00     0.119 A 
ATOM      3  N11 ZIN A   1      19.815  -0.109   9.874  0.00  0.00    -0.359 N 
ATOM      4  C12 ZIN A   1      19.628  -0.418   8.561  0.00  0.00     0.107 A 
ATOM      5  C13 ZIN A   1      19.065   0.472   7.703  0.00  0.00     0.134 A 
ATOM      6  N14 ZIN A   1      18.667   1.680   8.080  0.00  0.00    -0.252 NA
ATOM      7  C15 ZIN A   1      18.802   2.076   9.324  0.00  0.00     0.156 A 
ATOM      8  C16 ZIN A   1      18.490   3.295  10.074  0.00  0.00     0.286 A 
ATOM      9  O17 ZIN A   1      17.977   4.310   9.634  0.00  0.00    -0.265 OA
ATOM     10  N18 ZIN A   1      18.874   3.076  11.349  0.00  0.00    -0.237 N 
ATOM     11  H35 ZIN A   1      20.218  -0.746  10.484  0.00  0.00     0.165 HD
ENDROOT
BRANCH   1  12
ATOM     12  O8  ZIN A   1      19.907   1.297  12.652  0.00  0.00    -0.241 OA
BRANCH  12  13
ATOM     13  C6  ZIN A   1      19.200   0.305  13.223  0.00  0.00     0.369 C 
ATOM     14  N5  ZIN A   1      18.609   0.500  14.418  0.00  0.00    -0.324 N 
ATOM     15  C4  ZIN A   1      17.740  -0.530  15.008  0.00  0.00     0.158 C 
ATOM     16  C26 ZIN A   1      18.815   1.749  15.167  0.00  0.00     0.158 C 
ATOM     17  C3  ZIN A   1      18.204  -0.794  16.444  0.00  0.00     0.291 C 
ATOM     18  N2  ZIN A   1      18.250   0.476  17.181  0.00  0.00     0.087 N 
ATOM     19  C1  ZIN A   1      18.524   0.246  18.606  0.00  0.00     0.310 C 
ATOM     20  C27 ZIN A   1      19.236   1.395  16.598  0.00  0.00     0.291 C 
ATOM     21  O7  ZIN A   1      19.095  -0.768  12.661  0.00  0.00    -0.238 OA
ENDBRANCH  12  13
ENDBRANCH   1  12
BRANCH  10  22
ATOM     22  C19 ZIN A   1      18.746   4.002  12.386  0.00  0.00     0.138 A 
ATOM     23  N25 ZIN A   1      17.566   4.182  12.961  0.00  0.00    -0.241 NA
ATOM     24  C24 ZIN A   1      17.402   5.042  13.947  0.00  0.00     0.142 A 
ATOM     25  C22 ZIN A   1      18.462   5.800  14.411  0.00  0.00     0.051 A 
ATOM     26  C21 ZIN A   1      19.713   5.644  13.830  0.00  0.00     0.029 A 
ATOM     27 Cl23 ZIN A   1      18.230   6.933  15.704  0.00  0.00    -0.083 Cl
ATOM     28  C20 ZIN A   1      19.854   4.729  12.801  0.00  0.00     0.053 A 
ENDBRANCH  10  22
TORSDOF 3
ENDMDL
MODEL 6
REMARK VINA RESULT:      -8.2      2.230      5.878
REMARK  3 active torsions:
REMARK  status: ('A' for Active; 'I' for Inactive)
REMARK       I    between atoms: N5_5  and  C6_6 
REMARK    1  A    between atoms: C6_6  and  O8_8 
REMARK    2  A    between atoms: O8_8  and  C9_9 
REMARK    3  A    between atoms: N18_18  and  C19_19 
ROOT
ATOM      1  C9  ZIN A   1      18.860   0.919  12.318  0.00  0.00     0.193 A 
ATOM      2  C10 ZIN A   1      18.872   0.695  13.638  0.00  0.00     0.119 A 
ATOM      3  N11 ZIN A   1      19.070   1.480  14.782  0.00  0.00    -0.359 N 
ATOM      4  C12 ZIN A   1      19.004   0.869  15.998  0.00  0.00     0.107 A 
ATOM      5  C13 ZIN A   1      18.753  -0.462  16.102  0.00  0.00     0.134 A 
ATOM      6  N14 ZIN A   1      18.560  -1.241  15.046  0.00  0.00    -0.252 NA
ATOM      7  C15 ZIN A   1      18.602  -0.750  13.829  0.00  0.00     0.156 A 
ATOM      8  C16 ZIN A   1      18.443  -1.289  12.477  0.00  0.00     0.286 A 
ATOM      9  O17 ZIN A   1      18.209  -2.448  12.178  0.00  0.00    -0.265 OA
ATOM     10  N18 ZIN A   1      18.600  -0.255  11.625  0.00  0.00    -0.237 N 
ATOM     11  H35 ZIN A   1      19.250   2.431  14.711  0.00  0.00     0.165 HD
ENDROOT
BRANCH   1  12
ATOM     12  O8  ZIN A   1      19.068   2.132  11.736  0.00  0.00    -0.241 OA
BRANCH  12  13
ATOM     13  C6  ZIN A   1      18.059   3.021  11.799  0.00  0.00     0.369 C 
ATOM     14  N5  ZIN A   1      18.264   4.235  12.347  0.00  0.00    -0.324 N 
ATOM     15  C4  ZIN A   1      17.210   5.261  12.325  0.00  0.00     0.158 C 
ATOM     16  C26 ZIN A   1      19.548   4.570  12.982  0.00  0.00     0.158 C 
ATOM     17  C3  ZIN A   1      17.022   5.796  13.748  0.00  0.00     0.291 C 
ATOM     18  N2  ZIN A   1      18.317   6.248  14.273  0.00  0.00     0.087 N 
ATOM     19  C1  ZIN A   1      18.153   6.924  15.566  0.00  0.00     0.310 C 
ATOM     20  C27 ZIN A   1      19.267   5.133  14.379  0.00  0.00     0.291 C 
ATOM     21  O7  ZIN A   1      16.963   2.729  11.361  0.00  0.00    -0.238 OA
ENDBRANCH  12  13
ENDBRANCH   1  12
BRANCH  10  22
ATOM     22  C19 ZIN A   1      18.521  -0.354  10.234  0.00  0.00     0.138 A 
ATOM     23  N25 ZIN A   1      19.595  -0.699   9.540  0.00  0.00    -0.241 NA
ATOM     24  C24 ZIN A   1      19.563  -0.809   8.226  0.00  0.00     0.142 A 
ATOM     25  C22 ZIN A   1      18.400  -0.555   7.522  0.00  0.00     0.051 A 
ATOM     26  C21 ZIN A   1      17.255  -0.185   8.213  0.00  0.00     0.029 A 
ATOM     27 Cl23 ZIN A   1      18.374  -0.696   5.792  0.00  0.00    -0.083 Cl
ATOM     28  C20 ZIN A   1      17.319  -0.083   9.592  0.00  0.00     0.053 A 
ENDBRANCH  10  22
TORSDOF 3
ENDMDL
MODEL 7
REMARK VINA RESULT:      -8.2      3.215      7.395
REMARK  3 active torsions:
REMARK  status: ('A' for Active; 'I' for Inactive)
REMARK       I    between atoms: N5_5  and  C6_6 
REMARK    1  A    between atoms: C6_6  and  O8_8 
REMARK    2  A    between atoms: O8_8  and  C9_9 
REMARK    3  A    between atoms: N18_18  and  C19_19 
ROOT
ATOM      1  C9  ZIN A   1      18.954   1.081  10.396  0.00  0.00     0.193 A 
ATOM      2  C10 ZIN A   1      18.928   0.952   9.064  0.00  0.00     0.119 A 
ATOM      3  N11 ZIN A   1      19.118   1.814   7.974  0.00  0.00    -0.359 N 
ATOM      4  C12 ZIN A   1      19.006   1.294   6.720  0.00  0.00     0.107 A 
ATOM      5  C13 ZIN A   1      18.720  -0.020   6.527  0.00  0.00     0.134 A 
ATOM      6  N14 ZIN A   1      18.533  -0.868   7.529  0.00  0.00    -0.252 NA
ATOM      7  C15 ZIN A   1      18.619  -0.468   8.776  0.00  0.00     0.156 A 
ATOM      8  C16 ZIN A   1      18.478  -1.100  10.090  0.00  0.00     0.286 A 
ATOM      9  O17 ZIN A   1      18.221  -2.271  10.311  0.00  0.00    -0.265 OA
ATOM     10  N18 ZIN A   1      18.694  -0.137  11.010  0.00  0.00    -0.237 N 
ATOM     11  H35 ZIN A   1      19.323   2.753   8.108  0.00  0.00     0.165 HD
ENDROOT
BRANCH   1  12
ATOM     12  O8  ZIN A   1      19.208   2.243  11.058  0.00  0.00    -0.241 OA
BRANCH  12  13
ATOM     13  C6  ZIN A   1      18.164   3.062  11.279  0.00  0.00     0.369 C 
ATOM     14  N5  ZIN A   1      18.343   4.216  11.950  0.00  0.00    -0.324 N 
ATOM     15  C4  ZIN A   1      17.241   5.178  12.106  0.00  0.00     0.158 C 
ATOM     16  C26 ZIN A   1      19.646   4.549  12.546  0.00  0.00     0.158 C 
ATOM     17  C3  ZIN A   1      17.116   5.539  13.590  0.00  0.00     0.291 C 
ATOM     18  N2  ZIN A   1      18.418   6.000  14.089  0.00  0.00     0.087 N 
ATOM     19  C1  ZIN A   1      18.301   6.518  15.460  0.00  0.00     0.310 C 
ATOM     20  C27 ZIN A   1      19.426   4.935  14.013  0.00  0.00     0.291 C 
ATOM     21  O7  ZIN A   1      17.058   2.760  10.873  0.00  0.00    -0.238 OA
ENDBRANCH  12  13
ENDBRANCH   1  12
BRANCH  10  22
ATOM     22  C19 ZIN A   1      18.650  -0.335  12.391  0.00  0.00     0.138 A 
ATOM     23  N25 ZIN A   1      19.684  -0.887  13.007  0.00  0.00    -0.241 NA
ATOM     24  C24 ZIN A   1      19.686  -1.088  14.311  0.00  0.00     0.142 A 
ATOM     25  C22 ZIN A   1      18.596  -0.735  15.084  0.00  0.00     0.051 A 
ATOM     26  C21 ZIN A   1      17.490  -0.158  14.475  0.00  0.00     0.029 A 
ATOM     27 Cl23 ZIN A   1      18.609  -1.011  16.797  0.00  0.00    -0.083 Cl
ATOM     28  C20 ZIN A   1      17.520   0.044  13.105  0.00  0.00     0.053 A 
ENDBRANCH  10  22
TORSDOF 3
ENDMDL
MODEL 8
REMARK VINA RESULT:      -8.1      2.422      4.399
REMARK  3 active torsions:
REMARK  status: ('A' for Active; 'I' for Inactive)
REMARK       I    between atoms: N5_5  and  C6_6 
REMARK    1  A    between atoms: C6_6  and  O8_8 
REMARK    2  A    between atoms: O8_8  and  C9_9 
REMARK    3  A    between atoms: N18_18  and  C19_19 
ROOT
ATOM      1  C9  ZIN A   1      17.848   2.080  12.071  0.00  0.00     0.193 A 
ATOM      2  C10 ZIN A   1      17.768   3.246  12.724  0.00  0.00     0.119 A 
ATOM      3  N11 ZIN A   1      17.194   4.499  12.464  0.00  0.00    -0.359 N 
ATOM      4  C12 ZIN A   1      17.328   5.473  13.407  0.00  0.00     0.107 A 
ATOM      5  C13 ZIN A   1      17.998   5.242  14.565  0.00  0.00     0.134 A 
ATOM      6  N14 ZIN A   1      18.556   4.073  14.851  0.00  0.00    -0.252 NA
ATOM      7  C15 ZIN A   1      18.483   3.067  14.010  0.00  0.00     0.156 A 
ATOM      8  C16 ZIN A   1      18.962   1.683  13.989  0.00  0.00     0.286 A 
ATOM      9  O17 ZIN A   1      19.604   1.122  14.861  0.00  0.00    -0.265 OA
ATOM     10  N18 ZIN A   1      18.551   1.147  12.822  0.00  0.00    -0.237 N 
ATOM     11  H35 ZIN A   1      16.715   4.667  11.637  0.00  0.00     0.165 HD
ENDROOT
BRANCH   1  12
ATOM     12  O8  ZIN A   1      17.309   1.840  10.845  0.00  0.00    -0.241 OA
BRANCH  12  13
ATOM     13  C6  ZIN A   1      18.137   1.918   9.787  0.00  0.00     0.369 C 
ATOM     14  N5  ZIN A   1      18.051   1.009   8.796  0.00  0.00    -0.324 N 
ATOM     15  C4  ZIN A   1      18.868   1.139   7.579  0.00  0.00     0.158 C 
ATOM     16  C26 ZIN A   1      17.138  -0.139   8.901  0.00  0.00     0.158 C 
ATOM     17  C3  ZIN A   1      19.589  -0.191   7.333  0.00  0.00     0.291 C 
ATOM     18  N2  ZIN A   1      18.604  -1.280   7.306  0.00  0.00     0.087 N 
ATOM     19  C1  ZIN A   1      19.231  -2.546   6.903  0.00  0.00     0.310 C 
ATOM     20  C27 ZIN A   1      17.927  -1.418   8.602  0.00  0.00     0.291 C 
ATOM     21  O7  ZIN A   1      18.963   2.808   9.725  0.00  0.00    -0.238 OA
ENDBRANCH  12  13
ENDBRANCH   1  12
BRANCH  10  22
ATOM     22  C19 ZIN A   1      18.807  -0.164  12.417  0.00  0.00     0.138 A 
ATOM     23  N25 ZIN A   1      19.937  -0.448  11.787  0.00  0.00    -0.241 NA
ATOM     24  C24 ZIN A   1      20.220  -1.674  11.393  0.00  0.00     0.142 A 
ATOM     25  C22 ZIN A   1      19.335  -2.712  11.616  0.00  0.00     0.051 A 
ATOM     26  C21 ZIN A   1      18.137  -2.455  12.269  0.00  0.00     0.029 A 
ATOM     27 Cl23 ZIN A   1      19.717  -4.320  11.085  0.00  0.00    -0.083 Cl
ATOM     28  C20 ZIN A   1      17.872  -1.159  12.675  0.00  0.00     0.053 A 
ENDBRANCH  10  22
TORSDOF 3
ENDMDL
MODEL 9
REMARK VINA RESULT:      -8.1      2.904      5.293
REMARK  3 active torsions:
REMARK  status: ('A' for Active; 'I' for Inactive)
REMARK       I    between atoms: N5_5  and  C6_6 
REMARK    1  A    between atoms: C6_6  and  O8_8 
REMARK    2  A    between atoms: O8_8  and  C9_9 
REMARK    3  A    between atoms: N18_18  and  C19_19 
ROOT
ATOM      1  C9  ZIN A   1      19.160  -1.255   9.812  0.00  0.00     0.193 A 
ATOM      2  C10 ZIN A   1      19.159  -1.165   8.476  0.00  0.00     0.119 A 
ATOM      3  N11 ZIN A   1      19.318  -2.068   7.415  0.00  0.00    -0.359 N 
ATOM      4  C12 ZIN A   1      19.251  -1.580   6.144  0.00  0.00     0.107 A 
ATOM      5  C13 ZIN A   1      19.035  -0.260   5.909  0.00  0.00     0.134 A 
ATOM      6  N14 ZIN A   1      18.879   0.626   6.883  0.00  0.00    -0.252 NA
ATOM      7  C15 ZIN A   1      18.925   0.260   8.143  0.00  0.00     0.156 A 
ATOM      8  C16 ZIN A   1      18.801   0.937   9.435  0.00  0.00     0.286 A 
ATOM      9  O17 ZIN A   1      18.604   2.127   9.618  0.00  0.00    -0.265 OA
ATOM     10  N18 ZIN A   1      18.942  -0.010  10.386  0.00  0.00    -0.237 N 
ATOM     11  H35 ZIN A   1      19.473  -3.011   7.580  0.00  0.00     0.165 HD
ENDROOT
BRANCH   1  12
ATOM     12  O8  ZIN A   1      19.342  -2.409  10.511  0.00  0.00    -0.241 OA
BRANCH  12  13
ATOM     13  C6  ZIN A   1      18.277  -3.222  10.637  0.00  0.00     0.369 C 
ATOM     14  N5  ZIN A   1      18.350  -4.497  10.207  0.00  0.00    -0.324 N 
ATOM     15  C4  ZIN A   1      17.239  -5.435  10.436  0.00  0.00     0.158 C 
ATOM     16  C26 ZIN A   1      19.540  -4.989   9.497  0.00  0.00     0.158 C 
ATOM     17  C3  ZIN A   1      16.877  -6.096   9.101  0.00  0.00     0.291 C 
ATOM     18  N2  ZIN A   1      18.083  -6.693   8.513  0.00  0.00     0.087 N 
ATOM     19  C1  ZIN A   1      17.749  -7.484   7.320  0.00  0.00     0.310 C 
ATOM     20  C27 ZIN A   1      19.087  -5.668   8.200  0.00  0.00     0.291 C 
ATOM     21  O7  ZIN A   1      17.251  -2.807  11.139  0.00  0.00    -0.238 OA
ENDBRANCH  12  13
ENDBRANCH   1  12
BRANCH  10  22
ATOM     22  C19 ZIN A   1      18.886   0.231  11.760  0.00  0.00     0.138 A 
ATOM     23  N25 ZIN A   1      20.010   0.363  12.448  0.00  0.00    -0.241 NA
ATOM     24  C24 ZIN A   1      20.002   0.596  13.746  0.00  0.00     0.142 A 
ATOM     25  C22 ZIN A   1      18.811   0.700  14.440  0.00  0.00     0.051 A 
ATOM     26  C21 ZIN A   1      17.612   0.562  13.756  0.00  0.00     0.029 A 
ATOM     27 Cl23 ZIN A   1      18.816   1.000  16.150  0.00  0.00    -0.083 Cl
ATOM     28  C20 ZIN A   1      17.653   0.324  12.393  0.00  0.00     0.053 A 
ENDBRANCH  10  22
TORSDOF 3
ENDMDL
