MODEL 1
REMARK VINA RESULT:      -9.6      0.000      0.000
REMARK  3 active torsions:
REMARK  status: ('A' for Active; 'I' for Inactive)
REMARK    1  A    between atoms: C7_7  and  N9_8 
REMARK    2  A    between atoms: C11_10  and  C12_11 
REMARK    3  A    between atoms: C12_11  and  C13_12 
ROOT
ATOM      1  N9  <0> d   1      18.455   0.146  11.458  0.00  0.00    -0.229 N 
ATOM      2  N10 <0> d   1      18.414   1.505  11.142  0.00  0.00    -0.173 NA
ATOM      3  C11 <0> d   1      18.515   1.946   9.924  0.00  0.00     0.070 A 
ATOM      4  C20 <0> d   1      18.679   1.003   8.816  0.00  0.00     0.006 A 
ATOM      5  C21 <0> d   1      18.792   1.435   7.493  0.00  0.00     0.014 A 
ATOM      6  C22 <0> d   1      18.944   0.507   6.486  0.00  0.00     0.001 A 
ATOM      7  C23 <0> d   1      18.987  -0.851   6.773  0.00  0.00     0.001 A 
ATOM      8  C24 <0> d   1      18.879  -1.300   8.070  0.00  0.00     0.018 A 
ATOM      9  C25 <0> d   1      18.724  -0.380   9.105  0.00  0.00     0.046 A 
ATOM     10  C26 <0> d   1      18.608  -0.799  10.509  0.00  0.00     0.275 A 
ATOM     11  O27 <0> d   1      18.645  -1.980  10.807  0.00  0.00    -0.266 OA
ENDROOT
BRANCH   1  12
ATOM     12  C7  <0> d   1      18.332  -0.263  12.859  0.00  0.00     0.115 C 
ATOM     13  C6  <0> d   1      19.714  -0.456  13.429  0.00  0.00     0.029 C 
ATOM     14  C5  <0> d   1      19.672  -1.578  14.494  0.00  0.00     0.030 C 
ATOM     15  C4  <0> d   1      19.059  -1.105  15.732  0.00  0.00     0.234 C 
ATOM     16  N2  <0> d   1      17.656  -0.684  15.575  0.00  0.00    -0.075 N 
ATOM     17  C1  <0> d   1      16.954  -0.799  16.861  0.00  0.00     0.269 C 
ATOM     18  H3  <0> d   1      17.201  -1.261  14.884  0.00  0.00     0.279 HD
ATOM     19  C29 <0> d   1      17.656   0.694  15.139  0.00  0.00     0.236 C 
ATOM     20  C28 <0> d   1      17.505   0.797  13.612  0.00  0.00     0.055 C 
ENDBRANCH   1  12
BRANCH   3  21
ATOM     21  C12 <0> d   1      18.464   3.427   9.651  0.00  0.00     0.100 C 
BRANCH  21  22
ATOM     22  C13 <0> d   1      18.089   4.157  10.915  0.00  0.00    -0.052 A 
ATOM     23  C19 <0> d   1      16.813   4.667  11.065  0.00  0.00     0.009 A 
ATOM     24  C18 <0> d   1      16.467   5.332  12.226  0.00  0.00     0.024 A 
ATOM     25  C16 <0> d   1      17.401   5.497  13.234  0.00  0.00     0.034 A 
ATOM     26  C15 <0> d   1      18.679   4.991  13.080  0.00  0.00     0.024 A 
ATOM     27 Cl17 <0> d   1      16.969   6.339  14.689  0.00  0.00    -0.084 Cl
ATOM     28  C14 <0> d   1      19.023   4.322  11.921  0.00  0.00     0.009 A 
ENDBRANCH  21  22
ENDBRANCH   3  21
TORSDOF 3
ENDMDL
MODEL 2
REMARK VINA RESULT:      -9.5      3.419      5.646
REMARK  3 active torsions:
REMARK  status: ('A' for Active; 'I' for Inactive)
REMARK    1  A    between atoms: C7_7  and  N9_8 
REMARK    2  A    between atoms: C11_10  and  C12_11 
REMARK    3  A    between atoms: C12_11  and  C13_12 
ROOT
ATOM      1  N9  <0> d   1      18.531   1.055  13.301  0.00  0.00    -0.229 N 
ATOM      2  N10 <0> d   1      19.298   0.032  12.741  0.00  0.00    -0.173 NA
ATOM      3  C11 <0> d   1      19.640   0.017  11.488  0.00  0.00     0.070 A 
ATOM      4  C20 <0> d   1      19.221   1.103  10.602  0.00  0.00     0.006 A 
ATOM      5  C21 <0> d   1      19.568   1.126   9.250  0.00  0.00     0.014 A 
ATOM      6  C22 <0> d   1      19.148   2.171   8.458  0.00  0.00     0.001 A 
ATOM      7  C23 <0> d   1      18.385   3.203   8.989  0.00  0.00     0.001 A 
ATOM      8  C24 <0> d   1      18.030   3.201  10.320  0.00  0.00     0.018 A 
ATOM      9  C25 <0> d   1      18.444   2.154  11.140  0.00  0.00     0.046 A 
ATOM     10  C26 <0> d   1      18.092   2.096  12.566  0.00  0.00     0.275 A 
ATOM     11  O27 <0> d   1      17.420   2.977  13.074  0.00  0.00    -0.266 OA
ENDROOT
BRANCH   1  12
ATOM     12  C7  <0> d   1      18.190   0.992  14.724  0.00  0.00     0.115 C 
ATOM     13  C6  <0> d   1      18.372  -0.425  15.203  0.00  0.00     0.029 C 
ATOM     14  C5  <0> d   1      17.339  -0.721  16.318  0.00  0.00     0.030 C 
ATOM     15  C4  <0> d   1      17.725  -0.083  17.573  0.00  0.00     0.234 C 
ATOM     16  N2  <0> d   1      17.785   1.388  17.497  0.00  0.00    -0.075 N 
ATOM     17  C1  <0> d   1      17.582   1.965  18.833  0.00  0.00     0.269 C 
ATOM     18  H3  <0> d   1      17.074   1.727  16.867  0.00  0.00     0.279 HD
ATOM     19  C29 <0> d   1      19.092   1.750  17.001  0.00  0.00     0.236 C 
ATOM     20  C28 <0> d   1      19.063   2.009  15.485  0.00  0.00     0.055 C 
ENDBRANCH   1  12
BRANCH   3  21
ATOM     21  C12 <0> d   1      20.469  -1.120  10.947  0.00  0.00     0.100 C 
BRANCH  21  22
ATOM     22  C13 <0> d   1      19.624  -2.365  10.869  0.00  0.00    -0.052 A 
ATOM     23  C19 <0> d   1      19.961  -3.476  11.619  0.00  0.00     0.009 A 
ATOM     24  C18 <0> d   1      19.183  -4.617  11.551  0.00  0.00     0.024 A 
ATOM     25  C16 <0> d   1      18.074  -4.649  10.724  0.00  0.00     0.034 A 
ATOM     26  C15 <0> d   1      17.741  -3.539   9.970  0.00  0.00     0.024 A 
ATOM     27 Cl17 <0> d   1      17.101  -6.084  10.633  0.00  0.00    -0.084 Cl
ATOM     28  C14 <0> d   1      18.517  -2.397  10.043  0.00  0.00     0.009 A 
ENDBRANCH  21  22
ENDBRANCH   3  21
TORSDOF 3
ENDMDL
MODEL 3
REMARK VINA RESULT:      -9.3      4.112      8.374
REMARK  3 active torsions:
REMARK  status: ('A' for Active; 'I' for Inactive)
REMARK    1  A    between atoms: C7_7  and  N9_8 
REMARK    2  A    between atoms: C11_10  and  C12_11 
REMARK    3  A    between atoms: C12_11  and  C13_12 
ROOT
ATOM      1  N9  <0> d   1      18.497  -0.602   9.978  0.00  0.00    -0.229 N 
ATOM      2  N10 <0> d   1      18.973  -1.853  10.374  0.00  0.00    -0.173 NA
ATOM      3  C11 <0> d   1      19.018  -2.227  11.617  0.00  0.00     0.070 A 
ATOM      4  C20 <0> d   1      18.558  -1.321  12.670  0.00  0.00     0.006 A 
ATOM      5  C21 <0> d   1      18.589  -1.682  14.018  0.00  0.00     0.014 A 
ATOM      6  C22 <0> d   1      18.145  -0.793  14.971  0.00  0.00     0.001 A 
ATOM      7  C23 <0> d   1      17.665   0.458  14.606  0.00  0.00     0.001 A 
ATOM      8  C24 <0> d   1      17.625   0.837  13.282  0.00  0.00     0.018 A 
ATOM      9  C25 <0> d   1      18.070  -0.046  12.301  0.00  0.00     0.046 A 
ATOM     10  C26 <0> d   1      18.056   0.304  10.874  0.00  0.00     0.275 A 
ATOM     11  O27 <0> d   1      17.648   1.393  10.508  0.00  0.00    -0.266 OA
ENDROOT
BRANCH   1  12
ATOM     12  C7  <0> d   1      18.481  -0.263   8.554  0.00  0.00     0.115 C 
ATOM     13  C6  <0> d   1      19.513   0.804   8.299  0.00  0.00     0.029 C 
ATOM     14  C5  <0> d   1      19.026   1.718   7.148  0.00  0.00     0.030 C 
ATOM     15  C4  <0> d   1      19.167   1.055   5.855  0.00  0.00     0.234 C 
ATOM     16  N2  <0> d   1      18.361  -0.172   5.727  0.00  0.00    -0.075 N 
ATOM     17  C1  <0> d   1      18.076  -0.436   4.311  0.00  0.00     0.269 C 
ATOM     18  H3  <0> d   1      17.497  -0.068   6.236  0.00  0.00     0.279 HD
ATOM     19  C29 <0> d   1      19.129  -1.262   6.284  0.00  0.00     0.236 C 
ATOM     20  C28 <0> d   1      18.720  -1.549   7.738  0.00  0.00     0.055 C 
ENDBRANCH   1  12
BRANCH   3  21
ATOM     21  C12 <0> d   1      19.545  -3.592  11.975  0.00  0.00     0.100 C 
BRANCH  21  22
ATOM     22  C13 <0> d   1      18.989  -4.613  11.016  0.00  0.00    -0.052 A 
ATOM     23  C19 <0> d   1      17.725  -5.134  11.218  0.00  0.00     0.009 A 
ATOM     24  C18 <0> d   1      17.212  -6.066  10.335  0.00  0.00     0.024 A 
ATOM     25  C16 <0> d   1      17.969  -6.484   9.255  0.00  0.00     0.034 A 
ATOM     26  C15 <0> d   1      19.236  -5.966   9.056  0.00  0.00     0.024 A 
ATOM     27 Cl17 <0> d   1      17.329  -7.660   8.150  0.00  0.00    -0.084 Cl
ATOM     28  C14 <0> d   1      19.745  -5.031   9.937  0.00  0.00     0.009 A 
ENDBRANCH  21  22
ENDBRANCH   3  21
TORSDOF 3
ENDMDL
MODEL 4
REMARK VINA RESULT:      -9.0      3.654      7.786
REMARK  3 active torsions:
REMARK  status: ('A' for Active; 'I' for Inactive)
REMARK    1  A    between atoms: C7_7  and  N9_8 
REMARK    2  A    between atoms: C11_10  and  C12_11 
REMARK    3  A    between atoms: C12_11  and  C13_12 
ROOT
ATOM      1  N9  <0> d   1      18.211   0.606  10.194  0.00  0.00    -0.229 N 
ATOM      2  N10 <0> d   1      18.469  -0.526  10.969  0.00  0.00    -0.173 NA
ATOM      3  C11 <0> d   1      18.539  -0.488  12.266  0.00  0.00     0.070 A 
ATOM      4  C20 <0> d   1      18.344   0.778  12.973  0.00  0.00     0.006 A 
ATOM      5  C21 <0> d   1      18.411   0.863  14.364  0.00  0.00     0.014 A 
ATOM      6  C22 <0> d   1      18.220   2.079  14.982  0.00  0.00     0.001 A 
ATOM      7  C23 <0> d   1      17.961   3.221  14.235  0.00  0.00     0.001 A 
ATOM      8  C24 <0> d   1      17.891   3.162  12.861  0.00  0.00     0.018 A 
ATOM      9  C25 <0> d   1      18.081   1.942  12.215  0.00  0.00     0.046 A 
ATOM     10  C26 <0> d   1      18.022   1.819  10.752  0.00  0.00     0.275 A 
ATOM     11  O27 <0> d   1      17.802   2.796  10.057  0.00  0.00    -0.266 OA
ENDROOT
BRANCH   1  12
ATOM     12  C7  <0> d   1      18.148   0.473   8.737  0.00  0.00     0.115 C 
ATOM     13  C6  <0> d   1      19.404   1.058   8.144  0.00  0.00     0.029 C 
ATOM     14  C5  <0> d   1      19.076   1.668   6.760  0.00  0.00     0.030 C 
ATOM     15  C4  <0> d   1      18.901   0.624   5.754  0.00  0.00     0.234 C 
ATOM     16  N2  <0> d   1      17.781  -0.291   6.037  0.00  0.00    -0.075 N 
ATOM     17  C1  <0> d   1      17.297  -0.888   4.785  0.00  0.00     0.269 C 
ATOM     18  H3  <0> d   1      17.033   0.214   6.486  0.00  0.00     0.279 HD
ATOM     19  C29 <0> d   1      18.270  -1.327   6.917  0.00  0.00     0.236 C 
ATOM     20  C28 <0> d   1      17.944  -1.014   8.386  0.00  0.00     0.055 C 
ENDBRANCH   1  12
BRANCH   3  21
ATOM     21  C12 <0> d   1      18.822  -1.749  13.042  0.00  0.00     0.100 C 
BRANCH  21  22
ATOM     22  C13 <0> d   1      18.643  -2.944  12.142  0.00  0.00    -0.052 A 
ATOM     23  C19 <0> d   1      19.751  -3.602  11.640  0.00  0.00     0.009 A 
ATOM     24  C18 <0> d   1      19.587  -4.701  10.819  0.00  0.00     0.024 A 
ATOM     25  C16 <0> d   1      18.316  -5.136  10.490  0.00  0.00     0.034 A 
ATOM     26  C15 <0> d   1      17.209  -4.474  10.988  0.00  0.00     0.024 A 
ATOM     27 Cl17 <0> d   1      18.110  -6.513   9.452  0.00  0.00    -0.084 Cl
ATOM     28  C14 <0> d   1      17.373  -3.377  11.814  0.00  0.00     0.009 A 
ENDBRANCH  21  22
ENDBRANCH   3  21
TORSDOF 3
ENDMDL
MODEL 5
REMARK VINA RESULT:      -8.9      1.858      5.749
REMARK  3 active torsions:
REMARK  status: ('A' for Active; 'I' for Inactive)
REMARK    1  A    between atoms: C7_7  and  N9_8 
REMARK    2  A    between atoms: C11_10  and  C12_11 
REMARK    3  A    between atoms: C12_11  and  C13_12 
ROOT
ATOM      1  N9  <0> d   1      18.550  -0.525   9.598  0.00  0.00    -0.229 N 
ATOM      2  N10 <0> d   1      19.126   0.731   9.792  0.00  0.00    -0.173 NA
ATOM      3  C11 <0> d   1      19.459   1.177  10.966  0.00  0.00     0.070 A 
ATOM      4  C20 <0> d   1      19.234   0.351  12.153  0.00  0.00     0.006 A 
ATOM      5  C21 <0> d   1      19.577   0.793  13.432  0.00  0.00     0.014 A 
ATOM      6  C22 <0> d   1      19.344  -0.023  14.518  0.00  0.00     0.001 A 
ATOM      7  C23 <0> d   1      18.773  -1.278  14.353  0.00  0.00     0.001 A 
ATOM      8  C24 <0> d   1      18.426  -1.734  13.101  0.00  0.00     0.018 A 
ATOM      9  C25 <0> d   1      18.652  -0.926  11.988  0.00  0.00     0.046 A 
ATOM     10  C26 <0> d   1      18.298  -1.357  10.629  0.00  0.00     0.275 A 
ATOM     11  O27 <0> d   1      17.791  -2.449  10.438  0.00  0.00    -0.266 OA
ENDROOT
BRANCH   1  12
ATOM     12  C7  <0> d   1      18.206  -0.949   8.239  0.00  0.00     0.115 C 
ATOM     13  C6  <0> d   1      18.018   0.277   7.383  0.00  0.00     0.029 C 
ATOM     14  C5  <0> d   1      16.946  -0.014   6.306  0.00  0.00     0.030 C 
ATOM     15  C4  <0> d   1      17.483  -0.862   5.245  0.00  0.00     0.234 C 
ATOM     16  N2  <0> d   1      17.918  -2.191   5.712  0.00  0.00    -0.075 N 
ATOM     17  C1  <0> d   1      17.871  -3.149   4.599  0.00  0.00     0.269 C 
ATOM     18  H3  <0> d   1      17.317  -2.504   6.459  0.00  0.00     0.279 HD
ATOM     19  C29 <0> d   1      19.274  -2.065   6.194  0.00  0.00     0.236 C 
ATOM     20  C28 <0> d   1      19.311  -1.890   7.721  0.00  0.00     0.055 C 
ENDBRANCH   1  12
BRANCH   3  21
ATOM     21  C12 <0> d   1      20.076   2.545  11.105  0.00  0.00     0.100 C 
BRANCH  21  22
ATOM     22  C13 <0> d   1      19.076   3.487  11.723  0.00  0.00    -0.052 A 
ATOM     23  C19 <0> d   1      19.393   4.166  12.885  0.00  0.00     0.009 A 
ATOM     24  C18 <0> d   1      18.478   5.035  13.449  0.00  0.00     0.024 A 
ATOM     25  C16 <0> d   1      17.240   5.216  12.857  0.00  0.00     0.034 A 
ATOM     26  C15 <0> d   1      16.922   4.532  11.698  0.00  0.00     0.024 A 
ATOM     27 Cl17 <0> d   1      16.087   6.301  13.569  0.00  0.00    -0.084 Cl
ATOM     28  C14 <0> d   1      17.840   3.667  11.132  0.00  0.00     0.009 A 
ENDBRANCH  21  22
ENDBRANCH   3  21
TORSDOF 3
ENDMDL
MODEL 6
REMARK VINA RESULT:      -8.9      2.774      6.961
REMARK  3 active torsions:
REMARK  status: ('A' for Active; 'I' for Inactive)
REMARK    1  A    between atoms: C7_7  and  N9_8 
REMARK    2  A    between atoms: C11_10  and  C12_11 
REMARK    3  A    between atoms: C12_11  and  C13_12 
ROOT
ATOM      1  N9  <0> d   1      17.901   2.845  11.814  0.00  0.00    -0.229 N 
ATOM      2  N10 <0> d   1      18.602   2.315  12.898  0.00  0.00    -0.173 NA
ATOM      3  C11 <0> d   1      18.638   2.893  14.062  0.00  0.00     0.070 A 
ATOM      4  C20 <0> d   1      17.923   4.151  14.276  0.00  0.00     0.006 A 
ATOM      5  C21 <0> d   1      17.935   4.805  15.509  0.00  0.00     0.014 A 
ATOM      6  C22 <0> d   1      17.246   5.988  15.659  0.00  0.00     0.001 A 
ATOM      7  C23 <0> d   1      16.539   6.537  14.597  0.00  0.00     0.001 A 
ATOM      8  C24 <0> d   1      16.514   5.910  13.371  0.00  0.00     0.018 A 
ATOM      9  C25 <0> d   1      17.203   4.713  13.196  0.00  0.00     0.046 A 
ATOM     10  C26 <0> d   1      17.216   4.002  11.910  0.00  0.00     0.275 A 
ATOM     11  O27 <0> d   1      16.614   4.449  10.949  0.00  0.00    -0.266 OA
ENDROOT
BRANCH   1  12
ATOM     12  C7  <0> d   1      17.915   2.127  10.538  0.00  0.00     0.115 C 
ATOM     13  C6  <0> d   1      19.316   2.152   9.984  0.00  0.00     0.029 C 
ATOM     14  C5  <0> d   1      19.250   2.174   8.437  0.00  0.00     0.030 C 
ATOM     15  C4  <0> d   1      18.897   0.860   7.907  0.00  0.00     0.234 C 
ATOM     16  N2  <0> d   1      17.568   0.386   8.333  0.00  0.00    -0.075 N 
ATOM     17  C1  <0> d   1      17.045  -0.575   7.353  0.00  0.00     0.269 C 
ATOM     18  H3  <0> d   1      16.937   1.169   8.416  0.00  0.00     0.279 HD
ATOM     19  C29 <0> d   1      17.722  -0.257   9.617  0.00  0.00     0.236 C 
ATOM     20  C28 <0> d   1      17.376   0.701  10.768  0.00  0.00     0.055 C 
ENDBRANCH   1  12
BRANCH   3  21
ATOM     21  C12 <0> d   1      19.415   2.266  15.191  0.00  0.00     0.100 C 
BRANCH  21  22
ATOM     22  C13 <0> d   1      18.697   1.032  15.672  0.00  0.00    -0.052 A 
ATOM     23  C19 <0> d   1      18.976  -0.196  15.102  0.00  0.00     0.009 A 
ATOM     24  C18 <0> d   1      18.321  -1.329  15.546  0.00  0.00     0.024 A 
ATOM     25  C16 <0> d   1      17.378  -1.232  16.554  0.00  0.00     0.034 A 
ATOM     26  C15 <0> d   1      17.096  -0.002  17.120  0.00  0.00     0.024 A 
ATOM     27 Cl17 <0> d   1      16.550  -2.653  17.108  0.00  0.00    -0.084 Cl
ATOM     28  C14 <0> d   1      17.755   1.130  16.678  0.00  0.00     0.009 A 
ENDBRANCH  21  22
ENDBRANCH   3  21
TORSDOF 3
ENDMDL
MODEL 7
REMARK VINA RESULT:      -8.9      2.575      5.926
REMARK  3 active torsions:
REMARK  status: ('A' for Active; 'I' for Inactive)
REMARK    1  A    between atoms: C7_7  and  N9_8 
REMARK    2  A    between atoms: C11_10  and  C12_11 
REMARK    3  A    between atoms: C12_11  and  C13_12 
ROOT
ATOM      1  N9  <0> d   1      18.630  -0.452   9.655  0.00  0.00    -0.229 N 
ATOM      2  N10 <0> d   1      19.421  -0.554  10.801  0.00  0.00    -0.173 NA
ATOM      3  C11 <0> d   1      19.734   0.474  11.531  0.00  0.00     0.070 A 
ATOM      4  C20 <0> d   1      19.252   1.806  11.164  0.00  0.00     0.006 A 
ATOM      5  C21 <0> d   1      19.564   2.937  11.921  0.00  0.00     0.014 A 
ATOM      6  C22 <0> d   1      19.086   4.169  11.533  0.00  0.00     0.001 A 
ATOM      7  C23 <0> d   1      18.296   4.298  10.399  0.00  0.00     0.001 A 
ATOM      8  C24 <0> d   1      17.975   3.197   9.636  0.00  0.00     0.018 A 
ATOM      9  C25 <0> d   1      18.448   1.941  10.009  0.00  0.00     0.046 A 
ATOM     10  C26 <0> d   1      18.143   0.732   9.232  0.00  0.00     0.275 A 
ATOM     11  O27 <0> d   1      17.457   0.798   8.227  0.00  0.00    -0.266 OA
ENDROOT
BRANCH   1  12
ATOM     12  C7  <0> d   1      18.326  -1.664   8.890  0.00  0.00     0.115 C 
ATOM     13  C6  <0> d   1      19.399  -1.861   7.851  0.00  0.00     0.029 C 
ATOM     14  C5  <0> d   1      18.778  -2.531   6.601  0.00  0.00     0.030 C 
ATOM     15  C4  <0> d   1      18.527  -3.950   6.836  0.00  0.00     0.234 C 
ATOM     16  N2  <0> d   1      17.564  -4.211   7.920  0.00  0.00    -0.075 N 
ATOM     17  C1  <0> d   1      16.925  -5.518   7.716  0.00  0.00     0.269 C 
ATOM     18  H3  <0> d   1      16.862  -3.486   7.935  0.00  0.00     0.279 HD
ATOM     19  C29 <0> d   1      18.293  -4.211   9.167  0.00  0.00     0.236 C 
ATOM     20  C28 <0> d   1      18.202  -2.847   9.870  0.00  0.00     0.055 C 
ENDBRANCH   1  12
BRANCH   3  21
ATOM     21  C12 <0> d   1      20.593   0.295  12.756  0.00  0.00     0.100 C 
BRANCH  21  22
ATOM     22  C13 <0> d   1      19.714   0.055  13.956  0.00  0.00    -0.052 A 
ATOM     23  C19 <0> d   1      19.333  -1.232  14.286  0.00  0.00     0.009 A 
ATOM     24  C18 <0> d   1      18.531  -1.454  15.390  0.00  0.00     0.024 A 
ATOM     25  C16 <0> d   1      18.100  -0.386  16.157  0.00  0.00     0.034 A 
ATOM     26  C15 <0> d   1      18.477   0.902  15.822  0.00  0.00     0.024 A 
ATOM     27 Cl17 <0> d   1      17.086  -0.662  17.539  0.00  0.00    -0.084 Cl
ATOM     28  C14 <0> d   1      19.284   1.122  14.721  0.00  0.00     0.009 A 
ENDBRANCH  21  22
ENDBRANCH   3  21
TORSDOF 3
ENDMDL
MODEL 8
REMARK VINA RESULT:      -8.8      4.071      6.852
REMARK  3 active torsions:
REMARK  status: ('A' for Active; 'I' for Inactive)
REMARK    1  A    between atoms: C7_7  and  N9_8 
REMARK    2  A    between atoms: C11_10  and  C12_11 
REMARK    3  A    between atoms: C12_11  and  C13_12 
ROOT
ATOM      1  N9  <0> d   1      18.740  -0.763   9.404  0.00  0.00    -0.229 N 
ATOM      2  N10 <0> d   1      18.908  -2.134   9.207  0.00  0.00    -0.173 NA
ATOM      3  C11 <0> d   1      19.044  -2.664   8.029  0.00  0.00     0.070 A 
ATOM      4  C20 <0> d   1      19.024  -1.813   6.838  0.00  0.00     0.006 A 
ATOM      5  C21 <0> d   1      19.166  -2.341   5.554  0.00  0.00     0.014 A 
ATOM      6  C22 <0> d   1      19.140  -1.498   4.465  0.00  0.00     0.001 A 
ATOM      7  C23 <0> d   1      18.975  -0.129   4.631  0.00  0.00     0.001 A 
ATOM      8  C24 <0> d   1      18.832   0.414   5.889  0.00  0.00     0.018 A 
ATOM      9  C25 <0> d   1      18.855  -0.420   7.005  0.00  0.00     0.046 A 
ATOM     10  C26 <0> d   1      18.703   0.102   8.370  0.00  0.00     0.275 A 
ATOM     11  O27 <0> d   1      18.551   1.296   8.563  0.00  0.00    -0.266 OA
ENDROOT
BRANCH   1  12
ATOM     12  C7  <0> d   1      18.595  -0.251  10.768  0.00  0.00     0.115 C 
ATOM     13  C6  <0> d   1      17.396  -0.905  11.405  0.00  0.00     0.029 C 
ATOM     14  C5  <0> d   1      16.743   0.088  12.397  0.00  0.00     0.030 C 
ATOM     15  C4  <0> d   1      17.528   0.199  13.623  0.00  0.00     0.234 C 
ATOM     16  N2  <0> d   1      18.890   0.721  13.410  0.00  0.00    -0.075 N 
ATOM     17  C1  <0> d   1      19.381   1.350  14.643  0.00  0.00     0.269 C 
ATOM     18  H3  <0> d   1      18.883   1.396  12.661  0.00  0.00     0.279 HD
ATOM     19  C29 <0> d   1      19.738  -0.394  13.057  0.00  0.00     0.236 C 
ATOM     20  C28 <0> d   1      19.907  -0.508  11.533  0.00  0.00     0.055 C 
ENDBRANCH   1  12
BRANCH   3  21
ATOM     21  C12 <0> d   1      19.221  -4.154   7.887  0.00  0.00     0.100 C 
BRANCH  21  22
ATOM     22  C13 <0> d   1      17.871  -4.823   7.891  0.00  0.00    -0.052 A 
ATOM     23  C19 <0> d   1      17.127  -4.870   9.055  0.00  0.00     0.009 A 
ATOM     24  C18 <0> d   1      15.886  -5.479   9.057  0.00  0.00     0.024 A 
ATOM     25  C16 <0> d   1      15.394  -6.051   7.897  0.00  0.00     0.034 A 
ATOM     26  C15 <0> d   1      16.143  -6.009   6.735  0.00  0.00     0.024 A 
ATOM     27 Cl17 <0> d   1      13.839  -6.823   7.901  0.00  0.00    -0.084 Cl
ATOM     28  C14 <0> d   1      17.381  -5.395   6.732  0.00  0.00     0.009 A 
ENDBRANCH  21  22
ENDBRANCH   3  21
TORSDOF 3
ENDMDL
MODEL 9
REMARK VINA RESULT:      -8.7      3.365      6.147
REMARK  3 active torsions:
REMARK  status: ('A' for Active; 'I' for Inactive)
REMARK    1  A    between atoms: C7_7  and  N9_8 
REMARK    2  A    between atoms: C11_10  and  C12_11 
REMARK    3  A    between atoms: C12_11  and  C13_12 
ROOT
ATOM      1  N9  <0> d   1      18.642  -1.409  12.060  0.00  0.00    -0.229 N 
ATOM      2  N10 <0> d   1      18.289  -0.353  11.219  0.00  0.00    -0.173 NA
ATOM      3  C11 <0> d   1      18.188   0.874  11.635  0.00  0.00     0.070 A 
ATOM      4  C20 <0> d   1      18.451   1.193  13.039  0.00  0.00     0.006 A 
ATOM      5  C21 <0> d   1      18.355   2.497  13.527  0.00  0.00     0.014 A 
ATOM      6  C22 <0> d   1      18.612   2.746  14.857  0.00  0.00     0.001 A 
ATOM      7  C23 <0> d   1      18.967   1.714  15.717  0.00  0.00     0.001 A 
ATOM      8  C24 <0> d   1      19.068   0.420  15.257  0.00  0.00     0.018 A 
ATOM      9  C25 <0> d   1      18.812   0.145  13.916  0.00  0.00     0.046 A 
ATOM     10  C26 <0> d   1      18.899  -1.217  13.370  0.00  0.00     0.275 A 
ATOM     11  O27 <0> d   1      19.202  -2.154  14.088  0.00  0.00    -0.266 OA
ENDROOT
BRANCH   1  12
ATOM     12  C7  <0> d   1      18.732  -2.762  11.506  0.00  0.00     0.115 C 
ATOM     13  C6  <0> d   1      17.391  -3.433  11.649  0.00  0.00     0.029 C 
ATOM     14  C5  <0> d   1      17.602  -4.952  11.861  0.00  0.00     0.030 C 
ATOM     15  C4  <0> d   1      17.972  -5.610  10.611  0.00  0.00     0.234 C 
ATOM     16  N2  <0> d   1      19.244  -5.129  10.041  0.00  0.00    -0.075 N 
ATOM     17  C1  <0> d   1      19.835  -6.171   9.191  0.00  0.00     0.269 C 
ATOM     18  H3  <0> d   1      19.883  -4.891  10.784  0.00  0.00     0.279 HD
ATOM     19  C29 <0> d   1      18.955  -3.955   9.249  0.00  0.00     0.236 C 
ATOM     20  C28 <0> d   1      19.213  -2.665  10.045  0.00  0.00     0.055 C 
ENDBRANCH   1  12
BRANCH   3  21
ATOM     21  C12 <0> d   1      17.801   1.967  10.673  0.00  0.00     0.100 C 
BRANCH  21  22
ATOM     22  C13 <0> d   1      18.085   1.519   9.263  0.00  0.00    -0.052 A 
ATOM     23  C19 <0> d   1      19.030   2.183   8.504  0.00  0.00     0.009 A 
ATOM     24  C18 <0> d   1      19.294   1.769   7.212  0.00  0.00     0.024 A 
ATOM     25  C16 <0> d   1      18.605   0.696   6.675  0.00  0.00     0.034 A 
ATOM     26  C15 <0> d   1      17.656   0.035   7.433  0.00  0.00     0.024 A 
ATOM     27 Cl17 <0> d   1      18.931   0.180   5.050  0.00  0.00    -0.084 Cl
ATOM     28  C14 <0> d   1      17.396   0.447   8.727  0.00  0.00     0.009 A 
ENDBRANCH  21  22
ENDBRANCH   3  21
TORSDOF 3
ENDMDL
