MODEL 1
REMARK VINA RESULT:      -8.7      0.000      0.000
REMARK  0 active torsions:
REMARK  status: ('A' for Active; 'I' for Inactive)
ROOT
ATOM      1  C1  ZIN A   1      16.257   6.246  13.451  0.00  0.00     0.269 C 
ATOM      2  N2  ZIN A   1      17.304   5.334  12.973  0.00  0.00    -0.074 N 
ATOM      3  H3  ZIN A   1      18.193   5.810  12.985  0.00  0.00     0.279 HD
ATOM      4  C4  ZIN A   1      16.995   4.916  11.600  0.00  0.00     0.238 C 
ATOM      5  C5  ZIN A   1      18.169   4.105  11.037  0.00  0.00     0.062 C 
ATOM      6  C6  ZIN A   1      18.458   2.966  11.992  0.00  0.00    -0.065 C 
ATOM      7  C7  ZIN A   1      18.608   1.709  11.547  0.00  0.00    -0.011 C 
ATOM      8  C8  ZIN A   1      18.500   1.394  10.103  0.00  0.00    -0.015 A 
ATOM      9  C9  ZIN A   1      19.354   2.008   9.192  0.00  0.00     0.013 A 
ATOM     10  C10 ZIN A   1      19.284   1.680   7.853  0.00  0.00     0.001 A 
ATOM     11  C11 ZIN A   1      18.370   0.739   7.411  0.00  0.00     0.001 A 
ATOM     12  C12 ZIN A   1      17.503   0.134   8.295  0.00  0.00     0.012 A 
ATOM     13  C13 ZIN A   1      17.540   0.469   9.655  0.00  0.00    -0.025 A 
ATOM     14  C14 ZIN A   1      16.559  -0.110  10.568  0.00  0.00     0.013 C 
ATOM     15  C15 ZIN A   1      16.758  -0.523  11.803  0.00  0.00     0.013 C 
ATOM     16  C16 ZIN A   1      18.008  -0.502  12.556  0.00  0.00    -0.025 A 
ATOM     17  C17 ZIN A   1      18.342  -1.589  13.374  0.00  0.00     0.012 A 
ATOM     18  C18 ZIN A   1      19.497  -1.559  14.126  0.00  0.00     0.001 A 
ATOM     19  C19 ZIN A   1      20.336  -0.457  14.085  0.00  0.00     0.001 A 
ATOM     20  C20 ZIN A   1      20.035   0.618  13.273  0.00  0.00     0.013 A 
ATOM     21  C21 ZIN A   1      18.892   0.599  12.487  0.00  0.00    -0.015 A 
ATOM     22  C22 ZIN A   1      18.572   3.295  13.466  0.00  0.00     0.062 C 
ATOM     23  C23 ZIN A   1      17.368   4.162  13.854  0.00  0.00     0.238 C 
ENDROOT
TORSDOF 0
ENDMDL
MODEL 2
REMARK VINA RESULT:      -8.7      2.642      4.136
REMARK  0 active torsions:
REMARK  status: ('A' for Active; 'I' for Inactive)
ROOT
ATOM      1  C1  ZIN A   1      18.149   0.125  18.313  0.00  0.00     0.269 C 
ATOM      2  N2  ZIN A   1      18.891   0.031  17.049  0.00  0.00    -0.074 N 
ATOM      3  H3  ZIN A   1      19.881   0.046  17.241  0.00  0.00     0.279 HD
ATOM      4  C4  ZIN A   1      18.543   1.172  16.195  0.00  0.00     0.238 C 
ATOM      5  C5  ZIN A   1      19.440   1.172  14.951  0.00  0.00     0.062 C 
ATOM      6  C6  ZIN A   1      19.315  -0.180  14.278  0.00  0.00    -0.065 C 
ATOM      7  C7  ZIN A   1      19.097  -0.280  12.958  0.00  0.00    -0.011 C 
ATOM      8  C8  ZIN A   1      18.975   0.931  12.112  0.00  0.00    -0.015 A 
ATOM      9  C9  ZIN A   1      20.023   1.843  12.050  0.00  0.00     0.013 A 
ATOM     10  C10 ZIN A   1      19.927   2.947  11.227  0.00  0.00     0.001 A 
ATOM     11  C11 ZIN A   1      18.794   3.149  10.458  0.00  0.00     0.001 A 
ATOM     12  C12 ZIN A   1      17.738   2.266  10.520  0.00  0.00     0.012 A 
ATOM     13  C13 ZIN A   1      17.803   1.152  11.367  0.00  0.00    -0.025 A 
ATOM     14  C14 ZIN A   1      16.645   0.273  11.493  0.00  0.00     0.013 C 
ATOM     15  C15 ZIN A   1      16.642  -1.040  11.594  0.00  0.00     0.013 C 
ATOM     16  C16 ZIN A   1      17.796  -1.933  11.603  0.00  0.00    -0.025 A 
ATOM     17  C17 ZIN A   1      17.737  -3.149  10.907  0.00  0.00     0.012 A 
ATOM     18  C18 ZIN A   1      18.804  -4.020  10.947  0.00  0.00     0.001 A 
ATOM     19  C19 ZIN A   1      19.941  -3.709  11.676  0.00  0.00     0.001 A 
ATOM     20  C20 ZIN A   1      20.027  -2.510  12.354  0.00  0.00     0.013 A 
ATOM     21  C21 ZIN A   1      18.976  -1.605  12.306  0.00  0.00    -0.015 A 
ATOM     22  C22 ZIN A   1      19.446  -1.413  15.148  0.00  0.00     0.062 C 
ATOM     23  C23 ZIN A   1      18.546  -1.227  16.376  0.00  0.00     0.238 C 
ENDROOT
TORSDOF 0
ENDMDL
MODEL 3
REMARK VINA RESULT:      -8.5      3.441      6.839
REMARK  0 active torsions:
REMARK  status: ('A' for Active; 'I' for Inactive)
ROOT
ATOM      1  C1  ZIN A   1      17.002  -6.510   9.608  0.00  0.00     0.269 C 
ATOM      2  N2  ZIN A   1      17.937  -5.444   9.992  0.00  0.00    -0.074 N 
ATOM      3  H3  ZIN A   1      18.883  -5.787   9.920  0.00  0.00     0.279 HD
ATOM      4  C4  ZIN A   1      17.670  -5.039  11.378  0.00  0.00     0.238 C 
ATOM      5  C5  ZIN A   1      18.750  -4.052  11.838  0.00  0.00     0.062 C 
ATOM      6  C6  ZIN A   1      18.800  -2.909  10.846  0.00  0.00    -0.065 C 
ATOM      7  C7  ZIN A   1      18.797  -1.632  11.259  0.00  0.00    -0.011 C 
ATOM      8  C8  ZIN A   1      18.748  -1.298  12.702  0.00  0.00    -0.015 A 
ATOM      9  C9  ZIN A   1      19.746  -1.758  13.555  0.00  0.00     0.013 A 
ATOM     10  C10 ZIN A   1      19.726  -1.408  14.890  0.00  0.00     0.001 A 
ATOM     11  C11 ZIN A   1      18.718  -0.598  15.386  0.00  0.00     0.001 A 
ATOM     12  C12 ZIN A   1      17.711  -0.148  14.559  0.00  0.00     0.012 A 
ATOM     13  C13 ZIN A   1      17.698  -0.510  13.206  0.00  0.00    -0.025 A 
ATOM     14  C14 ZIN A   1      16.580  -0.104  12.361  0.00  0.00     0.013 C 
ATOM     15  C15 ZIN A   1      16.627   0.301  11.108  0.00  0.00     0.013 C 
ATOM     16  C16 ZIN A   1      17.808   0.441  10.264  0.00  0.00    -0.025 A 
ATOM     17  C17 ZIN A   1      17.921   1.543   9.406  0.00  0.00     0.012 A 
ATOM     18  C18 ZIN A   1      19.010   1.661   8.570  0.00  0.00     0.001 A 
ATOM     19  C19 ZIN A   1      20.002   0.693   8.565  0.00  0.00     0.001 A 
ATOM     20  C20 ZIN A   1      19.920  -0.392   9.414  0.00  0.00     0.013 A 
ATOM     21  C21 ZIN A   1      18.846  -0.518  10.283  0.00  0.00    -0.015 A 
ATOM     22  C22 ZIN A   1      18.855  -3.257   9.373  0.00  0.00     0.062 C 
ATOM     23  C23 ZIN A   1      17.765  -4.299   9.090  0.00  0.00     0.238 C 
ENDROOT
TORSDOF 0
ENDMDL
MODEL 4
REMARK VINA RESULT:      -8.2      2.625      5.141
REMARK  0 active torsions:
REMARK  status: ('A' for Active; 'I' for Inactive)
ROOT
ATOM      1  C1  ZIN A   1      19.405   0.204  17.970  0.00  0.00     0.269 C 
ATOM      2  N2  ZIN A   1      18.635   0.048  16.729  0.00  0.00    -0.074 N 
ATOM      3  H3  ZIN A   1      17.649   0.069  16.943  0.00  0.00     0.279 HD
ATOM      4  C4  ZIN A   1      18.970  -1.239  16.107  0.00  0.00     0.238 C 
ATOM      5  C5  ZIN A   1      18.046  -1.484  14.908  0.00  0.00     0.062 C 
ATOM      6  C6  ZIN A   1      18.148  -0.290  13.981  0.00  0.00    -0.065 C 
ATOM      7  C7  ZIN A   1      18.336  -0.450  12.663  0.00  0.00    -0.011 C 
ATOM      8  C8  ZIN A   1      18.446  -1.803  12.068  0.00  0.00    -0.015 A 
ATOM      9  C9  ZIN A   1      17.402  -2.712  12.209  0.00  0.00     0.013 A 
ATOM     10  C10 ZIN A   1      17.486  -3.955  11.617  0.00  0.00     0.001 A 
ATOM     11  C11 ZIN A   1      18.604  -4.303  10.876  0.00  0.00     0.001 A 
ATOM     12  C12 ZIN A   1      19.655  -3.423  10.740  0.00  0.00     0.012 A 
ATOM     13  C13 ZIN A   1      19.602  -2.164  11.353  0.00  0.00    -0.025 A 
ATOM     14  C14 ZIN A   1      20.758  -1.276  11.278  0.00  0.00     0.013 C 
ATOM     15  C15 ZIN A   1      20.755   0.032  11.119  0.00  0.00     0.013 C 
ATOM     16  C16 ZIN A   1      19.597   0.907  10.980  0.00  0.00    -0.025 A 
ATOM     17  C17 ZIN A   1      19.632   1.963  10.058  0.00  0.00     0.012 A 
ATOM     18  C18 ZIN A   1      18.562   2.823   9.951  0.00  0.00     0.001 A 
ATOM     19  C19 ZIN A   1      17.443   2.660  10.753  0.00  0.00     0.001 A 
ATOM     20  C20 ZIN A   1      17.379   1.617  11.655  0.00  0.00     0.013 A 
ATOM     21  C21 ZIN A   1      18.434   0.722  11.761  0.00  0.00    -0.015 A 
ATOM     22  C22 ZIN A   1      18.029   1.090  14.595  0.00  0.00     0.062 C 
ATOM     23  C23 ZIN A   1      18.957   1.150  15.815  0.00  0.00     0.238 C 
ENDROOT
TORSDOF 0
ENDMDL
MODEL 5
REMARK VINA RESULT:      -7.9      2.373      5.127
REMARK  0 active torsions:
REMARK  status: ('A' for Active; 'I' for Inactive)
ROOT
ATOM      1  C1  ZIN A   1      19.619  -0.163   4.981  0.00  0.00     0.269 C 
ATOM      2  N2  ZIN A   1      18.808   0.052   6.187  0.00  0.00    -0.074 N 
ATOM      3  H3  ZIN A   1      17.830   0.024   5.941  0.00  0.00     0.279 HD
ATOM      4  C4  ZIN A   1      19.128   1.365   6.760  0.00  0.00     0.238 C 
ATOM      5  C5  ZIN A   1      18.165   1.667   7.915  0.00  0.00     0.062 C 
ATOM      6  C6  ZIN A   1      18.230   0.516   8.899  0.00  0.00    -0.065 C 
ATOM      7  C7  ZIN A   1      18.375   0.736  10.214  0.00  0.00    -0.011 C 
ATOM      8  C8  ZIN A   1      18.470   2.115  10.750  0.00  0.00    -0.015 A 
ATOM      9  C9  ZIN A   1      17.435   3.019  10.532  0.00  0.00     0.013 A 
ATOM     10  C10 ZIN A   1      17.504   4.288  11.070  0.00  0.00     0.001 A 
ATOM     11  C11 ZIN A   1      18.598   4.666  11.831  0.00  0.00     0.001 A 
ATOM     12  C12 ZIN A   1      19.641   3.791  12.043  0.00  0.00     0.012 A 
ATOM     13  C13 ZIN A   1      19.603   2.506  11.486  0.00  0.00    -0.025 A 
ATOM     14  C14 ZIN A   1      20.752   1.619  11.640  0.00  0.00     0.013 C 
ATOM     15  C15 ZIN A   1      20.739   0.320  11.858  0.00  0.00     0.013 C 
ATOM     16  C16 ZIN A   1      19.573  -0.546  11.999  0.00  0.00    -0.025 A 
ATOM     17  C17 ZIN A   1      19.573  -1.558  12.968  0.00  0.00     0.012 A 
ATOM     18  C18 ZIN A   1      18.497  -2.410  13.079  0.00  0.00     0.001 A 
ATOM     19  C19 ZIN A   1      17.406  -2.281  12.233  0.00  0.00     0.001 A 
ATOM     20  C20 ZIN A   1      17.377  -1.280  11.283  0.00  0.00     0.013 A 
ATOM     21  C21 ZIN A   1      18.438  -0.393  11.171  0.00  0.00    -0.015 A 
ATOM     22  C22 ZIN A   1      18.127  -0.889   8.345  0.00  0.00     0.062 C 
ATOM     23  C23 ZIN A   1      19.095  -1.007   7.161  0.00  0.00     0.238 C 
ENDROOT
TORSDOF 0
ENDMDL
MODEL 6
REMARK VINA RESULT:      -7.8      1.947      4.830
REMARK  0 active torsions:
REMARK  status: ('A' for Active; 'I' for Inactive)
ROOT
ATOM      1  C1  ZIN A   1      20.368   6.518  14.483  0.00  0.00     0.269 C 
ATOM      2  N2  ZIN A   1      19.379   5.467  14.208  0.00  0.00    -0.074 N 
ATOM      3  H3  ZIN A   1      18.452   5.865  14.235  0.00  0.00     0.279 HD
ATOM      4  C4  ZIN A   1      19.487   4.418  15.229  0.00  0.00     0.238 C 
ATOM      5  C5  ZIN A   1      18.347   3.409  15.048  0.00  0.00     0.062 C 
ATOM      6  C6  ZIN A   1      18.385   2.904  13.620  0.00  0.00    -0.065 C 
ATOM      7  C7  ZIN A   1      18.322   1.593  13.346  0.00  0.00    -0.011 C 
ATOM      8  C8  ZIN A   1      18.208   0.592  14.433  0.00  0.00    -0.015 A 
ATOM      9  C9  ZIN A   1      17.132   0.641  15.314  0.00  0.00     0.013 A 
ATOM     10  C10 ZIN A   1      17.002  -0.318  16.298  0.00  0.00     0.001 A 
ATOM     11  C11 ZIN A   1      17.936  -1.333  16.411  0.00  0.00     0.001 A 
ATOM     12  C12 ZIN A   1      19.019  -1.389  15.560  0.00  0.00     0.012 A 
ATOM     13  C13 ZIN A   1      19.184  -0.411  14.570  0.00  0.00    -0.025 A 
ATOM     14  C14 ZIN A   1      20.379  -0.427  13.733  0.00  0.00     0.013 C 
ATOM     15  C15 ZIN A   1      20.461  -0.162  12.446  0.00  0.00     0.013 C 
ATOM     16  C16 ZIN A   1      19.376   0.211  11.545  0.00  0.00    -0.025 A 
ATOM     17  C17 ZIN A   1      19.338  -0.319  10.248  0.00  0.00     0.012 A 
ATOM     18  C18 ZIN A   1      18.343   0.062   9.374  0.00  0.00     0.001 A 
ATOM     19  C19 ZIN A   1      17.374   0.974   9.763  0.00  0.00     0.001 A 
ATOM     20  C20 ZIN A   1      17.383   1.495  11.041  0.00  0.00     0.013 A 
ATOM     21  C21 ZIN A   1      18.358   1.106  11.947  0.00  0.00    -0.015 A 
ATOM     22  C22 ZIN A   1      18.495   3.932  12.514  0.00  0.00     0.062 C 
ATOM     23  C23 ZIN A   1      19.627   4.902  12.877  0.00  0.00     0.238 C 
ENDROOT
TORSDOF 0
ENDMDL
MODEL 7
REMARK VINA RESULT:      -7.7      2.604      5.414
REMARK  0 active torsions:
REMARK  status: ('A' for Active; 'I' for Inactive)
ROOT
ATOM      1  C1  ZIN A   1      18.476   0.166   4.762  0.00  0.00     0.269 C 
ATOM      2  N2  ZIN A   1      19.160   0.187   6.062  0.00  0.00    -0.074 N 
ATOM      3  H3  ZIN A   1      20.157   0.189   5.914  0.00  0.00     0.279 HD
ATOM      4  C4  ZIN A   1      18.783  -1.007   6.829  0.00  0.00     0.238 C 
ATOM      5  C5  ZIN A   1      19.624  -1.077   8.109  0.00  0.00     0.062 C 
ATOM      6  C6  ZIN A   1      19.458   0.230   8.857  0.00  0.00    -0.065 C 
ATOM      7  C7  ZIN A   1      19.180   0.248  10.169  0.00  0.00    -0.011 C 
ATOM      8  C8  ZIN A   1      19.031  -1.012  10.934  0.00  0.00    -0.015 A 
ATOM      9  C9  ZIN A   1      20.083  -1.921  10.988  0.00  0.00     0.013 A 
ATOM     10  C10 ZIN A   1      19.960  -3.073  11.737  0.00  0.00     0.001 A 
ATOM     11  C11 ZIN A   1      18.795  -3.329  12.440  0.00  0.00     0.001 A 
ATOM     12  C12 ZIN A   1      17.735  -2.449  12.385  0.00  0.00     0.012 A 
ATOM     13  C13 ZIN A   1      17.829  -1.285  11.610  0.00  0.00    -0.025 A 
ATOM     14  C14 ZIN A   1      16.670  -0.407  11.486  0.00  0.00     0.013 C 
ATOM     15  C15 ZIN A   1      16.660   0.910  11.465  0.00  0.00     0.013 C 
ATOM     16  C16 ZIN A   1      17.806   1.808  11.563  0.00  0.00    -0.025 A 
ATOM     17  C17 ZIN A   1      17.706   2.978  12.327  0.00  0.00     0.012 A 
ATOM     18  C18 ZIN A   1      18.766   3.857  12.389  0.00  0.00     0.001 A 
ATOM     19  C19 ZIN A   1      19.937   3.598  11.694  0.00  0.00     0.001 A 
ATOM     20  C20 ZIN A   1      20.063   2.443  10.949  0.00  0.00     0.013 A 
ATOM     21  C21 ZIN A   1      19.019   1.531  10.894  0.00  0.00    -0.015 A 
ATOM     22  C22 ZIN A   1      19.617   1.515   8.070  0.00  0.00     0.062 C 
ATOM     23  C23 ZIN A   1      18.774   1.399   6.794  0.00  0.00     0.238 C 
ENDROOT
TORSDOF 0
ENDMDL
MODEL 8
REMARK VINA RESULT:      -7.6      3.327      6.093
REMARK  0 active torsions:
REMARK  status: ('A' for Active; 'I' for Inactive)
ROOT
ATOM      1  C1  ZIN A   1      19.586   0.986   6.104  0.00  0.00     0.269 C 
ATOM      2  N2  ZIN A   1      18.688   0.370   7.090  0.00  0.00    -0.074 N 
ATOM      3  H3  ZIN A   1      17.742   0.673   6.916  0.00  0.00     0.279 HD
ATOM      4  C4  ZIN A   1      19.090   0.784   8.440  0.00  0.00     0.238 C 
ATOM      5  C5  ZIN A   1      18.056   0.285   9.457  0.00  0.00     0.062 C 
ATOM      6  C6  ZIN A   1      17.900  -1.211   9.277  0.00  0.00    -0.065 C 
ATOM      7  C7  ZIN A   1      17.938  -2.043  10.329  0.00  0.00    -0.011 C 
ATOM      8  C8  ZIN A   1      18.129  -1.525  11.704  0.00  0.00    -0.015 A 
ATOM      9  C9  ZIN A   1      17.224  -0.610  12.234  0.00  0.00     0.013 A 
ATOM     10  C10 ZIN A   1      17.377  -0.163  13.530  0.00  0.00     0.001 A 
ATOM     11  C11 ZIN A   1      18.425  -0.623  14.310  0.00  0.00     0.001 A 
ATOM     12  C12 ZIN A   1      19.341  -1.516  13.797  0.00  0.00     0.012 A 
ATOM     13  C13 ZIN A   1      19.220  -1.965  12.475  0.00  0.00    -0.025 A 
ATOM     14  C14 ZIN A   1      20.244  -2.838  11.913  0.00  0.00     0.013 C 
ATOM     15  C15 ZIN A   1      20.070  -3.865  11.106  0.00  0.00     0.013 C 
ATOM     16  C16 ZIN A   1      18.808  -4.376  10.580  0.00  0.00    -0.025 A 
ATOM     17  C17 ZIN A   1      18.604  -5.760  10.494  0.00  0.00     0.012 A 
ATOM     18  C18 ZIN A   1      17.435  -6.254   9.956  0.00  0.00     0.001 A 
ATOM     19  C19 ZIN A   1      16.454  -5.392   9.492  0.00  0.00     0.001 A 
ATOM     20  C20 ZIN A   1      16.627  -4.026   9.584  0.00  0.00     0.013 A 
ATOM     21  C21 ZIN A   1      17.783  -3.506  10.146  0.00  0.00    -0.015 A 
ATOM     22  C22 ZIN A   1      17.700  -1.733   7.870  0.00  0.00     0.062 C 
ATOM     23  C23 ZIN A   1      18.761  -1.091   6.968  0.00  0.00     0.238 C 
ENDROOT
TORSDOF 0
ENDMDL
MODEL 9
REMARK VINA RESULT:      -7.4      3.745      7.152
REMARK  0 active torsions:
REMARK  status: ('A' for Active; 'I' for Inactive)
ROOT
ATOM      1  C1  ZIN A   1      17.007  -6.510  10.359  0.00  0.00     0.269 C 
ATOM      2  N2  ZIN A   1      17.997  -5.522   9.910  0.00  0.00    -0.074 N 
ATOM      3  H3  ZIN A   1      18.881  -5.982   9.755  0.00  0.00     0.279 HD
ATOM      4  C4  ZIN A   1      18.158  -4.491  10.942  0.00  0.00     0.238 C 
ATOM      5  C5  ZIN A   1      19.311  -3.557  10.555  0.00  0.00     0.062 C 
ATOM      6  C6  ZIN A   1      19.038  -3.019   9.165  0.00  0.00    -0.065 C 
ATOM      7  C7  ZIN A   1      19.139  -1.709   8.896  0.00  0.00    -0.011 C 
ATOM      8  C8  ZIN A   1      19.528  -0.743   9.950  0.00  0.00    -0.015 A 
ATOM      9  C9  ZIN A   1      20.746  -0.883  10.608  0.00  0.00     0.013 A 
ATOM     10  C10 ZIN A   1      21.127   0.043  11.557  0.00  0.00     0.001 A 
ATOM     11  C11 ZIN A   1      20.305   1.116  11.857  0.00  0.00     0.001 A 
ATOM     12  C12 ZIN A   1      19.087   1.263  11.229  0.00  0.00     0.012 A 
ATOM     13  C13 ZIN A   1      18.668   0.321  10.280  0.00  0.00    -0.025 A 
ATOM     14  C14 ZIN A   1      17.340   0.435   9.688  0.00  0.00     0.013 C 
ATOM     15  C15 ZIN A   1      16.996   0.205   8.437  0.00  0.00     0.013 C 
ATOM     16  C16 ZIN A   1      17.861  -0.220   7.342  0.00  0.00    -0.025 A 
ATOM     17  C17 ZIN A   1      17.689   0.335   6.067  0.00  0.00     0.012 A 
ATOM     18  C18 ZIN A   1      18.470  -0.093   5.015  0.00  0.00     0.001 A 
ATOM     19  C19 ZIN A   1      19.428  -1.076   5.204  0.00  0.00     0.001 A 
ATOM     20  C20 ZIN A   1      19.627  -1.624   6.455  0.00  0.00     0.013 A 
ATOM     21  C21 ZIN A   1      18.871  -1.190   7.534  0.00  0.00    -0.015 A 
ATOM     22  C22 ZIN A   1      18.647  -4.013   8.091  0.00  0.00     0.062 C 
ATOM     23  C23 ZIN A   1      17.540  -4.913   8.655  0.00  0.00     0.238 C 
ENDROOT
TORSDOF 0
ENDMDL
