MODEL 1
REMARK VINA RESULT:      -8.1      0.000      0.000
REMARK  9 active torsions:
REMARK  status: ('A' for Active; 'I' for Inactive)
REMARK    1  A    between atoms: C2_2  and  N3_3 
REMARK    2  A    between atoms: N3_3  and  C5_5 
REMARK    3  A    between atoms: N3_3  and  C7_7 
REMARK    4  A    between atoms: C7_7  and  C8_8 
REMARK    5  A    between atoms: C8_8  and  O9_9 
REMARK    6  A    between atoms: O9_9  and  C10_10 
REMARK    7  A    between atoms: C13_13  and  C14_14 
REMARK    8  A    between atoms: C14_14  and  C23_23 
REMARK    9  A    between atoms: C15_15  and  C17_17 
ROOT
ATOM      1  C10 ZIN A   1      18.160   0.333   7.030  0.00  0.00     0.068 A 
ATOM      2  C11 ZIN A   1      17.333  -0.075   8.067  0.00  0.00     0.037 A 
ATOM      3  C12 ZIN A   1      17.412   0.542   9.297  0.00  0.00     0.015 A 
ATOM      4  C13 ZIN A   1      18.325   1.579   9.499  0.00  0.00    -0.023 A 
ATOM      5  C29 ZIN A   1      19.155   1.986   8.452  0.00  0.00     0.015 A 
ATOM      6  C30 ZIN A   1      19.075   1.360   7.228  0.00  0.00     0.037 A 
ENDROOT
BRANCH   4   7
ATOM      7  C14 ZIN A   1      18.413   2.244  10.817  0.00  0.00     0.007 C 
ATOM      8  C15 ZIN A   1      18.265   3.590  10.909  0.00  0.00     0.056 C 
ATOM      9 Cl16 ZIN A   1      17.814   4.512   9.509  0.00  0.00    -0.082 Cl
BRANCH   8  10
ATOM     10  C17 ZIN A   1      18.486   4.268  12.196  0.00  0.00    -0.014 A 
ATOM     11  C22 ZIN A   1      19.774   4.669  12.567  0.00  0.00     0.013 A 
ATOM     12  C21 ZIN A   1      19.971   5.309  13.773  0.00  0.00     0.001 A 
ATOM     13  C20 ZIN A   1      18.902   5.542  14.620  0.00  0.00     0.000 A 
ATOM     14  C19 ZIN A   1      17.626   5.143  14.263  0.00  0.00     0.001 A 
ATOM     15  C18 ZIN A   1      17.410   4.508  13.058  0.00  0.00     0.013 A 
ENDBRANCH   8  10
BRANCH   7  16
ATOM     16  C23 ZIN A   1      18.661   1.442  12.036  0.00  0.00    -0.023 A 
ATOM     17  C28 ZIN A   1      19.962   1.076  12.381  0.00  0.00     0.012 A 
ATOM     18  C27 ZIN A   1      20.186   0.332  13.522  0.00  0.00     0.001 A 
ATOM     19  C26 ZIN A   1      19.123  -0.058  14.316  0.00  0.00     0.000 A 
ATOM     20  C25 ZIN A   1      17.830   0.295  13.976  0.00  0.00     0.001 A 
ATOM     21  C24 ZIN A   1      17.592   1.044  12.841  0.00  0.00     0.012 A 
ENDBRANCH   7  16
ENDBRANCH   4   7
BRANCH   1  22
ATOM     22  O9  ZIN A   1      18.080  -0.277   5.818  0.00  0.00    -0.350 OA
BRANCH  22  23
ATOM     23  C8  ZIN A   1      19.312  -0.542   5.144  0.00  0.00     0.203 C 
BRANCH  23  24
ATOM     24  C7  ZIN A   1      19.255  -1.932   4.506  0.00  0.00     0.261 C 
BRANCH  24  25
ATOM     25  N3  ZIN A   1      18.548  -2.855   5.405  0.00  0.00    -0.070 N 
ATOM     26  H4  ZIN A   1      17.869  -2.341   5.946  0.00  0.00     0.279 HD
BRANCH  25  27
ATOM     27  C2  ZIN A   1      17.868  -3.887   4.613  0.00  0.00     0.230 C 
ATOM     28  C1  ZIN A   1      16.789  -3.235   3.745  0.00  0.00     0.034 C 
ENDBRANCH  25  27
BRANCH  25  29
ATOM     29  C5  ZIN A   1      19.515  -3.490   6.311  0.00  0.00     0.230 C 
ATOM     30  C6  ZIN A   1      18.960  -3.483   7.736  0.00  0.00     0.034 C 
ENDBRANCH  25  29
ENDBRANCH  24  25
ENDBRANCH  23  24
ENDBRANCH  22  23
ENDBRANCH   1  22
TORSDOF 9
ENDMDL
MODEL 2
REMARK VINA RESULT:      -8.1      0.887      2.195
REMARK  9 active torsions:
REMARK  status: ('A' for Active; 'I' for Inactive)
REMARK    1  A    between atoms: C2_2  and  N3_3 
REMARK    2  A    between atoms: N3_3  and  C5_5 
REMARK    3  A    between atoms: N3_3  and  C7_7 
REMARK    4  A    between atoms: C7_7  and  C8_8 
REMARK    5  A    between atoms: C8_8  and  O9_9 
REMARK    6  A    between atoms: O9_9  and  C10_10 
REMARK    7  A    between atoms: C13_13  and  C14_14 
REMARK    8  A    between atoms: C14_14  and  C23_23 
REMARK    9  A    between atoms: C15_15  and  C17_17 
ROOT
ATOM      1  C10 ZIN A   1      18.248   0.246   7.126  0.00  0.00     0.068 A 
ATOM      2  C11 ZIN A   1      19.221   1.209   7.359  0.00  0.00     0.037 A 
ATOM      3  C12 ZIN A   1      19.271   1.861   8.572  0.00  0.00     0.015 A 
ATOM      4  C13 ZIN A   1      18.342   1.553   9.568  0.00  0.00    -0.023 A 
ATOM      5  C29 ZIN A   1      17.366   0.584   9.329  0.00  0.00     0.015 A 
ATOM      6  C30 ZIN A   1      17.318  -0.059   8.111  0.00  0.00     0.037 A 
ENDROOT
BRANCH   4   7
ATOM      7  C14 ZIN A   1      18.392   2.250  10.871  0.00  0.00     0.007 C 
ATOM      8  C15 ZIN A   1      18.247   3.599  10.925  0.00  0.00     0.056 C 
ATOM      9 Cl16 ZIN A   1      17.844   4.487   9.488  0.00  0.00    -0.082 Cl
BRANCH   8  10
ATOM     10  C17 ZIN A   1      18.431   4.308  12.201  0.00  0.00    -0.014 A 
ATOM     11  C22 ZIN A   1      17.324   4.622  12.996  0.00  0.00     0.013 A 
ATOM     12  C21 ZIN A   1      17.505   5.281  14.194  0.00  0.00     0.001 A 
ATOM     13  C20 ZIN A   1      18.777   5.644  14.602  0.00  0.00     0.000 A 
ATOM     14  C19 ZIN A   1      19.877   5.342  13.818  0.00  0.00     0.001 A 
ATOM     15  C18 ZIN A   1      19.713   4.678  12.621  0.00  0.00     0.013 A 
ENDBRANCH   8  10
BRANCH   7  16
ATOM     16  C23 ZIN A   1      18.599   1.478  12.116  0.00  0.00    -0.023 A 
ATOM     17  C28 ZIN A   1      17.512   1.141  12.922  0.00  0.00     0.012 A 
ATOM     18  C27 ZIN A   1      17.712   0.417  14.079  0.00  0.00     0.001 A 
ATOM     19  C26 ZIN A   1      18.990   0.034  14.446  0.00  0.00     0.000 A 
ATOM     20  C25 ZIN A   1      20.074   0.371  13.655  0.00  0.00     0.001 A 
ATOM     21  C24 ZIN A   1      19.887   1.089  12.493  0.00  0.00     0.012 A 
ENDBRANCH   7  16
ENDBRANCH   4   7
BRANCH   1  22
ATOM     22  O9  ZIN A   1      18.202  -0.395   5.929  0.00  0.00    -0.350 OA
BRANCH  22  23
ATOM     23  C8  ZIN A   1      19.257  -1.316   5.646  0.00  0.00     0.203 C 
BRANCH  23  24
ATOM     24  C7  ZIN A   1      18.815  -2.731   6.027  0.00  0.00     0.261 C 
BRANCH  24  25
ATOM     25  N3  ZIN A   1      19.554  -3.170   7.218  0.00  0.00    -0.070 N 
ATOM     26  H4  ZIN A   1      20.183  -2.438   7.512  0.00  0.00     0.279 HD
BRANCH  25  27
ATOM     27  C2  ZIN A   1      18.608  -3.469   8.301  0.00  0.00     0.230 C 
ATOM     28  C1  ZIN A   1      19.083  -2.801   9.593  0.00  0.00     0.034 C 
ENDBRANCH  25  27
BRANCH  25  29
ATOM     29  C5  ZIN A   1      20.327  -4.377   6.896  0.00  0.00     0.230 C 
ATOM     30  C6  ZIN A   1      19.372  -5.552   6.681  0.00  0.00     0.034 C 
ENDBRANCH  25  29
ENDBRANCH  24  25
ENDBRANCH  23  24
ENDBRANCH  22  23
ENDBRANCH   1  22
TORSDOF 9
ENDMDL
MODEL 3
REMARK VINA RESULT:      -8.1      0.075      1.268
REMARK  9 active torsions:
REMARK  status: ('A' for Active; 'I' for Inactive)
REMARK    1  A    between atoms: C2_2  and  N3_3 
REMARK    2  A    between atoms: N3_3  and  C5_5 
REMARK    3  A    between atoms: N3_3  and  C7_7 
REMARK    4  A    between atoms: C7_7  and  C8_8 
REMARK    5  A    between atoms: C8_8  and  O9_9 
REMARK    6  A    between atoms: O9_9  and  C10_10 
REMARK    7  A    between atoms: C13_13  and  C14_14 
REMARK    8  A    between atoms: C14_14  and  C23_23 
REMARK    9  A    between atoms: C15_15  and  C17_17 
ROOT
ATOM      1  C10 ZIN A   1      18.170   0.295   7.080  0.00  0.00     0.068 A 
ATOM      2  C11 ZIN A   1      19.089   1.317   7.277  0.00  0.00     0.037 A 
ATOM      3  C12 ZIN A   1      19.167   1.948   8.500  0.00  0.00     0.015 A 
ATOM      4  C13 ZIN A   1      18.321   1.559   9.540  0.00  0.00    -0.023 A 
ATOM      5  C29 ZIN A   1      17.398   0.531   9.336  0.00  0.00     0.015 A 
ATOM      6  C30 ZIN A   1      17.321  -0.091   8.110  0.00  0.00     0.037 A 
ENDROOT
BRANCH   4   7
ATOM      7  C14 ZIN A   1      18.402   2.234  10.854  0.00  0.00     0.007 C 
ATOM      8  C15 ZIN A   1      18.265   3.582  10.933  0.00  0.00     0.056 C 
ATOM      9 Cl16 ZIN A   1      17.838   4.497   9.521  0.00  0.00    -0.082 Cl
BRANCH   8  10
ATOM     10  C17 ZIN A   1      18.480   4.268  12.217  0.00  0.00    -0.014 A 
ATOM     11  C22 ZIN A   1      19.766   4.668  12.594  0.00  0.00     0.013 A 
ATOM     12  C21 ZIN A   1      19.957   5.316  13.797  0.00  0.00     0.001 A 
ATOM     13  C20 ZIN A   1      18.882   5.559  14.635  0.00  0.00     0.000 A 
ATOM     14  C19 ZIN A   1      17.608   5.161  14.271  0.00  0.00     0.001 A 
ATOM     15  C18 ZIN A   1      17.399   4.518  13.070  0.00  0.00     0.013 A 
ENDBRANCH   8  10
BRANCH   7  16
ATOM     16  C23 ZIN A   1      18.630   1.440  12.081  0.00  0.00    -0.023 A 
ATOM     17  C28 ZIN A   1      17.550   1.036  12.866  0.00  0.00     0.012 A 
ATOM     18  C27 ZIN A   1      17.770   0.291  14.007  0.00  0.00     0.001 A 
ATOM     19  C26 ZIN A   1      19.060  -0.046  14.378  0.00  0.00     0.000 A 
ATOM     20  C25 ZIN A   1      20.136   0.358  13.608  0.00  0.00     0.001 A 
ATOM     21  C24 ZIN A   1      19.929   1.097  12.462  0.00  0.00     0.012 A 
ENDBRANCH   7  16
ENDBRANCH   4   7
BRANCH   1  22
ATOM     22  O9  ZIN A   1      18.095  -0.326   5.873  0.00  0.00    -0.350 OA
BRANCH  22  23
ATOM     23  C8  ZIN A   1      19.321  -0.510   5.162  0.00  0.00     0.203 C 
BRANCH  23  24
ATOM     24  C7  ZIN A   1      19.309  -1.876   4.471  0.00  0.00     0.261 C 
BRANCH  24  25
ATOM     25  N3  ZIN A   1      18.575  -2.839   5.304  0.00  0.00    -0.070 N 
ATOM     26  H4  ZIN A   1      17.840  -2.361   5.802  0.00  0.00     0.279 HD
BRANCH  25  27
ATOM     27  C2  ZIN A   1      17.993  -3.882   4.450  0.00  0.00     0.230 C 
ATOM     28  C1  ZIN A   1      16.733  -3.342   3.772  0.00  0.00     0.034 C 
ENDBRANCH  25  27
BRANCH  25  29
ATOM     29  C5  ZIN A   1      19.498  -3.453   6.269  0.00  0.00     0.230 C 
ATOM     30  C6  ZIN A   1      18.869  -3.431   7.662  0.00  0.00     0.034 C 
ENDBRANCH  25  29
ENDBRANCH  24  25
ENDBRANCH  23  24
ENDBRANCH  22  23
ENDBRANCH   1  22
TORSDOF 9
ENDMDL
MODEL 4
REMARK VINA RESULT:      -8.0      4.589      9.312
REMARK  9 active torsions:
REMARK  status: ('A' for Active; 'I' for Inactive)
REMARK    1  A    between atoms: C2_2  and  N3_3 
REMARK    2  A    between atoms: N3_3  and  C5_5 
REMARK    3  A    between atoms: N3_3  and  C7_7 
REMARK    4  A    between atoms: C7_7  and  C8_8 
REMARK    5  A    between atoms: C8_8  and  O9_9 
REMARK    6  A    between atoms: O9_9  and  C10_10 
REMARK    7  A    between atoms: C13_13  and  C14_14 
REMARK    8  A    between atoms: C14_14  and  C23_23 
REMARK    9  A    between atoms: C15_15  and  C17_17 
ROOT
ATOM      1  C10 ZIN A   1      18.296  -0.549  16.740  0.00  0.00     0.068 A 
ATOM      2  C11 ZIN A   1      19.348  -1.268  16.188  0.00  0.00     0.037 A 
ATOM      3  C12 ZIN A   1      19.428  -1.436  14.822  0.00  0.00     0.015 A 
ATOM      4  C13 ZIN A   1      18.450  -0.882  13.994  0.00  0.00    -0.023 A 
ATOM      5  C29 ZIN A   1      17.394  -0.160  14.554  0.00  0.00     0.015 A 
ATOM      6  C30 ZIN A   1      17.317  -0.003  15.920  0.00  0.00     0.037 A 
ENDROOT
BRANCH   4   7
ATOM      7  C14 ZIN A   1      18.533  -1.059  12.528  0.00  0.00     0.007 C 
ATOM      8  C15 ZIN A   1      18.622   0.025  11.717  0.00  0.00     0.056 C 
ATOM      9 Cl16 ZIN A   1      18.801   1.610  12.403  0.00  0.00    -0.082 Cl
BRANCH   8  10
ATOM     10  C17 ZIN A   1      18.567  -0.142  10.256  0.00  0.00    -0.014 A 
ATOM     11  C22 ZIN A   1      17.347  -0.031   9.581  0.00  0.00     0.013 A 
ATOM     12  C21 ZIN A   1      17.306  -0.183   8.211  0.00  0.00     0.001 A 
ATOM     13  C20 ZIN A   1      18.465  -0.459   7.506  0.00  0.00     0.000 A 
ATOM     14  C19 ZIN A   1      19.675  -0.576   8.168  0.00  0.00     0.001 A 
ATOM     15  C18 ZIN A   1      19.734  -0.420   9.536  0.00  0.00     0.013 A 
ENDBRANCH   8  10
BRANCH   7  16
ATOM     16  C23 ZIN A   1      18.518  -2.419  11.945  0.00  0.00    -0.023 A 
ATOM     17  C28 ZIN A   1      17.309  -3.020  11.595  0.00  0.00     0.012 A 
ATOM     18  C27 ZIN A   1      17.304  -4.287  11.047  0.00  0.00     0.001 A 
ATOM     19  C26 ZIN A   1      18.494  -4.964  10.855  0.00  0.00     0.000 A 
ATOM     20  C25 ZIN A   1      19.696  -4.378  11.205  0.00  0.00     0.001 A 
ATOM     21  C24 ZIN A   1      19.716  -3.109  11.748  0.00  0.00     0.012 A 
ENDBRANCH   7  16
ENDBRANCH   4   7
BRANCH   1  22
ATOM     22  O9  ZIN A   1      18.219  -0.386  18.087  0.00  0.00    -0.350 OA
BRANCH  22  23
ATOM     23  C8  ZIN A   1      18.729   0.838  18.621  0.00  0.00     0.203 C 
BRANCH  23  24
ATOM     24  C7  ZIN A   1      17.569   1.798  18.892  0.00  0.00     0.261 C 
BRANCH  24  25
ATOM     25  N3  ZIN A   1      17.685   2.967  18.009  0.00  0.00    -0.070 N 
ATOM     26  H4  ZIN A   1      17.090   2.841  17.205  0.00  0.00     0.279 HD
BRANCH  25  27
ATOM     27  C2  ZIN A   1      17.278   4.175  18.738  0.00  0.00     0.230 C 
ATOM     28  C1  ZIN A   1      16.408   3.780  19.933  0.00  0.00     0.034 C 
ENDBRANCH  25  27
BRANCH  25  29
ATOM     29  C5  ZIN A   1      19.080   3.108  17.566  0.00  0.00     0.230 C 
ATOM     30  C6  ZIN A   1      19.115   3.326  16.053  0.00  0.00     0.034 C 
ENDBRANCH  25  29
ENDBRANCH  24  25
ENDBRANCH  23  24
ENDBRANCH  22  23
ENDBRANCH   1  22
TORSDOF 9
ENDMDL
MODEL 5
REMARK VINA RESULT:      -7.9      2.700      4.107
REMARK  9 active torsions:
REMARK  status: ('A' for Active; 'I' for Inactive)
REMARK    1  A    between atoms: C2_2  and  N3_3 
REMARK    2  A    between atoms: N3_3  and  C5_5 
REMARK    3  A    between atoms: N3_3  and  C7_7 
REMARK    4  A    between atoms: C7_7  and  C8_8 
REMARK    5  A    between atoms: C8_8  and  O9_9 
REMARK    6  A    between atoms: O9_9  and  C10_10 
REMARK    7  A    between atoms: C13_13  and  C14_14 
REMARK    8  A    between atoms: C14_14  and  C23_23 
REMARK    9  A    between atoms: C15_15  and  C17_17 
ROOT
ATOM      1  C10 ZIN A   1      18.495   0.543   6.752  0.00  0.00     0.068 A 
ATOM      2  C11 ZIN A   1      19.593   0.777   7.570  0.00  0.00     0.037 A 
ATOM      3  C12 ZIN A   1      19.575   0.363   8.884  0.00  0.00     0.015 A 
ATOM      4  C13 ZIN A   1      18.453  -0.292   9.394  0.00  0.00    -0.023 A 
ATOM      5  C29 ZIN A   1      17.352  -0.525   8.568  0.00  0.00     0.015 A 
ATOM      6  C30 ZIN A   1      17.373  -0.103   7.257  0.00  0.00     0.037 A 
ENDROOT
BRANCH   4   7
ATOM      7  C14 ZIN A   1      18.431  -0.738  10.804  0.00  0.00     0.007 C 
ATOM      8  C15 ZIN A   1      18.341   0.176  11.803  0.00  0.00     0.056 C 
ATOM      9 Cl16 ZIN A   1      18.093   1.853  11.426  0.00  0.00    -0.082 Cl
BRANCH   8  10
ATOM     10  C17 ZIN A   1      18.455  -0.253  13.205  0.00  0.00    -0.014 A 
ATOM     11  C22 ZIN A   1      17.410  -0.008  14.103  0.00  0.00     0.013 A 
ATOM     12  C21 ZIN A   1      17.522  -0.419  15.414  0.00  0.00     0.001 A 
ATOM     13  C20 ZIN A   1      18.670  -1.061  15.846  0.00  0.00     0.000 A 
ATOM     14  C19 ZIN A   1      19.710  -1.303  14.966  0.00  0.00     0.001 A 
ATOM     15  C18 ZIN A   1      19.611  -0.904  13.650  0.00  0.00     0.013 A 
ENDBRANCH   8  10
BRANCH   7  16
ATOM     16  C23 ZIN A   1      18.504  -2.180  11.126  0.00  0.00    -0.023 A 
ATOM     17  C28 ZIN A   1      17.353  -2.877  11.493  0.00  0.00     0.012 A 
ATOM     18  C27 ZIN A   1      17.429  -4.223  11.788  0.00  0.00     0.001 A 
ATOM     19  C26 ZIN A   1      18.645  -4.879  11.728  0.00  0.00     0.000 A 
ATOM     20  C25 ZIN A   1      19.792  -4.194  11.370  0.00  0.00     0.001 A 
ATOM     21  C24 ZIN A   1      19.729  -2.849  11.068  0.00  0.00     0.012 A 
ENDBRANCH   7  16
ENDBRANCH   4   7
BRANCH   1  22
ATOM     22  O9  ZIN A   1      18.515   0.952   5.456  0.00  0.00    -0.350 OA
BRANCH  22  23
ATOM     23  C8  ZIN A   1      18.347  -0.055   4.456  0.00  0.00     0.203 C 
BRANCH  23  24
ATOM     24  C7  ZIN A   1      19.272  -1.235   4.761  0.00  0.00     0.261 C 
BRANCH  24  25
ATOM     25  N3  ZIN A   1      18.655  -2.478   4.277  0.00  0.00    -0.070 N 
ATOM     26  H4  ZIN A   1      19.068  -2.735   3.393  0.00  0.00     0.279 HD
BRANCH  25  27
ATOM     27  C2  ZIN A   1      18.880  -3.550   5.255  0.00  0.00     0.230 C 
ATOM     28  C1  ZIN A   1      19.601  -2.981   6.479  0.00  0.00     0.034 C 
ENDBRANCH  25  27
BRANCH  25  29
ATOM     29  C5  ZIN A   1      17.212  -2.270   4.100  0.00  0.00     0.230 C 
ATOM     30  C6  ZIN A   1      16.556  -3.583   3.671  0.00  0.00     0.034 C 
ENDBRANCH  25  29
ENDBRANCH  24  25
ENDBRANCH  23  24
ENDBRANCH  22  23
ENDBRANCH   1  22
TORSDOF 9
ENDMDL
MODEL 6
REMARK VINA RESULT:      -7.9      1.744      3.526
REMARK  9 active torsions:
REMARK  status: ('A' for Active; 'I' for Inactive)
REMARK    1  A    between atoms: C2_2  and  N3_3 
REMARK    2  A    between atoms: N3_3  and  C5_5 
REMARK    3  A    between atoms: N3_3  and  C7_7 
REMARK    4  A    between atoms: C7_7  and  C8_8 
REMARK    5  A    between atoms: C8_8  and  O9_9 
REMARK    6  A    between atoms: O9_9  and  C10_10 
REMARK    7  A    between atoms: C13_13  and  C14_14 
REMARK    8  A    between atoms: C14_14  and  C23_23 
REMARK    9  A    between atoms: C15_15  and  C17_17 
ROOT
ATOM      1  C10 ZIN A   1      18.132   0.248   6.140  0.00  0.00     0.068 A 
ATOM      2  C11 ZIN A   1      17.160  -0.258   6.994  0.00  0.00     0.037 A 
ATOM      3  C12 ZIN A   1      17.274  -0.074   8.355  0.00  0.00     0.015 A 
ATOM      4  C13 ZIN A   1      18.366   0.623   8.875  0.00  0.00    -0.023 A 
ATOM      5  C29 ZIN A   1      19.340   1.129   8.012  0.00  0.00     0.015 A 
ATOM      6  C30 ZIN A   1      19.224   0.935   6.654  0.00  0.00     0.037 A 
ENDROOT
BRANCH   4   7
ATOM      7  C14 ZIN A   1      18.491   0.822  10.335  0.00  0.00     0.007 C 
ATOM      8  C15 ZIN A   1      18.551  -0.251  11.164  0.00  0.00     0.056 C 
ATOM      9 Cl16 ZIN A   1      18.643  -1.854  10.504  0.00  0.00    -0.082 Cl
BRANCH   8  10
ATOM     10  C17 ZIN A   1      18.540  -0.055  12.622  0.00  0.00    -0.014 A 
ATOM     11  C22 ZIN A   1      17.376   0.382  13.263  0.00  0.00     0.013 A 
ATOM     12  C21 ZIN A   1      17.371   0.557  14.631  0.00  0.00     0.001 A 
ATOM     13  C20 ZIN A   1      18.518   0.315  15.367  0.00  0.00     0.000 A 
ATOM     14  C19 ZIN A   1      19.676  -0.111  14.739  0.00  0.00     0.001 A 
ATOM     15  C18 ZIN A   1      19.695  -0.297  13.373  0.00  0.00     0.013 A 
ENDBRANCH   8  10
BRANCH   7  16
ATOM     16  C23 ZIN A   1      18.552   2.192  10.892  0.00  0.00    -0.023 A 
ATOM     17  C28 ZIN A   1      19.732   2.663  11.466  0.00  0.00     0.012 A 
ATOM     18  C27 ZIN A   1      19.783   3.944  11.980  0.00  0.00     0.001 A 
ATOM     19  C26 ZIN A   1      18.663   4.755  11.934  0.00  0.00     0.000 A 
ATOM     20  C25 ZIN A   1      17.488   4.291  11.372  0.00  0.00     0.001 A 
ATOM     21  C24 ZIN A   1      17.425   3.016  10.850  0.00  0.00     0.012 A 
ENDBRANCH   7  16
ENDBRANCH   4   7
BRANCH   1  22
ATOM     22  O9  ZIN A   1      18.017   0.064   4.798  0.00  0.00    -0.350 OA
BRANCH  22  23
ATOM     23  C8  ZIN A   1      17.835  -1.277   4.341  0.00  0.00     0.203 C 
BRANCH  23  24
ATOM     24  C7  ZIN A   1      19.171  -2.022   4.402  0.00  0.00     0.261 C 
BRANCH  24  25
ATOM     25  N3  ZIN A   1      18.925  -3.444   4.680  0.00  0.00    -0.070 N 
ATOM     26  H4  ZIN A   1      19.776  -3.966   4.534  0.00  0.00     0.279 HD
BRANCH  25  27
ATOM     27  C2  ZIN A   1      18.485  -3.603   6.073  0.00  0.00     0.230 C 
ATOM     28  C1  ZIN A   1      19.581  -3.099   7.014  0.00  0.00     0.034 C 
ENDBRANCH  25  27
BRANCH  25  29
ATOM     29  C5  ZIN A   1      17.882  -3.946   3.776  0.00  0.00     0.230 C 
ATOM     30  C6  ZIN A   1      17.034  -4.990   4.504  0.00  0.00     0.034 C 
ENDBRANCH  25  29
ENDBRANCH  24  25
ENDBRANCH  23  24
ENDBRANCH  22  23
ENDBRANCH   1  22
TORSDOF 9
ENDMDL
MODEL 7
REMARK VINA RESULT:      -7.8      1.772      3.468
REMARK  9 active torsions:
REMARK  status: ('A' for Active; 'I' for Inactive)
REMARK    1  A    between atoms: C2_2  and  N3_3 
REMARK    2  A    between atoms: N3_3  and  C5_5 
REMARK    3  A    between atoms: N3_3  and  C7_7 
REMARK    4  A    between atoms: C7_7  and  C8_8 
REMARK    5  A    between atoms: C8_8  and  O9_9 
REMARK    6  A    between atoms: O9_9  and  C10_10 
REMARK    7  A    between atoms: C13_13  and  C14_14 
REMARK    8  A    between atoms: C14_14  and  C23_23 
REMARK    9  A    between atoms: C15_15  and  C17_17 
ROOT
ATOM      1  C10 ZIN A   1      18.187   0.279   6.047  0.00  0.00     0.068 A 
ATOM      2  C11 ZIN A   1      19.304   0.899   6.590  0.00  0.00     0.037 A 
ATOM      3  C12 ZIN A   1      19.407   1.063   7.955  0.00  0.00     0.015 A 
ATOM      4  C13 ZIN A   1      18.388   0.603   8.791  0.00  0.00    -0.023 A 
ATOM      5  C29 ZIN A   1      17.267  -0.020   8.240  0.00  0.00     0.015 A 
ATOM      6  C30 ZIN A   1      17.167  -0.174   6.874  0.00  0.00     0.037 A 
ENDROOT
BRANCH   4   7
ATOM      7  C14 ZIN A   1      18.496   0.776  10.256  0.00  0.00     0.007 C 
ATOM      8  C15 ZIN A   1      18.547  -0.312  11.066  0.00  0.00     0.056 C 
ATOM      9 Cl16 ZIN A   1      18.648  -1.903  10.378  0.00  0.00    -0.082 Cl
BRANCH   8  10
ATOM     10  C17 ZIN A   1      18.517  -0.143  12.527  0.00  0.00    -0.014 A 
ATOM     11  C22 ZIN A   1      19.651  -0.435  13.292  0.00  0.00     0.013 A 
ATOM     12  C21 ZIN A   1      19.617  -0.268  14.660  0.00  0.00     0.001 A 
ATOM     13  C20 ZIN A   1      18.459   0.173  15.278  0.00  0.00     0.000 A 
ATOM     14  C19 ZIN A   1      17.331   0.459  14.529  0.00  0.00     0.001 A 
ATOM     15  C18 ZIN A   1      17.352   0.303  13.159  0.00  0.00     0.013 A 
ENDBRANCH   8  10
BRANCH   7  16
ATOM     16  C23 ZIN A   1      18.548   2.135  10.839  0.00  0.00    -0.023 A 
ATOM     17  C28 ZIN A   1      17.424   2.961  10.794  0.00  0.00     0.012 A 
ATOM     18  C27 ZIN A   1      17.479   4.226  11.344  0.00  0.00     0.001 A 
ATOM     19  C26 ZIN A   1      18.648   4.678  11.930  0.00  0.00     0.000 A 
ATOM     20  C25 ZIN A   1      19.767   3.867  11.972  0.00  0.00     0.001 A 
ATOM     21  C24 ZIN A   1      19.724   2.598  11.431  0.00  0.00     0.012 A 
ENDBRANCH   7  16
ENDBRANCH   4   7
BRANCH   1  22
ATOM     22  O9  ZIN A   1      18.087   0.120   4.701  0.00  0.00    -0.350 OA
BRANCH  22  23
ATOM     23  C8  ZIN A   1      17.616  -1.145   4.231  0.00  0.00     0.203 C 
BRANCH  23  24
ATOM     24  C7  ZIN A   1      18.616  -2.237   4.618  0.00  0.00     0.261 C 
BRANCH  24  25
ATOM     25  N3  ZIN A   1      17.890  -3.400   5.148  0.00  0.00    -0.070 N 
ATOM     26  H4  ZIN A   1      17.013  -3.096   5.543  0.00  0.00     0.279 HD
BRANCH  25  27
ATOM     27  C2  ZIN A   1      17.634  -4.355   4.061  0.00  0.00     0.230 C 
ATOM     28  C1  ZIN A   1      16.132  -4.631   3.968  0.00  0.00     0.034 C 
ENDBRANCH  25  27
BRANCH  25  29
ATOM     29  C5  ZIN A   1      18.698  -4.047   6.190  0.00  0.00     0.230 C 
ATOM     30  C6  ZIN A   1      19.603  -3.008   6.852  0.00  0.00     0.034 C 
ENDBRANCH  25  29
ENDBRANCH  24  25
ENDBRANCH  23  24
ENDBRANCH  22  23
ENDBRANCH   1  22
TORSDOF 9
ENDMDL
MODEL 8
REMARK VINA RESULT:      -7.4      4.072      8.884
REMARK  9 active torsions:
REMARK  status: ('A' for Active; 'I' for Inactive)
REMARK    1  A    between atoms: C2_2  and  N3_3 
REMARK    2  A    between atoms: N3_3  and  C5_5 
REMARK    3  A    between atoms: N3_3  and  C7_7 
REMARK    4  A    between atoms: C7_7  and  C8_8 
REMARK    5  A    between atoms: C8_8  and  O9_9 
REMARK    6  A    between atoms: O9_9  and  C10_10 
REMARK    7  A    between atoms: C13_13  and  C14_14 
REMARK    8  A    between atoms: C14_14  and  C23_23 
REMARK    9  A    between atoms: C15_15  and  C17_17 
ROOT
ATOM      1  C10 ZIN A   1      18.997   4.208  12.773  0.00  0.00     0.068 A 
ATOM      2  C11 ZIN A   1      20.091   3.561  12.215  0.00  0.00     0.037 A 
ATOM      3  C12 ZIN A   1      19.977   2.256  11.787  0.00  0.00     0.015 A 
ATOM      4  C13 ZIN A   1      18.760   1.585  11.915  0.00  0.00    -0.023 A 
ATOM      5  C29 ZIN A   1      17.662   2.240  12.478  0.00  0.00     0.015 A 
ATOM      6  C30 ZIN A   1      17.786   3.542  12.909  0.00  0.00     0.037 A 
ENDROOT
BRANCH   4   7
ATOM      7  C14 ZIN A   1      18.633   0.184  11.457  0.00  0.00     0.007 C 
ATOM      8  C15 ZIN A   1      18.643  -0.829  12.361  0.00  0.00     0.056 C 
ATOM      9 Cl16 ZIN A   1      18.643  -0.475  14.061  0.00  0.00    -0.082 Cl
BRANCH   8  10
ATOM     10  C17 ZIN A   1      18.653  -2.225  11.900  0.00  0.00    -0.014 A 
ATOM     11  C22 ZIN A   1      17.458  -2.854  11.533  0.00  0.00     0.013 A 
ATOM     12  C21 ZIN A   1      17.478  -4.161  11.096  0.00  0.00     0.001 A 
ATOM     13  C20 ZIN A   1      18.673  -4.856  11.033  0.00  0.00     0.000 A 
ATOM     14  C19 ZIN A   1      19.859  -4.244  11.400  0.00  0.00     0.001 A 
ATOM     15  C18 ZIN A   1      19.857  -2.935  11.833  0.00  0.00     0.013 A 
ENDBRANCH   8  10
BRANCH   7  16
ATOM     16  C23 ZIN A   1      18.494  -0.113  10.015  0.00  0.00    -0.023 A 
ATOM     17  C28 ZIN A   1      19.593  -0.565   9.283  0.00  0.00     0.012 A 
ATOM     18  C27 ZIN A   1      19.455  -0.845   7.939  0.00  0.00     0.001 A 
ATOM     19  C26 ZIN A   1      18.232  -0.669   7.315  0.00  0.00     0.000 A 
ATOM     20  C25 ZIN A   1      17.141  -0.216   8.033  0.00  0.00     0.001 A 
ATOM     21  C24 ZIN A   1      17.263   0.062   9.379  0.00  0.00     0.012 A 
ENDBRANCH   7  16
ENDBRANCH   4   7
BRANCH   1  22
ATOM     22  O9  ZIN A   1      19.113   5.495  13.195  0.00  0.00    -0.350 OA
BRANCH  22  23
ATOM     23  C8  ZIN A   1      19.919   5.728  14.351  0.00  0.00     0.203 C 
BRANCH  23  24
ATOM     24  C7  ZIN A   1      19.032   6.205  15.504  0.00  0.00     0.261 C 
BRANCH  24  25
ATOM     25  N3  ZIN A   1      19.284   5.376  16.690  0.00  0.00    -0.070 N 
ATOM     26  H4  ZIN A   1      19.768   5.923  17.385  0.00  0.00     0.279 HD
BRANCH  25  27
ATOM     27  C2  ZIN A   1      18.007   4.902  17.239  0.00  0.00     0.230 C 
ATOM     28  C1  ZIN A   1      17.517   5.880  18.309  0.00  0.00     0.034 C 
ENDBRANCH  25  27
BRANCH  25  29
ATOM     29  C5  ZIN A   1      20.113   4.222  16.313  0.00  0.00     0.230 C 
ATOM     30  C6  ZIN A   1      19.294   2.938  16.451  0.00  0.00     0.034 C 
ENDBRANCH  25  29
ENDBRANCH  24  25
ENDBRANCH  23  24
ENDBRANCH  22  23
ENDBRANCH   1  22
TORSDOF 9
ENDMDL
MODEL 9
REMARK VINA RESULT:      -7.3      3.638      8.806
REMARK  9 active torsions:
REMARK  status: ('A' for Active; 'I' for Inactive)
REMARK    1  A    between atoms: C2_2  and  N3_3 
REMARK    2  A    between atoms: N3_3  and  C5_5 
REMARK    3  A    between atoms: N3_3  and  C7_7 
REMARK    4  A    between atoms: C7_7  and  C8_8 
REMARK    5  A    between atoms: C8_8  and  O9_9 
REMARK    6  A    between atoms: O9_9  and  C10_10 
REMARK    7  A    between atoms: C13_13  and  C14_14 
REMARK    8  A    between atoms: C14_14  and  C23_23 
REMARK    9  A    between atoms: C15_15  and  C17_17 
ROOT
ATOM      1  C10 ZIN A   1      18.805   1.963  12.495  0.00  0.00     0.068 A 
ATOM      2  C11 ZIN A   1      19.928   1.323  11.987  0.00  0.00     0.037 A 
ATOM      3  C12 ZIN A   1      19.784   0.225  11.166  0.00  0.00     0.015 A 
ATOM      4  C13 ZIN A   1      18.509  -0.243  10.846  0.00  0.00    -0.023 A 
ATOM      5  C29 ZIN A   1      17.383   0.403  11.360  0.00  0.00     0.015 A 
ATOM      6  C30 ZIN A   1      17.534   1.496  12.184  0.00  0.00     0.037 A 
ENDROOT
BRANCH   4   7
ATOM      7  C14 ZIN A   1      18.351  -1.422   9.966  0.00  0.00     0.007 C 
ATOM      8  C15 ZIN A   1      18.246  -2.663  10.506  0.00  0.00     0.056 C 
ATOM      9 Cl16 ZIN A   1      18.136  -2.854  12.228  0.00  0.00    -0.082 Cl
BRANCH   8  10
ATOM     10  C17 ZIN A   1      18.225  -3.845   9.632  0.00  0.00    -0.014 A 
ATOM     11  C22 ZIN A   1      19.386  -4.602   9.444  0.00  0.00     0.013 A 
ATOM     12  C21 ZIN A   1      19.356  -5.713   8.628  0.00  0.00     0.001 A 
ATOM     13  C20 ZIN A   1      18.185  -6.072   7.984  0.00  0.00     0.000 A 
ATOM     14  C19 ZIN A   1      17.033  -5.325   8.159  0.00  0.00     0.001 A 
ATOM     15  C18 ZIN A   1      17.044  -4.215   8.978  0.00  0.00     0.013 A 
ENDBRANCH   8  10
BRANCH   7  16
ATOM     16  C23 ZIN A   1      18.306  -1.248   8.497  0.00  0.00    -0.023 A 
ATOM     17  C28 ZIN A   1      17.269  -0.525   7.908  0.00  0.00     0.012 A 
ATOM     18  C27 ZIN A   1      17.237  -0.363   6.538  0.00  0.00     0.001 A 
ATOM     19  C26 ZIN A   1      18.225  -0.925   5.748  0.00  0.00     0.000 A 
ATOM     20  C25 ZIN A   1      19.252  -1.648   6.326  0.00  0.00     0.001 A 
ATOM     21  C24 ZIN A   1      19.300  -1.813   7.695  0.00  0.00     0.012 A 
ENDBRANCH   7  16
ENDBRANCH   4   7
BRANCH   1  22
ATOM     22  O9  ZIN A   1      18.949   3.046  13.304  0.00  0.00    -0.350 OA
BRANCH  22  23
ATOM     23  C8  ZIN A   1      18.375   2.960  14.610  0.00  0.00     0.203 C 
BRANCH  23  24
ATOM     24  C7  ZIN A   1      19.202   1.999  15.467  0.00  0.00     0.261 C 
BRANCH  24  25
ATOM     25  N3  ZIN A   1      18.308   1.241  16.353  0.00  0.00    -0.070 N 
ATOM     26  H4  ZIN A   1      17.558   1.839  16.664  0.00  0.00     0.279 HD
BRANCH  25  27
ATOM     27  C2  ZIN A   1      17.752   0.094  15.623  0.00  0.00     0.230 C 
ATOM     28  C1  ZIN A   1      18.894  -0.762  15.072  0.00  0.00     0.034 C 
ENDBRANCH  25  27
BRANCH  25  29
ATOM     29  C5  ZIN A   1      19.065   0.761  17.517  0.00  0.00     0.230 C 
ATOM     30  C6  ZIN A   1      18.123   0.615  18.713  0.00  0.00     0.034 C 
ENDBRANCH  25  29
ENDBRANCH  24  25
ENDBRANCH  23  24
ENDBRANCH  22  23
ENDBRANCH   1  22
TORSDOF 9
ENDMDL
