MODEL 1
REMARK VINA RESULT:      -7.1      0.000      0.000
REMARK  8 active torsions:
REMARK  status: ('A' for Active; 'I' for Inactive)
REMARK    1  A    between atoms: C2_2  and  C3_3 
REMARK    2  A    between atoms: C3_3  and  C4_4 
REMARK    3  A    between atoms: C3_3  and  C6_6 
REMARK    4  A    between atoms: C6_6  and  N8_7 
REMARK    5  A    between atoms: C6_6  and  C12_11 
REMARK       I    between atoms: N8_7  and  C9_8 
REMARK    6  A    between atoms: C14_12  and  N16_13 
REMARK       I    between atoms: N16_13  and  C17_14 
REMARK       I    between atoms: C17_14  and  N18_15 
REMARK    7  A    between atoms: C23_20  and  C25_21 
REMARK    8  A    between atoms: C28_24  and  O30_25 
ROOT
ATOM      1  C12 ZIN A   1      17.904   0.645  13.303  0.00  0.00     0.061 C 
ATOM      2  C14 ZIN A   1      19.408   0.291  13.427  0.00  0.00     0.108 C 
ATOM      3  C22 ZIN A   1      19.445  -0.606  14.689  0.00  0.00     0.044 C 
ATOM      4  C23 ZIN A   1      18.420   0.041  15.643  0.00  0.00     0.118 C 
ATOM      5  C28 ZIN A   1      17.437   0.835  14.761  0.00  0.00     0.140 C 
ENDROOT
BRANCH   1   6
ATOM      6  C6  ZIN A   1      17.723   1.940  12.509  0.00  0.00     0.097 C 
BRANCH   6   7
ATOM      7  C3  ZIN A   1      17.392   1.603  11.054  0.00  0.00     0.008 C 
BRANCH   7   8
ATOM      8  C2  ZIN A   1      18.635   1.814  10.186  0.00  0.00     0.002 C 
ATOM      9  C1  ZIN A   1      18.442   3.056   9.314  0.00  0.00     0.005 C 
ENDBRANCH   7   8
BRANCH   7  10
ATOM     10  C4  ZIN A   1      16.944   0.144  10.958  0.00  0.00     0.002 C 
ATOM     11  C5  ZIN A   1      17.422  -0.450   9.631  0.00  0.00     0.005 C 
ENDBRANCH   7  10
ENDBRANCH   6   7
BRANCH   6  12
ATOM     12  N8  ZIN A   1      18.961   2.720  12.560  0.00  0.00    -0.356 N 
ATOM     13  C9  ZIN A   1      18.920   4.032  12.864  0.00  0.00     0.213 C 
ATOM     14  C10 ZIN A   1      20.179   4.860  12.807  0.00  0.00     0.117 C 
ATOM     15  O11 ZIN A   1      17.870   4.549  13.182  0.00  0.00    -0.274 OA
ATOM     16  H42 ZIN A   1      19.813   2.292  12.375  0.00  0.00     0.162 HD
ENDBRANCH   6  12
ENDBRANCH   1   6
BRANCH   5  17
ATOM     17  O30 ZIN A   1      17.476   2.220  15.110  0.00  0.00    -0.394 OA
ATOM     18  H51 ZIN A   1      18.295   2.494  15.543  0.00  0.00     0.210 HD
ENDBRANCH   5  17
BRANCH   2  19
ATOM     19  N16 ZIN A   1      19.865  -0.447  12.247  0.00  0.00    -0.222 N 
ATOM     20  C17 ZIN A   1      21.058  -0.126  11.659  0.00  0.00     0.665 C 
ATOM     21  N18 ZIN A   1      21.803   0.858  12.160  0.00  0.00    -0.235 N 
ATOM     22  N19 ZIN A   1      21.474  -0.797  10.586  0.00  0.00    -0.235 N 
ATOM     23  H47 ZIN A   1      21.500   1.347  12.941  0.00  0.00     0.174 HD
ATOM     24  H48 ZIN A   1      22.649   1.086  11.743  0.00  0.00     0.174 HD
ATOM     25  H20 ZIN A   1      20.932  -1.514  10.222  0.00  0.00     0.174 HD
ATOM     26  H21 ZIN A   1      22.320  -0.570  10.170  0.00  0.00     0.174 HD
ATOM     27  H46 ZIN A   1      19.323  -1.164  11.882  0.00  0.00     0.178 HD
ENDBRANCH   2  19
BRANCH   4  28
ATOM     28  C25 ZIN A   1      17.679  -1.027  16.406  0.00  0.00     0.179 C 
ATOM     29  O26 ZIN A   1      18.119  -2.164  16.445  0.00  0.00    -0.648 OA
ATOM     30  O27 ZIN A   1      16.641  -0.756  16.983  0.00  0.00    -0.648 OA
ENDBRANCH   4  28
TORSDOF 8
ENDMDL
MODEL 2
REMARK VINA RESULT:      -6.7      1.312      2.010
REMARK  8 active torsions:
REMARK  status: ('A' for Active; 'I' for Inactive)
REMARK    1  A    between atoms: C2_2  and  C3_3 
REMARK    2  A    between atoms: C3_3  and  C4_4 
REMARK    3  A    between atoms: C3_3  and  C6_6 
REMARK    4  A    between atoms: C6_6  and  N8_7 
REMARK    5  A    between atoms: C6_6  and  C12_11 
REMARK       I    between atoms: N8_7  and  C9_8 
REMARK    6  A    between atoms: C14_12  and  N16_13 
REMARK       I    between atoms: N16_13  and  C17_14 
REMARK       I    between atoms: C17_14  and  N18_15 
REMARK    7  A    between atoms: C23_20  and  C25_21 
REMARK    8  A    between atoms: C28_24  and  O30_25 
ROOT
ATOM      1  C12 ZIN A   1      18.611   1.798  12.940  0.00  0.00     0.061 C 
ATOM      2  C14 ZIN A   1      20.073   1.474  13.337  0.00  0.00     0.108 C 
ATOM      3  C22 ZIN A   1      19.905   0.291  14.321  0.00  0.00     0.044 C 
ATOM      4  C23 ZIN A   1      18.636   0.642  15.123  0.00  0.00     0.118 C 
ATOM      5  C28 ZIN A   1      17.809   1.600  14.242  0.00  0.00     0.140 C 
ENDROOT
BRANCH   1   6
ATOM      6  C6  ZIN A   1      18.496   3.245  12.455  0.00  0.00     0.097 C 
BRANCH   6   7
ATOM      7  C3  ZIN A   1      18.574   3.278  10.927  0.00  0.00     0.008 C 
BRANCH   7   8
ATOM      8  C2  ZIN A   1      17.853   2.056  10.353  0.00  0.00     0.002 C 
ATOM      9  C1  ZIN A   1      18.568   1.593   9.083  0.00  0.00     0.005 C 
ENDBRANCH   7   8
BRANCH   7  10
ATOM     10  C4  ZIN A   1      17.905   4.554  10.410  0.00  0.00     0.002 C 
ATOM     11  C5  ZIN A   1      16.572   4.758  11.131  0.00  0.00     0.005 C 
ENDBRANCH   7  10
ENDBRANCH   6   7
BRANCH   6  12
ATOM     12  N8  ZIN A   1      19.593   4.036  13.017  0.00  0.00    -0.356 N 
ATOM     13  C9  ZIN A   1      19.327   5.148  13.730  0.00  0.00     0.213 C 
ATOM     14  C10 ZIN A   1      20.456   6.022  14.213  0.00  0.00     0.117 C 
ATOM     15  O11 ZIN A   1      18.178   5.447  13.982  0.00  0.00    -0.274 OA
ATOM     16  H42 ZIN A   1      20.512   3.759  12.876  0.00  0.00     0.162 HD
ENDBRANCH   6  12
ENDBRANCH   1   6
BRANCH   5  17
ATOM     17  O30 ZIN A   1      17.640   2.853  14.908  0.00  0.00    -0.394 OA
ATOM     18  H51 ZIN A   1      17.074   3.477  14.434  0.00  0.00     0.210 HD
ENDBRANCH   5  17
BRANCH   2  19
ATOM     19  N16 ZIN A   1      20.852   1.073  12.163  0.00  0.00    -0.222 N 
ATOM     20  C17 ZIN A   1      20.682  -0.172  11.622  0.00  0.00     0.665 C 
ATOM     21  N18 ZIN A   1      19.810  -1.020  12.164  0.00  0.00    -0.235 N 
ATOM     22  N19 ZIN A   1      21.391  -0.537  10.554  0.00  0.00    -0.235 N 
ATOM     23  H47 ZIN A   1      19.295  -0.754  12.942  0.00  0.00     0.174 HD
ATOM     24  H48 ZIN A   1      19.689  -1.903  11.781  0.00  0.00     0.174 HD
ATOM     25  H20 ZIN A   1      22.025   0.080  10.160  0.00  0.00     0.174 HD
ATOM     26  H21 ZIN A   1      21.270  -1.420  10.171  0.00  0.00     0.174 HD
ATOM     27  H46 ZIN A   1      21.488   1.690  11.768  0.00  0.00     0.178 HD
ENDBRANCH   2  19
BRANCH   4  28
ATOM     28  C25 ZIN A   1      17.843  -0.608  15.408  0.00  0.00     0.179 C 
ATOM     29  O26 ZIN A   1      17.998  -1.599  14.714  0.00  0.00    -0.648 OA
ATOM     30  O27 ZIN A   1      17.048  -0.629  16.331  0.00  0.00    -0.648 OA
ENDBRANCH   4  28
TORSDOF 8
ENDMDL
MODEL 3
REMARK VINA RESULT:      -6.5      3.457      6.488
REMARK  8 active torsions:
REMARK  status: ('A' for Active; 'I' for Inactive)
REMARK    1  A    between atoms: C2_2  and  C3_3 
REMARK    2  A    between atoms: C3_3  and  C4_4 
REMARK    3  A    between atoms: C3_3  and  C6_6 
REMARK    4  A    between atoms: C6_6  and  N8_7 
REMARK    5  A    between atoms: C6_6  and  C12_11 
REMARK       I    between atoms: N8_7  and  C9_8 
REMARK    6  A    between atoms: C14_12  and  N16_13 
REMARK       I    between atoms: N16_13  and  C17_14 
REMARK       I    between atoms: C17_14  and  N18_15 
REMARK    7  A    between atoms: C23_20  and  C25_21 
REMARK    8  A    between atoms: C28_24  and  O30_25 
ROOT
ATOM      1  C12 ZIN A   1      18.287  -1.061  10.598  0.00  0.00     0.061 C 
ATOM      2  C14 ZIN A   1      18.215  -1.199   9.056  0.00  0.00     0.108 C 
ATOM      3  C22 ZIN A   1      18.327   0.268   8.576  0.00  0.00     0.044 C 
ATOM      4  C23 ZIN A   1      17.514   1.070   9.613  0.00  0.00     0.118 C 
ATOM      5  C28 ZIN A   1      17.491   0.225  10.902  0.00  0.00     0.140 C 
ENDROOT
BRANCH   1   6
ATOM      6  C6  ZIN A   1      17.634  -2.268  11.274  0.00  0.00     0.097 C 
BRANCH   6   7
ATOM      7  C3  ZIN A   1      18.498  -2.719  12.454  0.00  0.00     0.008 C 
BRANCH   7   8
ATOM      8  C2  ZIN A   1      19.974  -2.673  12.053  0.00  0.00     0.002 C 
ATOM      9  C1  ZIN A   1      20.423  -4.063  11.600  0.00  0.00     0.005 C 
ENDBRANCH   7   8
BRANCH   7  10
ATOM     10  C4  ZIN A   1      18.264  -1.786  13.644  0.00  0.00     0.002 C 
ATOM     11  C5  ZIN A   1      19.611  -1.341  14.216  0.00  0.00     0.005 C 
ENDBRANCH   7  10
ENDBRANCH   6   7
BRANCH   6  12
ATOM     12  N8  ZIN A   1      17.516  -3.363  10.310  0.00  0.00    -0.356 N 
ATOM     13  C9  ZIN A   1      16.833  -4.478  10.635  0.00  0.00     0.213 C 
ATOM     14  C10 ZIN A   1      16.806  -5.649   9.687  0.00  0.00     0.117 C 
ATOM     15  O11 ZIN A   1      16.242  -4.541  11.693  0.00  0.00    -0.274 OA
ATOM     16  H42 ZIN A   1      17.930  -3.286   9.435  0.00  0.00     0.162 HD
ENDBRANCH   6  12
ENDBRANCH   1   6
BRANCH   5  17
ATOM     17  O30 ZIN A   1      16.144  -0.105  11.247  0.00  0.00    -0.394 OA
ATOM     18  H51 ZIN A   1      15.489   0.533  10.930  0.00  0.00     0.210 HD
ENDBRANCH   5  17
BRANCH   2  19
ATOM     19  N16 ZIN A   1      19.334  -2.001   8.555  0.00  0.00    -0.222 N 
ATOM     20  C17 ZIN A   1      19.164  -2.806   7.462  0.00  0.00     0.665 C 
ATOM     21  N18 ZIN A   1      17.980  -2.861   6.854  0.00  0.00    -0.235 N 
ATOM     22  N19 ZIN A   1      20.182  -3.534   7.006  0.00  0.00    -0.235 N 
ATOM     23  H47 ZIN A   1      17.239  -2.331   7.187  0.00  0.00     0.174 HD
ATOM     24  H48 ZIN A   1      17.859  -3.432   6.079  0.00  0.00     0.174 HD
ATOM     25  H20 ZIN A   1      21.043  -3.494   7.448  0.00  0.00     0.174 HD
ATOM     26  H21 ZIN A   1      20.060  -4.105   6.231  0.00  0.00     0.174 HD
ATOM     27  H46 ZIN A   1      20.197  -1.961   8.997  0.00  0.00     0.178 HD
ENDBRANCH   2  19
BRANCH   4  28
ATOM     28  C25 ZIN A   1      18.180   2.395   9.879  0.00  0.00     0.179 C 
ATOM     29  O26 ZIN A   1      19.332   2.580   9.526  0.00  0.00    -0.648 OA
ATOM     30  O27 ZIN A   1      17.567   3.283  10.446  0.00  0.00    -0.648 OA
ENDBRANCH   4  28
TORSDOF 8
ENDMDL
MODEL 4
REMARK VINA RESULT:      -6.5      5.345      8.045
REMARK  8 active torsions:
REMARK  status: ('A' for Active; 'I' for Inactive)
REMARK    1  A    between atoms: C2_2  and  C3_3 
REMARK    2  A    between atoms: C3_3  and  C4_4 
REMARK    3  A    between atoms: C3_3  and  C6_6 
REMARK    4  A    between atoms: C6_6  and  N8_7 
REMARK    5  A    between atoms: C6_6  and  C12_11 
REMARK       I    between atoms: N8_7  and  C9_8 
REMARK    6  A    between atoms: C14_12  and  N16_13 
REMARK       I    between atoms: N16_13  and  C17_14 
REMARK       I    between atoms: C17_14  and  N18_15 
REMARK    7  A    between atoms: C23_20  and  C25_21 
REMARK    8  A    between atoms: C28_24  and  O30_25 
ROOT
ATOM      1  C12 ZIN A   1      18.092  -2.438   8.397  0.00  0.00     0.061 C 
ATOM      2  C14 ZIN A   1      19.220  -1.856   9.286  0.00  0.00     0.108 C 
ATOM      3  C22 ZIN A   1      19.399  -0.427   8.718  0.00  0.00     0.044 C 
ATOM      4  C23 ZIN A   1      19.224  -0.599   7.195  0.00  0.00     0.118 C 
ATOM      5  C28 ZIN A   1      18.389  -1.879   6.990  0.00  0.00     0.140 C 
ENDROOT
BRANCH   1   6
ATOM      6  C6  ZIN A   1      18.152  -3.967   8.389  0.00  0.00     0.097 C 
BRANCH   6   7
ATOM      7  C3  ZIN A   1      17.268  -4.517   9.511  0.00  0.00     0.008 C 
BRANCH   7   8
ATOM      8  C2  ZIN A   1      16.155  -5.377   8.908  0.00  0.00     0.002 C 
ATOM      9  C1  ZIN A   1      16.705  -6.766   8.579  0.00  0.00     0.005 C 
ENDBRANCH   7   8
BRANCH   7  10
ATOM     10  C4  ZIN A   1      18.117  -5.370  10.456  0.00  0.00     0.002 C 
ATOM     11  C5  ZIN A   1      17.523  -5.315  11.864  0.00  0.00     0.005 C 
ENDBRANCH   7  10
ENDBRANCH   6   7
BRANCH   6  12
ATOM     12  N8  ZIN A   1      19.534  -4.402   8.599  0.00  0.00    -0.356 N 
ATOM     13  C9  ZIN A   1      20.107  -5.269   7.740  0.00  0.00     0.213 C 
ATOM     14  C10 ZIN A   1      21.489  -5.802   8.017  0.00  0.00     0.117 C 
ATOM     15  O11 ZIN A   1      19.509  -5.621   6.745  0.00  0.00    -0.274 OA
ATOM     16  H42 ZIN A   1      20.039  -4.065   9.357  0.00  0.00     0.162 HD
ENDBRANCH   6  12
ENDBRANCH   1   6
BRANCH   5  17
ATOM     17  O30 ZIN A   1      19.134  -2.833   6.232  0.00  0.00    -0.394 OA
ATOM     18  H51 ZIN A   1      19.369  -2.533   5.343  0.00  0.00     0.210 HD
ENDBRANCH   5  17
BRANCH   2  19
ATOM     19  N16 ZIN A   1      18.803  -1.813  10.690  0.00  0.00    -0.222 N 
ATOM     20  C17 ZIN A   1      19.644  -2.272  11.667  0.00  0.00     0.665 C 
ATOM     21  N18 ZIN A   1      20.840  -2.760  11.341  0.00  0.00    -0.235 N 
ATOM     22  N19 ZIN A   1      19.265  -2.233  12.943  0.00  0.00    -0.235 N 
ATOM     23  H47 ZIN A   1      21.115  -2.788  10.411  0.00  0.00     0.174 HD
ATOM     24  H48 ZIN A   1      21.436  -3.085  12.034  0.00  0.00     0.174 HD
ATOM     25  H20 ZIN A   1      18.395  -1.878  13.180  0.00  0.00     0.174 HD
ATOM     26  H21 ZIN A   1      19.861  -2.559  13.636  0.00  0.00     0.174 HD
ATOM     27  H46 ZIN A   1      17.932  -1.459  10.927  0.00  0.00     0.178 HD
ENDBRANCH   2  19
BRANCH   4  28
ATOM     28  C25 ZIN A   1      18.495   0.588   6.622  0.00  0.00     0.179 C 
ATOM     29  O26 ZIN A   1      18.860   1.719   6.896  0.00  0.00    -0.648 OA
ATOM     30  O27 ZIN A   1      17.540   0.420   5.883  0.00  0.00    -0.648 OA
ENDBRANCH   4  28
TORSDOF 8
ENDMDL
MODEL 5
REMARK VINA RESULT:      -6.4      2.401      3.528
REMARK  8 active torsions:
REMARK  status: ('A' for Active; 'I' for Inactive)
REMARK    1  A    between atoms: C2_2  and  C3_3 
REMARK    2  A    between atoms: C3_3  and  C4_4 
REMARK    3  A    between atoms: C3_3  and  C6_6 
REMARK    4  A    between atoms: C6_6  and  N8_7 
REMARK    5  A    between atoms: C6_6  and  C12_11 
REMARK       I    between atoms: N8_7  and  C9_8 
REMARK    6  A    between atoms: C14_12  and  N16_13 
REMARK       I    between atoms: N16_13  and  C17_14 
REMARK       I    between atoms: C17_14  and  N18_15 
REMARK    7  A    between atoms: C23_20  and  C25_21 
REMARK    8  A    between atoms: C28_24  and  O30_25 
ROOT
ATOM      1  C12 ZIN A   1      18.020   2.531  14.674  0.00  0.00     0.061 C 
ATOM      2  C14 ZIN A   1      19.167   2.091  13.729  0.00  0.00     0.108 C 
ATOM      3  C22 ZIN A   1      19.400   0.617  14.139  0.00  0.00     0.044 C 
ATOM      4  C23 ZIN A   1      19.221   0.617  15.672  0.00  0.00     0.118 C 
ATOM      5  C28 ZIN A   1      18.340   1.835  16.012  0.00  0.00     0.140 C 
ENDROOT
BRANCH   1   6
ATOM      6  C6  ZIN A   1      18.024   4.052  14.847  0.00  0.00     0.097 C 
BRANCH   6   7
ATOM      7  C3  ZIN A   1      16.972   4.672  13.925  0.00  0.00     0.008 C 
BRANCH   7   8
ATOM      8  C2  ZIN A   1      16.131   5.677  14.714  0.00  0.00     0.002 C 
ATOM      9  C1  ZIN A   1      16.715   7.080  14.540  0.00  0.00     0.005 C 
ENDBRANCH   7   8
BRANCH   7  10
ATOM     10  C4  ZIN A   1      17.670   5.389  12.767  0.00  0.00     0.002 C 
ATOM     11  C5  ZIN A   1      16.877   5.166  11.478  0.00  0.00     0.005 C 
ENDBRANCH   7  10
ENDBRANCH   6   7
BRANCH   6  12
ATOM     12  N8  ZIN A   1      19.346   4.579  14.504  0.00  0.00    -0.356 N 
ATOM     13  C9  ZIN A   1      19.973   5.427  15.342  0.00  0.00     0.213 C 
ATOM     14  C10 ZIN A   1      21.283   6.056  14.939  0.00  0.00     0.117 C 
ATOM     15  O11 ZIN A   1      19.484   5.685  16.422  0.00  0.00    -0.274 OA
ATOM     16  H42 ZIN A   1      19.772   4.316  13.672  0.00  0.00     0.162 HD
ENDBRANCH   6  12
ENDBRANCH   1   6
BRANCH   5  17
ATOM     17  O30 ZIN A   1      19.051   2.728  16.871  0.00  0.00    -0.394 OA
ATOM     18  H51 ZIN A   1      19.485   2.294  17.618  0.00  0.00     0.210 HD
ENDBRANCH   5  17
BRANCH   2  19
ATOM     19  N16 ZIN A   1      18.750   2.185  12.328  0.00  0.00    -0.222 N 
ATOM     20  C17 ZIN A   1      19.627   2.639  11.382  0.00  0.00     0.665 C 
ATOM     21  N18 ZIN A   1      20.860   2.997  11.735  0.00  0.00    -0.235 N 
ATOM     22  N19 ZIN A   1      19.247   2.725  10.108  0.00  0.00    -0.235 N 
ATOM     23  H47 ZIN A   1      21.136   2.935  12.663  0.00  0.00     0.174 HD
ATOM     24  H48 ZIN A   1      21.483   3.319  11.064  0.00  0.00     0.174 HD
ATOM     25  H20 ZIN A   1      18.350   2.464   9.851  0.00  0.00     0.174 HD
ATOM     26  H21 ZIN A   1      19.870   3.047   9.437  0.00  0.00     0.174 HD
ATOM     27  H46 ZIN A   1      17.851   1.925  12.071  0.00  0.00     0.178 HD
ENDBRANCH   2  19
BRANCH   4  28
ATOM     28  C25 ZIN A   1      18.538  -0.652  16.112  0.00  0.00     0.179 C 
ATOM     29  O26 ZIN A   1      19.201  -1.636  16.395  0.00  0.00    -0.648 OA
ATOM     30  O27 ZIN A   1      17.322  -0.696  16.185  0.00  0.00    -0.648 OA
ENDBRANCH   4  28
TORSDOF 8
ENDMDL
MODEL 6
REMARK VINA RESULT:      -6.4      3.084      6.058
REMARK  8 active torsions:
REMARK  status: ('A' for Active; 'I' for Inactive)
REMARK    1  A    between atoms: C2_2  and  C3_3 
REMARK    2  A    between atoms: C3_3  and  C4_4 
REMARK    3  A    between atoms: C3_3  and  C6_6 
REMARK    4  A    between atoms: C6_6  and  N8_7 
REMARK    5  A    between atoms: C6_6  and  C12_11 
REMARK       I    between atoms: N8_7  and  C9_8 
REMARK    6  A    between atoms: C14_12  and  N16_13 
REMARK       I    between atoms: N16_13  and  C17_14 
REMARK       I    between atoms: C17_14  and  N18_15 
REMARK    7  A    between atoms: C23_20  and  C25_21 
REMARK    8  A    between atoms: C28_24  and  O30_25 
ROOT
ATOM      1  C12 ZIN A   1      17.805   3.100  13.820  0.00  0.00     0.061 C 
ATOM      2  C14 ZIN A   1      17.991   4.479  14.500  0.00  0.00     0.108 C 
ATOM      3  C22 ZIN A   1      17.618   5.470  13.370  0.00  0.00     0.044 C 
ATOM      4  C23 ZIN A   1      18.196   4.824  12.094  0.00  0.00     0.118 C 
ATOM      5  C28 ZIN A   1      18.312   3.314  12.379  0.00  0.00     0.140 C 
ENDROOT
BRANCH   1   6
ATOM      6  C6  ZIN A   1      18.644   2.035  14.530  0.00  0.00     0.097 C 
BRANCH   6   7
ATOM      7  C3  ZIN A   1      18.812   0.823  13.610  0.00  0.00     0.008 C 
BRANCH   7   8
ATOM      8  C2  ZIN A   1      19.986  -0.029  14.100  0.00  0.00     0.002 C 
ATOM      9  C1  ZIN A   1      19.456  -1.341  14.681  0.00  0.00     0.005 C 
ENDBRANCH   7   8
BRANCH   7  10
ATOM     10  C4  ZIN A   1      17.531  -0.014  13.630  0.00  0.00     0.002 C 
ATOM     11  C5  ZIN A   1      16.995  -0.159  12.205  0.00  0.00     0.005 C 
ENDBRANCH   7  10
ENDBRANCH   6   7
BRANCH   6  12
ATOM     12  N8  ZIN A   1      17.968   1.623  15.761  0.00  0.00    -0.356 N 
ATOM     13  C9  ZIN A   1      18.609   1.708  16.944  0.00  0.00     0.213 C 
ATOM     14  C10 ZIN A   1      17.956   1.181  18.196  0.00  0.00     0.117 C 
ATOM     15  O11 ZIN A   1      19.713   2.208  17.001  0.00  0.00    -0.274 OA
ATOM     16  H42 ZIN A   1      17.057   1.288  15.727  0.00  0.00     0.162 HD
ENDBRANCH   6  12
ENDBRANCH   1   6
BRANCH   5  17
ATOM     17  O30 ZIN A   1      19.675   2.900  12.274  0.00  0.00    -0.394 OA
ATOM     18  H51 ZIN A   1      20.247   3.246  12.972  0.00  0.00     0.210 HD
ENDBRANCH   5  17
BRANCH   2  19
ATOM     19  N16 ZIN A   1      17.083   4.620  15.641  0.00  0.00    -0.222 N 
ATOM     20  C17 ZIN A   1      17.567   5.036  16.852  0.00  0.00     0.665 C 
ATOM     21  N18 ZIN A   1      18.862   5.310  16.993  0.00  0.00    -0.235 N 
ATOM     22  N19 ZIN A   1      16.741   5.165  17.890  0.00  0.00    -0.235 N 
ATOM     23  H47 ZIN A   1      19.463   5.215  16.237  0.00  0.00     0.174 HD
ATOM     24  H48 ZIN A   1      19.205   5.605  17.852  0.00  0.00     0.174 HD
ATOM     25  H20 ZIN A   1      15.798   4.966  17.787  0.00  0.00     0.174 HD
ATOM     26  H21 ZIN A   1      17.084   5.459  18.748  0.00  0.00     0.174 HD
ATOM     27  H46 ZIN A   1      16.140   4.421  15.539  0.00  0.00     0.178 HD
ENDBRANCH   2  19
BRANCH   4  28
ATOM     28  C25 ZIN A   1      17.266   5.058  10.931  0.00  0.00     0.179 C 
ATOM     29  O26 ZIN A   1      17.690   5.558   9.903  0.00  0.00    -0.648 OA
ATOM     30  O27 ZIN A   1      16.091   4.748  11.018  0.00  0.00    -0.648 OA
ENDBRANCH   4  28
TORSDOF 8
ENDMDL
MODEL 7
REMARK VINA RESULT:      -6.4      3.673      6.005
REMARK  8 active torsions:
REMARK  status: ('A' for Active; 'I' for Inactive)
REMARK    1  A    between atoms: C2_2  and  C3_3 
REMARK    2  A    between atoms: C3_3  and  C4_4 
REMARK    3  A    between atoms: C3_3  and  C6_6 
REMARK    4  A    between atoms: C6_6  and  N8_7 
REMARK    5  A    between atoms: C6_6  and  C12_11 
REMARK       I    between atoms: N8_7  and  C9_8 
REMARK    6  A    between atoms: C14_12  and  N16_13 
REMARK       I    between atoms: N16_13  and  C17_14 
REMARK       I    between atoms: C17_14  and  N18_15 
REMARK    7  A    between atoms: C23_20  and  C25_21 
REMARK    8  A    between atoms: C28_24  and  O30_25 
ROOT
ATOM      1  C12 ZIN A   1      18.612   0.110  10.136  0.00  0.00     0.061 C 
ATOM      2  C14 ZIN A   1      19.294   1.488   9.943  0.00  0.00     0.108 C 
ATOM      3  C22 ZIN A   1      19.017   1.800   8.452  0.00  0.00     0.044 C 
ATOM      4  C23 ZIN A   1      19.154   0.434   7.748  0.00  0.00     0.118 C 
ATOM      5  C28 ZIN A   1      18.894  -0.642   8.820  0.00  0.00     0.140 C 
ENDROOT
BRANCH   1   6
ATOM      6  C6  ZIN A   1      19.235  -0.633  11.321  0.00  0.00     0.097 C 
BRANCH   6   7
ATOM      7  C3  ZIN A   1      18.905  -2.124  11.216  0.00  0.00     0.008 C 
BRANCH   7   8
ATOM      8  C2  ZIN A   1      19.816  -2.914  12.158  0.00  0.00     0.002 C 
ATOM      9  C1  ZIN A   1      20.434  -4.091  11.402  0.00  0.00     0.005 C 
ENDBRANCH   7   8
BRANCH   7  10
ATOM     10  C4  ZIN A   1      17.444  -2.352  11.609  0.00  0.00     0.002 C 
ATOM     11  C5  ZIN A   1      17.052  -3.796  11.296  0.00  0.00     0.005 C 
ENDBRANCH   7  10
ENDBRANCH   6   7
BRANCH   6  12
ATOM     12  N8  ZIN A   1      18.690  -0.099  12.571  0.00  0.00    -0.356 N 
ATOM     13  C9  ZIN A   1      19.522   0.349  13.532  0.00  0.00     0.213 C 
ATOM     14  C10 ZIN A   1      18.968   0.794  14.862  0.00  0.00     0.117 C 
ATOM     15  O11 ZIN A   1      20.717   0.393  13.328  0.00  0.00    -0.274 OA
ATOM     16  H42 ZIN A   1      17.730  -0.068  12.708  0.00  0.00     0.162 HD
ENDBRANCH   6  12
ENDBRANCH   1   6
BRANCH   5  17
ATOM     17  O30 ZIN A   1      20.046  -1.473   8.968  0.00  0.00    -0.394 OA
ATOM     18  H51 ZIN A   1      20.424  -1.776   8.131  0.00  0.00     0.210 HD
ENDBRANCH   5  17
BRANCH   2  19
ATOM     19  N16 ZIN A   1      18.680   2.496  10.811  0.00  0.00    -0.222 N 
ATOM     20  C17 ZIN A   1      19.466   3.280  11.610  0.00  0.00     0.665 C 
ATOM     21  N18 ZIN A   1      20.789   3.126  11.600  0.00  0.00    -0.235 N 
ATOM     22  N19 ZIN A   1      18.908   4.197  12.400  0.00  0.00    -0.235 N 
ATOM     23  H47 ZIN A   1      21.195   2.458  11.025  0.00  0.00     0.174 HD
ATOM     24  H48 ZIN A   1      21.347   3.682  12.167  0.00  0.00     0.174 HD
ATOM     25  H20 ZIN A   1      17.945   4.309  12.407  0.00  0.00     0.174 HD
ATOM     26  H21 ZIN A   1      19.466   4.753  12.967  0.00  0.00     0.174 HD
ATOM     27  H46 ZIN A   1      17.717   2.609  10.819  0.00  0.00     0.178 HD
ENDBRANCH   2  19
BRANCH   4  28
ATOM     28  C25 ZIN A   1      18.135   0.318   6.644  0.00  0.00     0.179 C 
ATOM     29  O26 ZIN A   1      18.443   0.598   5.498  0.00  0.00    -0.648 OA
ATOM     30  O27 ZIN A   1      17.003  -0.057   6.896  0.00  0.00    -0.648 OA
ENDBRANCH   4  28
TORSDOF 8
ENDMDL
MODEL 8
REMARK VINA RESULT:      -6.4      4.436      6.044
REMARK  8 active torsions:
REMARK  status: ('A' for Active; 'I' for Inactive)
REMARK    1  A    between atoms: C2_2  and  C3_3 
REMARK    2  A    between atoms: C3_3  and  C4_4 
REMARK    3  A    between atoms: C3_3  and  C6_6 
REMARK    4  A    between atoms: C6_6  and  N8_7 
REMARK    5  A    between atoms: C6_6  and  C12_11 
REMARK       I    between atoms: N8_7  and  C9_8 
REMARK    6  A    between atoms: C14_12  and  N16_13 
REMARK       I    between atoms: N16_13  and  C17_14 
REMARK       I    between atoms: C17_14  and  N18_15 
REMARK    7  A    between atoms: C23_20  and  C25_21 
REMARK    8  A    between atoms: C28_24  and  O30_25 
ROOT
ATOM      1  C12 ZIN A   1      18.207  -1.758   9.945  0.00  0.00     0.061 C 
ATOM      2  C14 ZIN A   1      18.261  -3.286  10.196  0.00  0.00     0.108 C 
ATOM      3  C22 ZIN A   1      18.461  -3.374  11.728  0.00  0.00     0.044 C 
ATOM      4  C23 ZIN A   1      19.415  -2.206  12.053  0.00  0.00     0.118 C 
ATOM      5  C28 ZIN A   1      19.252  -1.175  10.919  0.00  0.00     0.140 C 
ENDROOT
BRANCH   1   6
ATOM      6  C6  ZIN A   1      18.589  -1.439   8.498  0.00  0.00     0.097 C 
BRANCH   6   7
ATOM      7  C3  ZIN A   1      18.019  -0.073   8.110  0.00  0.00     0.008 C 
BRANCH   7   8
ATOM      8  C2  ZIN A   1      19.168   0.902   7.844  0.00  0.00     0.002 C 
ATOM      9  C1  ZIN A   1      19.110   2.046   8.858  0.00  0.00     0.005 C 
ENDBRANCH   7   8
BRANCH   7  10
ATOM     10  C4  ZIN A   1      17.169  -0.216   6.846  0.00  0.00     0.002 C 
ATOM     11  C5  ZIN A   1      17.906   0.412   5.662  0.00  0.00     0.005 C 
ENDBRANCH   7  10
ENDBRANCH   6   7
BRANCH   6  12
ATOM     12  N8  ZIN A   1      18.040  -2.467   7.611  0.00  0.00    -0.356 N 
ATOM     13  C9  ZIN A   1      18.836  -3.078   6.712  0.00  0.00     0.213 C 
ATOM     14  C10 ZIN A   1      18.248  -4.054   5.725  0.00  0.00     0.117 C 
ATOM     15  O11 ZIN A   1      20.025  -2.842   6.695  0.00  0.00    -0.274 OA
ATOM     16  H42 ZIN A   1      17.101  -2.708   7.671  0.00  0.00     0.162 HD
ENDBRANCH   6  12
ENDBRANCH   1   6
BRANCH   5  17
ATOM     17  O30 ZIN A   1      20.498  -0.988  10.246  0.00  0.00    -0.394 OA
ATOM     18  H51 ZIN A   1      20.414  -0.861   9.291  0.00  0.00     0.210 HD
ENDBRANCH   5  17
BRANCH   2  19
ATOM     19  N16 ZIN A   1      17.004  -3.921   9.795  0.00  0.00    -0.222 N 
ATOM     20  C17 ZIN A   1      17.008  -5.201   9.309  0.00  0.00     0.665 C 
ATOM     21  N18 ZIN A   1      18.155  -5.867   9.199  0.00  0.00    -0.235 N 
ATOM     22  N19 ZIN A   1      15.864  -5.778   8.944  0.00  0.00    -0.235 N 
ATOM     23  H47 ZIN A   1      18.988  -5.446   9.464  0.00  0.00     0.174 HD
ATOM     24  H48 ZIN A   1      18.159  -6.774   8.855  0.00  0.00     0.174 HD
ATOM     25  H20 ZIN A   1      15.028  -5.293   9.024  0.00  0.00     0.174 HD
ATOM     26  H21 ZIN A   1      15.867  -6.685   8.600  0.00  0.00     0.174 HD
ATOM     27  H46 ZIN A   1      16.167  -3.436   9.874  0.00  0.00     0.178 HD
ENDBRANCH   2  19
BRANCH   4  28
ATOM     28  C25 ZIN A   1      19.038  -1.583  13.373  0.00  0.00     0.179 C 
ATOM     29  O26 ZIN A   1      17.959  -1.030  13.499  0.00  0.00    -0.648 OA
ATOM     30  O27 ZIN A   1      19.811  -1.633  14.314  0.00  0.00    -0.648 OA
ENDBRANCH   4  28
TORSDOF 8
ENDMDL
MODEL 9
REMARK VINA RESULT:      -6.3      2.218      3.859
REMARK  8 active torsions:
REMARK  status: ('A' for Active; 'I' for Inactive)
REMARK    1  A    between atoms: C2_2  and  C3_3 
REMARK    2  A    between atoms: C3_3  and  C4_4 
REMARK    3  A    between atoms: C3_3  and  C6_6 
REMARK    4  A    between atoms: C6_6  and  N8_7 
REMARK    5  A    between atoms: C6_6  and  C12_11 
REMARK       I    between atoms: N8_7  and  C9_8 
REMARK    6  A    between atoms: C14_12  and  N16_13 
REMARK       I    between atoms: N16_13  and  C17_14 
REMARK       I    between atoms: C17_14  and  N18_15 
REMARK    7  A    between atoms: C23_20  and  C25_21 
REMARK    8  A    between atoms: C28_24  and  O30_25 
ROOT
ATOM      1  C12 ZIN A   1      19.286   1.173  14.497  0.00  0.00     0.061 C 
ATOM      2  C14 ZIN A   1      18.747   2.554  14.949  0.00  0.00     0.108 C 
ATOM      3  C22 ZIN A   1      18.840   2.469  16.492  0.00  0.00     0.044 C 
ATOM      4  C23 ZIN A   1      18.445   1.013  16.815  0.00  0.00     0.118 C 
ATOM      5  C28 ZIN A   1      18.732   0.187  15.546  0.00  0.00     0.140 C 
ENDROOT
BRANCH   1   6
ATOM      6  C6  ZIN A   1      18.761   0.824  13.103  0.00  0.00     0.097 C 
BRANCH   6   7
ATOM      7  C3  ZIN A   1      19.508  -0.401  12.570  0.00  0.00     0.008 C 
BRANCH   7   8
ATOM      8  C2  ZIN A   1      18.532  -1.300  11.807  0.00  0.00     0.002 C 
ATOM      9  C1  ZIN A   1      18.454  -2.665  12.494  0.00  0.00     0.005 C 
ENDBRANCH   7   8
BRANCH   7  10
ATOM     10  C4  ZIN A   1      20.625   0.054  11.629  0.00  0.00     0.002 C 
ATOM     11  C5  ZIN A   1      20.343  -0.461  10.217  0.00  0.00     0.005 C 
ENDBRANCH   7  10
ENDBRANCH   6   7
BRANCH   6  12
ATOM     12  N8  ZIN A   1      18.977   1.958  12.202  0.00  0.00    -0.356 N 
ATOM     13  C9  ZIN A   1      17.996   2.353  11.367  0.00  0.00     0.213 C 
ATOM     14  C10 ZIN A   1      18.255   3.446  10.363  0.00  0.00     0.117 C 
ATOM     15  O11 ZIN A   1      16.904   1.827  11.423  0.00  0.00    -0.274 OA
ATOM     16  H42 ZIN A   1      19.827   2.425  12.206  0.00  0.00     0.162 HD
ENDBRANCH   6  12
ENDBRANCH   1   6
BRANCH   5  17
ATOM     17  O30 ZIN A   1      17.525  -0.409  15.067  0.00  0.00    -0.394 OA
ATOM     18  H51 ZIN A   1      16.784  -0.349  15.685  0.00  0.00     0.210 HD
ENDBRANCH   5  17
BRANCH   2  19
ATOM     19  N16 ZIN A   1      19.592   3.634  14.433  0.00  0.00    -0.222 N 
ATOM     20  C17 ZIN A   1      19.028   4.821  14.053  0.00  0.00     0.665 C 
ATOM     21  N18 ZIN A   1      17.712   4.994  14.150  0.00  0.00    -0.235 N 
ATOM     22  N19 ZIN A   1      19.797   5.803  13.583  0.00  0.00    -0.235 N 
ATOM     23  H47 ZIN A   1      17.152   4.279  14.491  0.00  0.00     0.174 HD
ATOM     24  H48 ZIN A   1      17.311   5.836  13.881  0.00  0.00     0.174 HD
ATOM     25  H20 ZIN A   1      20.755   5.677  13.513  0.00  0.00     0.174 HD
ATOM     26  H21 ZIN A   1      19.397   6.645  13.314  0.00  0.00     0.174 HD
ATOM     27  H46 ZIN A   1      20.551   3.508  14.361  0.00  0.00     0.178 HD
ENDBRANCH   2  19
BRANCH   4  28
ATOM     28  C25 ZIN A   1      19.274   0.496  17.963  0.00  0.00     0.179 C 
ATOM     29  O26 ZIN A   1      19.929   1.271  18.639  0.00  0.00    -0.648 OA
ATOM     30  O27 ZIN A   1      19.288  -0.696  18.217  0.00  0.00    -0.648 OA
ENDBRANCH   4  28
TORSDOF 8
ENDMDL
