MODEL 1
REMARK VINA RESULT:      -6.3      0.000      0.000
REMARK  1 active torsions:
REMARK  status: ('A' for Active; 'I' for Inactive)
REMARK    1  A    between atoms: C4_3  and  C6_4 
ROOT
ATOM      1  C1  ZIN A   1      17.833   3.277  10.680  0.00  0.00     0.043 C 
ATOM      2  C2  ZIN A   1      19.282   2.811  10.839  0.00  0.00     0.217 C 
ATOM      3  C4  ZIN A   1      19.360   1.300  10.604  0.00  0.00     0.184 C 
ATOM      4  O12 ZIN A   1      18.577   0.628  11.594  0.00  0.00    -0.377 OA
ATOM      5  C13 ZIN A   1      18.979   0.914  12.936  0.00  0.00     0.196 C 
ATOM      6  C14 ZIN A   1      18.900   2.423  13.176  0.00  0.00     0.261 C 
ATOM      7  N15 ZIN A   1      19.749   3.118  12.198  0.00  0.00    -0.066 N 
ATOM      8  H16 ZIN A   1      20.704   2.810  12.303  0.00  0.00     0.280 HD
ATOM      9  C17 ZIN A   1      19.675   4.568  12.427  0.00  0.00     0.270 C 
ENDROOT
BRANCH   3  10
ATOM     10  C6  ZIN A   1      18.827   0.977   9.232  0.00  0.00    -0.027 A 
ATOM     11  C11 ZIN A   1      19.408   1.544   8.113  0.00  0.00     0.010 A 
ATOM     12  C10 ZIN A   1      18.922   1.243   6.855  0.00  0.00     0.001 A 
ATOM     13  C9  ZIN A   1      17.850   0.382   6.715  0.00  0.00     0.000 A 
ATOM     14  C8  ZIN A   1      17.265  -0.181   7.835  0.00  0.00     0.001 A 
ATOM     15  C7  ZIN A   1      17.754   0.116   9.093  0.00  0.00     0.010 A 
ENDBRANCH   3  10
TORSDOF 1
ENDMDL
MODEL 2
REMARK VINA RESULT:      -6.0      1.903      4.807
REMARK  1 active torsions:
REMARK  status: ('A' for Active; 'I' for Inactive)
REMARK    1  A    between atoms: C4_3  and  C6_4 
ROOT
ATOM      1  C1  ZIN A   1      17.942   0.867  11.211  0.00  0.00     0.043 C 
ATOM      2  C2  ZIN A   1      19.374   1.379  11.041  0.00  0.00     0.217 C 
ATOM      3  C4  ZIN A   1      19.351   2.733  10.329  0.00  0.00     0.184 C 
ATOM      4  O12 ZIN A   1      18.791   2.569   9.023  0.00  0.00    -0.377 OA
ATOM      5  C13 ZIN A   1      19.495   1.625   8.211  0.00  0.00     0.196 C 
ATOM      6  C14 ZIN A   1      19.518   0.269   8.919  0.00  0.00     0.261 C 
ATOM      7  N15 ZIN A   1      20.146   0.419  10.240  0.00  0.00    -0.066 N 
ATOM      8  H16 ZIN A   1      21.090   0.757  10.127  0.00  0.00     0.280 HD
ATOM      9  C17 ZIN A   1      20.170  -0.882  10.922  0.00  0.00     0.270 C 
ENDROOT
BRANCH   3  10
ATOM     10  C6  ZIN A   1      18.511   3.703  11.120  0.00  0.00    -0.027 A 
ATOM     11  C11 ZIN A   1      17.342   4.206  10.580  0.00  0.00     0.010 A 
ATOM     12  C10 ZIN A   1      16.570   5.092  11.308  0.00  0.00     0.001 A 
ATOM     13  C9  ZIN A   1      16.972   5.482  12.572  0.00  0.00     0.000 A 
ATOM     14  C8  ZIN A   1      18.144   4.983  13.110  0.00  0.00     0.001 A 
ATOM     15  C7  ZIN A   1      18.913   4.093  12.384  0.00  0.00     0.010 A 
ENDBRANCH   3  10
TORSDOF 1
ENDMDL
MODEL 3
REMARK VINA RESULT:      -6.0      1.591      2.892
REMARK  1 active torsions:
REMARK  status: ('A' for Active; 'I' for Inactive)
REMARK    1  A    between atoms: C4_3  and  C6_4 
ROOT
ATOM      1  C1  ZIN A   1      19.926  -0.941  10.386  0.00  0.00     0.043 C 
ATOM      2  C2  ZIN A   1      18.648  -0.329  10.965  0.00  0.00     0.217 C 
ATOM      3  C4  ZIN A   1      18.381   1.021  10.295  0.00  0.00     0.184 C 
ATOM      4  O12 ZIN A   1      19.459   1.914  10.585  0.00  0.00    -0.377 OA
ATOM      5  C13 ZIN A   1      19.673   2.120  11.984  0.00  0.00     0.196 C 
ATOM      6  C14 ZIN A   1      19.944   0.773  12.657  0.00  0.00     0.261 C 
ATOM      7  N15 ZIN A   1      18.811  -0.131  12.412  0.00  0.00    -0.066 N 
ATOM      8  H16 ZIN A   1      17.969   0.273  12.794  0.00  0.00     0.280 HD
ATOM      9  C17 ZIN A   1      19.068  -1.426  13.058  0.00  0.00     0.270 C 
ENDROOT
BRANCH   3  10
ATOM     10  C6  ZIN A   1      18.271   0.830   8.804  0.00  0.00    -0.027 A 
ATOM     11  C11 ZIN A   1      17.326  -0.037   8.286  0.00  0.00     0.010 A 
ATOM     12  C10 ZIN A   1      17.222  -0.208   6.919  0.00  0.00     0.001 A 
ATOM     13  C9  ZIN A   1      18.069   0.480   6.069  0.00  0.00     0.000 A 
ATOM     14  C8  ZIN A   1      19.017   1.342   6.588  0.00  0.00     0.001 A 
ATOM     15  C7  ZIN A   1      19.118   1.517   7.955  0.00  0.00     0.010 A 
ENDBRANCH   3  10
TORSDOF 1
ENDMDL
MODEL 4
REMARK VINA RESULT:      -5.9      2.570      5.798
REMARK  1 active torsions:
REMARK  status: ('A' for Active; 'I' for Inactive)
REMARK    1  A    between atoms: C4_3  and  C6_4 
ROOT
ATOM      1  C1  ZIN A   1      18.006  -0.403  11.789  0.00  0.00     0.043 C 
ATOM      2  C2  ZIN A   1      19.488  -0.154  12.081  0.00  0.00     0.217 C 
ATOM      3  C4  ZIN A   1      19.622   0.731  13.322  0.00  0.00     0.184 C 
ATOM      4  O12 ZIN A   1      19.012   1.999  13.065  0.00  0.00    -0.377 OA
ATOM      5  C13 ZIN A   1      19.566   2.685  11.938  0.00  0.00     0.196 C 
ATOM      6  C14 ZIN A   1      19.432   1.803  10.695  0.00  0.00     0.261 C 
ATOM      7  N15 ZIN A   1      20.108   0.520  10.931  0.00  0.00    -0.066 N 
ATOM      8  H16 ZIN A   1      21.084   0.684  11.124  0.00  0.00     0.280 HD
ATOM      9  C17 ZIN A   1      19.981  -0.329   9.738  0.00  0.00     0.270 C 
ENDROOT
BRANCH   3  10
ATOM     10  C6  ZIN A   1      18.936   0.069  14.489  0.00  0.00    -0.027 A 
ATOM     11  C11 ZIN A   1      17.853   0.679  15.093  0.00  0.00     0.010 A 
ATOM     12  C10 ZIN A   1      17.221   0.069  16.159  0.00  0.00     0.001 A 
ATOM     13  C9  ZIN A   1      17.678  -1.149  16.629  0.00  0.00     0.000 A 
ATOM     14  C8  ZIN A   1      18.765  -1.757  16.029  0.00  0.00     0.001 A 
ATOM     15  C7  ZIN A   1      19.394  -1.149  14.959  0.00  0.00     0.010 A 
ENDBRANCH   3  10
TORSDOF 1
ENDMDL
MODEL 5
REMARK VINA RESULT:      -5.9      2.181      4.979
REMARK  1 active torsions:
REMARK  status: ('A' for Active; 'I' for Inactive)
REMARK    1  A    between atoms: C4_3  and  C6_4 
ROOT
ATOM      1  C1  ZIN A   1      17.519   0.251   9.601  0.00  0.00     0.043 C 
ATOM      2  C2  ZIN A   1      19.027   0.255   9.342  0.00  0.00     0.217 C 
ATOM      3  C4  ZIN A   1      19.465   1.653   8.900  0.00  0.00     0.184 C 
ATOM      4  O12 ZIN A   1      18.813   1.985   7.671  0.00  0.00    -0.377 OA
ATOM      5  C13 ZIN A   1      19.073   1.057   6.615  0.00  0.00     0.196 C 
ATOM      6  C14 ZIN A   1      18.635  -0.341   7.052  0.00  0.00     0.261 C 
ATOM      7  N15 ZIN A   1      19.345  -0.714   8.283  0.00  0.00    -0.066 N 
ATOM      8  H16 ZIN A   1      20.340  -0.710   8.112  0.00  0.00     0.280 HD
ATOM      9  C17 ZIN A   1      18.926  -2.057   8.705  0.00  0.00     0.270 C 
ENDROOT
BRANCH   3  10
ATOM     10  C6  ZIN A   1      19.087   2.657   9.959  0.00  0.00    -0.027 A 
ATOM     11  C11 ZIN A   1      18.150   3.635   9.683  0.00  0.00     0.010 A 
ATOM     12  C10 ZIN A   1      17.800   4.551  10.656  0.00  0.00     0.001 A 
ATOM     13  C9  ZIN A   1      18.393   4.495  11.904  0.00  0.00     0.000 A 
ATOM     14  C8  ZIN A   1      19.334   3.520  12.179  0.00  0.00     0.001 A 
ATOM     15  C7  ZIN A   1      19.680   2.601  11.207  0.00  0.00     0.010 A 
ENDBRANCH   3  10
TORSDOF 1
ENDMDL
MODEL 6
REMARK VINA RESULT:      -5.9      1.487      2.601
REMARK  1 active torsions:
REMARK  status: ('A' for Active; 'I' for Inactive)
REMARK    1  A    between atoms: C4_3  and  C6_4 
ROOT
ATOM      1  C1  ZIN A   1      19.734   1.338  12.258  0.00  0.00     0.043 C 
ATOM      2  C2  ZIN A   1      18.266   1.742  12.405  0.00  0.00     0.217 C 
ATOM      3  C4  ZIN A   1      17.846   2.587  11.199  0.00  0.00     0.184 C 
ATOM      4  O12 ZIN A   1      18.624   3.787  11.169  0.00  0.00    -0.377 OA
ATOM      5  C13 ZIN A   1      18.509   4.575  12.357  0.00  0.00     0.196 C 
ATOM      6  C14 ZIN A   1      18.930   3.735  13.564  0.00  0.00     0.261 C 
ATOM      7  N15 ZIN A   1      18.094   2.528  13.635  0.00  0.00    -0.066 N 
ATOM      8  H16 ZIN A   1      17.125   2.795  13.731  0.00  0.00     0.280 HD
ATOM      9  C17 ZIN A   1      18.496   1.720  14.794  0.00  0.00     0.270 C 
ENDROOT
BRANCH   3  10
ATOM     10  C6  ZIN A   1      18.076   1.804   9.932  0.00  0.00    -0.027 A 
ATOM     11  C11 ZIN A   1      17.376   0.634   9.706  0.00  0.00     0.010 A 
ATOM     12  C10 ZIN A   1      17.583  -0.081   8.541  0.00  0.00     0.001 A 
ATOM     13  C9  ZIN A   1      18.497   0.369   7.607  0.00  0.00     0.000 A 
ATOM     14  C8  ZIN A   1      19.201   1.537   7.836  0.00  0.00     0.001 A 
ATOM     15  C7  ZIN A   1      18.990   2.254   8.998  0.00  0.00     0.010 A 
ENDBRANCH   3  10
TORSDOF 1
ENDMDL
MODEL 7
REMARK VINA RESULT:      -5.8      3.372      6.372
REMARK  1 active torsions:
REMARK  status: ('A' for Active; 'I' for Inactive)
REMARK    1  A    between atoms: C4_3  and  C6_4 
ROOT
ATOM      1  C1  ZIN A   1      17.747  -2.938  11.891  0.00  0.00     0.043 C 
ATOM      2  C2  ZIN A   1      19.251  -2.663  11.844  0.00  0.00     0.217 C 
ATOM      3  C4  ZIN A   1      19.511  -1.191  12.175  0.00  0.00     0.184 C 
ATOM      4  O12 ZIN A   1      18.889  -0.368  11.184  0.00  0.00    -0.377 OA
ATOM      5  C13 ZIN A   1      19.337  -0.635   9.853  0.00  0.00     0.196 C 
ATOM      6  C14 ZIN A   1      19.077  -2.105   9.518  0.00  0.00     0.261 C 
ATOM      7  N15 ZIN A   1      19.763  -2.958  10.499  0.00  0.00    -0.066 N 
ATOM      8  H16 ZIN A   1      20.755  -2.776  10.468  0.00  0.00     0.280 HD
ATOM      9  C17 ZIN A   1      19.515  -4.371  10.179  0.00  0.00     0.270 C 
ENDROOT
BRANCH   3  10
ATOM     10  C6  ZIN A   1      18.936  -0.871  13.531  0.00  0.00    -0.027 A 
ATOM     11  C11 ZIN A   1      17.941   0.080  13.653  0.00  0.00     0.010 A 
ATOM     12  C10 ZIN A   1      17.410   0.369  14.896  0.00  0.00     0.001 A 
ATOM     13  C9  ZIN A   1      17.881  -0.287  16.019  0.00  0.00     0.000 A 
ATOM     14  C8  ZIN A   1      18.880  -1.234  15.897  0.00  0.00     0.001 A 
ATOM     15  C7  ZIN A   1      19.407  -1.527  14.653  0.00  0.00     0.010 A 
ENDBRANCH   3  10
TORSDOF 1
ENDMDL
MODEL 8
REMARK VINA RESULT:      -5.6      2.472      5.490
REMARK  1 active torsions:
REMARK  status: ('A' for Active; 'I' for Inactive)
REMARK    1  A    between atoms: C4_3  and  C6_4 
ROOT
ATOM      1  C1  ZIN A   1      17.344   0.876  12.032  0.00  0.00     0.043 C 
ATOM      2  C2  ZIN A   1      18.701   1.531  12.298  0.00  0.00     0.217 C 
ATOM      3  C4  ZIN A   1      18.809   1.895  13.781  0.00  0.00     0.184 C 
ATOM      4  O12 ZIN A   1      17.796   2.850  14.107  0.00  0.00    -0.377 OA
ATOM      5  C13 ZIN A   1      17.861   4.046  13.325  0.00  0.00     0.196 C 
ATOM      6  C14 ZIN A   1      17.751   3.686  11.843  0.00  0.00     0.261 C 
ATOM      7  N15 ZIN A   1      18.826   2.749  11.486  0.00  0.00    -0.066 N 
ATOM      8  H16 ZIN A   1      19.721   3.181  11.663  0.00  0.00     0.280 HD
ATOM      9  C17 ZIN A   1      18.723   2.402  10.062  0.00  0.00     0.270 C 
ENDROOT
BRANCH   3  10
ATOM     10  C6  ZIN A   1      18.624   0.656  14.618  0.00  0.00    -0.027 A 
ATOM     11  C11 ZIN A   1      19.441  -0.441  14.420  0.00  0.00     0.010 A 
ATOM     12  C10 ZIN A   1      19.275  -1.576  15.192  0.00  0.00     0.001 A 
ATOM     13  C9  ZIN A   1      18.284  -1.617  16.155  0.00  0.00     0.000 A 
ATOM     14  C8  ZIN A   1      17.462  -0.522  16.349  0.00  0.00     0.001 A 
ATOM     15  C7  ZIN A   1      17.633   0.614  15.582  0.00  0.00     0.010 A 
ENDBRANCH   3  10
TORSDOF 1
ENDMDL
MODEL 9
REMARK VINA RESULT:      -5.6      2.864      6.178
REMARK  1 active torsions:
REMARK  status: ('A' for Active; 'I' for Inactive)
REMARK    1  A    between atoms: C4_3  and  C6_4 
ROOT
ATOM      1  C1  ZIN A   1      20.128   0.602  13.034  0.00  0.00     0.043 C 
ATOM      2  C2  ZIN A   1      18.909   1.515  13.179  0.00  0.00     0.217 C 
ATOM      3  C4  ZIN A   1      17.797   0.767  13.920  0.00  0.00     0.184 C 
ATOM      4  O12 ZIN A   1      17.397  -0.369  13.148  0.00  0.00    -0.377 OA
ATOM      5  C13 ZIN A   1      16.944  -0.039  11.833  0.00  0.00     0.196 C 
ATOM      6  C14 ZIN A   1      18.054   0.706  11.088  0.00  0.00     0.261 C 
ATOM      7  N15 ZIN A   1      18.429   1.908  11.847  0.00  0.00    -0.066 N 
ATOM      8  H16 ZIN A   1      17.624   2.510  11.943  0.00  0.00     0.280 HD
ATOM      9  C17 ZIN A   1      19.494   2.626  11.134  0.00  0.00     0.270 C 
ENDROOT
BRANCH   3  10
ATOM     10  C6  ZIN A   1      18.306   0.313  15.263  0.00  0.00    -0.027 A 
ATOM     11  C11 ZIN A   1      18.665   1.245  16.219  0.00  0.00     0.010 A 
ATOM     12  C10 ZIN A   1      19.126   0.828  17.453  0.00  0.00     0.001 A 
ATOM     13  C9  ZIN A   1      19.237  -0.523  17.729  0.00  0.00     0.000 A 
ATOM     14  C8  ZIN A   1      18.883  -1.455  16.771  0.00  0.00     0.001 A 
ATOM     15  C7  ZIN A   1      18.417  -1.038  15.539  0.00  0.00     0.010 A 
ENDBRANCH   3  10
TORSDOF 1
ENDMDL
