MODEL 1
REMARK VINA RESULT:      -5.1      0.000      0.000
REMARK  5 active torsions:
REMARK  status: ('A' for Active; 'I' for Inactive)
REMARK    1  A    between atoms: N1_1  and  C5_5 
REMARK    2  A    between atoms: C5_5  and  C6_6 
REMARK    3  A    between atoms: C6_6  and  C7_7 
REMARK    4  A    between atoms: C10_10  and  O11_11 
REMARK    5  A    between atoms: C12_12  and  O13_13 
ROOT
ATOM      1  C7  <0> d   1      18.659   0.218   7.603  0.00  0.00    -0.054 A 
ATOM      2  C8  <0> d   1      18.553   0.894   6.403  0.00  0.00     0.010 A 
ATOM      3  C9  <0> d   1      18.878   0.258   5.218  0.00  0.00     0.040 A 
ATOM      4  C10 <0> d   1      19.312  -1.057   5.234  0.00  0.00     0.098 A 
ATOM      5  C12 <0> d   1      19.421  -1.736   6.444  0.00  0.00     0.099 A 
ATOM      6  C14 <0> d   1      19.097  -1.093   7.628  0.00  0.00     0.046 A 
ENDROOT
BRANCH   1   7
ATOM      7  C6  <0> d   1      18.302   0.916   8.891  0.00  0.00     0.066 C 
BRANCH   7   8
ATOM      8  C5  <0> d   1      19.075   2.233   8.989  0.00  0.00     0.234 C 
BRANCH   8   9
ATOM      9  N1  <0> d   1      19.714   2.329  10.307  0.00  0.00    -0.079 N 
ATOM     10  H2  <0> d   1      20.358   1.561  10.427  0.00  0.00     0.274 HD
ATOM     11  H3  <0> d   1      19.009   2.290  11.028  0.00  0.00     0.274 HD
ATOM     12  H4  <0> d   1      20.216   3.202  10.376  0.00  0.00     0.274 HD
ENDBRANCH   8   9
ENDBRANCH   7   8
ENDBRANCH   1   7
BRANCH   5  13
ATOM     13  O13 <0> d   1      19.846  -3.028   6.465  0.00  0.00    -0.358 OA
ATOM     14  H22 <0> d   1      19.806  -3.441   7.339  0.00  0.00     0.217 HD
ENDBRANCH   5  13
BRANCH   4  15
ATOM     15  O11 <0> d   1      19.633  -1.683   4.071  0.00  0.00    -0.358 OA
ATOM     16  H21 <0> d   1      20.578  -1.867   3.970  0.00  0.00     0.217 HD
ENDBRANCH   4  15
TORSDOF 5
ENDMDL
MODEL 2
REMARK VINA RESULT:      -5.0      1.983      2.977
REMARK  5 active torsions:
REMARK  status: ('A' for Active; 'I' for Inactive)
REMARK    1  A    between atoms: N1_1  and  C5_5 
REMARK    2  A    between atoms: C5_5  and  C6_6 
REMARK    3  A    between atoms: C6_6  and  C7_7 
REMARK    4  A    between atoms: C10_10  and  O11_11 
REMARK    5  A    between atoms: C12_12  and  O13_13 
ROOT
ATOM      1  C7  <0> d   1      18.566   1.823   9.226  0.00  0.00    -0.054 A 
ATOM      2  C8  <0> d   1      17.698   0.827   9.628  0.00  0.00     0.010 A 
ATOM      3  C9  <0> d   1      17.354  -0.188   8.753  0.00  0.00     0.040 A 
ATOM      4  C10 <0> d   1      17.879  -0.206   7.472  0.00  0.00     0.098 A 
ATOM      5  C12 <0> d   1      18.753   0.799   7.067  0.00  0.00     0.099 A 
ATOM      6  C14 <0> d   1      19.090   1.815   7.946  0.00  0.00     0.046 A 
ENDROOT
BRANCH   1   7
ATOM      7  C6  <0> d   1      18.938   2.926  10.183  0.00  0.00     0.066 C 
BRANCH   7   8
ATOM      8  C5  <0> d   1      19.660   2.329  11.393  0.00  0.00     0.234 C 
BRANCH   8   9
ATOM      9  N1  <0> d   1      20.841   3.143  11.708  0.00  0.00    -0.079 N 
ATOM     10  H2  <0> d   1      20.990   3.150  12.706  0.00  0.00     0.274 HD
ATOM     11  H3  <0> d   1      20.696   4.088  11.384  0.00  0.00     0.274 HD
ATOM     12  H4  <0> d   1      21.652   2.752  11.251  0.00  0.00     0.274 HD
ENDBRANCH   8   9
ENDBRANCH   7   8
ENDBRANCH   1   7
BRANCH   5  13
ATOM     13  O13 <0> d   1      19.272   0.786   5.810  0.00  0.00    -0.358 OA
ATOM     14  H22 <0> d   1      18.661   1.100   5.129  0.00  0.00     0.217 HD
ENDBRANCH   5  13
BRANCH   4  15
ATOM     15  O11 <0> d   1      17.542  -1.203   6.610  0.00  0.00    -0.358 OA
ATOM     16  H21 <0> d   1      17.666  -0.977   5.678  0.00  0.00     0.217 HD
ENDBRANCH   4  15
TORSDOF 5
ENDMDL
MODEL 3
REMARK VINA RESULT:      -5.0      5.459      6.566
REMARK  5 active torsions:
REMARK  status: ('A' for Active; 'I' for Inactive)
REMARK    1  A    between atoms: N1_1  and  C5_5 
REMARK    2  A    between atoms: C5_5  and  C6_6 
REMARK    3  A    between atoms: C6_6  and  C7_7 
REMARK    4  A    between atoms: C10_10  and  O11_11 
REMARK    5  A    between atoms: C12_12  and  O13_13 
ROOT
ATOM      1  C7  <0> d   1      19.365  -0.990  13.769  0.00  0.00    -0.054 A 
ATOM      2  C8  <0> d   1      19.254  -1.980  12.812  0.00  0.00     0.010 A 
ATOM      3  C9  <0> d   1      19.769  -1.779  11.544  0.00  0.00     0.040 A 
ATOM      4  C10 <0> d   1      20.397  -0.585  11.233  0.00  0.00     0.098 A 
ATOM      5  C12 <0> d   1      20.508   0.413  12.198  0.00  0.00     0.099 A 
ATOM      6  C14 <0> d   1      19.985   0.207  13.464  0.00  0.00     0.046 A 
ENDROOT
BRANCH   1   7
ATOM      7  C6  <0> d   1      18.802  -1.214  15.149  0.00  0.00     0.066 C 
BRANCH   7   8
ATOM      8  C5  <0> d   1      18.653   0.131  15.865  0.00  0.00     0.234 C 
BRANCH   8   9
ATOM      9  N1  <0> d   1      17.243   0.538  15.853  0.00  0.00    -0.079 N 
ATOM     10  H2  <0> d   1      16.655  -0.281  15.892  0.00  0.00     0.274 HD
ATOM     11  H3  <0> d   1      17.047   1.051  15.006  0.00  0.00     0.274 HD
ATOM     12  H4  <0> d   1      17.055   1.126  16.652  0.00  0.00     0.274 HD
ENDBRANCH   8   9
ENDBRANCH   7   8
ENDBRANCH   1   7
BRANCH   5  13
ATOM     13  O13 <0> d   1      21.124   1.587  11.897  0.00  0.00    -0.358 OA
ATOM     14  H22 <0> d   1      20.543   2.242  11.485  0.00  0.00     0.217 HD
ENDBRANCH   5  13
BRANCH   4  15
ATOM     15  O11 <0> d   1      20.904  -0.385   9.986  0.00  0.00    -0.358 OA
ATOM     16  H21 <0> d   1      21.347   0.467   9.873  0.00  0.00     0.217 HD
ENDBRANCH   4  15
TORSDOF 5
ENDMDL
MODEL 4
REMARK VINA RESULT:      -5.0      3.772      5.059
REMARK  5 active torsions:
REMARK  status: ('A' for Active; 'I' for Inactive)
REMARK    1  A    between atoms: N1_1  and  C5_5 
REMARK    2  A    between atoms: C5_5  and  C6_6 
REMARK    3  A    between atoms: C6_6  and  C7_7 
REMARK    4  A    between atoms: C10_10  and  O11_11 
REMARK    5  A    between atoms: C12_12  and  O13_13 
ROOT
ATOM      1  C7  <0> d   1      18.422   0.489   8.316  0.00  0.00    -0.054 A 
ATOM      2  C8  <0> d   1      18.941   1.748   8.551  0.00  0.00     0.010 A 
ATOM      3  C9  <0> d   1      18.567   2.452   9.681  0.00  0.00     0.040 A 
ATOM      4  C10 <0> d   1      17.672   1.895  10.580  0.00  0.00     0.098 A 
ATOM      5  C12 <0> d   1      17.149   0.627  10.342  0.00  0.00     0.099 A 
ATOM      6  C14 <0> d   1      17.523  -0.071   9.205  0.00  0.00     0.046 A 
ENDROOT
BRANCH   1   7
ATOM      7  C6  <0> d   1      18.833  -0.274   7.083  0.00  0.00     0.066 C 
BRANCH   7   8
ATOM      8  C5  <0> d   1      18.572   0.584   5.842  0.00  0.00     0.234 C 
BRANCH   8   9
ATOM      9  N1  <0> d   1      19.607   0.315   4.835  0.00  0.00    -0.079 N 
ATOM     10  H2  <0> d   1      19.749  -0.681   4.755  0.00  0.00     0.274 HD
ATOM     11  H3  <0> d   1      20.471   0.756   5.113  0.00  0.00     0.274 HD
ATOM     12  H4  <0> d   1      19.313   0.685   3.943  0.00  0.00     0.274 HD
ENDBRANCH   8   9
ENDBRANCH   7   8
ENDBRANCH   1   7
BRANCH   5  13
ATOM     13  O13 <0> d   1      16.270   0.077  11.221  0.00  0.00    -0.358 OA
ATOM     14  H22 <0> d   1      16.428  -0.861  11.400  0.00  0.00     0.217 HD
ENDBRANCH   5  13
BRANCH   4  15
ATOM     15  O11 <0> d   1      17.303   2.586  11.692  0.00  0.00    -0.358 OA
ATOM     16  H21 <0> d   1      17.484   2.123  12.521  0.00  0.00     0.217 HD
ENDBRANCH   4  15
TORSDOF 5
ENDMDL
MODEL 5
REMARK VINA RESULT:      -4.9      8.469     10.273
REMARK  5 active torsions:
REMARK  status: ('A' for Active; 'I' for Inactive)
REMARK    1  A    between atoms: N1_1  and  C5_5 
REMARK    2  A    between atoms: C5_5  and  C6_6 
REMARK    3  A    between atoms: C6_6  and  C7_7 
REMARK    4  A    between atoms: C10_10  and  O11_11 
REMARK    5  A    between atoms: C12_12  and  O13_13 
ROOT
ATOM      1  C7  <0> d   1      18.457  -0.041  15.683  0.00  0.00    -0.054 A 
ATOM      2  C8  <0> d   1      18.259  -0.564  16.947  0.00  0.00     0.010 A 
ATOM      3  C9  <0> d   1      18.641   0.157  18.064  0.00  0.00     0.040 A 
ATOM      4  C10 <0> d   1      19.223   1.405  17.917  0.00  0.00     0.098 A 
ATOM      5  C12 <0> d   1      19.423   1.931  16.643  0.00  0.00     0.099 A 
ATOM      6  C14 <0> d   1      19.043   1.202  15.528  0.00  0.00     0.046 A 
ENDROOT
BRANCH   1   7
ATOM      7  C6  <0> d   1      18.038  -0.831  14.470  0.00  0.00     0.066 C 
BRANCH   7   8
ATOM      8  C5  <0> d   1      19.088  -0.669  13.368  0.00  0.00     0.234 C 
BRANCH   8   9
ATOM      9  N1  <0> d   1      19.888  -1.896  13.270  0.00  0.00    -0.079 N 
ATOM     10  H2  <0> d   1      19.822  -2.412  14.135  0.00  0.00     0.274 HD
ATOM     11  H3  <0> d   1      20.853  -1.656  13.095  0.00  0.00     0.274 HD
ATOM     12  H4  <0> d   1      19.541  -2.465  12.512  0.00  0.00     0.274 HD
ENDBRANCH   8   9
ENDBRANCH   7   8
ENDBRANCH   1   7
BRANCH   5  13
ATOM     13  O13 <0> d   1      19.994   3.156  16.494  0.00  0.00    -0.358 OA
ATOM     14  H22 <0> d   1      20.835   3.142  16.016  0.00  0.00     0.217 HD
ENDBRANCH   5  13
BRANCH   4  15
ATOM     15  O11 <0> d   1      19.600   2.115  19.014  0.00  0.00    -0.358 OA
ATOM     16  H21 <0> d   1      19.351   1.705  19.853  0.00  0.00     0.217 HD
ENDBRANCH   4  15
TORSDOF 5
ENDMDL
MODEL 6
REMARK VINA RESULT:      -4.9      3.586      5.041
REMARK  5 active torsions:
REMARK  status: ('A' for Active; 'I' for Inactive)
REMARK    1  A    between atoms: N1_1  and  C5_5 
REMARK    2  A    between atoms: C5_5  and  C6_6 
REMARK    3  A    between atoms: C6_6  and  C7_7 
REMARK    4  A    between atoms: C10_10  and  O11_11 
REMARK    5  A    between atoms: C12_12  and  O13_13 
ROOT
ATOM      1  C7  <0> d   1      19.378   0.974   9.192  0.00  0.00    -0.054 A 
ATOM      2  C8  <0> d   1      19.248   1.981  10.129  0.00  0.00     0.010 A 
ATOM      3  C9  <0> d   1      19.739   1.804  11.410  0.00  0.00     0.040 A 
ATOM      4  C10 <0> d   1      20.360   0.616  11.756  0.00  0.00     0.098 A 
ATOM      5  C12 <0> d   1      20.490  -0.399  10.812  0.00  0.00     0.099 A 
ATOM      6  C14 <0> d   1      19.992  -0.217   9.531  0.00  0.00     0.046 A 
ENDROOT
BRANCH   1   7
ATOM      7  C6  <0> d   1      18.843   1.173   7.797  0.00  0.00     0.066 C 
BRANCH   7   8
ATOM      8  C5  <0> d   1      18.425  -0.179   7.213  0.00  0.00     0.234 C 
BRANCH   8   9
ATOM      9  N1  <0> d   1      17.003  -0.414   7.492  0.00  0.00    -0.079 N 
ATOM     10  H2  <0> d   1      16.653   0.314   8.097  0.00  0.00     0.274 HD
ATOM     11  H3  <0> d   1      16.892  -1.309   7.945  0.00  0.00     0.274 HD
ATOM     12  H4  <0> d   1      16.485  -0.410   6.626  0.00  0.00     0.274 HD
ENDBRANCH   8   9
ENDBRANCH   7   8
ENDBRANCH   1   7
BRANCH   5  13
ATOM     13  O13 <0> d   1      21.099  -1.568  11.146  0.00  0.00    -0.358 OA
ATOM     14  H22 <0> d   1      20.525  -2.344  11.082  0.00  0.00     0.217 HD
ENDBRANCH   5  13
BRANCH   4  15
ATOM     15  O11 <0> d   1      20.842   0.439  13.015  0.00  0.00    -0.358 OA
ATOM     16  H21 <0> d   1      20.303   0.850  13.705  0.00  0.00     0.217 HD
ENDBRANCH   4  15
TORSDOF 5
ENDMDL
MODEL 7
REMARK VINA RESULT:      -4.9      2.139      2.683
REMARK  5 active torsions:
REMARK  status: ('A' for Active; 'I' for Inactive)
REMARK    1  A    between atoms: N1_1  and  C5_5 
REMARK    2  A    between atoms: C5_5  and  C6_6 
REMARK    3  A    between atoms: C6_6  and  C7_7 
REMARK    4  A    between atoms: C10_10  and  O11_11 
REMARK    5  A    between atoms: C12_12  and  O13_13 
ROOT
ATOM      1  C7  <0> d   1      19.083   0.983   9.607  0.00  0.00    -0.054 A 
ATOM      2  C8  <0> d   1      19.325   1.870   8.576  0.00  0.00     0.010 A 
ATOM      3  C9  <0> d   1      18.947   1.552   7.284  0.00  0.00     0.040 A 
ATOM      4  C10 <0> d   1      18.325   0.343   7.022  0.00  0.00     0.098 A 
ATOM      5  C12 <0> d   1      18.081  -0.551   8.061  0.00  0.00     0.099 A 
ATOM      6  C14 <0> d   1      18.467  -0.229   9.352  0.00  0.00     0.046 A 
ENDROOT
BRANCH   1   7
ATOM      7  C6  <0> d   1      19.496   1.334  11.013  0.00  0.00     0.066 C 
BRANCH   7   8
ATOM      8  C5  <0> d   1      20.245   0.154  11.635  0.00  0.00     0.234 C 
BRANCH   8   9
ATOM      9  N1  <0> d   1      21.554   0.606  12.122  0.00  0.00    -0.079 N 
ATOM     10  H2  <0> d   1      22.261  -0.065  11.860  0.00  0.00     0.274 HD
ATOM     11  H3  <0> d   1      21.529   0.691  13.127  0.00  0.00     0.274 HD
ATOM     12  H4  <0> d   1      21.774   1.502  11.714  0.00  0.00     0.274 HD
ENDBRANCH   8   9
ENDBRANCH   7   8
ENDBRANCH   1   7
BRANCH   5  13
ATOM     13  O13 <0> d   1      17.471  -1.740   7.809  0.00  0.00    -0.358 OA
ATOM     14  H22 <0> d   1      17.857  -2.489   8.283  0.00  0.00     0.217 HD
ENDBRANCH   5  13
BRANCH   4  15
ATOM     15  O11 <0> d   1      17.952   0.028   5.752  0.00  0.00    -0.358 OA
ATOM     16  H21 <0> d   1      17.131   0.451   5.466  0.00  0.00     0.217 HD
ENDBRANCH   4  15
TORSDOF 5
ENDMDL
MODEL 8
REMARK VINA RESULT:      -4.8      6.840      8.553
REMARK  5 active torsions:
REMARK  status: ('A' for Active; 'I' for Inactive)
REMARK    1  A    between atoms: N1_1  and  C5_5 
REMARK    2  A    between atoms: C5_5  and  C6_6 
REMARK    3  A    between atoms: C6_6  and  C7_7 
REMARK    4  A    between atoms: C10_10  and  O11_11 
REMARK    5  A    between atoms: C12_12  and  O13_13 
ROOT
ATOM      1  C7  <0> d   1      18.898  -0.542  13.611  0.00  0.00    -0.054 A 
ATOM      2  C8  <0> d   1      18.645  -1.447  14.624  0.00  0.00     0.010 A 
ATOM      3  C9  <0> d   1      18.059  -1.022  15.803  0.00  0.00     0.040 A 
ATOM      4  C10 <0> d   1      17.727   0.312  15.970  0.00  0.00     0.098 A 
ATOM      5  C12 <0> d   1      17.982   1.223  14.949  0.00  0.00     0.099 A 
ATOM      6  C14 <0> d   1      18.573   0.792  13.772  0.00  0.00     0.046 A 
ENDROOT
BRANCH   1   7
ATOM      7  C6  <0> d   1      19.535  -1.011  12.328  0.00  0.00     0.066 C 
BRANCH   7   8
ATOM      8  C5  <0> d   1      20.461   0.082  11.789  0.00  0.00     0.234 C 
BRANCH   8   9
ATOM      9  N1  <0> d   1      21.522  -0.530  10.980  0.00  0.00    -0.079 N 
ATOM     10  H2  <0> d   1      21.314  -1.506  10.834  0.00  0.00     0.274 HD
ATOM     11  H3  <0> d   1      22.405  -0.443  11.462  0.00  0.00     0.274 HD
ATOM     12  H4  <0> d   1      21.579  -0.061  10.088  0.00  0.00     0.274 HD
ENDBRANCH   8   9
ENDBRANCH   7   8
ENDBRANCH   1   7
BRANCH   5  13
ATOM     13  O13 <0> d   1      17.657   2.534  15.107  0.00  0.00    -0.358 OA
ATOM     14  H22 <0> d   1      18.420   3.118  15.220  0.00  0.00     0.217 HD
ENDBRANCH   5  13
BRANCH   4  15
ATOM     15  O11 <0> d   1      17.151   0.732  17.128  0.00  0.00    -0.358 OA
ATOM     16  H21 <0> d   1      16.563   1.492  17.023  0.00  0.00     0.217 HD
ENDBRANCH   4  15
TORSDOF 5
ENDMDL
MODEL 9
REMARK VINA RESULT:      -4.8      7.374      8.752
REMARK  5 active torsions:
REMARK  status: ('A' for Active; 'I' for Inactive)
REMARK    1  A    between atoms: N1_1  and  C5_5 
REMARK    2  A    between atoms: C5_5  and  C6_6 
REMARK    3  A    between atoms: C6_6  and  C7_7 
REMARK    4  A    between atoms: C10_10  and  O11_11 
REMARK    5  A    between atoms: C12_12  and  O13_13 
ROOT
ATOM      1  C7  <0> d   1      18.105  -0.085  15.909  0.00  0.00    -0.054 A 
ATOM      2  C8  <0> d   1      18.655  -1.267  15.453  0.00  0.00     0.010 A 
ATOM      3  C9  <0> d   1      19.526  -1.258  14.379  0.00  0.00     0.040 A 
ATOM      4  C10 <0> d   1      19.846  -0.063  13.756  0.00  0.00     0.098 A 
ATOM      5  C12 <0> d   1      19.290   1.128  14.215  0.00  0.00     0.099 A 
ATOM      6  C14 <0> d   1      18.415   1.111  15.289  0.00  0.00     0.046 A 
ENDROOT
BRANCH   1   7
ATOM      7  C6  <0> d   1      17.157  -0.101  17.081  0.00  0.00     0.066 C 
BRANCH   7   8
ATOM      8  C5  <0> d   1      17.771   0.684  18.243  0.00  0.00     0.234 C 
BRANCH   8   9
ATOM      9  N1  <0> d   1      16.908   1.824  18.574  0.00  0.00    -0.079 N 
ATOM     10  H2  <0> d   1      16.218   1.947  17.848  0.00  0.00     0.274 HD
ATOM     11  H3  <0> d   1      17.468   2.660  18.650  0.00  0.00     0.274 HD
ATOM     12  H4  <0> d   1      16.443   1.650  19.453  0.00  0.00     0.274 HD
ENDBRANCH   8   9
ENDBRANCH   7   8
ENDBRANCH   1   7
BRANCH   5  13
ATOM     13  O13 <0> d   1      19.602   2.304  13.608  0.00  0.00    -0.358 OA
ATOM     14  H22 <0> d   1      18.886   2.670  13.070  0.00  0.00     0.217 HD
ENDBRANCH   5  13
BRANCH   4  15
ATOM     15  O11 <0> d   1      20.701  -0.053  12.699  0.00  0.00    -0.358 OA
ATOM     16  H21 <0> d   1      20.736  -0.887  12.212  0.00  0.00     0.217 HD
ENDBRANCH   4  15
TORSDOF 5
ENDMDL
