MODEL 1
REMARK VINA RESULT:      -7.0      0.000      0.000
REMARK  4 active torsions:
REMARK  status: ('A' for Active; 'I' for Inactive)
REMARK    1  A    between atoms: C2_2  and  N3_3 
REMARK    2  A    between atoms: N3_3  and  C6_6 
REMARK    3  A    between atoms: C18_16  and  S19_17 
REMARK    4  A    between atoms: S19_17  and  N20_18 
ROOT
ATOM      1  C6  ZIN A   1      19.394  -1.359  11.068  0.00  0.00     0.222 C 
ATOM      2  C8  ZIN A   1      19.721  -0.274  12.082  0.00  0.00     0.058 C 
ATOM      3  C9  ZIN A   1      18.561   0.727  12.183  0.00  0.00     0.112 C 
ATOM      4  C11 ZIN A   1      17.235  -0.026  12.317  0.00  0.00     0.026 C 
ATOM      5  S12 ZIN A   1      18.565   1.714  10.653  0.00  0.00     0.186 S 
ATOM      6  O13 ZIN A   1      17.269   2.228  10.378  0.00  0.00    -0.222 OA
ATOM      7  O14 ZIN A   1      19.717   2.544  10.589  0.00  0.00    -0.222 OA
ATOM      8  C15 ZIN A   1      18.831   0.478   9.411  0.00  0.00     0.110 A 
ATOM      9  C16 ZIN A   1      19.188  -0.793   9.675  0.00  0.00     0.003 A 
ATOM     10  C17 ZIN A   1      19.346  -1.565   8.523  0.00  0.00     0.044 A 
ATOM     11  C18 ZIN A   1      19.115  -0.947   7.371  0.00  0.00     0.121 A 
ATOM     12  S23 ZIN A   1      18.671   0.724   7.680  0.00  0.00    -0.064 SA
ENDROOT
BRANCH  11  13
ATOM     13  S19 ZIN A   1      19.238  -1.688   5.777  0.00  0.00     0.263 S 
ATOM     14  O21 ZIN A   1      19.816  -0.711   4.924  0.00  0.00    -0.200 OA
ATOM     15  O22 ZIN A   1      19.802  -2.978   5.976  0.00  0.00    -0.200 OA
BRANCH  13  16
ATOM     16  N20 ZIN A   1      17.694  -1.934   5.229  0.00  0.00    -0.324 N 
ATOM     17  H35 ZIN A   1      17.171  -1.186   4.905  0.00  0.00     0.169 HD
ATOM     18  H36 ZIN A   1      17.315  -2.826   5.234  0.00  0.00     0.169 HD
ENDBRANCH  13  16
ENDBRANCH  11  13
BRANCH   1  19
ATOM     19  N3  ZIN A   1      20.500  -2.325  11.031  0.00  0.00    -0.067 N 
ATOM     20  H4  ZIN A   1      21.298  -1.942  11.516  0.00  0.00     0.277 HD
ATOM     21  H5  ZIN A   1      20.749  -2.516  10.072  0.00  0.00     0.277 HD
BRANCH  19  22
ATOM     22  C2  ZIN A   1      20.082  -3.573  11.685  0.00  0.00     0.228 C 
ATOM     23  C1  ZIN A   1      19.788  -4.632  10.620  0.00  0.00     0.034 C 
ENDBRANCH  19  22
ENDBRANCH   1  19
TORSDOF 4
ENDMDL
MODEL 2
REMARK VINA RESULT:      -6.9      4.862      6.685
REMARK  4 active torsions:
REMARK  status: ('A' for Active; 'I' for Inactive)
REMARK    1  A    between atoms: C2_2  and  N3_3 
REMARK    2  A    between atoms: N3_3  and  C6_6 
REMARK    3  A    between atoms: C18_16  and  S19_17 
REMARK    4  A    between atoms: S19_17  and  N20_18 
ROOT
ATOM      1  C6  ZIN A   1      18.791  -0.863  14.995  0.00  0.00     0.222 C 
ATOM      2  C8  ZIN A   1      19.179  -1.417  16.356  0.00  0.00     0.058 C 
ATOM      3  C9  ZIN A   1      18.237  -0.875  17.441  0.00  0.00     0.112 C 
ATOM      4  C11 ZIN A   1      16.783  -1.011  16.981  0.00  0.00     0.026 C 
ATOM      5  S12 ZIN A   1      18.651   0.881  17.686  0.00  0.00     0.186 S 
ATOM      6  O13 ZIN A   1      17.534   1.600  18.192  0.00  0.00    -0.222 OA
ATOM      7  O14 ZIN A   1      19.942   1.020  18.265  0.00  0.00    -0.222 OA
ATOM      8  C15 ZIN A   1      18.840   1.457  16.021  0.00  0.00     0.110 A 
ATOM      9  C16 ZIN A   1      18.898   0.650  14.945  0.00  0.00     0.003 A 
ATOM     10  C17 ZIN A   1      19.061   1.349  13.747  0.00  0.00     0.044 A 
ATOM     11  C18 ZIN A   1      19.122   2.671  13.848  0.00  0.00     0.121 A 
ATOM     12  S23 ZIN A   1      18.978   3.139  15.535  0.00  0.00    -0.064 SA
ENDROOT
BRANCH  11  13
ATOM     13  S19 ZIN A   1      19.320   3.786  12.497  0.00  0.00     0.263 S 
ATOM     14  O21 ZIN A   1      18.225   3.554  11.623  0.00  0.00    -0.200 OA
ATOM     15  O22 ZIN A   1      19.606   5.058  13.064  0.00  0.00    -0.200 OA
BRANCH  13  16
ATOM     16  N20 ZIN A   1      20.682   3.324  11.676  0.00  0.00    -0.324 N 
ATOM     17  H35 ZIN A   1      21.532   3.270  12.138  0.00  0.00     0.169 HD
ATOM     18  H36 ZIN A   1      20.628   3.111  10.731  0.00  0.00     0.169 HD
ENDBRANCH  13  16
ENDBRANCH  11  13
BRANCH   1  19
ATOM     19  N3  ZIN A   1      19.677  -1.439  13.975  0.00  0.00    -0.067 N 
ATOM     20  H4  ZIN A   1      20.306  -2.097  14.409  0.00  0.00     0.277 HD
ATOM     21  H5  ZIN A   1      20.210  -0.702  13.538  0.00  0.00     0.277 HD
BRANCH  19  22
ATOM     22  C2  ZIN A   1      18.872  -2.128  12.958  0.00  0.00     0.228 C 
ATOM     23  C1  ZIN A   1      19.796  -2.892  12.008  0.00  0.00     0.034 C 
ENDBRANCH  19  22
ENDBRANCH   1  19
TORSDOF 4
ENDMDL
MODEL 3
REMARK VINA RESULT:      -6.7      5.755      8.619
REMARK  4 active torsions:
REMARK  status: ('A' for Active; 'I' for Inactive)
REMARK    1  A    between atoms: C2_2  and  N3_3 
REMARK    2  A    between atoms: N3_3  and  C6_6 
REMARK    3  A    between atoms: C18_16  and  S19_17 
REMARK    4  A    between atoms: S19_17  and  N20_18 
ROOT
ATOM      1  C6  ZIN A   1      19.235   4.396  13.844  0.00  0.00     0.222 C 
ATOM      2  C8  ZIN A   1      19.590   4.215  12.376  0.00  0.00     0.058 C 
ATOM      3  C9  ZIN A   1      18.419   3.570  11.621  0.00  0.00     0.112 C 
ATOM      4  C11 ZIN A   1      17.114   4.285  11.977  0.00  0.00     0.026 C 
ATOM      5  S12 ZIN A   1      18.336   1.827  12.142  0.00  0.00     0.186 S 
ATOM      6  O13 ZIN A   1      17.021   1.313  11.986  0.00  0.00    -0.222 OA
ATOM      7  O14 ZIN A   1      19.470   1.106  11.679  0.00  0.00    -0.222 OA
ATOM      8  C15 ZIN A   1      18.566   1.950  13.895  0.00  0.00     0.110 A 
ATOM      9  C16 ZIN A   1      18.956   3.071  14.529  0.00  0.00     0.003 A 
ATOM     10  C17 ZIN A   1      19.074   2.904  15.910  0.00  0.00     0.044 A 
ATOM     11  C18 ZIN A   1      18.780   1.697  16.378  0.00  0.00     0.121 A 
ATOM     12  S23 ZIN A   1      18.323   0.646  15.046  0.00  0.00    -0.064 SA
ENDROOT
BRANCH  11  13
ATOM     13  S19 ZIN A   1      18.843   1.221  18.074  0.00  0.00     0.263 S 
ATOM     14  O21 ZIN A   1      19.733   2.125  18.711  0.00  0.00    -0.200 OA
ATOM     15  O22 ZIN A   1      17.496   1.034  18.488  0.00  0.00    -0.200 OA
BRANCH  13  16
ATOM     16  N20 ZIN A   1      19.563  -0.269  18.139  0.00  0.00    -0.324 N 
ATOM     17  H35 ZIN A   1      20.274  -0.436  18.775  0.00  0.00     0.169 HD
ATOM     18  H36 ZIN A   1      19.272  -0.974  17.540  0.00  0.00     0.169 HD
ENDBRANCH  13  16
ENDBRANCH  11  13
BRANCH   1  19
ATOM     19  N3  ZIN A   1      20.354   5.060  14.526  0.00  0.00    -0.067 N 
ATOM     20  H4  ZIN A   1      21.208   4.887  14.018  0.00  0.00     0.277 HD
ATOM     21  H5  ZIN A   1      20.440   4.695  15.464  0.00  0.00     0.277 HD
BRANCH  19  22
ATOM     22  C2  ZIN A   1      20.103   6.506  14.585  0.00  0.00     0.228 C 
ATOM     23  C1  ZIN A   1      18.660   6.756  15.026  0.00  0.00     0.034 C 
ENDBRANCH  19  22
ENDBRANCH   1  19
TORSDOF 4
ENDMDL
MODEL 4
REMARK VINA RESULT:      -6.6      3.333      5.569
REMARK  4 active torsions:
REMARK  status: ('A' for Active; 'I' for Inactive)
REMARK    1  A    between atoms: C2_2  and  N3_3 
REMARK    2  A    between atoms: N3_3  and  C6_6 
REMARK    3  A    between atoms: C18_16  and  S19_17 
REMARK    4  A    between atoms: S19_17  and  N20_18 
ROOT
ATOM      1  C6  ZIN A   1      18.677   0.420   7.910  0.00  0.00     0.222 C 
ATOM      2  C8  ZIN A   1      19.025   0.909   6.513  0.00  0.00     0.058 C 
ATOM      3  C9  ZIN A   1      18.111   0.246   5.473  0.00  0.00     0.112 C 
ATOM      4  C11 ZIN A   1      16.654   0.326   5.936  0.00  0.00     0.026 C 
ATOM      5  S12 ZIN A   1      18.625  -1.495   5.334  0.00  0.00     0.186 S 
ATOM      6  O13 ZIN A   1      17.549  -2.307   4.884  0.00  0.00    -0.222 OA
ATOM      7  O14 ZIN A   1      19.918  -1.595   4.753  0.00  0.00    -0.222 OA
ATOM      8  C15 ZIN A   1      18.856  -1.953   7.030  0.00  0.00     0.110 A 
ATOM      9  C16 ZIN A   1      18.873  -1.079   8.053  0.00  0.00     0.003 A 
ATOM     10  C17 ZIN A   1      19.083  -1.690   9.290  0.00  0.00     0.044 A 
ATOM     11  C18 ZIN A   1      19.220  -3.011   9.271  0.00  0.00     0.121 A 
ATOM     12  S23 ZIN A   1      19.094  -3.591   7.618  0.00  0.00    -0.064 SA
ENDROOT
BRANCH  11  13
ATOM     13  S19 ZIN A   1      19.490  -4.025  10.687  0.00  0.00     0.263 S 
ATOM     14  O21 ZIN A   1      18.349  -3.867  11.518  0.00  0.00    -0.200 OA
ATOM     15  O22 ZIN A   1      19.927  -5.287  10.200  0.00  0.00    -0.200 OA
BRANCH  13  16
ATOM     16  N20 ZIN A   1      20.768  -3.378  11.519  0.00  0.00    -0.324 N 
ATOM     17  H35 ZIN A   1      21.604  -3.865  11.579  0.00  0.00     0.169 HD
ATOM     18  H36 ZIN A   1      20.679  -2.513  11.946  0.00  0.00     0.169 HD
ENDBRANCH  13  16
ENDBRANCH  11  13
BRANCH   1  19
ATOM     19  N3  ZIN A   1      19.534   1.108   8.884  0.00  0.00    -0.067 N 
ATOM     20  H4  ZIN A   1      20.431   1.302   8.465  0.00  0.00     0.277 HD
ATOM     21  H5  ZIN A   1      19.662   0.521   9.695  0.00  0.00     0.277 HD
BRANCH  19  22
ATOM     22  C2  ZIN A   1      18.900   2.369   9.289  0.00  0.00     0.228 C 
ATOM     23  C1  ZIN A   1      19.348   2.732  10.707  0.00  0.00     0.034 C 
ENDBRANCH  19  22
ENDBRANCH   1  19
TORSDOF 4
ENDMDL
MODEL 5
REMARK VINA RESULT:      -6.5      2.977      4.418
REMARK  4 active torsions:
REMARK  status: ('A' for Active; 'I' for Inactive)
REMARK    1  A    between atoms: C2_2  and  N3_3 
REMARK    2  A    between atoms: N3_3  and  C6_6 
REMARK    3  A    between atoms: C18_16  and  S19_17 
REMARK    4  A    between atoms: S19_17  and  N20_18 
ROOT
ATOM      1  C6  ZIN A   1      17.967  -0.452   8.282  0.00  0.00     0.222 C 
ATOM      2  C8  ZIN A   1      17.135   0.256   9.340  0.00  0.00     0.058 C 
ATOM      3  C9  ZIN A   1      17.973   0.495  10.604  0.00  0.00     0.112 C 
ATOM      4  C11 ZIN A   1      19.332   1.086  10.222  0.00  0.00     0.026 C 
ATOM      5  S12 ZIN A   1      18.201  -1.120  11.413  0.00  0.00     0.186 S 
ATOM      6  O13 ZIN A   1      19.379  -1.127  12.208  0.00  0.00    -0.222 OA
ATOM      7  O14 ZIN A   1      16.967  -1.612  11.919  0.00  0.00    -0.222 OA
ATOM      8  C15 ZIN A   1      18.578  -2.176  10.040  0.00  0.00     0.110 A 
ATOM      9  C16 ZIN A   1      18.442  -1.816   8.751  0.00  0.00     0.003 A 
ATOM     10  C17 ZIN A   1      18.794  -2.831   7.860  0.00  0.00     0.044 A 
ATOM     11  C18 ZIN A   1      19.211  -3.967   8.408  0.00  0.00     0.121 A 
ATOM     12  S23 ZIN A   1      19.177  -3.822  10.158  0.00  0.00    -0.064 SA
ENDROOT
BRANCH  11  13
ATOM     13  S19 ZIN A   1      19.717  -5.400   7.515  0.00  0.00     0.263 S 
ATOM     14  O21 ZIN A   1      19.477  -6.510   8.369  0.00  0.00    -0.200 OA
ATOM     15  O22 ZIN A   1      19.155  -5.283   6.215  0.00  0.00    -0.200 OA
BRANCH  13  16
ATOM     16  N20 ZIN A   1      21.359  -5.304   7.323  0.00  0.00    -0.324 N 
ATOM     17  H35 ZIN A   1      21.918  -5.021   8.063  0.00  0.00     0.169 HD
ATOM     18  H36 ZIN A   1      21.761  -5.529   6.470  0.00  0.00     0.169 HD
ENDBRANCH  13  16
ENDBRANCH  11  13
BRANCH   1  19
ATOM     19  N3  ZIN A   1      17.154  -0.621   7.070  0.00  0.00    -0.067 N 
ATOM     20  H4  ZIN A   1      16.220  -0.279   7.241  0.00  0.00     0.277 HD
ATOM     21  H5  ZIN A   1      17.114  -1.599   6.825  0.00  0.00     0.277 HD
BRANCH  19  22
ATOM     22  C2  ZIN A   1      17.758   0.136   5.966  0.00  0.00     0.228 C 
ATOM     23  C1  ZIN A   1      18.886   1.016   6.507  0.00  0.00     0.034 C 
ENDBRANCH  19  22
ENDBRANCH   1  19
TORSDOF 4
ENDMDL
MODEL 6
REMARK VINA RESULT:      -6.5      3.206      4.228
REMARK  4 active torsions:
REMARK  status: ('A' for Active; 'I' for Inactive)
REMARK    1  A    between atoms: C2_2  and  N3_3 
REMARK    2  A    between atoms: N3_3  and  C6_6 
REMARK    3  A    between atoms: C18_16  and  S19_17 
REMARK    4  A    between atoms: S19_17  and  N20_18 
ROOT
ATOM      1  C6  ZIN A   1      18.185  -0.919  10.090  0.00  0.00     0.222 C 
ATOM      2  C8  ZIN A   1      17.551  -1.715  11.220  0.00  0.00     0.058 C 
ATOM      3  C9  ZIN A   1      18.436  -2.912  11.592  0.00  0.00     0.112 C 
ATOM      4  C11 ZIN A   1      19.890  -2.456  11.742  0.00  0.00     0.026 C 
ATOM      5  S12 ZIN A   1      18.301  -4.124  10.239  0.00  0.00     0.186 S 
ATOM      6  O13 ZIN A   1      19.456  -4.949  10.180  0.00  0.00    -0.222 OA
ATOM      7  O14 ZIN A   1      16.993  -4.679  10.187  0.00  0.00    -0.222 OA
ATOM      8  C15 ZIN A   1      18.410  -3.093   8.802  0.00  0.00     0.110 A 
ATOM      9  C16 ZIN A   1      18.343  -1.749   8.829  0.00  0.00     0.003 A 
ATOM     10  C17 ZIN A   1      18.443  -1.171   7.562  0.00  0.00     0.044 A 
ATOM     11  C18 ZIN A   1      18.596  -2.015   6.548  0.00  0.00     0.121 A 
ATOM     12  S23 ZIN A   1      18.618  -3.664   7.154  0.00  0.00    -0.064 SA
ENDROOT
BRANCH  11  13
ATOM     13  S19 ZIN A   1      18.751  -1.551   4.855  0.00  0.00     0.263 S 
ATOM     14  O21 ZIN A   1      17.516  -0.955   4.488  0.00  0.00    -0.200 OA
ATOM     15  O22 ZIN A   1      20.002  -0.886   4.733  0.00  0.00    -0.200 OA
BRANCH  13  16
ATOM     16  N20 ZIN A   1      18.877  -2.948   3.973  0.00  0.00    -0.324 N 
ATOM     17  H35 ZIN A   1      18.097  -3.312   3.528  0.00  0.00     0.169 HD
ATOM     18  H36 ZIN A   1      19.732  -3.401   3.904  0.00  0.00     0.169 HD
ENDBRANCH  13  16
ENDBRANCH  11  13
BRANCH   1  19
ATOM     19  N3  ZIN A   1      17.340   0.245   9.793  0.00  0.00    -0.067 N 
ATOM     20  H4  ZIN A   1      16.420   0.100  10.182  0.00  0.00     0.277 HD
ATOM     21  H5  ZIN A   1      17.268   0.362   8.793  0.00  0.00     0.277 HD
BRANCH  19  22
ATOM     22  C2  ZIN A   1      17.938   1.449  10.385  0.00  0.00     0.228 C 
ATOM     23  C1  ZIN A   1      18.945   2.052   9.403  0.00  0.00     0.034 C 
ENDBRANCH  19  22
ENDBRANCH   1  19
TORSDOF 4
ENDMDL
MODEL 7
REMARK VINA RESULT:      -6.5      5.671      7.830
REMARK  4 active torsions:
REMARK  status: ('A' for Active; 'I' for Inactive)
REMARK    1  A    between atoms: C2_2  and  N3_3 
REMARK    2  A    between atoms: N3_3  and  C6_6 
REMARK    3  A    between atoms: C18_16  and  S19_17 
REMARK    4  A    between atoms: S19_17  and  N20_18 
ROOT
ATOM      1  C6  ZIN A   1      18.117   1.544  12.775  0.00  0.00     0.222 C 
ATOM      2  C8  ZIN A   1      17.638   2.674  11.877  0.00  0.00     0.058 C 
ATOM      3  C9  ZIN A   1      18.706   3.774  11.788  0.00  0.00     0.112 C 
ATOM      4  C11 ZIN A   1      20.075   3.148  11.511  0.00  0.00     0.026 C 
ATOM      5  S12 ZIN A   1      18.728   4.635  13.392  0.00  0.00     0.186 S 
ATOM      6  O13 ZIN A   1      19.995   5.233  13.629  0.00  0.00    -0.222 OA
ATOM      7  O14 ZIN A   1      17.521   5.358  13.596  0.00  0.00    -0.222 OA
ATOM      8  C15 ZIN A   1      18.646   3.288  14.541  0.00  0.00     0.110 A 
ATOM      9  C16 ZIN A   1      18.373   2.016  14.195  0.00  0.00     0.003 A 
ATOM     10  C17 ZIN A   1      18.355   1.145  15.286  0.00  0.00     0.044 A 
ATOM     11  C18 ZIN A   1      18.614   1.689  16.469  0.00  0.00     0.121 A 
ATOM     12  S23 ZIN A   1      18.903   3.411  16.273  0.00  0.00    -0.064 SA
ENDROOT
BRANCH  11  13
ATOM     13  S19 ZIN A   1      18.658   0.818  18.001  0.00  0.00     0.263 S 
ATOM     14  O21 ZIN A   1      18.030  -0.434  17.768  0.00  0.00    -0.200 OA
ATOM     15  O22 ZIN A   1      19.985   0.942  18.495  0.00  0.00    -0.200 OA
BRANCH  13  16
ATOM     16  N20 ZIN A   1      17.687   1.640  19.061  0.00  0.00    -0.324 N 
ATOM     17  H35 ZIN A   1      16.724   1.624  18.948  0.00  0.00     0.169 HD
ATOM     18  H36 ZIN A   1      18.081   2.137  19.794  0.00  0.00     0.169 HD
ENDBRANCH  13  16
ENDBRANCH  11  13
BRANCH   1  19
ATOM     19  N3  ZIN A   1      17.097   0.489  12.799  0.00  0.00    -0.067 N 
ATOM     20  H4  ZIN A   1      16.182   0.907  12.879  0.00  0.00     0.277 HD
ATOM     21  H5  ZIN A   1      17.260  -0.119  13.589  0.00  0.00     0.277 HD
BRANCH  19  22
ATOM     22  C2  ZIN A   1      17.172  -0.293  11.558  0.00  0.00     0.228 C 
ATOM     23  C1  ZIN A   1      17.584  -1.730  11.884  0.00  0.00     0.034 C 
ENDBRANCH  19  22
ENDBRANCH   1  19
TORSDOF 4
ENDMDL
MODEL 8
REMARK VINA RESULT:      -6.4      2.737      3.990
REMARK  4 active torsions:
REMARK  status: ('A' for Active; 'I' for Inactive)
REMARK    1  A    between atoms: C2_2  and  N3_3 
REMARK    2  A    between atoms: N3_3  and  C6_6 
REMARK    3  A    between atoms: C18_16  and  S19_17 
REMARK    4  A    between atoms: S19_17  and  N20_18 
ROOT
ATOM      1  C6  ZIN A   1      18.722   1.520  10.585  0.00  0.00     0.222 C 
ATOM      2  C8  ZIN A   1      18.064   1.211  11.921  0.00  0.00     0.058 C 
ATOM      3  C9  ZIN A   1      18.790   0.051  12.616  0.00  0.00     0.112 C 
ATOM      4  C11 ZIN A   1      20.302   0.287  12.580  0.00  0.00     0.026 C 
ATOM      5  S12 ZIN A   1      18.377  -1.470  11.703  0.00  0.00     0.186 S 
ATOM      6  O13 ZIN A   1      19.391  -2.452  11.867  0.00  0.00    -0.222 OA
ATOM      7  O14 ZIN A   1      17.002  -1.795  11.858  0.00  0.00    -0.222 OA
ATOM      8  C15 ZIN A   1      18.527  -0.945  10.016  0.00  0.00     0.110 A 
ATOM      9  C16 ZIN A   1      18.661   0.338   9.634  0.00  0.00     0.003 A 
ATOM     10  C17 ZIN A   1      18.749   0.488   8.249  0.00  0.00     0.044 A 
ATOM     11  C18 ZIN A   1      18.700  -0.632   7.537  0.00  0.00     0.121 A 
ATOM     12  S23 ZIN A   1      18.525  -2.006   8.617  0.00  0.00    -0.064 SA
ENDROOT
BRANCH  11  13
ATOM     13  S19 ZIN A   1      18.793  -0.725   5.780  0.00  0.00     0.263 S 
ATOM     14  O21 ZIN A   1      19.061   0.593   5.322  0.00  0.00    -0.200 OA
ATOM     15  O22 ZIN A   1      19.627  -1.836   5.480  0.00  0.00    -0.200 OA
BRANCH  13  16
ATOM     16  N20 ZIN A   1      17.281  -1.113   5.228  0.00  0.00    -0.324 N 
ATOM     17  H35 ZIN A   1      16.643  -1.538   5.821  0.00  0.00     0.169 HD
ATOM     18  H36 ZIN A   1      17.035  -0.917   4.310  0.00  0.00     0.169 HD
ENDBRANCH  13  16
ENDBRANCH  11  13
BRANCH   1  19
ATOM     19  N3  ZIN A   1      18.037   2.664   9.969  0.00  0.00    -0.067 N 
ATOM     20  H4  ZIN A   1      17.048   2.470   9.906  0.00  0.00     0.277 HD
ATOM     21  H5  ZIN A   1      18.409   2.821   9.044  0.00  0.00     0.277 HD
BRANCH  19  22
ATOM     22  C2  ZIN A   1      18.249   3.862  10.791  0.00  0.00     0.228 C 
ATOM     23  C1  ZIN A   1      17.002   4.747  10.733  0.00  0.00     0.034 C 
ENDBRANCH  19  22
ENDBRANCH   1  19
TORSDOF 4
ENDMDL
MODEL 9
REMARK VINA RESULT:      -6.3      4.549      7.698
REMARK  4 active torsions:
REMARK  status: ('A' for Active; 'I' for Inactive)
REMARK    1  A    between atoms: C2_2  and  N3_3 
REMARK    2  A    between atoms: N3_3  and  C6_6 
REMARK    3  A    between atoms: C18_16  and  S19_17 
REMARK    4  A    between atoms: S19_17  and  N20_18 
ROOT
ATOM      1  C6  ZIN A   1      19.039   1.699  12.262  0.00  0.00     0.222 C 
ATOM      2  C8  ZIN A   1      19.540   0.952  11.036  0.00  0.00     0.058 C 
ATOM      3  C9  ZIN A   1      18.560  -0.167  10.657  0.00  0.00     0.112 C 
ATOM      4  C11 ZIN A   1      17.129   0.374  10.651  0.00  0.00     0.026 C 
ATOM      5  S12 ZIN A   1      18.725  -1.476  11.912  0.00  0.00     0.186 S 
ATOM      6  O13 ZIN A   1      17.531  -2.241  12.007  0.00  0.00    -0.222 OA
ATOM      7  O14 ZIN A   1      19.998  -2.103  11.825  0.00  0.00    -0.222 OA
ATOM      8  C15 ZIN A   1      18.783  -0.545  13.418  0.00  0.00     0.110 A 
ATOM      9  C16 ZIN A   1      18.927   0.792  13.474  0.00  0.00     0.003 A 
ATOM     10  C17 ZIN A   1      18.955   1.284  14.780  0.00  0.00     0.044 A 
ATOM     11  C18 ZIN A   1      18.828   0.381  15.745  0.00  0.00     0.121 A 
ATOM     12  S23 ZIN A   1      18.665  -1.217  15.036  0.00  0.00    -0.064 SA
ENDROOT
BRANCH  11  13
ATOM     13  S19 ZIN A   1      18.826   0.733  17.473  0.00  0.00     0.263 S 
ATOM     14  O21 ZIN A   1      19.627   1.893  17.646  0.00  0.00    -0.200 OA
ATOM     15  O22 ZIN A   1      17.472   0.651  17.898  0.00  0.00    -0.200 OA
BRANCH  13  16
ATOM     16  N20 ZIN A   1      19.627  -0.506  18.226  0.00  0.00    -0.324 N 
ATOM     17  H35 ZIN A   1      20.340  -0.974  17.765  0.00  0.00     0.169 HD
ATOM     18  H36 ZIN A   1      19.382  -0.764  19.128  0.00  0.00     0.169 HD
ENDBRANCH  13  16
ENDBRANCH  11  13
BRANCH   1  19
ATOM     19  N3  ZIN A   1      19.970   2.793  12.568  0.00  0.00    -0.067 N 
ATOM     20  H4  ZIN A   1      20.811   2.682  12.021  0.00  0.00     0.277 HD
ATOM     21  H5  ZIN A   1      20.202   2.772  13.550  0.00  0.00     0.277 HD
BRANCH  19  22
ATOM     22  C2  ZIN A   1      19.340   4.079  12.242  0.00  0.00     0.228 C 
ATOM     23  C1  ZIN A   1      19.629   5.085  13.358  0.00  0.00     0.034 C 
ENDBRANCH  19  22
ENDBRANCH   1  19
TORSDOF 4
ENDMDL
