MODEL 1
REMARK VINA RESULT:      -6.8      0.000      0.000
REMARK  8 active torsions:
REMARK  status: ('A' for Active; 'I' for Inactive)
REMARK    1  A    between atoms: C2_2  and  N3_3 
REMARK    2  A    between atoms: N3_3  and  C5_5 
REMARK    3  A    between atoms: N3_3  and  C7_7 
REMARK    4  A    between atoms: C7_7  and  C8_8 
REMARK    5  A    between atoms: C8_8  and  C9_9 
REMARK    6  A    between atoms: C9_9  and  C10_10 
REMARK    7  A    between atoms: C10_10  and  N13_12 
REMARK    8  A    between atoms: N13_12  and  C14_13 
ROOT
ATOM      1  N13 <0> d   1      19.988  -0.685  12.234  0.00  0.00    -0.385 N 
ATOM      2  H44 <0> d   1      20.842  -1.134  12.140  0.00  0.00     0.160 HD
ENDROOT
BRANCH   1   3
ATOM      3  C10 <0> d   1      18.950  -1.256  13.096  0.00  0.00     0.077 C 
ATOM      4  C12 <0> d   1      18.479  -2.588  12.512  0.00  0.00     0.032 C 
BRANCH   3   5
ATOM      5  C9  <0> d   1      19.521  -1.487  14.496  0.00  0.00     0.026 C 
BRANCH   5   6
ATOM      6  C8  <0> d   1      18.440  -1.203  15.541  0.00  0.00     0.030 C 
BRANCH   6   7
ATOM      7  C7  <0> d   1      17.684   0.071  15.158  0.00  0.00     0.235 C 
BRANCH   7   8
ATOM      8  N3  <0> d   1      17.859   1.080  16.211  0.00  0.00    -0.072 N 
ATOM      9  H4  <0> d   1      17.051   1.681  16.239  0.00  0.00     0.279 HD
BRANCH   8  10
ATOM     10  C2  <0> d   1      18.017   0.411  17.510  0.00  0.00     0.230 C 
ATOM     11  C1  <0> d   1      17.541   1.344  18.625  0.00  0.00     0.034 C 
ENDBRANCH   8  10
BRANCH   8  12
ATOM     12  C5  <0> d   1      19.056   1.883  15.926  0.00  0.00     0.230 C 
ATOM     13  C6  <0> d   1      18.636   3.284  15.477  0.00  0.00     0.034 C 
ENDBRANCH   8  12
ENDBRANCH   7   8
ENDBRANCH   6   7
ENDBRANCH   5   6
ENDBRANCH   3   5
ENDBRANCH   1   3
BRANCH   1  14
ATOM     14  C14 <0> d   1      19.750   0.500  11.553  0.00  0.00     0.042 A 
ATOM     15  C24 <0> d   1      19.724   1.715  12.222  0.00  0.00     0.049 A 
ATOM     16  C23 <0> d   1      19.486   2.884  11.512  0.00  0.00     0.119 A 
ATOM     17  N22 <0> d   1      19.275   2.877  10.216  0.00  0.00    -0.260 NA
ATOM     18  C21 <0> d   1      19.280   1.742   9.509  0.00  0.00     0.070 A 
ATOM     19  C15 <0> d   1      19.520   0.506  10.157  0.00  0.00     0.019 A 
ATOM     20  C20 <0> d   1      19.052   1.751   8.123  0.00  0.00     0.056 A 
ATOM     21  C16 <0> d   1      19.525  -0.681   9.412  0.00  0.00     0.018 A 
ATOM     22  C17 <0> d   1      19.299  -0.634   8.070  0.00  0.00     0.025 A 
ATOM     23  C18 <0> d   1      19.063   0.580   7.427  0.00  0.00     0.036 A 
ATOM     24 Cl19 <0> d   1      18.780   0.600   5.714  0.00  0.00    -0.084 Cl
ENDBRANCH   1  14
TORSDOF 8
ENDMDL
MODEL 2
REMARK VINA RESULT:      -6.6      2.771      5.218
REMARK  8 active torsions:
REMARK  status: ('A' for Active; 'I' for Inactive)
REMARK    1  A    between atoms: C2_2  and  N3_3 
REMARK    2  A    between atoms: N3_3  and  C5_5 
REMARK    3  A    between atoms: N3_3  and  C7_7 
REMARK    4  A    between atoms: C7_7  and  C8_8 
REMARK    5  A    between atoms: C8_8  and  C9_9 
REMARK    6  A    between atoms: C9_9  and  C10_10 
REMARK    7  A    between atoms: C10_10  and  N13_12 
REMARK    8  A    between atoms: N13_12  and  C14_13 
ROOT
ATOM      1  N13 <0> d   1      18.211   0.614   8.327  0.00  0.00    -0.385 N 
ATOM      2  H44 <0> d   1      17.268   0.591   8.550  0.00  0.00     0.160 HD
ENDROOT
BRANCH   1   3
ATOM      3  C10 <0> d   1      19.161   1.274   9.225  0.00  0.00     0.077 C 
ATOM      4  C12 <0> d   1      18.723   2.722   9.456  0.00  0.00     0.032 C 
BRANCH   3   5
ATOM      5  C9  <0> d   1      19.196   0.534  10.564  0.00  0.00     0.026 C 
BRANCH   5   6
ATOM      6  C8  <0> d   1      17.776   0.111  10.949  0.00  0.00     0.030 C 
BRANCH   6   7
ATOM      7  C7  <0> d   1      17.796  -0.535  12.336  0.00  0.00     0.235 C 
BRANCH   7   8
ATOM      8  N3  <0> d   1      18.991  -1.379  12.466  0.00  0.00    -0.072 N 
ATOM      9  H4  <0> d   1      19.699  -1.060  11.823  0.00  0.00     0.279 HD
BRANCH   8  10
ATOM     10  C2  <0> d   1      19.504  -1.296  13.840  0.00  0.00     0.230 C 
ATOM     11  C1  <0> d   1      18.331  -1.186  14.816  0.00  0.00     0.034 C 
ENDBRANCH   8  10
BRANCH   8  12
ATOM     12  C5  <0> d   1      18.642  -2.773  12.158  0.00  0.00     0.230 C 
ATOM     13  C6  <0> d   1      19.880  -3.506  11.637  0.00  0.00     0.034 C 
ENDBRANCH   8  12
ENDBRANCH   7   8
ENDBRANCH   6   7
ENDBRANCH   5   6
ENDBRANCH   3   5
ENDBRANCH   1   3
BRANCH   1  14
ATOM     14  C14 <0> d   1      18.661   0.021   7.156  0.00  0.00     0.042 A 
ATOM     15  C24 <0> d   1      18.972   0.785   6.042  0.00  0.00     0.049 A 
ATOM     16  C23 <0> d   1      19.423   0.162   4.886  0.00  0.00     0.119 A 
ATOM     17  N22 <0> d   1      19.558  -1.141   4.809  0.00  0.00    -0.260 NA
ATOM     18  C21 <0> d   1      19.270  -1.940   5.843  0.00  0.00     0.070 A 
ATOM     19  C15 <0> d   1      18.809  -1.383   7.060  0.00  0.00     0.019 A 
ATOM     20  C20 <0> d   1      19.420  -3.334   5.744  0.00  0.00     0.056 A 
ATOM     21  C16 <0> d   1      18.509  -2.224   8.141  0.00  0.00     0.018 A 
ATOM     22  C17 <0> d   1      18.665  -3.571   8.008  0.00  0.00     0.025 A 
ATOM     23  C18 <0> d   1      19.119  -4.124   6.812  0.00  0.00     0.036 A 
ATOM     24 Cl19 <0> d   1      19.306  -5.845   6.683  0.00  0.00    -0.084 Cl
ENDBRANCH   1  14
TORSDOF 8
ENDMDL
MODEL 3
REMARK VINA RESULT:      -6.5      3.143      7.707
REMARK  8 active torsions:
REMARK  status: ('A' for Active; 'I' for Inactive)
REMARK    1  A    between atoms: C2_2  and  N3_3 
REMARK    2  A    between atoms: N3_3  and  C5_5 
REMARK    3  A    between atoms: N3_3  and  C7_7 
REMARK    4  A    between atoms: C7_7  and  C8_8 
REMARK    5  A    between atoms: C8_8  and  C9_9 
REMARK    6  A    between atoms: C9_9  and  C10_10 
REMARK    7  A    between atoms: C10_10  and  N13_12 
REMARK    8  A    between atoms: N13_12  and  C14_13 
ROOT
ATOM      1  N13 <0> d   1      19.895   1.191  10.652  0.00  0.00    -0.385 N 
ATOM      2  H44 <0> d   1      20.664   1.755  10.823  0.00  0.00     0.160 HD
ENDROOT
BRANCH   1   3
ATOM      3  C10 <0> d   1      18.896   1.595   9.659  0.00  0.00     0.077 C 
ATOM      4  C12 <0> d   1      18.409   3.010   9.972  0.00  0.00     0.032 C 
BRANCH   3   5
ATOM      5  C9  <0> d   1      19.525   1.569   8.264  0.00  0.00     0.026 C 
BRANCH   5   6
ATOM      6  C8  <0> d   1      18.484   1.099   7.245  0.00  0.00     0.030 C 
BRANCH   6   7
ATOM      7  C7  <0> d   1      17.793  -0.162   7.768  0.00  0.00     0.235 C 
BRANCH   7   8
ATOM      8  N3  <0> d   1      17.792  -1.191   6.719  0.00  0.00    -0.072 N 
ATOM      9  H4  <0> d   1      16.906  -1.670   6.719  0.00  0.00     0.279 HD
BRANCH   8  10
ATOM     10  C2  <0> d   1      18.006  -0.557   5.410  0.00  0.00     0.230 C 
ATOM     11  C1  <0> d   1      19.041  -1.358   4.619  0.00  0.00     0.034 C 
ENDBRANCH   8  10
BRANCH   8  12
ATOM     12  C5  <0> d   1      18.871  -2.155   6.977  0.00  0.00     0.230 C 
ATOM     13  C6  <0> d   1      18.381  -3.215   7.966  0.00  0.00     0.034 C 
ENDBRANCH   8  12
ENDBRANCH   7   8
ENDBRANCH   6   7
ENDBRANCH   5   6
ENDBRANCH   3   5
ENDBRANCH   1   3
BRANCH   1  14
ATOM     14  C14 <0> d   1      19.740   0.001  11.347  0.00  0.00     0.042 A 
ATOM     15  C24 <0> d   1      19.829  -1.222  10.699  0.00  0.00     0.049 A 
ATOM     16  C23 <0> d   1      19.673  -2.396  11.423  0.00  0.00     0.119 A 
ATOM     17  N22 <0> d   1      19.433  -2.388  12.713  0.00  0.00    -0.260 NA
ATOM     18  C21 <0> d   1      19.328  -1.245  13.401  0.00  0.00     0.070 A 
ATOM     19  C15 <0> d   1      19.479  -0.004  12.738  0.00  0.00     0.019 A 
ATOM     20  C20 <0> d   1      19.069  -1.253  14.782  0.00  0.00     0.056 A 
ATOM     21  C16 <0> d   1      19.368   1.191  13.463  0.00  0.00     0.018 A 
ATOM     22  C17 <0> d   1      19.116   1.145  14.801  0.00  0.00     0.025 A 
ATOM     23  C18 <0> d   1      18.967  -0.075  15.458  0.00  0.00     0.036 A 
ATOM     24 Cl19 <0> d   1      18.648  -0.092  17.165  0.00  0.00    -0.084 Cl
ENDBRANCH   1  14
TORSDOF 8
ENDMDL
MODEL 4
REMARK VINA RESULT:      -6.5      2.083      3.380
REMARK  8 active torsions:
REMARK  status: ('A' for Active; 'I' for Inactive)
REMARK    1  A    between atoms: C2_2  and  N3_3 
REMARK    2  A    between atoms: N3_3  and  C5_5 
REMARK    3  A    between atoms: N3_3  and  C7_7 
REMARK    4  A    between atoms: C7_7  and  C8_8 
REMARK    5  A    between atoms: C8_8  and  C9_9 
REMARK    6  A    between atoms: C9_9  and  C10_10 
REMARK    7  A    between atoms: C10_10  and  N13_12 
REMARK    8  A    between atoms: N13_12  and  C14_13 
ROOT
ATOM      1  N13 <0> d   1      20.069  -1.592  10.503  0.00  0.00    -0.385 N 
ATOM      2  H44 <0> d   1      20.945  -1.448  10.892  0.00  0.00     0.160 HD
ENDROOT
BRANCH   1   3
ATOM      3  C10 <0> d   1      19.235  -2.705  10.964  0.00  0.00     0.077 C 
ATOM      4  C12 <0> d   1      20.130  -3.824  11.500  0.00  0.00     0.032 C 
BRANCH   3   5
ATOM      5  C9  <0> d   1      18.306  -2.218  12.077  0.00  0.00     0.026 C 
BRANCH   5   6
ATOM      6  C8  <0> d   1      19.132  -1.884  13.321  0.00  0.00     0.030 C 
BRANCH   6   7
ATOM      7  C7  <0> d   1      18.314  -0.985  14.250  0.00  0.00     0.235 C 
BRANCH   7   8
ATOM      8  N3  <0> d   1      19.183  -0.456  15.310  0.00  0.00    -0.072 N 
ATOM      9  H4  <0> d   1      20.147  -0.628  15.071  0.00  0.00     0.279 HD
BRANCH   8  10
ATOM     10  C2  <0> d   1      18.964   0.991  15.447  0.00  0.00     0.230 C 
ATOM     11  C1  <0> d   1      17.848   1.430  14.497  0.00  0.00     0.034 C 
ENDBRANCH   8  10
BRANCH   8  12
ATOM     12  C5  <0> d   1      18.866  -1.121  16.581  0.00  0.00     0.230 C 
ATOM     13  C6  <0> d   1      17.348  -1.253  16.723  0.00  0.00     0.034 C 
ENDBRANCH   8  12
ENDBRANCH   7   8
ENDBRANCH   6   7
ENDBRANCH   5   6
ENDBRANCH   3   5
ENDBRANCH   1   3
BRANCH   1  14
ATOM     14  C14 <0> d   1      19.604  -0.742   9.509  0.00  0.00     0.042 A 
ATOM     15  C24 <0> d   1      19.466  -1.181   8.201  0.00  0.00     0.049 A 
ATOM     16  C23 <0> d   1      18.995  -0.308   7.230  0.00  0.00     0.119 A 
ATOM     17  N22 <0> d   1      18.679   0.935   7.510  0.00  0.00    -0.260 NA
ATOM     18  C21 <0> d   1      18.793   1.427   8.749  0.00  0.00     0.070 A 
ATOM     19  C15 <0> d   1      19.262   0.600   9.798  0.00  0.00     0.019 A 
ATOM     20  C20 <0> d   1      18.453   2.761   9.032  0.00  0.00     0.056 A 
ATOM     21  C16 <0> d   1      19.380   1.120  11.094  0.00  0.00     0.018 A 
ATOM     22  C17 <0> d   1      19.041   2.418  11.332  0.00  0.00     0.025 A 
ATOM     23  C18 <0> d   1      18.578   3.236  10.302  0.00  0.00     0.036 A 
ATOM     24 Cl19 <0> d   1      18.156   4.884  10.645  0.00  0.00    -0.084 Cl
ENDBRANCH   1  14
TORSDOF 8
ENDMDL
MODEL 5
REMARK VINA RESULT:      -6.5      1.474      2.437
REMARK  8 active torsions:
REMARK  status: ('A' for Active; 'I' for Inactive)
REMARK    1  A    between atoms: C2_2  and  N3_3 
REMARK    2  A    between atoms: N3_3  and  C5_5 
REMARK    3  A    between atoms: N3_3  and  C7_7 
REMARK    4  A    between atoms: C7_7  and  C8_8 
REMARK    5  A    between atoms: C8_8  and  C9_9 
REMARK    6  A    between atoms: C9_9  and  C10_10 
REMARK    7  A    between atoms: C10_10  and  N13_12 
REMARK    8  A    between atoms: N13_12  and  C14_13 
ROOT
ATOM      1  N13 <0> d   1      20.095  -1.589  10.526  0.00  0.00    -0.385 N 
ATOM      2  H44 <0> d   1      21.030  -1.749  10.728  0.00  0.00     0.160 HD
ENDROOT
BRANCH   1   3
ATOM      3  C10 <0> d   1      19.088  -2.596  10.868  0.00  0.00     0.077 C 
ATOM      4  C12 <0> d   1      19.778  -3.831  11.448  0.00  0.00     0.032 C 
BRANCH   3   5
ATOM      5  C9  <0> d   1      18.122  -2.018  11.904  0.00  0.00     0.026 C 
BRANCH   5   6
ATOM      6  C8  <0> d   1      18.817  -1.947  13.266  0.00  0.00     0.030 C 
BRANCH   6   7
ATOM      7  C7  <0> d   1      18.208  -0.812  14.091  0.00  0.00     0.235 C 
BRANCH   7   8
ATOM      8  N3  <0> d   1      19.038  -0.570  15.279  0.00  0.00    -0.072 N 
ATOM      9  H4  <0> d   1      19.985  -0.860  15.092  0.00  0.00     0.279 HD
BRANCH   8  10
ATOM     10  C2  <0> d   1      19.020   0.862  15.607  0.00  0.00     0.230 C 
ATOM     11  C1  <0> d   1      19.000   1.680  14.315  0.00  0.00     0.034 C 
ENDBRANCH   8  10
BRANCH   8  12
ATOM     12  C5  <0> d   1      18.505  -1.339  16.412  0.00  0.00     0.230 C 
ATOM     13  C6  <0> d   1      17.120  -0.806  16.784  0.00  0.00     0.034 C 
ENDBRANCH   8  12
ENDBRANCH   7   8
ENDBRANCH   6   7
ENDBRANCH   5   6
ENDBRANCH   3   5
ENDBRANCH   1   3
BRANCH   1  14
ATOM     14  C14 <0> d   1      19.712  -0.404   9.915  0.00  0.00     0.042 A 
ATOM     15  C24 <0> d   1      19.613   0.775  10.639  0.00  0.00     0.049 A 
ATOM     16  C23 <0> d   1      19.231   1.945   9.997  0.00  0.00     0.119 A 
ATOM     17  N22 <0> d   1      18.948   1.972   8.716  0.00  0.00    -0.260 NA
ATOM     18  C21 <0> d   1      19.016   0.872   7.958  0.00  0.00     0.070 A 
ATOM     19  C15 <0> d   1      19.404  -0.361   8.535  0.00  0.00     0.019 A 
ATOM     20  C20 <0> d   1      18.709   0.917   6.587  0.00  0.00     0.056 A 
ATOM     21  C16 <0> d   1      19.474  -1.512   7.736  0.00  0.00     0.018 A 
ATOM     22  C17 <0> d   1      19.169  -1.430   6.411  0.00  0.00     0.025 A 
ATOM     23  C18 <0> d   1      18.787  -0.218   5.838  0.00  0.00     0.036 A 
ATOM     24 Cl19 <0> d   1      18.407  -0.154   4.146  0.00  0.00    -0.084 Cl
ENDBRANCH   1  14
TORSDOF 8
ENDMDL
MODEL 6
REMARK VINA RESULT:      -6.5      3.026      6.344
REMARK  8 active torsions:
REMARK  status: ('A' for Active; 'I' for Inactive)
REMARK    1  A    between atoms: C2_2  and  N3_3 
REMARK    2  A    between atoms: N3_3  and  C5_5 
REMARK    3  A    between atoms: N3_3  and  C7_7 
REMARK    4  A    between atoms: C7_7  and  C8_8 
REMARK    5  A    between atoms: C8_8  and  C9_9 
REMARK    6  A    between atoms: C9_9  and  C10_10 
REMARK    7  A    between atoms: C10_10  and  N13_12 
REMARK    8  A    between atoms: N13_12  and  C14_13 
ROOT
ATOM      1  N13 <0> d   1      20.035   1.167  10.676  0.00  0.00    -0.385 N 
ATOM      2  H44 <0> d   1      21.000   1.090  10.619  0.00  0.00     0.160 HD
ENDROOT
BRANCH   1   3
ATOM      3  C10 <0> d   1      19.197   0.737   9.554  0.00  0.00     0.077 C 
ATOM      4  C12 <0> d   1      19.341   1.730   8.400  0.00  0.00     0.032 C 
BRANCH   3   5
ATOM      5  C9  <0> d   1      19.643  -0.651   9.090  0.00  0.00     0.026 C 
BRANCH   5   6
ATOM      6  C8  <0> d   1      18.508  -1.653   9.316  0.00  0.00     0.030 C 
BRANCH   6   7
ATOM      7  C7  <0> d   1      18.923  -3.024   8.778  0.00  0.00     0.235 C 
BRANCH   7   8
ATOM      8  N3  <0> d   1      18.521  -4.066   9.732  0.00  0.00    -0.072 N 
ATOM      9  H4  <0> d   1      17.954  -4.753   9.260  0.00  0.00     0.279 HD
BRANCH   8  10
ATOM     10  C2  <0> d   1      19.718  -4.715  10.283  0.00  0.00     0.230 C 
ATOM     11  C1  <0> d   1      20.251  -3.890  11.456  0.00  0.00     0.034 C 
ENDBRANCH   8  10
BRANCH   8  12
ATOM     12  C5  <0> d   1      17.747  -3.458  10.823  0.00  0.00     0.230 C 
ATOM     13  C6  <0> d   1      16.767  -4.488  11.389  0.00  0.00     0.034 C 
ENDBRANCH   8  12
ENDBRANCH   7   8
ENDBRANCH   6   7
ENDBRANCH   5   6
ENDBRANCH   3   5
ENDBRANCH   1   3
BRANCH   1  14
ATOM     14  C14 <0> d   1      19.447   1.685  11.822  0.00  0.00     0.042 A 
ATOM     15  C24 <0> d   1      19.178   3.040  11.937  0.00  0.00     0.049 A 
ATOM     16  C23 <0> d   1      18.587   3.527  13.094  0.00  0.00     0.119 A 
ATOM     17  N22 <0> d   1      18.277   2.740  14.098  0.00  0.00    -0.260 NA
ATOM     18  C21 <0> d   1      18.514   1.424  14.059  0.00  0.00     0.070 A 
ATOM     19  C15 <0> d   1      19.111   0.847  12.911  0.00  0.00     0.019 A 
ATOM     20  C20 <0> d   1      18.179   0.595  15.143  0.00  0.00     0.056 A 
ATOM     21  C16 <0> d   1      19.357  -0.532  12.874  0.00  0.00     0.018 A 
ATOM     22  C17 <0> d   1      19.019  -1.305  13.944  0.00  0.00     0.025 A 
ATOM     23  C18 <0> d   1      18.431  -0.742  15.075  0.00  0.00     0.036 A 
ATOM     24 Cl19 <0> d   1      18.013  -1.760  16.418  0.00  0.00    -0.084 Cl
ENDBRANCH   1  14
TORSDOF 8
ENDMDL
MODEL 7
REMARK VINA RESULT:      -6.5      3.252      7.073
REMARK  8 active torsions:
REMARK  status: ('A' for Active; 'I' for Inactive)
REMARK    1  A    between atoms: C2_2  and  N3_3 
REMARK    2  A    between atoms: N3_3  and  C5_5 
REMARK    3  A    between atoms: N3_3  and  C7_7 
REMARK    4  A    between atoms: C7_7  and  C8_8 
REMARK    5  A    between atoms: C8_8  and  C9_9 
REMARK    6  A    between atoms: C9_9  and  C10_10 
REMARK    7  A    between atoms: C10_10  and  N13_12 
REMARK    8  A    between atoms: N13_12  and  C14_13 
ROOT
ATOM      1  N13 <0> d   1      17.662  -1.684  12.008  0.00  0.00    -0.385 N 
ATOM      2  H44 <0> d   1      16.866  -2.213  12.170  0.00  0.00     0.160 HD
ENDROOT
BRANCH   1   3
ATOM      3  C10 <0> d   1      18.729  -2.208  11.151  0.00  0.00     0.077 C 
ATOM      4  C12 <0> d   1      19.330  -3.460  11.792  0.00  0.00     0.032 C 
BRANCH   3   5
ATOM      5  C9  <0> d   1      18.151  -2.565   9.780  0.00  0.00     0.026 C 
BRANCH   5   6
ATOM      6  C8  <0> d   1      18.625  -1.541   8.746  0.00  0.00     0.030 C 
BRANCH   6   7
ATOM      7  C7  <0> d   1      17.461  -0.623   8.367  0.00  0.00     0.235 C 
BRANCH   7   8
ATOM      8  N3  <0> d   1      17.903   0.329   7.339  0.00  0.00    -0.072 N 
ATOM      9  H4  <0> d   1      17.239   1.085   7.274  0.00  0.00     0.279 HD
BRANCH   8  10
ATOM     10  C2  <0> d   1      19.222   0.866   7.703  0.00  0.00     0.230 C 
ATOM     11  C1  <0> d   1      19.043   2.081   8.614  0.00  0.00     0.034 C 
ENDBRANCH   8  10
BRANCH   8  12
ATOM     12  C5  <0> d   1      17.994  -0.357   6.043  0.00  0.00     0.230 C 
ATOM     13  C6  <0> d   1      19.116   0.270   5.212  0.00  0.00     0.034 C 
ENDBRANCH   8  12
ENDBRANCH   7   8
ENDBRANCH   6   7
ENDBRANCH   5   6
ENDBRANCH   3   5
ENDBRANCH   1   3
BRANCH   1  14
ATOM     14  C14 <0> d   1      17.791  -0.430  12.587  0.00  0.00     0.042 A 
ATOM     15  C24 <0> d   1      17.557   0.723  11.854  0.00  0.00     0.049 A 
ATOM     16  C23 <0> d   1      17.690   1.963  12.462  0.00  0.00     0.119 A 
ATOM     17  N22 <0> d   1      18.042   2.083  13.721  0.00  0.00    -0.260 NA
ATOM     18  C21 <0> d   1      18.290   1.014  14.487  0.00  0.00     0.070 A 
ATOM     19  C15 <0> d   1      18.171  -0.288  13.943  0.00  0.00     0.019 A 
ATOM     20  C20 <0> d   1      18.667   1.159  15.832  0.00  0.00     0.056 A 
ATOM     21  C16 <0> d   1      18.431  -1.405  14.749  0.00  0.00     0.018 A 
ATOM     22  C17 <0> d   1      18.795  -1.226  16.049  0.00  0.00     0.025 A 
ATOM     23  C18 <0> d   1      18.913   0.054  16.589  0.00  0.00     0.036 A 
ATOM     24 Cl19 <0> d   1      19.378   0.240  18.251  0.00  0.00    -0.084 Cl
ENDBRANCH   1  14
TORSDOF 8
ENDMDL
MODEL 8
REMARK VINA RESULT:      -6.5      3.243      7.469
REMARK  8 active torsions:
REMARK  status: ('A' for Active; 'I' for Inactive)
REMARK    1  A    between atoms: C2_2  and  N3_3 
REMARK    2  A    between atoms: N3_3  and  C5_5 
REMARK    3  A    between atoms: N3_3  and  C7_7 
REMARK    4  A    between atoms: C7_7  and  C8_8 
REMARK    5  A    between atoms: C8_8  and  C9_9 
REMARK    6  A    between atoms: C9_9  and  C10_10 
REMARK    7  A    between atoms: C10_10  and  N13_12 
REMARK    8  A    between atoms: N13_12  and  C14_13 
ROOT
ATOM      1  N13 <0> d   1      17.745   2.684  12.245  0.00  0.00    -0.385 N 
ATOM      2  H44 <0> d   1      17.810   3.391  12.905  0.00  0.00     0.160 HD
ENDROOT
BRANCH   1   3
ATOM      3  C10 <0> d   1      17.656   3.017  10.821  0.00  0.00     0.077 C 
ATOM      4  C12 <0> d   1      17.108   4.436  10.662  0.00  0.00     0.032 C 
BRANCH   3   5
ATOM      5  C9  <0> d   1      19.048   2.935  10.192  0.00  0.00     0.026 C 
BRANCH   5   6
ATOM      6  C8  <0> d   1      18.948   2.270   8.817  0.00  0.00     0.030 C 
BRANCH   6   7
ATOM      7  C7  <0> d   1      19.483   0.840   8.902  0.00  0.00     0.235 C 
BRANCH   7   8
ATOM      8  N3  <0> d   1      19.056   0.086   7.716  0.00  0.00    -0.072 N 
ATOM      9  H4  <0> d   1      19.742  -0.622   7.503  0.00  0.00     0.279 HD
BRANCH   8  10
ATOM     10  C2  <0> d   1      17.759  -0.553   7.981  0.00  0.00     0.230 C 
ATOM     11  C1  <0> d   1      17.984  -1.883   8.701  0.00  0.00     0.034 C 
ENDBRANCH   8  10
BRANCH   8  12
ATOM     12  C5  <0> d   1      18.927   1.002   6.574  0.00  0.00     0.230 C 
ATOM     13  C6  <0> d   1      18.279   0.265   5.400  0.00  0.00     0.034 C 
ENDBRANCH   8  12
ENDBRANCH   7   8
ENDBRANCH   6   7
ENDBRANCH   5   6
ENDBRANCH   3   5
ENDBRANCH   1   3
BRANCH   1  14
ATOM     14  C14 <0> d   1      17.737   1.357  12.649  0.00  0.00     0.042 A 
ATOM     15  C24 <0> d   1      17.340   0.349  11.784  0.00  0.00     0.049 A 
ATOM     16  C23 <0> d   1      17.346  -0.970  12.217  0.00  0.00     0.119 A 
ATOM     17  N22 <0> d   1      17.711  -1.298  13.434  0.00  0.00    -0.260 NA
ATOM     18  C21 <0> d   1      18.101  -0.377  14.323  0.00  0.00     0.070 A 
ATOM     19  C15 <0> d   1      18.128   0.991  13.959  0.00  0.00     0.019 A 
ATOM     20  C20 <0> d   1      18.488  -0.745  15.623  0.00  0.00     0.056 A 
ATOM     21  C16 <0> d   1      18.536   1.952  14.894  0.00  0.00     0.018 A 
ATOM     22  C17 <0> d   1      18.905   1.559  16.146  0.00  0.00     0.025 A 
ATOM     23  C18 <0> d   1      18.880   0.214  16.508  0.00  0.00     0.036 A 
ATOM     24 Cl19 <0> d   1      19.358  -0.247  18.112  0.00  0.00    -0.084 Cl
ENDBRANCH   1  14
TORSDOF 8
ENDMDL
MODEL 9
REMARK VINA RESULT:      -6.4      1.598      3.405
REMARK  8 active torsions:
REMARK  status: ('A' for Active; 'I' for Inactive)
REMARK    1  A    between atoms: C2_2  and  N3_3 
REMARK    2  A    between atoms: N3_3  and  C5_5 
REMARK    3  A    between atoms: N3_3  and  C7_7 
REMARK    4  A    between atoms: C7_7  and  C8_8 
REMARK    5  A    between atoms: C8_8  and  C9_9 
REMARK    6  A    between atoms: C9_9  and  C10_10 
REMARK    7  A    between atoms: C10_10  and  N13_12 
REMARK    8  A    between atoms: N13_12  and  C14_13 
ROOT
ATOM      1  N13 <0> d   1      17.691   2.821  11.926  0.00  0.00    -0.385 N 
ATOM      2  H44 <0> d   1      17.012   3.484  11.727  0.00  0.00     0.160 HD
ENDROOT
BRANCH   1   3
ATOM      3  C10 <0> d   1      18.769   3.137  12.867  0.00  0.00     0.077 C 
ATOM      4  C12 <0> d   1      19.641   4.253  12.288  0.00  0.00     0.032 C 
BRANCH   3   5
ATOM      5  C9  <0> d   1      18.166   3.598  14.195  0.00  0.00     0.026 C 
BRANCH   5   6
ATOM      6  C8  <0> d   1      18.852   2.862  15.349  0.00  0.00     0.030 C 
BRANCH   6   7
ATOM      7  C7  <0> d   1      18.534   1.368  15.260  0.00  0.00     0.235 C 
BRANCH   7   8
ATOM      8  N3  <0> d   1      17.651   0.988  16.370  0.00  0.00    -0.072 N 
ATOM      9  H4  <0> d   1      16.723   1.345  16.199  0.00  0.00     0.279 HD
BRANCH   8  10
ATOM     10  C2  <0> d   1      17.599  -0.476  16.478  0.00  0.00     0.230 C 
ATOM     11  C1  <0> d   1      18.327  -1.100  15.286  0.00  0.00     0.034 C 
ENDBRANCH   8  10
BRANCH   8  12
ATOM     12  C5  <0> d   1      18.169   1.553  17.624  0.00  0.00     0.230 C 
ATOM     13  C6  <0> d   1      18.467   0.421  18.609  0.00  0.00     0.034 C 
ENDBRANCH   8  12
ENDBRANCH   7   8
ENDBRANCH   6   7
ENDBRANCH   5   6
ENDBRANCH   3   5
ENDBRANCH   1   3
BRANCH   1  14
ATOM     14  C14 <0> d   1      17.643   1.574  11.320  0.00  0.00     0.042 A 
ATOM     15  C24 <0> d   1      17.192   0.461  12.013  0.00  0.00     0.049 A 
ATOM     16  C23 <0> d   1      17.152  -0.773  11.378  0.00  0.00     0.119 A 
ATOM     17  N22 <0> d   1      17.538  -0.924  10.133  0.00  0.00    -0.260 NA
ATOM     18  C21 <0> d   1      17.989   0.105   9.407  0.00  0.00     0.070 A 
ATOM     19  C15 <0> d   1      18.057   1.398   9.979  0.00  0.00     0.019 A 
ATOM     20  C20 <0> d   1      18.399  -0.074   8.075  0.00  0.00     0.056 A 
ATOM     21  C16 <0> d   1      18.530   2.473   9.214  0.00  0.00     0.018 A 
ATOM     22  C17 <0> d   1      18.920   2.262   7.926  0.00  0.00     0.025 A 
ATOM     23  C18 <0> d   1      18.854   0.991   7.358  0.00  0.00     0.036 A 
ATOM     24 Cl19 <0> d   1      19.360   0.763   5.713  0.00  0.00    -0.084 Cl
ENDBRANCH   1  14
TORSDOF 8
ENDMDL
