MODEL 1
REMARK VINA RESULT:      -9.3      0.000      0.000
REMARK  3 active torsions:
REMARK  status: ('A' for Active; 'I' for Inactive)
REMARK    1  A    between atoms: C7_7  and  N9_8 
REMARK    2  A    between atoms: C11_10  and  C12_11 
REMARK    3  A    between atoms: C12_11  and  C13_12 
ROOT
ATOM      1  N9  <0> d   1      18.452  -0.444  10.248  0.00  0.00    -0.229 N 
ATOM      2  N10 <0> d   1      18.980  -1.696  10.564  0.00  0.00    -0.173 NA
ATOM      3  C11 <0> d   1      19.067  -2.133  11.786  0.00  0.00     0.070 A 
ATOM      4  C20 <0> d   1      18.600  -1.301  12.895  0.00  0.00     0.006 A 
ATOM      5  C21 <0> d   1      18.675  -1.734  14.221  0.00  0.00     0.014 A 
ATOM      6  C22 <0> d   1      18.222  -0.912  15.229  0.00  0.00     0.001 A 
ATOM      7  C23 <0> d   1      17.693   0.339  14.942  0.00  0.00     0.001 A 
ATOM      8  C24 <0> d   1      17.609   0.786  13.642  0.00  0.00     0.018 A 
ATOM      9  C25 <0> d   1      18.061  -0.028  12.605  0.00  0.00     0.046 A 
ATOM     10  C26 <0> d   1      18.002   0.398  11.201  0.00  0.00     0.275 A 
ATOM     11  O27 <0> d   1      17.549   1.488  10.901  0.00  0.00    -0.266 OA
ENDROOT
BRANCH   1  12
ATOM     12  C7  <0> d   1      18.392  -0.030   8.844  0.00  0.00     0.115 C 
ATOM     13  C6  <0> d   1      19.575   0.847   8.526  0.00  0.00     0.029 C 
ATOM     14  C5  <0> d   1      19.276   1.907   7.448  0.00  0.00     0.030 C 
ATOM     15  C4  <0> d   1      18.448   1.345   6.279  0.00  0.00     0.234 C 
ATOM     16  N2  <0> d   1      18.896   0.023   5.905  0.00  0.00    -0.075 N 
ATOM     17  C1  <0> d   1      18.808  -0.139   4.448  0.00  0.00     0.269 C 
ATOM     18  H3  <0> d   1      19.849  -0.112   6.208  0.00  0.00     0.279 HD
ATOM     19  C29 <0> d   1      18.017  -0.953   6.571  0.00  0.00     0.236 C 
ATOM     20  C28 <0> d   1      18.427  -1.281   7.933  0.00  0.00     0.055 C 
ENDBRANCH   1  12
BRANCH   3  21
ATOM     21  C12 <0> d   1      19.647  -3.497  12.058  0.00  0.00     0.100 C 
BRANCH  21  22
ATOM     22  C13 <0> d   1      18.995  -4.511  11.154  0.00  0.00    -0.052 A 
ATOM     23  C19 <0> d   1      17.735  -4.994  11.454  0.00  0.00     0.009 A 
ATOM     24  C18 <0> d   1      17.134  -5.920  10.621  0.00  0.00     0.024 A 
ATOM     25  C16 <0> d   1      17.799  -6.371   9.494  0.00  0.00     0.034 A 
ATOM     26  C15 <0> d   1      19.062  -5.891   9.198  0.00  0.00     0.024 A 
ATOM     27 Cl17 <0> d   1      17.048  -7.538   8.452  0.00  0.00    -0.084 Cl
ATOM     28  C14 <0> d   1      19.660  -4.960  10.029  0.00  0.00     0.009 A 
ENDBRANCH  21  22
ENDBRANCH   3  21
TORSDOF 3
ENDMDL
MODEL 2
REMARK VINA RESULT:      -9.1      2.064      5.914
REMARK  3 active torsions:
REMARK  status: ('A' for Active; 'I' for Inactive)
REMARK    1  A    between atoms: C7_7  and  N9_8 
REMARK    2  A    between atoms: C11_10  and  C12_11 
REMARK    3  A    between atoms: C12_11  and  C13_12 
ROOT
ATOM      1  N9  <0> d   1      18.335  -0.602  13.054  0.00  0.00    -0.229 N 
ATOM      2  N10 <0> d   1      19.072  -1.759  12.796  0.00  0.00    -0.173 NA
ATOM      3  C11 <0> d   1      19.254  -2.221  11.594  0.00  0.00     0.070 A 
ATOM      4  C20 <0> d   1      18.675  -1.523  10.446  0.00  0.00     0.006 A 
ATOM      5  C21 <0> d   1      18.848  -1.986   9.140  0.00  0.00     0.014 A 
ATOM      6  C22 <0> d   1      18.283  -1.292   8.094  0.00  0.00     0.001 A 
ATOM      7  C23 <0> d   1      17.545  -0.139   8.323  0.00  0.00     0.001 A 
ATOM      8  C24 <0> d   1      17.362   0.337   9.602  0.00  0.00     0.018 A 
ATOM      9  C25 <0> d   1      17.924  -0.349  10.677  0.00  0.00     0.046 A 
ATOM     10  C26 <0> d   1      17.758   0.108  12.063  0.00  0.00     0.275 A 
ATOM     11  O27 <0> d   1      17.116   1.112  12.313  0.00  0.00    -0.266 OA
ENDROOT
BRANCH   1  12
ATOM     12  C7  <0> d   1      18.180  -0.152  14.439  0.00  0.00     0.115 C 
ATOM     13  C6  <0> d   1      18.287  -1.333  15.369  0.00  0.00     0.029 C 
ATOM     14  C5  <0> d   1      17.439  -1.182  16.646  0.00  0.00     0.030 C 
ATOM     15  C4  <0> d   1      17.521   0.232  17.249  0.00  0.00     0.234 C 
ATOM     16  N2  <0> d   1      18.870   0.747  17.197  0.00  0.00    -0.075 N 
ATOM     17  C1  <0> d   1      19.147   1.539  18.403  0.00  0.00     0.269 C 
ATOM     18  H3  <0> d   1      19.525  -0.017  17.131  0.00  0.00     0.279 HD
ATOM     19  C29 <0> d   1      18.978   1.602  16.002  0.00  0.00     0.236 C 
ATOM     20  C28 <0> d   1      19.293   0.868  14.780  0.00  0.00     0.055 C 
ENDBRANCH   1  12
BRANCH   3  21
ATOM     21  C12 <0> d   1      20.061  -3.477  11.385  0.00  0.00     0.100 C 
BRANCH  21  22
ATOM     22  C13 <0> d   1      19.210  -4.512  10.695  0.00  0.00    -0.052 A 
ATOM     23  C19 <0> d   1      17.976  -4.852  11.219  0.00  0.00     0.009 A 
ATOM     24  C18 <0> d   1      17.193  -5.797  10.584  0.00  0.00     0.024 A 
ATOM     25  C16 <0> d   1      17.648  -6.411   9.430  0.00  0.00     0.034 A 
ATOM     26  C15 <0> d   1      18.884  -6.074   8.910  0.00  0.00     0.024 A 
ATOM     27 Cl17 <0> d   1      16.668  -7.603   8.636  0.00  0.00    -0.084 Cl
ATOM     28  C14 <0> d   1      19.665  -5.124   9.543  0.00  0.00     0.009 A 
ENDBRANCH  21  22
ENDBRANCH   3  21
TORSDOF 3
ENDMDL
MODEL 3
REMARK VINA RESULT:      -9.0      4.064      8.358
REMARK  3 active torsions:
REMARK  status: ('A' for Active; 'I' for Inactive)
REMARK    1  A    between atoms: C7_7  and  N9_8 
REMARK    2  A    between atoms: C11_10  and  C12_11 
REMARK    3  A    between atoms: C12_11  and  C13_12 
ROOT
ATOM      1  N9  <0> d   1      18.446   0.193  11.657  0.00  0.00    -0.229 N 
ATOM      2  N10 <0> d   1      18.410   1.546  11.316  0.00  0.00    -0.173 NA
ATOM      3  C11 <0> d   1      18.516   1.964  10.089  0.00  0.00     0.070 A 
ATOM      4  C20 <0> d   1      18.682   1.001   9.000  0.00  0.00     0.006 A 
ATOM      5  C21 <0> d   1      18.798   1.409   7.669  0.00  0.00     0.014 A 
ATOM      6  C22 <0> d   1      18.952   0.462   6.681  0.00  0.00     0.001 A 
ATOM      7  C23 <0> d   1      18.992  -0.890   6.993  0.00  0.00     0.001 A 
ATOM      8  C24 <0> d   1      18.879  -1.316   8.298  0.00  0.00     0.018 A 
ATOM      9  C25 <0> d   1      18.722  -0.376   9.315  0.00  0.00     0.046 A 
ATOM     10  C26 <0> d   1      18.602  -0.770  10.724  0.00  0.00     0.275 A 
ATOM     11  O27 <0> d   1      18.635  -1.944  11.046  0.00  0.00    -0.266 OA
ENDROOT
BRANCH   1  12
ATOM     12  C7  <0> d   1      18.320  -0.190  13.064  0.00  0.00     0.115 C 
ATOM     13  C6  <0> d   1      19.684  -0.486  13.631  0.00  0.00     0.029 C 
ATOM     14  C5  <0> d   1      19.666  -1.560  14.736  0.00  0.00     0.030 C 
ATOM     15  C4  <0> d   1      18.491  -1.384  15.714  0.00  0.00     0.234 C 
ATOM     16  N2  <0> d   1      18.283   0.008  16.040  0.00  0.00    -0.075 N 
ATOM     17  C1  <0> d   1      17.884   0.137  17.448  0.00  0.00     0.269 C 
ATOM     18  H3  <0> d   1      19.132   0.528  15.876  0.00  0.00     0.279 HD
ATOM     19  C29 <0> d   1      17.210   0.517  15.168  0.00  0.00     0.236 C 
ATOM     20  C28 <0> d   1      17.678   0.971  13.862  0.00  0.00     0.055 C 
ENDBRANCH   1  12
BRANCH   3  21
ATOM     21  C12 <0> d   1      18.468   3.440   9.790  0.00  0.00     0.100 C 
BRANCH  21  22
ATOM     22  C13 <0> d   1      18.086   4.194  11.038  0.00  0.00    -0.052 A 
ATOM     23  C19 <0> d   1      16.799   4.676  11.186  0.00  0.00     0.009 A 
ATOM     24  C18 <0> d   1      16.447   5.362  12.333  0.00  0.00     0.024 A 
ATOM     25  C16 <0> d   1      17.385   5.577  13.328  0.00  0.00     0.034 A 
ATOM     26  C15 <0> d   1      18.674   5.099  13.175  0.00  0.00     0.024 A 
ATOM     27 Cl17 <0> d   1      16.945   6.445  14.764  0.00  0.00    -0.084 Cl
ATOM     28  C14 <0> d   1      19.024   4.407  12.030  0.00  0.00     0.009 A 
ENDBRANCH  21  22
ENDBRANCH   3  21
TORSDOF 3
ENDMDL
MODEL 4
REMARK VINA RESULT:      -8.8      2.626      5.708
REMARK  3 active torsions:
REMARK  status: ('A' for Active; 'I' for Inactive)
REMARK    1  A    between atoms: C7_7  and  N9_8 
REMARK    2  A    between atoms: C11_10  and  C12_11 
REMARK    3  A    between atoms: C12_11  and  C13_12 
ROOT
ATOM      1  N9  <0> d   1      18.552  -1.123  12.766  0.00  0.00    -0.229 N 
ATOM      2  N10 <0> d   1      18.197  -0.097  11.890  0.00  0.00    -0.173 NA
ATOM      3  C11 <0> d   1      18.111   1.146  12.262  0.00  0.00     0.070 A 
ATOM      4  C20 <0> d   1      18.391   1.514  13.650  0.00  0.00     0.006 A 
ATOM      5  C21 <0> d   1      18.311   2.837  14.091  0.00  0.00     0.014 A 
ATOM      6  C22 <0> d   1      18.585   3.132  15.408  0.00  0.00     0.001 A 
ATOM      7  C23 <0> d   1      18.939   2.130  16.301  0.00  0.00     0.001 A 
ATOM      8  C24 <0> d   1      19.026   0.818  15.889  0.00  0.00     0.018 A 
ATOM      9  C25 <0> d   1      18.753   0.496  14.561  0.00  0.00     0.046 A 
ATOM     10  C26 <0> d   1      18.823  -0.885  14.066  0.00  0.00     0.275 A 
ATOM     11  O27 <0> d   1      19.127  -1.797  14.813  0.00  0.00    -0.266 OA
ENDROOT
BRANCH   1  12
ATOM     12  C7  <0> d   1      18.625  -2.496  12.262  0.00  0.00     0.115 C 
ATOM     13  C6  <0> d   1      17.405  -2.793  11.429  0.00  0.00     0.029 C 
ATOM     14  C5  <0> d   1      16.972  -4.271  11.486  0.00  0.00     0.030 C 
ATOM     15  C4  <0> d   1      18.165  -5.241  11.407  0.00  0.00     0.234 C 
ATOM     16  N2  <0> d   1      19.138  -4.797  10.436  0.00  0.00    -0.075 N 
ATOM     17  C1  <0> d   1      19.716  -5.957   9.743  0.00  0.00     0.269 C 
ATOM     18  H3  <0> d   1      18.699  -4.184   9.767  0.00  0.00     0.279 HD
ATOM     19  C29 <0> d   1      20.195  -4.070  11.160  0.00  0.00     0.236 C 
ATOM     20  C28 <0> d   1      19.891  -2.661  11.387  0.00  0.00     0.055 C 
ENDBRANCH   1  12
BRANCH   3  21
ATOM     21  C12 <0> d   1      17.722   2.206  11.265  0.00  0.00     0.100 C 
BRANCH  21  22
ATOM     22  C13 <0> d   1      18.036   1.724   9.871  0.00  0.00    -0.052 A 
ATOM     23  C19 <0> d   1      19.000   2.370   9.119  0.00  0.00     0.009 A 
ATOM     24  C18 <0> d   1      19.292   1.924   7.843  0.00  0.00     0.024 A 
ATOM     25  C16 <0> d   1      18.613   0.840   7.315  0.00  0.00     0.034 A 
ATOM     26  C15 <0> d   1      17.645   0.199   8.067  0.00  0.00     0.024 A 
ATOM     27 Cl17 <0> d   1      18.974   0.286   5.711  0.00  0.00    -0.084 Cl
ATOM     28  C14 <0> d   1      17.357   0.642   9.346  0.00  0.00     0.009 A 
ENDBRANCH  21  22
ENDBRANCH   3  21
TORSDOF 3
ENDMDL
MODEL 5
REMARK VINA RESULT:      -8.8      2.405      6.254
REMARK  3 active torsions:
REMARK  status: ('A' for Active; 'I' for Inactive)
REMARK    1  A    between atoms: C7_7  and  N9_8 
REMARK    2  A    between atoms: C11_10  and  C12_11 
REMARK    3  A    between atoms: C12_11  and  C13_12 
ROOT
ATOM      1  N9  <0> d   1      18.624   0.838  13.074  0.00  0.00    -0.229 N 
ATOM      2  N10 <0> d   1      19.372  -0.199  12.515  0.00  0.00    -0.173 NA
ATOM      3  C11 <0> d   1      19.708  -0.225  11.260  0.00  0.00     0.070 A 
ATOM      4  C20 <0> d   1      19.299   0.863  10.370  0.00  0.00     0.006 A 
ATOM      5  C21 <0> d   1      19.639   0.873   9.016  0.00  0.00     0.014 A 
ATOM      6  C22 <0> d   1      19.230   1.921   8.222  0.00  0.00     0.001 A 
ATOM      7  C23 <0> d   1      18.484   2.965   8.752  0.00  0.00     0.001 A 
ATOM      8  C24 <0> d   1      18.137   2.977  10.084  0.00  0.00     0.018 A 
ATOM      9  C25 <0> d   1      18.540   1.927  10.908  0.00  0.00     0.046 A 
ATOM     10  C26 <0> d   1      18.195   1.882  12.335  0.00  0.00     0.275 A 
ATOM     11  O27 <0> d   1      17.540   2.774  12.843  0.00  0.00    -0.266 OA
ENDROOT
BRANCH   1  12
ATOM     12  C7  <0> d   1      18.289   0.788  14.499  0.00  0.00     0.115 C 
ATOM     13  C6  <0> d   1      18.474  -0.618  15.011  0.00  0.00     0.029 C 
ATOM     14  C5  <0> d   1      17.506  -0.983  16.153  0.00  0.00     0.030 C 
ATOM     15  C4  <0> d   1      17.344   0.154  17.179  0.00  0.00     0.234 C 
ATOM     16  N2  <0> d   1      18.611   0.787  17.464  0.00  0.00    -0.075 N 
ATOM     17  C1  <0> d   1      18.674   1.159  18.884  0.00  0.00     0.269 C 
ATOM     18  H3  <0> d   1      19.366   0.157  17.241  0.00  0.00     0.279 HD
ATOM     19  C29 <0> d   1      18.706   1.995  16.626  0.00  0.00     0.236 C 
ATOM     20  C28 <0> d   1      19.222   1.742  15.284  0.00  0.00     0.055 C 
ENDBRANCH   1  12
BRANCH   3  21
ATOM     21  C12 <0> d   1      20.517  -1.376  10.720  0.00  0.00     0.100 C 
BRANCH  21  22
ATOM     22  C13 <0> d   1      19.656  -2.611  10.657  0.00  0.00    -0.052 A 
ATOM     23  C19 <0> d   1      18.729  -2.754   9.642  0.00  0.00     0.009 A 
ATOM     24  C18 <0> d   1      17.942  -3.890   9.580  0.00  0.00     0.024 A 
ATOM     25  C16 <0> d   1      18.074  -4.876  10.542  0.00  0.00     0.034 A 
ATOM     26  C15 <0> d   1      18.998  -4.728  11.561  0.00  0.00     0.024 A 
ATOM     27 Cl17 <0> d   1      17.082  -6.298  10.470  0.00  0.00    -0.084 Cl
ATOM     28  C14 <0> d   1      19.789  -3.595  11.618  0.00  0.00     0.009 A 
ENDBRANCH  21  22
ENDBRANCH   3  21
TORSDOF 3
ENDMDL
MODEL 6
REMARK VINA RESULT:      -8.6      1.931      2.913
REMARK  3 active torsions:
REMARK  status: ('A' for Active; 'I' for Inactive)
REMARK    1  A    between atoms: C7_7  and  N9_8 
REMARK    2  A    between atoms: C11_10  and  C12_11 
REMARK    3  A    between atoms: C12_11  and  C13_12 
ROOT
ATOM      1  N9  <0> d   1      18.925   0.258   8.985  0.00  0.00    -0.229 N 
ATOM      2  N10 <0> d   1      19.057  -0.577  10.095  0.00  0.00    -0.173 NA
ATOM      3  C11 <0> d   1      19.162  -0.121  11.308  0.00  0.00     0.070 A 
ATOM      4  C20 <0> d   1      19.143   1.321  11.552  0.00  0.00     0.006 A 
ATOM      5  C21 <0> d   1      19.252   1.851  12.839  0.00  0.00     0.014 A 
ATOM      6  C22 <0> d   1      19.228   3.217  13.015  0.00  0.00     0.001 A 
ATOM      7  C23 <0> d   1      19.098   4.071  11.928  0.00  0.00     0.001 A 
ATOM      8  C24 <0> d   1      18.989   3.571  10.649  0.00  0.00     0.018 A 
ATOM      9  C25 <0> d   1      19.010   2.192  10.447  0.00  0.00     0.046 A 
ATOM     10  C26 <0> d   1      18.903   1.602   9.107  0.00  0.00     0.275 A 
ATOM     11  O27 <0> d   1      18.790   2.311   8.123  0.00  0.00    -0.266 OA
ENDROOT
BRANCH   1  12
ATOM     12  C7  <0> d   1      18.813  -0.340   7.653  0.00  0.00     0.115 C 
ATOM     13  C6  <0> d   1      19.064  -1.823   7.743  0.00  0.00     0.029 C 
ATOM     14  C5  <0> d   1      19.712  -2.410   6.474  0.00  0.00     0.030 C 
ATOM     15  C4  <0> d   1      19.093  -1.851   5.180  0.00  0.00     0.234 C 
ATOM     16  N2  <0> d   1      17.657  -1.744   5.290  0.00  0.00    -0.075 N 
ATOM     17  C1  <0> d   1      17.033  -2.074   4.001  0.00  0.00     0.269 C 
ATOM     18  H3  <0> d   1      17.320  -2.372   6.004  0.00  0.00     0.279 HD
ATOM     19  C29 <0> d   1      17.338  -0.354   5.658  0.00  0.00     0.236 C 
ATOM     20  C28 <0> d   1      17.390  -0.098   7.094  0.00  0.00     0.055 C 
ENDBRANCH   1  12
BRANCH   3  21
ATOM     21  C12 <0> d   1      19.302  -1.079  12.463  0.00  0.00     0.100 C 
BRANCH  21  22
ATOM     22  C13 <0> d   1      18.826  -2.446  12.043  0.00  0.00    -0.052 A 
ATOM     23  C19 <0> d   1      17.472  -2.695  11.911  0.00  0.00     0.009 A 
ATOM     24  C18 <0> d   1      17.035  -3.947  11.520  0.00  0.00     0.024 A 
ATOM     25  C16 <0> d   1      17.952  -4.954  11.272  0.00  0.00     0.034 A 
ATOM     26  C15 <0> d   1      19.305  -4.705  11.410  0.00  0.00     0.024 A 
ATOM     27 Cl17 <0> d   1      17.403  -6.528  10.789  0.00  0.00    -0.084 Cl
ATOM     28  C14 <0> d   1      19.742  -3.451  11.795  0.00  0.00     0.009 A 
ENDBRANCH  21  22
ENDBRANCH   3  21
TORSDOF 3
ENDMDL
MODEL 7
REMARK VINA RESULT:      -8.5      2.708      5.410
REMARK  3 active torsions:
REMARK  status: ('A' for Active; 'I' for Inactive)
REMARK    1  A    between atoms: C7_7  and  N9_8 
REMARK    2  A    between atoms: C11_10  and  C12_11 
REMARK    3  A    between atoms: C12_11  and  C13_12 
ROOT
ATOM      1  N9  <0> d   1      18.330  -2.987  10.427  0.00  0.00    -0.229 N 
ATOM      2  N10 <0> d   1      18.035  -1.742   9.869  0.00  0.00    -0.173 NA
ATOM      3  C11 <0> d   1      18.016  -0.646  10.567  0.00  0.00     0.070 A 
ATOM      4  C20 <0> d   1      18.311  -0.687  12.000  0.00  0.00     0.006 A 
ATOM      5  C21 <0> d   1      18.302   0.468  12.786  0.00  0.00     0.014 A 
ATOM      6  C22 <0> d   1      18.588   0.376  14.130  0.00  0.00     0.001 A 
ATOM      7  C23 <0> d   1      18.884  -0.849  14.711  0.00  0.00     0.001 A 
ATOM      8  C24 <0> d   1      18.900  -2.001  13.956  0.00  0.00     0.018 A 
ATOM      9  C25 <0> d   1      18.614  -1.933  12.593  0.00  0.00     0.046 A 
ATOM     10  C26 <0> d   1      18.610  -3.127  11.740  0.00  0.00     0.275 A 
ATOM     11  O27 <0> d   1      18.861  -4.225  12.206  0.00  0.00    -0.266 OA
ENDROOT
BRANCH   1  12
ATOM     12  C7  <0> d   1      18.330  -4.172   9.567  0.00  0.00     0.115 C 
ATOM     13  C6  <0> d   1      16.966  -4.813   9.593  0.00  0.00     0.029 C 
ATOM     14  C5  <0> d   1      17.009  -6.343   9.411  0.00  0.00     0.030 C 
ATOM     15  C4  <0> d   1      18.002  -6.783   8.321  0.00  0.00     0.234 C 
ATOM     16  N2  <0> d   1      17.942  -5.907   7.173  0.00  0.00    -0.075 N 
ATOM     17  C1  <0> d   1      18.127  -6.687   5.942  0.00  0.00     0.269 C 
ATOM     18  H3  <0> d   1      17.051  -5.436   7.148  0.00  0.00     0.279 HD
ATOM     19  C29 <0> d   1      19.027  -4.919   7.306  0.00  0.00     0.236 C 
ATOM     20  C28 <0> d   1      18.669  -3.758   8.114  0.00  0.00     0.055 C 
ENDBRANCH   1  12
BRANCH   3  21
ATOM     21  C12 <0> d   1      17.689   0.666   9.902  0.00  0.00     0.100 C 
BRANCH  21  22
ATOM     22  C13 <0> d   1      17.919   0.546   8.417  0.00  0.00    -0.052 A 
ATOM     23  C19 <0> d   1      17.008  -0.135   7.630  0.00  0.00     0.009 A 
ATOM     24  C18 <0> d   1      17.215  -0.239   6.267  0.00  0.00     0.024 A 
ATOM     25  C16 <0> d   1      18.339   0.328   5.693  0.00  0.00     0.034 A 
ATOM     26  C15 <0> d   1      19.252   1.004   6.482  0.00  0.00     0.024 A 
ATOM     27 Cl17 <0> d   1      18.604   0.190   3.983  0.00  0.00    -0.084 Cl
ATOM     28  C14 <0> d   1      19.041   1.113   7.844  0.00  0.00     0.009 A 
ENDBRANCH  21  22
ENDBRANCH   3  21
TORSDOF 3
ENDMDL
MODEL 8
REMARK VINA RESULT:      -8.5      3.049      7.033
REMARK  3 active torsions:
REMARK  status: ('A' for Active; 'I' for Inactive)
REMARK    1  A    between atoms: C7_7  and  N9_8 
REMARK    2  A    between atoms: C11_10  and  C12_11 
REMARK    3  A    between atoms: C12_11  and  C13_12 
ROOT
ATOM      1  N9  <0> d   1      18.543  -0.472  13.446  0.00  0.00    -0.229 N 
ATOM      2  N10 <0> d   1      17.693  -0.026  12.432  0.00  0.00    -0.173 NA
ATOM      3  C11 <0> d   1      17.537  -0.670  11.314  0.00  0.00     0.070 A 
ATOM      4  C20 <0> d   1      18.268  -1.915  11.078  0.00  0.00     0.006 A 
ATOM      5  C21 <0> d   1      18.128  -2.637   9.890  0.00  0.00     0.014 A 
ATOM      6  C22 <0> d   1      18.838  -3.804   9.718  0.00  0.00     0.001 A 
ATOM      7  C23 <0> d   1      19.691  -4.270  10.710  0.00  0.00     0.001 A 
ATOM      8  C24 <0> d   1      19.845  -3.575  11.889  0.00  0.00     0.018 A 
ATOM      9  C25 <0> d   1      19.136  -2.391  12.086  0.00  0.00     0.046 A 
ATOM     10  C26 <0> d   1      19.264  -1.606  13.320  0.00  0.00     0.275 A 
ATOM     11  O27 <0> d   1      20.002  -1.973  14.216  0.00  0.00    -0.266 OA
ENDROOT
BRANCH   1  12
ATOM     12  C7  <0> d   1      18.659   0.315  14.675  0.00  0.00     0.115 C 
ATOM     13  C6  <0> d   1      18.227   1.734  14.408  0.00  0.00     0.029 C 
ATOM     14  C5  <0> d   1      18.967   2.770  15.276  0.00  0.00     0.030 C 
ATOM     15  C4  <0> d   1      19.121   2.317  16.738  0.00  0.00     0.234 C 
ATOM     16  N2  <0> d   1      17.917   1.680  17.220  0.00  0.00    -0.075 N 
ATOM     17  C1  <0> d   1      17.698   2.031  18.630  0.00  0.00     0.269 C 
ATOM     18  H3  <0> d   1      17.128   1.978  16.667  0.00  0.00     0.279 HD
ATOM     19  C29 <0> d   1      18.097   0.224  17.090  0.00  0.00     0.236 C 
ATOM     20  C28 <0> d   1      17.752  -0.296  15.770  0.00  0.00     0.055 C 
ENDBRANCH   1  12
BRANCH   3  21
ATOM     21  C12 <0> d   1      16.603  -0.133  10.260  0.00  0.00     0.100 C 
BRANCH  21  22
ATOM     22  C13 <0> d   1      17.378   0.149   8.998  0.00  0.00    -0.052 A 
ATOM     23  C19 <0> d   1      17.002  -0.449   7.809  0.00  0.00     0.009 A 
ATOM     24  C18 <0> d   1      17.709  -0.186   6.651  0.00  0.00     0.024 A 
ATOM     25  C16 <0> d   1      18.799   0.666   6.683  0.00  0.00     0.034 A 
ATOM     26  C15 <0> d   1      19.177   1.259   7.874  0.00  0.00     0.024 A 
ATOM     27 Cl17 <0> d   1      19.691   0.990   5.230  0.00  0.00    -0.084 Cl
ATOM     28  C14 <0> d   1      18.466   1.000   9.032  0.00  0.00     0.009 A 
ENDBRANCH  21  22
ENDBRANCH   3  21
TORSDOF 3
ENDMDL
MODEL 9
REMARK VINA RESULT:      -8.5      2.990      5.315
REMARK  3 active torsions:
REMARK  status: ('A' for Active; 'I' for Inactive)
REMARK    1  A    between atoms: C7_7  and  N9_8 
REMARK    2  A    between atoms: C11_10  and  C12_11 
REMARK    3  A    between atoms: C12_11  and  C13_12 
ROOT
ATOM      1  N9  <0> d   1      18.819  -0.328   9.757  0.00  0.00    -0.229 N 
ATOM      2  N10 <0> d   1      19.506  -0.394  10.969  0.00  0.00    -0.173 NA
ATOM      3  C11 <0> d   1      19.704   0.648  11.721  0.00  0.00     0.070 A 
ATOM      4  C20 <0> d   1      19.199   1.957  11.306  0.00  0.00     0.006 A 
ATOM      5  C21 <0> d   1      19.391   3.101  12.084  0.00  0.00     0.014 A 
ATOM      6  C22 <0> d   1      18.895   4.309  11.648  0.00  0.00     0.001 A 
ATOM      7  C23 <0> d   1      18.209   4.403  10.445  0.00  0.00     0.001 A 
ATOM      8  C24 <0> d   1      18.007   3.289   9.661  0.00  0.00     0.018 A 
ATOM      9  C25 <0> d   1      18.500   2.055  10.082  0.00  0.00     0.046 A 
ATOM     10  C26 <0> d   1      18.321   0.834   9.285  0.00  0.00     0.275 A 
ATOM     11  O27 <0> d   1      17.728   0.868   8.222  0.00  0.00    -0.266 OA
ENDROOT
BRANCH   1  12
ATOM     12  C7  <0> d   1      18.640  -1.551   8.972  0.00  0.00     0.115 C 
ATOM     13  C6  <0> d   1      19.646  -1.582   7.850  0.00  0.00     0.029 C 
ATOM     14  C5  <0> d   1      19.134  -2.310   6.592  0.00  0.00     0.030 C 
ATOM     15  C4  <0> d   1      18.371  -3.605   6.926  0.00  0.00     0.234 C 
ATOM     16  N2  <0> d   1      19.023  -4.339   7.986  0.00  0.00    -0.075 N 
ATOM     17  C1  <0> d   1      18.911  -5.782   7.733  0.00  0.00     0.269 C 
ATOM     18  H3  <0> d   1      19.995  -4.075   8.037  0.00  0.00     0.279 HD
ATOM     19  C29 <0> d   1      18.345  -4.000   9.249  0.00  0.00     0.236 C 
ATOM     20  C28 <0> d   1      18.853  -2.786   9.881  0.00  0.00     0.055 C 
ENDBRANCH   1  12
BRANCH   3  21
ATOM     21  C12 <0> d   1      20.454   0.508  13.021  0.00  0.00     0.100 C 
BRANCH  21  22
ATOM     22  C13 <0> d   1      19.506   0.058  14.102  0.00  0.00    -0.052 A 
ATOM     23  C19 <0> d   1      18.704   0.983  14.746  0.00  0.00     0.009 A 
ATOM     24  C18 <0> d   1      17.830   0.570  15.734  0.00  0.00     0.024 A 
ATOM     25  C16 <0> d   1      17.766  -0.766  16.087  0.00  0.00     0.034 A 
ATOM     26  C15 <0> d   1      18.572  -1.690  15.447  0.00  0.00     0.024 A 
ATOM     27 Cl17 <0> d   1      16.674  -1.284  17.333  0.00  0.00    -0.084 Cl
ATOM     28  C14 <0> d   1      19.443  -1.277  14.454  0.00  0.00     0.009 A 
ENDBRANCH  21  22
ENDBRANCH   3  21
TORSDOF 3
ENDMDL
