MODEL 1
REMARK VINA RESULT:      -9.0      0.000      0.000
REMARK  7 active torsions:
REMARK  status: ('A' for Active; 'I' for Inactive)
REMARK    1  A    between atoms: C5_5  and  C6_6 
REMARK       I    between atoms: C6_6  and  N8_8 
REMARK    2  A    between atoms: N8_8  and  C9_9 
REMARK    3  A    between atoms: C9_9  and  C10_10 
REMARK    4  A    between atoms: C10_10  and  C11_11 
REMARK    5  A    between atoms: C14_14  and  S15_15 
REMARK    6  A    between atoms: S15_15  and  N18_18 
REMARK       I    between atoms: N18_18  and  C19_19 
REMARK       I    between atoms: C19_19  and  N21_21 
REMARK    7  A    between atoms: N21_21  and  C22_22 
ROOT
ATOM      1  C11 ZIN A   1      19.026   1.551   8.702  0.00  0.00    -0.057 A 
ATOM      2  C12 ZIN A   1      18.879   1.859   7.363  0.00  0.00     0.009 A 
ATOM      3  C13 ZIN A   1      18.926   0.854   6.415  0.00  0.00     0.026 A 
ATOM      4  C14 ZIN A   1      19.119  -0.458   6.805  0.00  0.00     0.081 A 
ATOM      5  C28 ZIN A   1      19.267  -0.765   8.146  0.00  0.00     0.026 A 
ATOM      6  C29 ZIN A   1      19.224   0.241   9.093  0.00  0.00     0.009 A 
ENDROOT
BRANCH   4   7
ATOM      7  S15 ZIN A   1      19.177  -1.738   5.597  0.00  0.00     0.287 S 
ATOM      8  O16 ZIN A   1      19.916  -1.265   4.417  0.00  0.00    -0.198 OA
ATOM      9  O17 ZIN A   1      19.856  -2.916   6.162  0.00  0.00    -0.198 OA
BRANCH   7  10
ATOM     10  N18 ZIN A   1      17.786  -2.109   5.197  0.00  0.00    -0.102 NA
ATOM     11  C19 ZIN A   1      17.574  -3.196   4.453  0.00  0.00     0.353 C 
ATOM     12  O20 ZIN A   1      18.513  -3.885   4.099  0.00  0.00    -0.244 OA
ATOM     13  N21 ZIN A   1      16.319  -3.531   4.092  0.00  0.00    -0.336 N 
ATOM     14  H43 ZIN A   1      15.570  -2.982   4.374  0.00  0.00     0.164 HD
BRANCH  13  15
ATOM     15  C22 ZIN A   1      16.086  -4.724   3.274  0.00  0.00     0.086 C 
ATOM     16  C27 ZIN A   1      15.338  -4.330   1.999  0.00  0.00     0.025 C 
ATOM     17  C26 ZIN A   1      15.095  -5.575   1.145  0.00  0.00     0.002 C 
ATOM     18  C25 ZIN A   1      14.256  -6.581   1.938  0.00  0.00     0.000 C 
ATOM     19  C24 ZIN A   1      15.003  -6.975   3.212  0.00  0.00     0.002 C 
ATOM     20  C23 ZIN A   1      15.246  -5.729   4.067  0.00  0.00     0.025 C 
ENDBRANCH  13  15
ENDBRANCH   7  10
ENDBRANCH   4   7
BRANCH   1  21
ATOM     21  C10 ZIN A   1      18.975   2.646   9.737  0.00  0.00     0.058 C 
BRANCH  21  22
ATOM     22  C9  ZIN A   1      17.746   2.449  10.626  0.00  0.00     0.127 C 
BRANCH  22  23
ATOM     23  N8  ZIN A   1      18.177   2.169  11.998  0.00  0.00    -0.355 N 
ATOM     24  C6  ZIN A   1      17.588   1.180  12.701  0.00  0.00     0.271 C 
ATOM     25  O7  ZIN A   1      16.701   0.521  12.195  0.00  0.00    -0.266 OA
ATOM     26  H36 ZIN A   1      18.885   2.694  12.402  0.00  0.00     0.162 HD
BRANCH  24  27
ATOM     27  C5  ZIN A   1      18.023   0.896  14.088  0.00  0.00     0.141 A 
ATOM     28  N4  ZIN A   1      17.732  -0.273  14.652  0.00  0.00    -0.252 NA
ATOM     29  C3  ZIN A   1      18.120  -0.522  15.887  0.00  0.00     0.144 A 
ATOM     30  C2  ZIN A   1      18.832   0.431  16.599  0.00  0.00     0.048 A 
ATOM     31  C1  ZIN A   1      19.273   0.141  18.010  0.00  0.00     0.072 C 
ATOM     32  N31 ZIN A   1      19.120   1.596  16.045  0.00  0.00    -0.262 NA
ATOM     33  C30 ZIN A   1      18.740   1.853  14.806  0.00  0.00     0.154 A 
ENDBRANCH  24  27
ENDBRANCH  22  23
ENDBRANCH  21  22
ENDBRANCH   1  21
TORSDOF 7
ENDMDL
MODEL 2
REMARK VINA RESULT:      -9.0      2.618     10.309
REMARK  7 active torsions:
REMARK  status: ('A' for Active; 'I' for Inactive)
REMARK    1  A    between atoms: C5_5  and  C6_6 
REMARK       I    between atoms: C6_6  and  N8_8 
REMARK    2  A    between atoms: N8_8  and  C9_9 
REMARK    3  A    between atoms: C9_9  and  C10_10 
REMARK    4  A    between atoms: C10_10  and  C11_11 
REMARK    5  A    between atoms: C14_14  and  S15_15 
REMARK    6  A    between atoms: S15_15  and  N18_18 
REMARK       I    between atoms: N18_18  and  C19_19 
REMARK       I    between atoms: C19_19  and  N21_21 
REMARK    7  A    between atoms: N21_21  and  C22_22 
ROOT
ATOM      1  C11 ZIN A   1      18.217   0.181   6.373  0.00  0.00    -0.057 A 
ATOM      2  C12 ZIN A   1      17.363  -0.275   7.359  0.00  0.00     0.009 A 
ATOM      3  C13 ZIN A   1      17.408   0.282   8.624  0.00  0.00     0.026 A 
ATOM      4  C14 ZIN A   1      18.307   1.294   8.903  0.00  0.00     0.081 A 
ATOM      5  C28 ZIN A   1      19.162   1.749   7.916  0.00  0.00     0.026 A 
ATOM      6  C29 ZIN A   1      19.120   1.190   6.653  0.00  0.00     0.009 A 
ENDROOT
BRANCH   4   7
ATOM      7  S15 ZIN A   1      18.364   2.004  10.514  0.00  0.00     0.287 S 
ATOM      8  O16 ZIN A   1      19.529   2.896  10.616  0.00  0.00    -0.198 OA
ATOM      9  O17 ZIN A   1      17.133   2.774  10.754  0.00  0.00    -0.198 OA
BRANCH   7  10
ATOM     10  N18 ZIN A   1      18.479   0.917  11.532  0.00  0.00    -0.102 NA
ATOM     11  C19 ZIN A   1      18.224   1.176  12.816  0.00  0.00     0.353 C 
ATOM     12  O20 ZIN A   1      17.899   2.299  13.158  0.00  0.00    -0.244 OA
ATOM     13  N21 ZIN A   1      18.328   0.197  13.736  0.00  0.00    -0.336 N 
ATOM     14  H43 ZIN A   1      18.587  -0.698  13.463  0.00  0.00     0.164 HD
BRANCH  13  15
ATOM     15  C22 ZIN A   1      18.049   0.482  15.145  0.00  0.00     0.086 C 
ATOM     16  C27 ZIN A   1      19.255   1.186  15.771  0.00  0.00     0.025 C 
ATOM     17  C26 ZIN A   1      18.964   1.484  17.243  0.00  0.00     0.002 C 
ATOM     18  C25 ZIN A   1      18.697   0.172  17.985  0.00  0.00     0.000 C 
ATOM     19  C24 ZIN A   1      17.492  -0.531  17.360  0.00  0.00     0.002 C 
ATOM     20  C23 ZIN A   1      17.783  -0.830  15.888  0.00  0.00     0.025 C 
ENDBRANCH  13  15
ENDBRANCH   7  10
ENDBRANCH   4   7
BRANCH   1  21
ATOM     21  C10 ZIN A   1      18.168  -0.424   4.994  0.00  0.00     0.058 C 
BRANCH  21  22
ATOM     22  C9  ZIN A   1      19.211  -1.539   4.891  0.00  0.00     0.127 C 
BRANCH  22  23
ATOM     23  N8  ZIN A   1      18.585  -2.823   5.218  0.00  0.00    -0.355 N 
ATOM     24  C6  ZIN A   1      19.261  -3.736   5.945  0.00  0.00     0.271 C 
ATOM     25  O7  ZIN A   1      20.388  -3.493   6.328  0.00  0.00    -0.266 OA
ATOM     26  H36 ZIN A   1      17.686  -3.018   4.912  0.00  0.00     0.162 HD
BRANCH  24  27
ATOM     27  C5  ZIN A   1      18.629  -5.035   6.276  0.00  0.00     0.141 A 
ATOM     28  N4  ZIN A   1      17.565  -5.451   5.595  0.00  0.00    -0.252 NA
ATOM     29  C3  ZIN A   1      17.005  -6.606   5.893  0.00  0.00     0.144 A 
ATOM     30  C2  ZIN A   1      17.524  -7.389   6.914  0.00  0.00     0.048 A 
ATOM     31  C1  ZIN A   1      16.879  -8.709   7.251  0.00  0.00     0.072 C 
ATOM     32  N31 ZIN A   1      18.578  -6.977   7.597  0.00  0.00    -0.262 NA
ATOM     33  C30 ZIN A   1      19.148  -5.823   7.302  0.00  0.00     0.154 A 
ENDBRANCH  24  27
ENDBRANCH  22  23
ENDBRANCH  21  22
ENDBRANCH   1  21
TORSDOF 7
ENDMDL
MODEL 3
REMARK VINA RESULT:      -9.0      2.188     11.147
REMARK  7 active torsions:
REMARK  status: ('A' for Active; 'I' for Inactive)
REMARK    1  A    between atoms: C5_5  and  C6_6 
REMARK       I    between atoms: C6_6  and  N8_8 
REMARK    2  A    between atoms: N8_8  and  C9_9 
REMARK    3  A    between atoms: C9_9  and  C10_10 
REMARK    4  A    between atoms: C10_10  and  C11_11 
REMARK    5  A    between atoms: C14_14  and  S15_15 
REMARK    6  A    between atoms: S15_15  and  N18_18 
REMARK       I    between atoms: N18_18  and  C19_19 
REMARK       I    between atoms: C19_19  and  N21_21 
REMARK    7  A    between atoms: N21_21  and  C22_22 
ROOT
ATOM      1  C11 ZIN A   1      18.763   0.449   8.367  0.00  0.00    -0.057 A 
ATOM      2  C12 ZIN A   1      17.711   0.209   9.231  0.00  0.00     0.009 A 
ATOM      3  C13 ZIN A   1      17.383   1.142  10.197  0.00  0.00     0.026 A 
ATOM      4  C14 ZIN A   1      18.107   2.315  10.300  0.00  0.00     0.081 A 
ATOM      5  C28 ZIN A   1      19.161   2.554   9.436  0.00  0.00     0.026 A 
ATOM      6  C29 ZIN A   1      19.490   1.619   8.473  0.00  0.00     0.009 A 
ENDROOT
BRANCH   4   7
ATOM      7  S15 ZIN A   1      17.689   3.504  11.530  0.00  0.00     0.287 S 
ATOM      8  O16 ZIN A   1      18.884   4.286  11.883  0.00  0.00    -0.198 OA
ATOM      9  O17 ZIN A   1      16.650   4.405  11.008  0.00  0.00    -0.198 OA
BRANCH   7  10
ATOM     10  N18 ZIN A   1      17.176   2.803  12.745  0.00  0.00    -0.102 NA
ATOM     11  C19 ZIN A   1      18.029   2.219  13.588  0.00  0.00     0.353 C 
ATOM     12  O20 ZIN A   1      19.226   2.254  13.366  0.00  0.00    -0.244 OA
ATOM     13  N21 ZIN A   1      17.566   1.586  14.685  0.00  0.00    -0.336 N 
ATOM     14  H43 ZIN A   1      16.613   1.557  14.862  0.00  0.00     0.164 HD
BRANCH  13  15
ATOM     15  C22 ZIN A   1      18.503   0.943  15.609  0.00  0.00     0.086 C 
ATOM     16  C27 ZIN A   1      18.110  -0.525  15.795  0.00  0.00     0.025 C 
ATOM     17  C26 ZIN A   1      19.089  -1.196  16.760  0.00  0.00     0.002 C 
ATOM     18  C25 ZIN A   1      19.041  -0.481  18.112  0.00  0.00     0.000 C 
ATOM     19  C24 ZIN A   1      19.435   0.985  17.928  0.00  0.00     0.002 C 
ATOM     20  C23 ZIN A   1      18.456   1.658  16.962  0.00  0.00     0.025 C 
ENDBRANCH  13  15
ENDBRANCH   7  10
ENDBRANCH   4   7
BRANCH   1  21
ATOM     21  C10 ZIN A   1      19.121  -0.568   7.313  0.00  0.00     0.058 C 
BRANCH  21  22
ATOM     22  C9  ZIN A   1      18.422  -0.206   6.001  0.00  0.00     0.127 C 
BRANCH  22  23
ATOM     23  N8  ZIN A   1      17.691  -1.373   5.501  0.00  0.00    -0.355 N 
ATOM     24  C6  ZIN A   1      18.301  -2.249   4.676  0.00  0.00     0.271 C 
ATOM     25  O7  ZIN A   1      19.457  -2.069   4.348  0.00  0.00    -0.266 OA
ATOM     26  H36 ZIN A   1      16.768  -1.517   5.762  0.00  0.00     0.162 HD
BRANCH  24  27
ATOM     27  C5  ZIN A   1      17.562  -3.429   4.170  0.00  0.00     0.141 A 
ATOM     28  N4  ZIN A   1      18.071  -4.649   4.322  0.00  0.00    -0.252 NA
ATOM     29  C3  ZIN A   1      17.411  -5.696   3.870  0.00  0.00     0.144 A 
ATOM     30  C2  ZIN A   1      16.188  -5.530   3.238  0.00  0.00     0.048 A 
ATOM     31  C1  ZIN A   1      15.438  -6.732   2.723  0.00  0.00     0.072 C 
ATOM     32  N31 ZIN A   1      15.680  -4.320   3.080  0.00  0.00    -0.262 NA
ATOM     33  C30 ZIN A   1      16.332  -3.264   3.535  0.00  0.00     0.154 A 
ENDBRANCH  24  27
ENDBRANCH  22  23
ENDBRANCH  21  22
ENDBRANCH   1  21
TORSDOF 7
ENDMDL
MODEL 4
REMARK VINA RESULT:      -8.9      3.237      9.482
REMARK  7 active torsions:
REMARK  status: ('A' for Active; 'I' for Inactive)
REMARK    1  A    between atoms: C5_5  and  C6_6 
REMARK       I    between atoms: C6_6  and  N8_8 
REMARK    2  A    between atoms: N8_8  and  C9_9 
REMARK    3  A    between atoms: C9_9  and  C10_10 
REMARK    4  A    between atoms: C10_10  and  C11_11 
REMARK    5  A    between atoms: C14_14  and  S15_15 
REMARK    6  A    between atoms: S15_15  and  N18_18 
REMARK       I    between atoms: N18_18  and  C19_19 
REMARK       I    between atoms: C19_19  and  N21_21 
REMARK    7  A    between atoms: N21_21  and  C22_22 
ROOT
ATOM      1  C11 ZIN A   1      18.163   0.233   6.397  0.00  0.00    -0.057 A 
ATOM      2  C12 ZIN A   1      19.114   1.199   6.673  0.00  0.00     0.009 A 
ATOM      3  C13 ZIN A   1      19.183   1.759   7.934  0.00  0.00     0.026 A 
ATOM      4  C14 ZIN A   1      18.303   1.355   8.921  0.00  0.00     0.081 A 
ATOM      5  C28 ZIN A   1      17.351   0.390   8.644  0.00  0.00     0.026 A 
ATOM      6  C29 ZIN A   1      17.280  -0.167   7.381  0.00  0.00     0.009 A 
ENDROOT
BRANCH   4   7
ATOM      7  S15 ZIN A   1      18.392   2.069  10.528  0.00  0.00     0.287 S 
ATOM      8  O16 ZIN A   1      19.572   2.944  10.612  0.00  0.00    -0.198 OA
ATOM      9  O17 ZIN A   1      17.176   2.860  10.782  0.00  0.00    -0.198 OA
BRANCH   7  10
ATOM     10  N18 ZIN A   1      18.504   0.985  11.549  0.00  0.00    -0.102 NA
ATOM     11  C19 ZIN A   1      18.216   1.240  12.827  0.00  0.00     0.353 C 
ATOM     12  O20 ZIN A   1      17.865   2.357  13.161  0.00  0.00    -0.244 OA
ATOM     13  N21 ZIN A   1      18.317   0.262  13.749  0.00  0.00    -0.336 N 
ATOM     14  H43 ZIN A   1      18.597  -0.628  13.483  0.00  0.00     0.164 HD
BRANCH  13  15
ATOM     15  C22 ZIN A   1      18.003   0.542  15.152  0.00  0.00     0.086 C 
ATOM     16  C27 ZIN A   1      19.215   1.186  15.827  0.00  0.00     0.025 C 
ATOM     17  C26 ZIN A   1      18.886   1.479  17.292  0.00  0.00     0.002 C 
ATOM     18  C25 ZIN A   1      18.539   0.172  18.008  0.00  0.00     0.000 C 
ATOM     19  C24 ZIN A   1      17.327  -0.472  17.333  0.00  0.00     0.002 C 
ATOM     20  C23 ZIN A   1      17.656  -0.766  15.868  0.00  0.00     0.025 C 
ENDBRANCH  13  15
ENDBRANCH   7  10
ENDBRANCH   4   7
BRANCH   1  21
ATOM     21  C10 ZIN A   1      18.087  -0.379   5.022  0.00  0.00     0.058 C 
BRANCH  21  22
ATOM     22  C9  ZIN A   1      18.702  -1.780   5.055  0.00  0.00     0.127 C 
BRANCH  22  23
ATOM     23  N8  ZIN A   1      18.275  -2.471   6.274  0.00  0.00    -0.355 N 
ATOM     24  C6  ZIN A   1      19.110  -3.333   6.888  0.00  0.00     0.271 C 
ATOM     25  O7  ZIN A   1      20.217  -3.536   6.429  0.00  0.00    -0.266 OA
ATOM     26  H36 ZIN A   1      17.392  -2.309   6.640  0.00  0.00     0.162 HD
BRANCH  24  27
ATOM     27  C5  ZIN A   1      18.679  -4.032   8.121  0.00  0.00     0.141 A 
ATOM     28  N4  ZIN A   1      17.671  -3.550   8.843  0.00  0.00    -0.252 NA
ATOM     29  C3  ZIN A   1      17.291  -4.174   9.940  0.00  0.00     0.144 A 
ATOM     30  C2  ZIN A   1      17.939  -5.333  10.342  0.00  0.00     0.048 A 
ATOM     31  C1  ZIN A   1      17.500  -6.042  11.597  0.00  0.00     0.072 C 
ATOM     32  N31 ZIN A   1      18.944  -5.813   9.631  0.00  0.00    -0.262 NA
ATOM     33  C30 ZIN A   1      19.328  -5.197   8.527  0.00  0.00     0.154 A 
ENDBRANCH  24  27
ENDBRANCH  22  23
ENDBRANCH  21  22
ENDBRANCH   1  21
TORSDOF 7
ENDMDL
MODEL 5
REMARK VINA RESULT:      -8.8      2.275     10.605
REMARK  7 active torsions:
REMARK  status: ('A' for Active; 'I' for Inactive)
REMARK    1  A    between atoms: C5_5  and  C6_6 
REMARK       I    between atoms: C6_6  and  N8_8 
REMARK    2  A    between atoms: N8_8  and  C9_9 
REMARK    3  A    between atoms: C9_9  and  C10_10 
REMARK    4  A    between atoms: C10_10  and  C11_11 
REMARK    5  A    between atoms: C14_14  and  S15_15 
REMARK    6  A    between atoms: S15_15  and  N18_18 
REMARK       I    between atoms: N18_18  and  C19_19 
REMARK       I    between atoms: C19_19  and  N21_21 
REMARK    7  A    between atoms: N21_21  and  C22_22 
ROOT
ATOM      1  C11 ZIN A   1      18.721   0.577   8.624  0.00  0.00    -0.057 A 
ATOM      2  C12 ZIN A   1      19.839  -0.169   8.947  0.00  0.00     0.009 A 
ATOM      3  C13 ZIN A   1      19.760  -1.146   9.921  0.00  0.00     0.026 A 
ATOM      4  C14 ZIN A   1      18.563  -1.379  10.573  0.00  0.00     0.081 A 
ATOM      5  C28 ZIN A   1      17.445  -0.631  10.251  0.00  0.00     0.026 A 
ATOM      6  C29 ZIN A   1      17.525   0.348   9.279  0.00  0.00     0.009 A 
ENDROOT
BRANCH   4   7
ATOM      7  S15 ZIN A   1      18.463  -2.624  11.815  0.00  0.00     0.287 S 
ATOM      8  O16 ZIN A   1      17.632  -3.736  11.328  0.00  0.00    -0.198 OA
ATOM      9  O17 ZIN A   1      19.814  -3.119  12.123  0.00  0.00    -0.198 OA
BRANCH   7  10
ATOM     10  N18 ZIN A   1      17.850  -2.049  13.049  0.00  0.00    -0.102 NA
ATOM     11  C19 ZIN A   1      18.580  -1.284  13.862  0.00  0.00     0.353 C 
ATOM     12  O20 ZIN A   1      19.747  -1.056  13.599  0.00  0.00    -0.244 OA
ATOM     13  N21 ZIN A   1      18.027  -0.765  14.977  0.00  0.00    -0.336 N 
ATOM     14  H43 ZIN A   1      17.097  -0.946  15.186  0.00  0.00     0.164 HD
BRANCH  13  15
ATOM     15  C22 ZIN A   1      18.830   0.074  15.870  0.00  0.00     0.086 C 
ATOM     16  C27 ZIN A   1      18.553  -0.319  17.323  0.00  0.00     0.025 C 
ATOM     17  C26 ZIN A   1      19.392   0.556  18.256  0.00  0.00     0.002 C 
ATOM     18  C25 ZIN A   1      19.020   2.026  18.046  0.00  0.00     0.000 C 
ATOM     19  C24 ZIN A   1      19.296   2.419  16.594  0.00  0.00     0.002 C 
ATOM     20  C23 ZIN A   1      18.458   1.543  15.661  0.00  0.00     0.025 C 
ENDBRANCH  13  15
ENDBRANCH   7  10
ENDBRANCH   4   7
BRANCH   1  21
ATOM     21  C10 ZIN A   1      18.806   1.642   7.561  0.00  0.00     0.058 C 
BRANCH  21  22
ATOM     22  C9  ZIN A   1      19.281   1.014   6.249  0.00  0.00     0.127 C 
BRANCH  22  23
ATOM     23  N8  ZIN A   1      18.494  -0.191   5.972  0.00  0.00    -0.355 N 
ATOM     24  C6  ZIN A   1      18.955  -1.111   5.102  0.00  0.00     0.271 C 
ATOM     25  O7  ZIN A   1      20.023  -0.941   4.547  0.00  0.00    -0.266 OA
ATOM     26  H36 ZIN A   1      17.642  -0.327   6.414  0.00  0.00     0.162 HD
BRANCH  24  27
ATOM     27  C5  ZIN A   1      18.161  -2.330   4.821  0.00  0.00     0.141 A 
ATOM     28  N4  ZIN A   1      18.556  -3.507   5.297  0.00  0.00    -0.252 NA
ATOM     29  C3  ZIN A   1      17.847  -4.590   5.045  0.00  0.00     0.144 A 
ATOM     30  C2  ZIN A   1      16.690  -4.503   4.286  0.00  0.00     0.048 A 
ATOM     31  C1  ZIN A   1      15.884  -5.744   4.001  0.00  0.00     0.072 C 
ATOM     32  N31 ZIN A   1      16.296  -3.336   3.806  0.00  0.00    -0.262 NA
ATOM     33  C30 ZIN A   1      16.997  -2.245   4.058  0.00  0.00     0.154 A 
ENDBRANCH  24  27
ENDBRANCH  22  23
ENDBRANCH  21  22
ENDBRANCH   1  21
TORSDOF 7
ENDMDL
MODEL 6
REMARK VINA RESULT:      -8.7      3.906      6.289
REMARK  7 active torsions:
REMARK  status: ('A' for Active; 'I' for Inactive)
REMARK    1  A    between atoms: C5_5  and  C6_6 
REMARK       I    between atoms: C6_6  and  N8_8 
REMARK    2  A    between atoms: N8_8  and  C9_9 
REMARK    3  A    between atoms: C9_9  and  C10_10 
REMARK    4  A    between atoms: C10_10  and  C11_11 
REMARK    5  A    between atoms: C14_14  and  S15_15 
REMARK    6  A    between atoms: S15_15  and  N18_18 
REMARK       I    between atoms: N18_18  and  C19_19 
REMARK       I    between atoms: C19_19  and  N21_21 
REMARK    7  A    between atoms: N21_21  and  C22_22 
ROOT
ATOM      1  C11 ZIN A   1      18.978  -0.518  14.518  0.00  0.00    -0.057 A 
ATOM      2  C12 ZIN A   1      20.004   0.148  13.872  0.00  0.00     0.009 A 
ATOM      3  C13 ZIN A   1      19.718   1.019  12.838  0.00  0.00     0.026 A 
ATOM      4  C14 ZIN A   1      18.407   1.225  12.448  0.00  0.00     0.081 A 
ATOM      5  C28 ZIN A   1      17.382   0.558  13.093  0.00  0.00     0.026 A 
ATOM      6  C29 ZIN A   1      17.669  -0.316  14.125  0.00  0.00     0.009 A 
ENDROOT
BRANCH   4   7
ATOM      7  S15 ZIN A   1      18.043   2.335  11.130  0.00  0.00     0.287 S 
ATOM      8  O16 ZIN A   1      17.061   3.331  11.584  0.00  0.00    -0.198 OA
ATOM      9  O17 ZIN A   1      19.277   3.019  10.710  0.00  0.00    -0.198 OA
BRANCH   7  10
ATOM     10  N18 ZIN A   1      17.481   1.572   9.976  0.00  0.00    -0.102 NA
ATOM     11  C19 ZIN A   1      18.299   0.990   9.098  0.00  0.00     0.353 C 
ATOM     12  O20 ZIN A   1      19.505   1.083   9.236  0.00  0.00    -0.244 OA
ATOM     13  N21 ZIN A   1      17.792   0.301   8.056  0.00  0.00    -0.336 N 
ATOM     14  H43 ZIN A   1      16.830   0.227   7.947  0.00  0.00     0.164 HD
BRANCH  13  15
ATOM     15  C22 ZIN A   1      18.691  -0.336   7.092  0.00  0.00     0.086 C 
ATOM     16  C27 ZIN A   1      18.444   0.250   5.700  0.00  0.00     0.025 C 
ATOM     17  C26 ZIN A   1      19.383  -0.415   4.693  0.00  0.00     0.002 C 
ATOM     18  C25 ZIN A   1      19.116  -1.922   4.666  0.00  0.00     0.000 C 
ATOM     19  C24 ZIN A   1      19.364  -2.508   6.056  0.00  0.00     0.002 C 
ATOM     20  C23 ZIN A   1      18.424  -1.843   7.065  0.00  0.00     0.025 C 
ENDBRANCH  13  15
ENDBRANCH   7  10
ENDBRANCH   4   7
BRANCH   1  21
ATOM     21  C10 ZIN A   1      19.289  -1.467  15.646  0.00  0.00     0.058 C 
BRANCH  21  22
ATOM     22  C9  ZIN A   1      18.868  -0.834  16.974  0.00  0.00     0.127 C 
BRANCH  22  23
ATOM     23  N8  ZIN A   1      18.622   0.597  16.775  0.00  0.00    -0.355 N 
ATOM     24  C6  ZIN A   1      19.213   1.501  17.583  0.00  0.00     0.271 C 
ATOM     25  O7  ZIN A   1      19.949   1.128  18.475  0.00  0.00    -0.266 OA
ATOM     26  H36 ZIN A   1      18.035   0.895  16.063  0.00  0.00     0.162 HD
BRANCH  24  27
ATOM     27  C5  ZIN A   1      18.965   2.948  17.382  0.00  0.00     0.141 A 
ATOM     28  N4  ZIN A   1      19.668   3.625  16.478  0.00  0.00    -0.252 NA
ATOM     29  C3  ZIN A   1      19.445   4.912  16.303  0.00  0.00     0.144 A 
ATOM     30  C2  ZIN A   1      18.480   5.562  17.058  0.00  0.00     0.048 A 
ATOM     31  C1  ZIN A   1      18.230   7.034  16.854  0.00  0.00     0.072 C 
ATOM     32  N31 ZIN A   1      17.782   4.894  17.961  0.00  0.00    -0.262 NA
ATOM     33  C30 ZIN A   1      17.995   3.603  18.140  0.00  0.00     0.154 A 
ENDBRANCH  24  27
ENDBRANCH  22  23
ENDBRANCH  21  22
ENDBRANCH   1  21
TORSDOF 7
ENDMDL
MODEL 7
REMARK VINA RESULT:      -8.6      5.783     10.597
REMARK  7 active torsions:
REMARK  status: ('A' for Active; 'I' for Inactive)
REMARK    1  A    between atoms: C5_5  and  C6_6 
REMARK       I    between atoms: C6_6  and  N8_8 
REMARK    2  A    between atoms: N8_8  and  C9_9 
REMARK    3  A    between atoms: C9_9  and  C10_10 
REMARK    4  A    between atoms: C10_10  and  C11_11 
REMARK    5  A    between atoms: C14_14  and  S15_15 
REMARK    6  A    between atoms: S15_15  and  N18_18 
REMARK       I    between atoms: N18_18  and  C19_19 
REMARK       I    between atoms: C19_19  and  N21_21 
REMARK    7  A    between atoms: N21_21  and  C22_22 
ROOT
ATOM      1  C11 ZIN A   1      18.046   4.338  11.655  0.00  0.00    -0.057 A 
ATOM      2  C12 ZIN A   1      19.383   4.340  12.009  0.00  0.00     0.009 A 
ATOM      3  C13 ZIN A   1      19.757   4.708  13.288  0.00  0.00     0.026 A 
ATOM      4  C14 ZIN A   1      18.797   5.073  14.213  0.00  0.00     0.081 A 
ATOM      5  C28 ZIN A   1      17.460   5.071  13.858  0.00  0.00     0.026 A 
ATOM      6  C29 ZIN A   1      17.086   4.707  12.578  0.00  0.00     0.009 A 
ENDROOT
BRANCH   4   7
ATOM      7  S15 ZIN A   1      19.275   5.541  15.842  0.00  0.00     0.287 S 
ATOM      8  O16 ZIN A   1      20.703   5.247  16.038  0.00  0.00    -0.198 OA
ATOM      9  O17 ZIN A   1      19.041   6.982  16.027  0.00  0.00    -0.198 OA
BRANCH   7  10
ATOM     10  N18 ZIN A   1      18.468   4.774  16.838  0.00  0.00    -0.102 NA
ATOM     11  C19 ZIN A   1      18.526   3.441  16.859  0.00  0.00     0.353 C 
ATOM     12  O20 ZIN A   1      19.236   2.850  16.065  0.00  0.00    -0.244 OA
ATOM     13  N21 ZIN A   1      17.797   2.748  17.756  0.00  0.00    -0.336 N 
ATOM     14  H43 ZIN A   1      17.232   3.219  18.389  0.00  0.00     0.164 HD
BRANCH  13  15
ATOM     15  C22 ZIN A   1      17.861   1.285  17.778  0.00  0.00     0.086 C 
ATOM     16  C27 ZIN A   1      19.262   0.841  18.203  0.00  0.00     0.025 C 
ATOM     17  C26 ZIN A   1      19.328  -0.687  18.226  0.00  0.00     0.002 C 
ATOM     18  C25 ZIN A   1      19.023  -1.231  16.829  0.00  0.00     0.000 C 
ATOM     19  C24 ZIN A   1      17.622  -0.789  16.405  0.00  0.00     0.002 C 
ATOM     20  C23 ZIN A   1      17.555   0.740  16.381  0.00  0.00     0.025 C 
ENDBRANCH  13  15
ENDBRANCH   7  10
ENDBRANCH   4   7
BRANCH   1  21
ATOM     21  C10 ZIN A   1      17.637   3.936  10.261  0.00  0.00     0.058 C 
BRANCH  21  22
ATOM     22  C9  ZIN A   1      18.670   2.965   9.687  0.00  0.00     0.127 C 
BRANCH  22  23
ATOM     23  N8  ZIN A   1      18.212   1.589   9.892  0.00  0.00    -0.355 N 
ATOM     24  C6  ZIN A   1      18.954   0.733  10.625  0.00  0.00     0.271 C 
ATOM     25  O7  ZIN A   1      20.002   1.106  11.114  0.00  0.00    -0.266 OA
ATOM     26  H36 ZIN A   1      17.376   1.291   9.502  0.00  0.00     0.162 HD
BRANCH  24  27
ATOM     27  C5  ZIN A   1      18.492  -0.658  10.833  0.00  0.00     0.141 A 
ATOM     28  N4  ZIN A   1      19.104  -1.664  10.212  0.00  0.00    -0.252 NA
ATOM     29  C3  ZIN A   1      18.689  -2.901  10.399  0.00  0.00     0.144 A 
ATOM     30  C2  ZIN A   1      17.618  -3.157  11.241  0.00  0.00     0.048 A 
ATOM     31  C1  ZIN A   1      17.148  -4.573  11.451  0.00  0.00     0.072 C 
ATOM     32  N31 ZIN A   1      17.003  -2.161  11.856  0.00  0.00    -0.262 NA
ATOM     33  C30 ZIN A   1      17.415  -0.918  11.679  0.00  0.00     0.154 A 
ENDBRANCH  24  27
ENDBRANCH  22  23
ENDBRANCH  21  22
ENDBRANCH   1  21
TORSDOF 7
ENDMDL
MODEL 8
REMARK VINA RESULT:      -8.5      4.325      6.963
REMARK  7 active torsions:
REMARK  status: ('A' for Active; 'I' for Inactive)
REMARK    1  A    between atoms: C5_5  and  C6_6 
REMARK       I    between atoms: C6_6  and  N8_8 
REMARK    2  A    between atoms: N8_8  and  C9_9 
REMARK    3  A    between atoms: C9_9  and  C10_10 
REMARK    4  A    between atoms: C10_10  and  C11_11 
REMARK    5  A    between atoms: C14_14  and  S15_15 
REMARK    6  A    between atoms: S15_15  and  N18_18 
REMARK       I    between atoms: N18_18  and  C19_19 
REMARK       I    between atoms: C19_19  and  N21_21 
REMARK    7  A    between atoms: N21_21  and  C22_22 
ROOT
ATOM      1  C11 ZIN A   1      18.460  -0.183  14.934  0.00  0.00    -0.057 A 
ATOM      2  C12 ZIN A   1      17.284   0.434  14.550  0.00  0.00     0.009 A 
ATOM      3  C13 ZIN A   1      17.307   1.426  13.588  0.00  0.00     0.026 A 
ATOM      4  C14 ZIN A   1      18.506   1.801  13.009  0.00  0.00     0.081 A 
ATOM      5  C28 ZIN A   1      19.682   1.184  13.395  0.00  0.00     0.026 A 
ATOM      6  C29 ZIN A   1      19.659   0.195  14.360  0.00  0.00     0.009 A 
ENDROOT
BRANCH   4   7
ATOM      7  S15 ZIN A   1      18.535   3.065  11.783  0.00  0.00     0.287 S 
ATOM      8  O16 ZIN A   1      17.156   3.412  11.403  0.00  0.00    -0.198 OA
ATOM      9  O17 ZIN A   1      19.210   4.256  12.322  0.00  0.00    -0.198 OA
BRANCH   7  10
ATOM     10  N18 ZIN A   1      19.273   2.575  10.580  0.00  0.00    -0.102 NA
ATOM     11  C19 ZIN A   1      18.672   1.756   9.716  0.00  0.00     0.353 C 
ATOM     12  O20 ZIN A   1      17.521   1.406   9.908  0.00  0.00    -0.244 OA
ATOM     13  N21 ZIN A   1      19.338   1.313   8.631  0.00  0.00    -0.336 N 
ATOM     14  H43 ZIN A   1      20.255   1.592   8.478  0.00  0.00     0.164 HD
BRANCH  13  15
ATOM     15  C22 ZIN A   1      18.678   0.413   7.683  0.00  0.00     0.086 C 
ATOM     16  C27 ZIN A   1      19.268  -0.993   7.818  0.00  0.00     0.025 C 
ATOM     17  C26 ZIN A   1      18.578  -1.932   6.828  0.00  0.00     0.002 C 
ATOM     18  C25 ZIN A   1      18.799  -1.422   5.402  0.00  0.00     0.000 C 
ATOM     19  C24 ZIN A   1      18.209  -0.018   5.267  0.00  0.00     0.002 C 
ATOM     20  C23 ZIN A   1      18.899   0.923   6.257  0.00  0.00     0.025 C 
ENDBRANCH  13  15
ENDBRANCH   7  10
ENDBRANCH   4   7
BRANCH   1  21
ATOM     21  C10 ZIN A   1      18.435  -1.266  15.983  0.00  0.00     0.058 C 
BRANCH  21  22
ATOM     22  C9  ZIN A   1      18.916  -0.692  17.317  0.00  0.00     0.127 C 
BRANCH  22  23
ATOM     23  N8  ZIN A   1      18.169   0.532  17.619  0.00  0.00    -0.355 N 
ATOM     24  C6  ZIN A   1      18.776   1.552  18.258  0.00  0.00     0.271 C 
ATOM     25  O7  ZIN A   1      19.942   1.456  18.584  0.00  0.00    -0.266 OA
ATOM     26  H36 ZIN A   1      17.238   0.609  17.359  0.00  0.00     0.162 HD
BRANCH  24  27
ATOM     27  C5  ZIN A   1      18.021   2.790  18.563  0.00  0.00     0.141 A 
ATOM     28  N4  ZIN A   1      16.967   2.745  19.374  0.00  0.00    -0.252 NA
ATOM     29  C3  ZIN A   1      16.298   3.848  19.642  0.00  0.00     0.144 A 
ATOM     30  C2  ZIN A   1      16.690   5.055  19.082  0.00  0.00     0.048 A 
ATOM     31  C1  ZIN A   1      15.920   6.313  19.393  0.00  0.00     0.072 C 
ATOM     32  N31 ZIN A   1      17.733   5.104  18.273  0.00  0.00    -0.262 NA
ATOM     33  C30 ZIN A   1      18.413   4.004  18.002  0.00  0.00     0.154 A 
ENDBRANCH  24  27
ENDBRANCH  22  23
ENDBRANCH  21  22
ENDBRANCH   1  21
TORSDOF 7
ENDMDL
MODEL 9
REMARK VINA RESULT:      -8.5      3.651     10.386
REMARK  7 active torsions:
REMARK  status: ('A' for Active; 'I' for Inactive)
REMARK    1  A    between atoms: C5_5  and  C6_6 
REMARK       I    between atoms: C6_6  and  N8_8 
REMARK    2  A    between atoms: N8_8  and  C9_9 
REMARK    3  A    between atoms: C9_9  and  C10_10 
REMARK    4  A    between atoms: C10_10  and  C11_11 
REMARK    5  A    between atoms: C14_14  and  S15_15 
REMARK    6  A    between atoms: S15_15  and  N18_18 
REMARK       I    between atoms: N18_18  and  C19_19 
REMARK       I    between atoms: C19_19  and  N21_21 
REMARK    7  A    between atoms: N21_21  and  C22_22 
ROOT
ATOM      1  C11 ZIN A   1      18.186   0.431   8.488  0.00  0.00    -0.057 A 
ATOM      2  C12 ZIN A   1      19.035   1.508   8.308  0.00  0.00     0.009 A 
ATOM      3  C13 ZIN A   1      19.043   2.542   9.226  0.00  0.00     0.026 A 
ATOM      4  C14 ZIN A   1      18.203   2.500  10.324  0.00  0.00     0.081 A 
ATOM      5  C28 ZIN A   1      17.354   1.423  10.503  0.00  0.00     0.026 A 
ATOM      6  C29 ZIN A   1      17.343   0.391   9.583  0.00  0.00     0.009 A 
ENDROOT
BRANCH   4   7
ATOM      7  S15 ZIN A   1      18.214   3.817  11.493  0.00  0.00     0.287 S 
ATOM      8  O16 ZIN A   1      19.601   4.236  11.746  0.00  0.00    -0.198 OA
ATOM      9  O17 ZIN A   1      17.448   4.954  10.958  0.00  0.00    -0.198 OA
BRANCH   7  10
ATOM     10  N18 ZIN A   1      17.594   3.354  12.770  0.00  0.00    -0.102 NA
ATOM     11  C19 ZIN A   1      18.271   2.545  13.586  0.00  0.00     0.353 C 
ATOM     12  O20 ZIN A   1      19.394   2.181  13.289  0.00  0.00    -0.244 OA
ATOM     13  N21 ZIN A   1      17.711   2.126  14.739  0.00  0.00    -0.336 N 
ATOM     14  H43 ZIN A   1      16.816   2.416  14.976  0.00  0.00     0.164 HD
BRANCH  13  15
ATOM     15  C22 ZIN A   1      18.454   1.237  15.634  0.00  0.00     0.086 C 
ATOM     16  C27 ZIN A   1      17.699  -0.086  15.780  0.00  0.00     0.025 C 
ATOM     17  C26 ZIN A   1      18.476  -1.015  16.714  0.00  0.00     0.002 C 
ATOM     18  C25 ZIN A   1      18.617  -0.355  18.088  0.00  0.00     0.000 C 
ATOM     19  C24 ZIN A   1      19.372   0.967  17.942  0.00  0.00     0.002 C 
ATOM     20  C23 ZIN A   1      18.596   1.897  17.007  0.00  0.00     0.025 C 
ENDBRANCH  13  15
ENDBRANCH   7  10
ENDBRANCH   4   7
BRANCH   1  21
ATOM     21  C10 ZIN A   1      18.177  -0.697   7.489  0.00  0.00     0.058 C 
BRANCH  21  22
ATOM     22  C9  ZIN A   1      18.955  -1.885   8.057  0.00  0.00     0.127 C 
BRANCH  22  23
ATOM     23  N8  ZIN A   1      18.277  -3.131   7.690  0.00  0.00    -0.355 N 
ATOM     24  C6  ZIN A   1      17.803  -3.950   8.651  0.00  0.00     0.271 C 
ATOM     25  O7  ZIN A   1      17.939  -3.652   9.822  0.00  0.00    -0.266 OA
ATOM     26  H36 ZIN A   1      18.168  -3.369   6.756  0.00  0.00     0.162 HD
BRANCH  24  27
ATOM     27  C5  ZIN A   1      17.117  -5.209   8.281  0.00  0.00     0.141 A 
ATOM     28  N4  ZIN A   1      17.740  -6.110   7.525  0.00  0.00    -0.252 NA
ATOM     29  C3  ZIN A   1      17.126  -7.229   7.197  0.00  0.00     0.144 A 
ATOM     30  C2  ZIN A   1      15.833  -7.470   7.639  0.00  0.00     0.048 A 
ATOM     31  C1  ZIN A   1      15.137  -8.752   7.260  0.00  0.00     0.072 C 
ATOM     32  N31 ZIN A   1      15.209  -6.577   8.386  0.00  0.00    -0.262 NA
ATOM     33  C30 ZIN A   1      15.818  -5.454   8.724  0.00  0.00     0.154 A 
ENDBRANCH  24  27
ENDBRANCH  22  23
ENDBRANCH  21  22
ENDBRANCH   1  21
TORSDOF 7
ENDMDL
