MODEL 1
REMARK VINA RESULT:      -8.4      0.000      0.000
REMARK  10 active torsions:
REMARK  status: ('A' for Active; 'I' for Inactive)
REMARK    1  A    between atoms: C7_7  and  C9_8 
REMARK    2  A    between atoms: C9_8  and  N10_9 
REMARK    3  A    between atoms: N10_9  and  C11_10 
REMARK    4  A    between atoms: C14_13  and  C15_14 
REMARK       I    between atoms: C15_14  and  N17_16 
REMARK    5  A    between atoms: N17_16  and  C18_17 
REMARK    6  A    between atoms: C18_17  and  C20_18 
REMARK    7  A    between atoms: C18_17  and  C25_23 
REMARK    8  A    between atoms: C20_18  and  C21_19 
REMARK    9  A    between atoms: C21_19  and  C22_20 
REMARK   10  A    between atoms: C31_29  and  N32_30 
ROOT
ATOM      1  N10 RES d   1      18.011   2.540  10.046  0.00  0.00    -0.388 N 
ATOM      2  H44 RES d   1      18.039   3.466   9.761  0.00  0.00     0.159 HD
ENDROOT
BRANCH   1   3
ATOM      3  C9  RES d   1      17.736   2.214  11.448  0.00  0.00     0.146 C 
BRANCH   3   4
ATOM      4  C7  RES d   1      18.995   2.456  12.284  0.00  0.00     0.119 C 
ATOM      5  N2  RES d   1      19.478   1.176  12.825  0.00  0.00    -0.370 N 
ATOM      6  C1  RES d   1      20.648   0.511  12.245  0.00  0.00     0.150 C 
ATOM      7  C3  RES d   1      18.792   0.605  13.920  0.00  0.00     0.146 A 
ATOM      8  C34 RES d   1      18.992  -0.746  14.268  0.00  0.00     0.314 A 
ATOM      9  C4  RES d   1      17.926   1.359  14.658  0.00  0.00     0.149 A 
ATOM     10  N33 RES d   1      18.330  -1.261  15.317  0.00  0.00    -0.021 NA
ATOM     11  O35 RES d   1      19.763  -1.443  13.621  0.00  0.00    -0.263 OA
ATOM     12  C31 RES d   1      17.498  -0.526  16.022  0.00  0.00     0.703 A 
ATOM     13  N30 RES d   1      17.277   0.783  15.719  0.00  0.00    -0.173 N 
ATOM     14  H54 RES d   1      16.661   1.307  16.253  0.00  0.00     0.186 HD
ATOM     15  N5  RES d   1      17.707   2.684  14.336  0.00  0.00    -0.372 N 
ATOM     16  C6  RES d   1      18.664   3.377  13.463  0.00  0.00     0.148 C 
ATOM     17  H39 RES d   1      16.931   3.151  14.683  0.00  0.00     0.161 HD
BRANCH  12  18
ATOM     18  N32 RES d   1      16.840  -1.089  17.086  0.00  0.00    -0.233 N 
ATOM     19  H55 RES d   1      17.205  -1.875  17.520  0.00  0.00     0.174 HD
ATOM     20  H56 RES d   1      16.011  -0.700  17.403  0.00  0.00     0.174 HD
ENDBRANCH  12  18
ENDBRANCH   3   4
ENDBRANCH   1   3
BRANCH   1  21
ATOM     21  C11 RES d   1      18.233   1.522   9.126  0.00  0.00     0.028 A 
ATOM     22  C29 RES d   1      17.649   0.273   9.318  0.00  0.00     0.030 A 
ATOM     23  C28 RES d   1      17.861  -0.735   8.406  0.00  0.00     0.019 A 
ATOM     24  C14 RES d   1      18.674  -0.508   7.292  0.00  0.00     0.032 A 
ATOM     25  C13 RES d   1      19.264   0.745   7.105  0.00  0.00     0.019 A 
ATOM     26  C12 RES d   1      19.043   1.752   8.017  0.00  0.00     0.030 A 
BRANCH  24  27
ATOM     27  C15 RES d   1      18.910  -1.589   6.317  0.00  0.00     0.252 C 
ATOM     28  O16 RES d   1      19.702  -1.426   5.407  0.00  0.00    -0.268 OA
ATOM     29  N17 RES d   1      18.249  -2.758   6.432  0.00  0.00    -0.342 N 
ATOM     30  H47 RES d   1      17.618  -2.888   7.156  0.00  0.00     0.163 HD
BRANCH  29  31
ATOM     31  C18 RES d   1      18.483  -3.830   5.462  0.00  0.00     0.186 C 
BRANCH  31  32
ATOM     32  C20 RES d   1      18.759  -5.139   6.207  0.00  0.00     0.046 C 
BRANCH  32  33
ATOM     33  C21 RES d   1      20.087  -5.028   6.958  0.00  0.00     0.116 C 
BRANCH  33  34
ATOM     34  C22 RES d   1      19.855  -5.270   8.428  0.00  0.00     0.172 C 
ATOM     35  O23 RES d   1      20.241  -6.306   8.943  0.00  0.00    -0.648 OA
ATOM     36  O24 RES d   1      19.284  -4.430   9.101  0.00  0.00    -0.648 OA
ENDBRANCH  33  34
ENDBRANCH  32  33
ENDBRANCH  31  32
BRANCH  31  37
ATOM     37  C25 RES d   1      17.265  -3.996   4.592  0.00  0.00     0.196 C 
ATOM     38  O26 RES d   1      17.011  -3.168   3.734  0.00  0.00    -0.646 OA
ATOM     39  O27 RES d   1      16.534  -4.960   4.743  0.00  0.00    -0.646 OA
ENDBRANCH  31  37
ENDBRANCH  29  31
ENDBRANCH  24  27
ENDBRANCH   1  21
TORSDOF 10
ENDMDL
MODEL 2
REMARK VINA RESULT:      -8.3      3.718      9.137
REMARK  10 active torsions:
REMARK  status: ('A' for Active; 'I' for Inactive)
REMARK    1  A    between atoms: C7_7  and  C9_8 
REMARK    2  A    between atoms: C9_8  and  N10_9 
REMARK    3  A    between atoms: N10_9  and  C11_10 
REMARK    4  A    between atoms: C14_13  and  C15_14 
REMARK       I    between atoms: C15_14  and  N17_16 
REMARK    5  A    between atoms: N17_16  and  C18_17 
REMARK    6  A    between atoms: C18_17  and  C20_18 
REMARK    7  A    between atoms: C18_17  and  C25_23 
REMARK    8  A    between atoms: C20_18  and  C21_19 
REMARK    9  A    between atoms: C21_19  and  C22_20 
REMARK   10  A    between atoms: C31_29  and  N32_30 
ROOT
ATOM      1  N10 RES d   1      19.101   2.385   8.741  0.00  0.00    -0.388 N 
ATOM      2  H44 RES d   1      19.254   2.972   7.985  0.00  0.00     0.159 HD
ENDROOT
BRANCH   1   3
ATOM      3  C9  RES d   1      19.183   0.932   8.570  0.00  0.00     0.146 C 
BRANCH   3   4
ATOM      4  C7  RES d   1      17.773   0.337   8.585  0.00  0.00     0.119 C 
ATOM      5  N2  RES d   1      17.635  -0.569   9.737  0.00  0.00    -0.370 N 
ATOM      6  C1  RES d   1      16.888  -0.157  10.928  0.00  0.00     0.150 C 
ATOM      7  C3  RES d   1      18.234  -1.845   9.666  0.00  0.00     0.146 A 
ATOM      8  C34 RES d   1      18.420  -2.618  10.831  0.00  0.00     0.314 A 
ATOM      9  C4  RES d   1      18.640  -2.349   8.464  0.00  0.00     0.149 A 
ATOM     10  N33 RES d   1      18.989  -3.831  10.733  0.00  0.00    -0.021 NA
ATOM     11  O35 RES d   1      18.066  -2.188  11.920  0.00  0.00    -0.263 OA
ATOM     12  C31 RES d   1      19.376  -4.307   9.569  0.00  0.00     0.703 A 
ATOM     13  N30 RES d   1      19.215  -3.593   8.422  0.00  0.00    -0.173 N 
ATOM     14  H54 RES d   1      19.506  -3.964   7.575  0.00  0.00     0.186 HD
ATOM     15  N5  RES d   1      18.475  -1.612   7.308  0.00  0.00    -0.372 N 
ATOM     16  C6  RES d   1      17.541  -0.478   7.309  0.00  0.00     0.148 C 
ATOM     17  H39 RES d   1      18.970  -1.841   6.506  0.00  0.00     0.161 HD
BRANCH  12  18
ATOM     18  N32 RES d   1      19.953  -5.550   9.511  0.00  0.00    -0.233 N 
ATOM     19  H55 RES d   1      20.908  -5.648   9.652  0.00  0.00     0.174 HD
ATOM     20  H56 RES d   1      19.407  -6.330   9.329  0.00  0.00     0.174 HD
ENDBRANCH  12  18
ENDBRANCH   3   4
ENDBRANCH   1   3
BRANCH   1  21
ATOM     21  C11 RES d   1      18.802   2.922   9.989  0.00  0.00     0.028 A 
ATOM     22  C29 RES d   1      17.779   3.857  10.116  0.00  0.00     0.030 A 
ATOM     23  C28 RES d   1      17.477   4.385  11.349  0.00  0.00     0.019 A 
ATOM     24  C14 RES d   1      18.207   3.991  12.474  0.00  0.00     0.032 A 
ATOM     25  C13 RES d   1      19.238   3.057  12.343  0.00  0.00     0.019 A 
ATOM     26  C12 RES d   1      19.531   2.527  11.107  0.00  0.00     0.030 A 
BRANCH  24  27
ATOM     27  C15 RES d   1      17.891   4.562  13.797  0.00  0.00     0.252 C 
ATOM     28  O16 RES d   1      16.831   5.130  13.977  0.00  0.00    -0.268 OA
ATOM     29  N17 RES d   1      18.777   4.455  14.808  0.00  0.00    -0.342 N 
ATOM     30  H47 RES d   1      19.623   4.003  14.665  0.00  0.00     0.163 HD
BRANCH  29  31
ATOM     31  C18 RES d   1      18.463   5.023  16.120  0.00  0.00     0.186 C 
BRANCH  31  32
ATOM     32  C20 RES d   1      18.892   4.044  17.215  0.00  0.00     0.046 C 
BRANCH  32  33
ATOM     33  C21 RES d   1      19.416   2.758  16.572  0.00  0.00     0.116 C 
BRANCH  33  34
ATOM     34  C22 RES d   1      19.269   1.614  17.543  0.00  0.00     0.172 C 
ATOM     35  O23 RES d   1      19.712   1.715  18.675  0.00  0.00    -0.648 OA
ATOM     36  O24 RES d   1      18.708   0.590  17.196  0.00  0.00    -0.648 OA
ENDBRANCH  33  34
ENDBRANCH  32  33
ENDBRANCH  31  32
BRANCH  31  37
ATOM     37  C25 RES d   1      19.200   6.325  16.295  0.00  0.00     0.196 C 
ATOM     38  O26 RES d   1      20.419   6.335  16.328  0.00  0.00    -0.646 OA
ATOM     39  O27 RES d   1      18.579   7.368  16.402  0.00  0.00    -0.646 OA
ENDBRANCH  31  37
ENDBRANCH  29  31
ENDBRANCH  24  27
ENDBRANCH   1  21
TORSDOF 10
ENDMDL
MODEL 3
REMARK VINA RESULT:      -7.9      2.083      2.930
REMARK  10 active torsions:
REMARK  status: ('A' for Active; 'I' for Inactive)
REMARK    1  A    between atoms: C7_7  and  C9_8 
REMARK    2  A    between atoms: C9_8  and  N10_9 
REMARK    3  A    between atoms: N10_9  and  C11_10 
REMARK    4  A    between atoms: C14_13  and  C15_14 
REMARK       I    between atoms: C15_14  and  N17_16 
REMARK    5  A    between atoms: N17_16  and  C18_17 
REMARK    6  A    between atoms: C18_17  and  C20_18 
REMARK    7  A    between atoms: C18_17  and  C25_23 
REMARK    8  A    between atoms: C20_18  and  C21_19 
REMARK    9  A    between atoms: C21_19  and  C22_20 
REMARK   10  A    between atoms: C31_29  and  N32_30 
ROOT
ATOM      1  N10 RES d   1      19.378   2.195   8.908  0.00  0.00    -0.388 N 
ATOM      2  H44 RES d   1      19.550   3.089   8.573  0.00  0.00     0.159 HD
ENDROOT
BRANCH   1   3
ATOM      3  C9  RES d   1      19.258   1.963  10.350  0.00  0.00     0.146 C 
BRANCH   3   4
ATOM      4  C7  RES d   1      17.790   2.093  10.765  0.00  0.00     0.119 C 
ATOM      5  N2  RES d   1      17.637   3.243  11.671  0.00  0.00    -0.370 N 
ATOM      6  C1  RES d   1      17.050   4.498  11.194  0.00  0.00     0.150 C 
ATOM      7  C3  RES d   1      18.063   3.108  13.010  0.00  0.00     0.146 A 
ATOM      8  C34 RES d   1      18.248   4.244  13.824  0.00  0.00     0.314 A 
ATOM      9  C4  RES d   1      18.301   1.870  13.535  0.00  0.00     0.149 A 
ATOM     10  N33 RES d   1      18.650   4.086  15.095  0.00  0.00    -0.021 NA
ATOM     11  O35 RES d   1      18.042   5.364  13.376  0.00  0.00    -0.263 OA
ATOM     12  C31 RES d   1      18.875   2.888  15.591  0.00  0.00     0.703 A 
ATOM     13  N30 RES d   1      18.709   1.766  14.839  0.00  0.00    -0.173 N 
ATOM     14  H54 RES d   1      18.880   0.893  15.226  0.00  0.00     0.186 HD
ATOM     15  N5  RES d   1      18.134   0.740  12.759  0.00  0.00    -0.372 N 
ATOM     16  C6  RES d   1      17.352   0.832  11.518  0.00  0.00     0.148 C 
ATOM     17  H39 RES d   1      18.527  -0.104  13.031  0.00  0.00     0.161 HD
BRANCH  12  18
ATOM     18  N32 RES d   1      19.285   2.768  16.895  0.00  0.00    -0.233 N 
ATOM     19  H55 RES d   1      19.173   3.510  17.509  0.00  0.00     0.174 HD
ATOM     20  H56 RES d   1      19.687   1.941  17.202  0.00  0.00     0.174 HD
ENDBRANCH  12  18
ENDBRANCH   3   4
ENDBRANCH   1   3
BRANCH   1  21
ATOM     21  C11 RES d   1      19.249   1.133   8.019  0.00  0.00     0.028 A 
ATOM     22  C29 RES d   1      18.944   1.378   6.684  0.00  0.00     0.030 A 
ATOM     23  C28 RES d   1      18.821   0.330   5.801  0.00  0.00     0.019 A 
ATOM     24  C14 RES d   1      18.991  -0.983   6.250  0.00  0.00     0.032 A 
ATOM     25  C13 RES d   1      19.291  -1.227   7.593  0.00  0.00     0.019 A 
ATOM     26  C12 RES d   1      19.419  -0.173   8.470  0.00  0.00     0.030 A 
BRANCH  24  27
ATOM     27  C15 RES d   1      18.853  -2.109   5.307  0.00  0.00     0.252 C 
ATOM     28  O16 RES d   1      19.556  -2.163   4.316  0.00  0.00    -0.268 OA
ATOM     29  N17 RES d   1      17.947  -3.079   5.544  0.00  0.00    -0.342 N 
ATOM     30  H47 RES d   1      17.386  -3.036   6.333  0.00  0.00     0.163 HD
BRANCH  29  31
ATOM     31  C18 RES d   1      17.809  -4.196   4.606  0.00  0.00     0.186 C 
BRANCH  31  32
ATOM     32  C20 RES d   1      17.786  -5.514   5.385  0.00  0.00     0.046 C 
BRANCH  32  33
ATOM     33  C21 RES d   1      17.719  -5.219   6.885  0.00  0.00     0.116 C 
BRANCH  33  34
ATOM     34  C22 RES d   1      18.992  -5.682   7.546  0.00  0.00     0.172 C 
ATOM     35  O23 RES d   1      19.981  -5.908   6.871  0.00  0.00    -0.648 OA
ATOM     36  O24 RES d   1      19.031  -5.829   8.756  0.00  0.00    -0.648 OA
ENDBRANCH  33  34
ENDBRANCH  32  33
ENDBRANCH  31  32
BRANCH  31  37
ATOM     37  C25 RES d   1      16.524  -4.049   3.833  0.00  0.00     0.196 C 
ATOM     38  O26 RES d   1      15.512  -4.607   4.221  0.00  0.00    -0.646 OA
ATOM     39  O27 RES d   1      16.497  -3.371   2.821  0.00  0.00    -0.646 OA
ENDBRANCH  31  37
ENDBRANCH  29  31
ENDBRANCH  24  27
ENDBRANCH   1  21
TORSDOF 10
ENDMDL
MODEL 4
REMARK VINA RESULT:      -7.9      4.152     10.485
REMARK  10 active torsions:
REMARK  status: ('A' for Active; 'I' for Inactive)
REMARK    1  A    between atoms: C7_7  and  C9_8 
REMARK    2  A    between atoms: C9_8  and  N10_9 
REMARK    3  A    between atoms: N10_9  and  C11_10 
REMARK    4  A    between atoms: C14_13  and  C15_14 
REMARK       I    between atoms: C15_14  and  N17_16 
REMARK    5  A    between atoms: N17_16  and  C18_17 
REMARK    6  A    between atoms: C18_17  and  C20_18 
REMARK    7  A    between atoms: C18_17  and  C25_23 
REMARK    8  A    between atoms: C20_18  and  C21_19 
REMARK    9  A    between atoms: C21_19  and  C22_20 
REMARK   10  A    between atoms: C31_29  and  N32_30 
ROOT
ATOM      1  N10 RES d   1      19.179  -1.734  13.656  0.00  0.00    -0.388 N 
ATOM      2  H44 RES d   1      19.277  -2.667  13.898  0.00  0.00     0.159 HD
ENDROOT
BRANCH   1   3
ATOM      3  C9  RES d   1      19.122  -1.346  12.244  0.00  0.00     0.146 C 
BRANCH   3   4
ATOM      4  C7  RES d   1      17.732  -1.658  11.685  0.00  0.00     0.119 C 
ATOM      5  N2  RES d   1      17.863  -2.237  10.338  0.00  0.00    -0.370 N 
ATOM      6  C1  RES d   1      17.678  -3.675  10.121  0.00  0.00     0.150 C 
ATOM      7  C3  RES d   1      18.166  -1.377   9.261  0.00  0.00     0.146 A 
ATOM      8  C34 RES d   1      18.621  -1.897   8.032  0.00  0.00     0.314 A 
ATOM      9  C4  RES d   1      18.018  -0.027   9.396  0.00  0.00     0.149 A 
ATOM     10  N33 RES d   1      18.897  -1.055   7.022  0.00  0.00    -0.021 NA
ATOM     11  O35 RES d   1      18.763  -3.103   7.886  0.00  0.00    -0.263 OA
ATOM     12  C31 RES d   1      18.751   0.245   7.163  0.00  0.00     0.703 A 
ATOM     13  N30 RES d   1      18.314   0.787   8.333  0.00  0.00    -0.173 N 
ATOM     14  H54 RES d   1      18.212   1.747   8.414  0.00  0.00     0.186 HD
ATOM     15  N5  RES d   1      17.579   0.510  10.590  0.00  0.00    -0.372 N 
ATOM     16  C6  RES d   1      16.918  -0.364  11.569  0.00  0.00     0.148 C 
ATOM     17  H39 RES d   1      17.704   1.453  10.779  0.00  0.00     0.161 HD
BRANCH  12  18
ATOM     18  N32 RES d   1      19.044   1.071   6.108  0.00  0.00    -0.233 N 
ATOM     19  H55 RES d   1      19.955   1.138   5.784  0.00  0.00     0.174 HD
ATOM     20  H56 RES d   1      18.339   1.588   5.688  0.00  0.00     0.174 HD
ENDBRANCH  12  18
ENDBRANCH   3   4
ENDBRANCH   1   3
BRANCH   1  21
ATOM     21  C11 RES d   1      19.092  -0.763  14.647  0.00  0.00     0.028 A 
ATOM     22  C29 RES d   1      18.834  -1.135  15.963  0.00  0.00     0.030 A 
ATOM     23  C28 RES d   1      18.755  -0.178  16.948  0.00  0.00     0.019 A 
ATOM     24  C14 RES d   1      18.921   1.172  16.623  0.00  0.00     0.032 A 
ATOM     25  C13 RES d   1      19.173   1.543  15.300  0.00  0.00     0.019 A 
ATOM     26  C12 RES d   1      19.258   0.580  14.320  0.00  0.00     0.030 A 
BRANCH  24  27
ATOM     27  C15 RES d   1      18.828   2.202  17.675  0.00  0.00     0.252 C 
ATOM     28  O16 RES d   1      19.600   2.182  18.615  0.00  0.00    -0.268 OA
ATOM     29  N17 RES d   1      17.888   3.164  17.596  0.00  0.00    -0.342 N 
ATOM     30  H47 RES d   1      17.272   3.180  16.847  0.00  0.00     0.163 HD
BRANCH  29  31
ATOM     31  C18 RES d   1      17.796   4.185  18.641  0.00  0.00     0.186 C 
BRANCH  31  32
ATOM     32  C20 RES d   1      17.860   5.575  18.003  0.00  0.00     0.046 C 
BRANCH  32  33
ATOM     33  C21 RES d   1      17.969   5.433  16.483  0.00  0.00     0.116 C 
BRANCH  33  34
ATOM     34  C22 RES d   1      19.159   6.217  15.990  0.00  0.00     0.172 C 
ATOM     35  O23 RES d   1      20.283   5.761  16.114  0.00  0.00    -0.648 OA
ATOM     36  O24 RES d   1      18.996   7.305  15.466  0.00  0.00    -0.648 OA
ENDBRANCH  33  34
ENDBRANCH  32  33
ENDBRANCH  31  32
BRANCH  31  37
ATOM     37  C25 RES d   1      16.492   4.033  19.380  0.00  0.00     0.196 C 
ATOM     38  O26 RES d   1      15.525   4.701  19.054  0.00  0.00    -0.646 OA
ATOM     39  O27 RES d   1      16.402   3.241  20.302  0.00  0.00    -0.646 OA
ENDBRANCH  31  37
ENDBRANCH  29  31
ENDBRANCH  24  27
ENDBRANCH   1  21
TORSDOF 10
ENDMDL
MODEL 5
REMARK VINA RESULT:      -7.9      1.621      2.187
REMARK  10 active torsions:
REMARK  status: ('A' for Active; 'I' for Inactive)
REMARK    1  A    between atoms: C7_7  and  C9_8 
REMARK    2  A    between atoms: C9_8  and  N10_9 
REMARK    3  A    between atoms: N10_9  and  C11_10 
REMARK    4  A    between atoms: C14_13  and  C15_14 
REMARK       I    between atoms: C15_14  and  N17_16 
REMARK    5  A    between atoms: N17_16  and  C18_17 
REMARK    6  A    between atoms: C18_17  and  C20_18 
REMARK    7  A    between atoms: C18_17  and  C25_23 
REMARK    8  A    between atoms: C20_18  and  C21_19 
REMARK    9  A    between atoms: C21_19  and  C22_20 
REMARK   10  A    between atoms: C31_29  and  N32_30 
ROOT
ATOM      1  N10 RES d   1      19.195   1.932   9.379  0.00  0.00    -0.388 N 
ATOM      2  H44 RES d   1      19.232   2.871   9.141  0.00  0.00     0.159 HD
ENDROOT
BRANCH   1   3
ATOM      3  C9  RES d   1      19.199   1.533  10.789  0.00  0.00     0.146 C 
BRANCH   3   4
ATOM      4  C7  RES d   1      17.825   1.815  11.402  0.00  0.00     0.119 C 
ATOM      5  N2  RES d   1      17.991   2.242  12.800  0.00  0.00    -0.370 N 
ATOM      6  C1  RES d   1      17.845   3.650  13.175  0.00  0.00     0.150 C 
ATOM      7  C3  RES d   1      18.287   1.262  13.773  0.00  0.00     0.146 A 
ATOM      8  C34 RES d   1      18.774   1.635  15.043  0.00  0.00     0.314 A 
ATOM      9  C4  RES d   1      18.104  -0.061  13.496  0.00  0.00     0.149 A 
ATOM     10  N33 RES d   1      19.043   0.683  15.951  0.00  0.00    -0.021 NA
ATOM     11  O35 RES d   1      18.948   2.815  15.316  0.00  0.00    -0.263 OA
ATOM     12  C31 RES d   1      18.862  -0.590  15.673  0.00  0.00     0.703 A 
ATOM     13  N30 RES d   1      18.394  -0.992  14.460  0.00  0.00    -0.173 N 
ATOM     14  H54 RES d   1      18.267  -1.935  14.277  0.00  0.00     0.186 HD
ATOM     15  N5  RES d   1      17.634  -0.455  12.259  0.00  0.00    -0.372 N 
ATOM     16  C6  RES d   1      16.981   0.536  11.391  0.00  0.00     0.148 C 
ATOM     17  H39 RES d   1      17.733  -1.375  11.967  0.00  0.00     0.161 HD
BRANCH  12  18
ATOM     18  N32 RES d   1      19.150  -1.533  16.627  0.00  0.00    -0.233 N 
ATOM     19  H55 RES d   1      20.050  -1.606  16.981  0.00  0.00     0.174 HD
ATOM     20  H56 RES d   1      18.453  -2.126  16.948  0.00  0.00     0.174 HD
ENDBRANCH  12  18
ENDBRANCH   3   4
ENDBRANCH   1   3
BRANCH   1  21
ATOM     21  C11 RES d   1      19.138   0.964   8.382  0.00  0.00     0.028 A 
ATOM     22  C29 RES d   1      19.316  -0.378   8.706  0.00  0.00     0.030 A 
ATOM     23  C28 RES d   1      19.255  -1.339   7.724  0.00  0.00     0.019 A 
ATOM     24  C14 RES d   1      19.026  -0.965   6.397  0.00  0.00     0.032 A 
ATOM     25  C13 RES d   1      18.855   0.384   6.072  0.00  0.00     0.019 A 
ATOM     26  C12 RES d   1      18.910   1.340   7.061  0.00  0.00     0.030 A 
BRANCH  24  27
ATOM     27  C15 RES d   1      18.968  -1.992   5.340  0.00  0.00     0.252 C 
ATOM     28  O16 RES d   1      19.672  -1.890   4.353  0.00  0.00    -0.268 OA
ATOM     29  N17 RES d   1      18.134  -3.044   5.466  0.00  0.00    -0.342 N 
ATOM     30  H47 RES d   1      17.573  -3.125   6.253  0.00  0.00     0.163 HD
BRANCH  29  31
ATOM     31  C18 RES d   1      18.076  -4.063   4.416  0.00  0.00     0.186 C 
BRANCH  31  32
ATOM     32  C20 RES d   1      17.891  -5.442   5.053  0.00  0.00     0.046 C 
BRANCH  32  33
ATOM     33  C21 RES d   1      17.579  -5.277   6.542  0.00  0.00     0.116 C 
BRANCH  33  34
ATOM     34  C22 RES d   1      18.770  -5.717   7.356  0.00  0.00     0.172 C 
ATOM     35  O23 RES d   1      19.647  -4.916   7.635  0.00  0.00    -0.648 OA
ATOM     36  O24 RES d   1      18.855  -6.871   7.737  0.00  0.00    -0.648 OA
ENDBRANCH  33  34
ENDBRANCH  32  33
ENDBRANCH  31  32
BRANCH  31  37
ATOM     37  C25 RES d   1      16.916  -3.775   3.499  0.00  0.00     0.196 C 
ATOM     38  O26 RES d   1      16.939  -4.166   2.345  0.00  0.00    -0.646 OA
ATOM     39  O27 RES d   1      15.953  -3.151   3.912  0.00  0.00    -0.646 OA
ENDBRANCH  31  37
ENDBRANCH  29  31
ENDBRANCH  24  27
ENDBRANCH   1  21
TORSDOF 10
ENDMDL
MODEL 6
REMARK VINA RESULT:      -7.8      4.213     10.515
REMARK  10 active torsions:
REMARK  status: ('A' for Active; 'I' for Inactive)
REMARK    1  A    between atoms: C7_7  and  C9_8 
REMARK    2  A    between atoms: C9_8  and  N10_9 
REMARK    3  A    between atoms: N10_9  and  C11_10 
REMARK    4  A    between atoms: C14_13  and  C15_14 
REMARK       I    between atoms: C15_14  and  N17_16 
REMARK    5  A    between atoms: N17_16  and  C18_17 
REMARK    6  A    between atoms: C18_17  and  C20_18 
REMARK    7  A    between atoms: C18_17  and  C25_23 
REMARK    8  A    between atoms: C20_18  and  C21_19 
REMARK    9  A    between atoms: C21_19  and  C22_20 
REMARK   10  A    between atoms: C31_29  and  N32_30 
ROOT
ATOM      1  N10 RES d   1      18.645  -2.119  13.936  0.00  0.00    -0.388 N 
ATOM      2  H44 RES d   1      18.844  -3.024  14.220  0.00  0.00     0.159 HD
ENDROOT
BRANCH   1   3
ATOM      3  C9  RES d   1      18.341  -1.842  12.529  0.00  0.00     0.146 C 
BRANCH   3   4
ATOM      4  C7  RES d   1      19.602  -2.048  11.686  0.00  0.00     0.119 C 
ATOM      5  N2  RES d   1      19.813  -0.872  10.826  0.00  0.00    -0.370 N 
ATOM      6  C1  RES d   1      20.847   0.115  11.149  0.00  0.00     0.150 C 
ATOM      7  C3  RES d   1      19.003  -0.721   9.680  0.00  0.00     0.146 A 
ATOM      8  C34 RES d   1      18.928   0.518   9.011  0.00  0.00     0.314 A 
ATOM      9  C4  RES d   1      18.280  -1.776   9.204  0.00  0.00     0.149 A 
ATOM     10  N33 RES d   1      18.152   0.633   7.921  0.00  0.00    -0.021 NA
ATOM     11  O35 RES d   1      19.565   1.480   9.419  0.00  0.00    -0.263 OA
ATOM     12  C31 RES d   1      17.460  -0.392   7.470  0.00  0.00     0.703 A 
ATOM     13  N30 RES d   1      17.505  -1.604   8.087  0.00  0.00    -0.173 N 
ATOM     14  H54 RES d   1      16.988  -2.346   7.736  0.00  0.00     0.186 HD
ATOM     15  N5  RES d   1      18.330  -3.000   9.842  0.00  0.00    -0.372 N 
ATOM     16  C6  RES d   1      19.426  -3.273  10.783  0.00  0.00     0.148 C 
ATOM     17  H39 RES d   1      17.651  -3.670   9.671  0.00  0.00     0.161 HD
BRANCH  12  18
ATOM     18  N32 RES d   1      16.679  -0.234   6.353  0.00  0.00    -0.233 N 
ATOM     19  H55 RES d   1      16.312  -1.012   5.905  0.00  0.00     0.174 HD
ATOM     20  H56 RES d   1      16.494   0.655   6.013  0.00  0.00     0.174 HD
ENDBRANCH  12  18
ENDBRANCH   3   4
ENDBRANCH   1   3
BRANCH   1  21
ATOM     21  C11 RES d   1      18.651  -1.082  14.863  0.00  0.00     0.028 A 
ATOM     22  C29 RES d   1      18.513  -1.363  16.219  0.00  0.00     0.030 A 
ATOM     23  C28 RES d   1      18.525  -0.340  17.139  0.00  0.00     0.019 A 
ATOM     24  C14 RES d   1      18.663   0.983  16.710  0.00  0.00     0.032 A 
ATOM     25  C13 RES d   1      18.795   1.262  15.347  0.00  0.00     0.019 A 
ATOM     26  C12 RES d   1      18.789   0.234  14.431  0.00  0.00     0.030 A 
BRANCH  24  27
ATOM     27  C15 RES d   1      18.668   2.082  17.693  0.00  0.00     0.252 C 
ATOM     28  O16 RES d   1      19.471   2.078  18.606  0.00  0.00    -0.268 OA
ATOM     29  N17 RES d   1      17.781   3.092  17.581  0.00  0.00    -0.342 N 
ATOM     30  H47 RES d   1      17.140   3.095  16.854  0.00  0.00     0.163 HD
BRANCH  29  31
ATOM     31  C18 RES d   1      17.786   4.182  18.559  0.00  0.00     0.186 C 
BRANCH  31  32
ATOM     32  C20 RES d   1      17.872   5.523  17.826  0.00  0.00     0.046 C 
BRANCH  32  33
ATOM     33  C21 RES d   1      18.249   5.281  16.363  0.00  0.00     0.116 C 
BRANCH  33  34
ATOM     34  C22 RES d   1      19.232   6.333  15.917  0.00  0.00     0.172 C 
ATOM     35  O23 RES d   1      18.857   7.262  15.223  0.00  0.00    -0.648 OA
ATOM     36  O24 RES d   1      20.402   6.255  16.251  0.00  0.00    -0.648 OA
ENDBRANCH  33  34
ENDBRANCH  32  33
ENDBRANCH  31  32
BRANCH  31  37
ATOM     37  C25 RES d   1      16.518   4.135  19.371  0.00  0.00     0.196 C 
ATOM     38  O26 RES d   1      16.481   3.494  20.408  0.00  0.00    -0.646 OA
ATOM     39  O27 RES d   1      15.529   4.740  18.993  0.00  0.00    -0.646 OA
ENDBRANCH  31  37
ENDBRANCH  29  31
ENDBRANCH  24  27
ENDBRANCH   1  21
TORSDOF 10
ENDMDL
MODEL 7
REMARK VINA RESULT:      -7.8      2.874      9.478
REMARK  10 active torsions:
REMARK  status: ('A' for Active; 'I' for Inactive)
REMARK    1  A    between atoms: C7_7  and  C9_8 
REMARK    2  A    between atoms: C9_8  and  N10_9 
REMARK    3  A    between atoms: N10_9  and  C11_10 
REMARK    4  A    between atoms: C14_13  and  C15_14 
REMARK       I    between atoms: C15_14  and  N17_16 
REMARK    5  A    between atoms: N17_16  and  C18_17 
REMARK    6  A    between atoms: C18_17  and  C20_18 
REMARK    7  A    between atoms: C18_17  and  C25_23 
REMARK    8  A    between atoms: C20_18  and  C21_19 
REMARK    9  A    between atoms: C21_19  and  C22_20 
REMARK   10  A    between atoms: C31_29  and  N32_30 
ROOT
ATOM      1  N10 RES d   1      17.929  -5.568  10.622  0.00  0.00    -0.388 N 
ATOM      2  H44 RES d   1      18.086  -6.360  11.158  0.00  0.00     0.159 HD
ENDROOT
BRANCH   1   3
ATOM      3  C9  RES d   1      17.304  -5.690   9.302  0.00  0.00     0.146 C 
BRANCH   3   4
ATOM      4  C7  RES d   1      18.194  -6.541   8.393  0.00  0.00     0.119 C 
ATOM      5  N2  RES d   1      19.090  -5.664   7.623  0.00  0.00    -0.370 N 
ATOM      6  C1  RES d   1      20.505  -5.539   7.982  0.00  0.00     0.150 C 
ATOM      7  C3  RES d   1      18.557  -4.951   6.527  0.00  0.00     0.146 A 
ATOM      8  C34 RES d   1      19.261  -3.867   5.964  0.00  0.00     0.314 A 
ATOM      9  C4  RES d   1      17.350  -5.304   5.997  0.00  0.00     0.149 A 
ATOM     10  N33 RES d   1      18.733  -3.209   4.920  0.00  0.00    -0.021 NA
ATOM     11  O35 RES d   1      20.344  -3.529   6.422  0.00  0.00    -0.263 OA
ATOM     12  C31 RES d   1      17.568  -3.559   4.416  0.00  0.00     0.703 A 
ATOM     13  N30 RES d   1      16.857  -4.599   4.931  0.00  0.00    -0.173 N 
ATOM     14  H54 RES d   1      16.002  -4.841   4.543  0.00  0.00     0.186 HD
ATOM     15  N5  RES d   1      16.636  -6.359   6.532  0.00  0.00    -0.372 N 
ATOM     16  C6  RES d   1      17.325  -7.322   7.402  0.00  0.00     0.148 C 
ATOM     17  H39 RES d   1      15.692  -6.461   6.336  0.00  0.00     0.161 HD
BRANCH  12  18
ATOM     18  N32 RES d   1      17.062  -2.861   3.349  0.00  0.00    -0.233 N 
ATOM     19  H55 RES d   1      17.335  -1.944   3.196  0.00  0.00     0.174 HD
ATOM     20  H56 RES d   1      16.430  -3.287   2.749  0.00  0.00     0.174 HD
ENDBRANCH  12  18
ENDBRANCH   3   4
ENDBRANCH   1   3
BRANCH   1  21
ATOM     21  C11 RES d   1      18.298  -4.317  11.104  0.00  0.00     0.028 A 
ATOM     22  C29 RES d   1      19.630  -4.056  11.410  0.00  0.00     0.030 A 
ATOM     23  C28 RES d   1      19.999  -2.817  11.881  0.00  0.00     0.019 A 
ATOM     24  C14 RES d   1      19.032  -1.824  12.064  0.00  0.00     0.032 A 
ATOM     25  C13 RES d   1      17.694  -2.091  11.761  0.00  0.00     0.019 A 
ATOM     26  C12 RES d   1      17.332  -3.330  11.284  0.00  0.00     0.030 A 
BRANCH  24  27
ATOM     27  C15 RES d   1      19.424  -0.497  12.576  0.00  0.00     0.252 C 
ATOM     28  O16 RES d   1      20.387   0.077  12.104  0.00  0.00    -0.268 OA
ATOM     29  N17 RES d   1      18.716   0.079  13.567  0.00  0.00    -0.342 N 
ATOM     30  H47 RES d   1      17.948  -0.379  13.944  0.00  0.00     0.163 HD
BRANCH  29  31
ATOM     31  C18 RES d   1      19.106   1.396  14.076  0.00  0.00     0.186 C 
BRANCH  31  32
ATOM     32  C20 RES d   1      18.072   2.437  13.641  0.00  0.00     0.046 C 
BRANCH  32  33
ATOM     33  C21 RES d   1      18.559   3.140  12.372  0.00  0.00     0.116 C 
BRANCH  33  34
ATOM     34  C22 RES d   1      17.781   2.631  11.186  0.00  0.00     0.172 C 
ATOM     35  O23 RES d   1      17.046   1.666  11.307  0.00  0.00    -0.648 OA
ATOM     36  O24 RES d   1      17.886   3.186  10.105  0.00  0.00    -0.648 OA
ENDBRANCH  33  34
ENDBRANCH  32  33
ENDBRANCH  31  32
BRANCH  31  37
ATOM     37  C25 RES d   1      19.172   1.354  15.581  0.00  0.00     0.196 C 
ATOM     38  O26 RES d   1      18.991   0.303  16.170  0.00  0.00    -0.646 OA
ATOM     39  O27 RES d   1      19.409   2.372  16.209  0.00  0.00    -0.646 OA
ENDBRANCH  31  37
ENDBRANCH  29  31
ENDBRANCH  24  27
ENDBRANCH   1  21
TORSDOF 10
ENDMDL
MODEL 8
REMARK VINA RESULT:      -7.8      2.387      4.623
REMARK  10 active torsions:
REMARK  status: ('A' for Active; 'I' for Inactive)
REMARK    1  A    between atoms: C7_7  and  C9_8 
REMARK    2  A    between atoms: C9_8  and  N10_9 
REMARK    3  A    between atoms: N10_9  and  C11_10 
REMARK    4  A    between atoms: C14_13  and  C15_14 
REMARK       I    between atoms: C15_14  and  N17_16 
REMARK    5  A    between atoms: N17_16  and  C18_17 
REMARK    6  A    between atoms: C18_17  and  C20_18 
REMARK    7  A    between atoms: C18_17  and  C25_23 
REMARK    8  A    between atoms: C20_18  and  C21_19 
REMARK    9  A    between atoms: C21_19  and  C22_20 
REMARK   10  A    between atoms: C31_29  and  N32_30 
ROOT
ATOM      1  N10 RES d   1      19.130  -1.701  13.402  0.00  0.00    -0.388 N 
ATOM      2  H44 RES d   1      19.718  -2.140  14.034  0.00  0.00     0.159 HD
ENDROOT
BRANCH   1   3
ATOM      3  C9  RES d   1      18.575  -0.380  13.711  0.00  0.00     0.146 C 
BRANCH   3   4
ATOM      4  C7  RES d   1      19.718   0.601  13.981  0.00  0.00     0.119 C 
ATOM      5  N2  RES d   1      19.163   1.935  14.263  0.00  0.00    -0.370 N 
ATOM      6  C1  RES d   1      19.119   2.452  15.633  0.00  0.00     0.150 C 
ATOM      7  C3  RES d   1      18.679   2.706  13.184  0.00  0.00     0.146 A 
ATOM      8  C34 RES d   1      17.852   3.824  13.413  0.00  0.00     0.314 A 
ATOM      9  C4  RES d   1      19.008   2.377  11.901  0.00  0.00     0.149 A 
ATOM     10  N33 RES d   1      17.410   4.542  12.368  0.00  0.00    -0.021 NA
ATOM     11  O35 RES d   1      17.541   4.139  14.554  0.00  0.00    -0.263 OA
ATOM     12  C31 RES d   1      17.734   4.217  11.135  0.00  0.00     0.703 A 
ATOM     13  N30 RES d   1      18.530   3.145  10.871  0.00  0.00    -0.173 N 
ATOM     14  H54 RES d   1      18.758   2.924   9.955  0.00  0.00     0.186 HD
ATOM     15  N5  RES d   1      19.812   1.283  11.646  0.00  0.00    -0.372 N 
ATOM     16  C6  RES d   1      20.610   0.711  12.739  0.00  0.00     0.148 C 
ATOM     17  H39 RES d   1      19.850   0.899  10.756  0.00  0.00     0.161 HD
BRANCH  12  18
ATOM     18  N32 RES d   1      17.262   4.975  10.095  0.00  0.00    -0.233 N 
ATOM     19  H55 RES d   1      17.295   5.943  10.146  0.00  0.00     0.174 HD
ATOM     20  H56 RES d   1      16.895   4.543   9.308  0.00  0.00     0.174 HD
ENDBRANCH  12  18
ENDBRANCH   3   4
ENDBRANCH   1   3
BRANCH   1  21
ATOM     21  C11 RES d   1      18.811  -2.325  12.200  0.00  0.00     0.028 A 
ATOM     22  C29 RES d   1      17.747  -1.855  11.435  0.00  0.00     0.030 A 
ATOM     23  C28 RES d   1      17.432  -2.466  10.244  0.00  0.00     0.019 A 
ATOM     24  C14 RES d   1      18.174  -3.567   9.807  0.00  0.00     0.032 A 
ATOM     25  C13 RES d   1      19.238  -4.040  10.580  0.00  0.00     0.019 A 
ATOM     26  C12 RES d   1      19.552  -3.421  11.768  0.00  0.00     0.030 A 
BRANCH  24  27
ATOM     27  C15 RES d   1      17.834  -4.228   8.533  0.00  0.00     0.252 C 
ATOM     28  O16 RES d   1      16.916  -5.025   8.488  0.00  0.00    -0.268 OA
ATOM     29  N17 RES d   1      18.541  -3.951   7.419  0.00  0.00    -0.342 N 
ATOM     30  H47 RES d   1      19.274  -3.317   7.455  0.00  0.00     0.163 HD
BRANCH  29  31
ATOM     31  C18 RES d   1      18.204  -4.610   6.155  0.00  0.00     0.186 C 
BRANCH  31  32
ATOM     32  C20 RES d   1      18.709  -3.760   4.987  0.00  0.00     0.046 C 
BRANCH  32  33
ATOM     33  C21 RES d   1      18.105  -2.357   5.079  0.00  0.00     0.116 C 
BRANCH  33  34
ATOM     34  C22 RES d   1      19.181  -1.370   5.455  0.00  0.00     0.172 C 
ATOM     35  O23 RES d   1      19.915  -0.913   4.595  0.00  0.00    -0.648 OA
ATOM     36  O24 RES d   1      19.316  -1.029   6.617  0.00  0.00    -0.648 OA
ENDBRANCH  33  34
ENDBRANCH  32  33
ENDBRANCH  31  32
BRANCH  31  37
ATOM     37  C25 RES d   1      18.855  -5.967   6.106  0.00  0.00     0.196 C 
ATOM     38  O26 RES d   1      19.944  -6.140   6.625  0.00  0.00    -0.646 OA
ATOM     39  O27 RES d   1      18.292  -6.894   5.548  0.00  0.00    -0.646 OA
ENDBRANCH  31  37
ENDBRANCH  29  31
ENDBRANCH  24  27
ENDBRANCH   1  21
TORSDOF 10
ENDMDL
MODEL 9
REMARK VINA RESULT:      -7.5      2.292      4.115
REMARK  10 active torsions:
REMARK  status: ('A' for Active; 'I' for Inactive)
REMARK    1  A    between atoms: C7_7  and  C9_8 
REMARK    2  A    between atoms: C9_8  and  N10_9 
REMARK    3  A    between atoms: N10_9  and  C11_10 
REMARK    4  A    between atoms: C14_13  and  C15_14 
REMARK       I    between atoms: C15_14  and  N17_16 
REMARK    5  A    between atoms: N17_16  and  C18_17 
REMARK    6  A    between atoms: C18_17  and  C20_18 
REMARK    7  A    between atoms: C18_17  and  C25_23 
REMARK    8  A    between atoms: C20_18  and  C21_19 
REMARK    9  A    between atoms: C21_19  and  C22_20 
REMARK   10  A    between atoms: C31_29  and  N32_30 
ROOT
ATOM      1  N10 RES d   1      20.478  -0.264  12.093  0.00  0.00    -0.388 N 
ATOM      2  H44 RES d   1      21.369   0.064  11.898  0.00  0.00     0.159 HD
ENDROOT
BRANCH   1   3
ATOM      3  C9  RES d   1      19.787   0.169  13.310  0.00  0.00     0.146 C 
BRANCH   3   4
ATOM      4  C7  RES d   1      18.452   0.818  12.934  0.00  0.00     0.119 C 
ATOM      5  N2  RES d   1      18.670   2.237  12.613  0.00  0.00    -0.370 N 
ATOM      6  C1  RES d   1      18.667   2.700  11.223  0.00  0.00     0.150 C 
ATOM      7  C3  RES d   1      18.876   3.144  13.675  0.00  0.00     0.146 A 
ATOM      8  C34 RES d   1      19.407   4.427  13.432  0.00  0.00     0.314 A 
ATOM      9  C4  RES d   1      18.561   2.789  14.955  0.00  0.00     0.149 A 
ATOM     10  N33 RES d   1      19.589   5.272  14.460  0.00  0.00    -0.021 NA
ATOM     11  O35 RES d   1      19.699   4.770  12.294  0.00  0.00    -0.263 OA
ATOM     12  C31 RES d   1      19.281   4.919  15.690  0.00  0.00     0.703 A 
ATOM     13  N30 RES d   1      18.766   3.689  15.967  0.00  0.00    -0.173 N 
ATOM     14  H54 RES d   1      18.545   3.451  16.881  0.00  0.00     0.186 HD
ATOM     15  N5  RES d   1      18.045   1.536  15.223  0.00  0.00    -0.372 N 
ATOM     16  C6  RES d   1      17.486   0.741  14.121  0.00  0.00     0.148 C 
ATOM     17  H39 RES d   1      18.050   1.187  16.128  0.00  0.00     0.161 HD
BRANCH  12  18
ATOM     18  N32 RES d   1      19.482   5.809  16.714  0.00  0.00    -0.233 N 
ATOM     19  H55 RES d   1      20.274   6.368  16.722  0.00  0.00     0.174 HD
ATOM     20  H56 RES d   1      18.831   5.879  17.430  0.00  0.00     0.174 HD
ENDBRANCH  12  18
ENDBRANCH   3   4
ENDBRANCH   1   3
BRANCH   1  21
ATOM     21  C11 RES d   1      19.856  -1.148  11.217  0.00  0.00     0.028 A 
ATOM     22  C29 RES d   1      19.386  -2.372  11.683  0.00  0.00     0.030 A 
ATOM     23  C28 RES d   1      18.765  -3.245  10.821  0.00  0.00     0.019 A 
ATOM     24  C14 RES d   1      18.617  -2.908   9.473  0.00  0.00     0.032 A 
ATOM     25  C13 RES d   1      19.096  -1.680   9.006  0.00  0.00     0.019 A 
ATOM     26  C12 RES d   1      19.711  -0.808   9.875  0.00  0.00     0.030 A 
BRANCH  24  27
ATOM     27  C15 RES d   1      17.958  -3.846   8.544  0.00  0.00     0.252 C 
ATOM     28  O16 RES d   1      17.058  -4.562   8.940  0.00  0.00    -0.268 OA
ATOM     29  N17 RES d   1      18.353  -3.910   7.257  0.00  0.00    -0.342 N 
ATOM     30  H47 RES d   1      19.071  -3.340   6.942  0.00  0.00     0.163 HD
BRANCH  29  31
ATOM     31  C18 RES d   1      17.700  -4.843   6.337  0.00  0.00     0.186 C 
BRANCH  31  32
ATOM     32  C20 RES d   1      17.479  -4.155   4.987  0.00  0.00     0.046 C 
BRANCH  32  33
ATOM     33  C21 RES d   1      18.783  -3.496   4.531  0.00  0.00     0.116 C 
BRANCH  33  34
ATOM     34  C22 RES d   1      18.610  -1.999   4.517  0.00  0.00     0.172 C 
ATOM     35  O23 RES d   1      17.493  -1.515   4.447  0.00  0.00    -0.648 OA
ATOM     36  O24 RES d   1      19.587  -1.273   4.575  0.00  0.00    -0.648 OA
ENDBRANCH  33  34
ENDBRANCH  32  33
ENDBRANCH  31  32
BRANCH  31  37
ATOM     37  C25 RES d   1      18.573  -6.056   6.144  0.00  0.00     0.196 C 
ATOM     38  O26 RES d   1      18.229  -6.939   5.377  0.00  0.00    -0.646 OA
ATOM     39  O27 RES d   1      19.624  -6.153   6.754  0.00  0.00    -0.646 OA
ENDBRANCH  31  37
ENDBRANCH  29  31
ENDBRANCH  24  27
ENDBRANCH   1  21
TORSDOF 10
ENDMDL
