MODEL 1
REMARK VINA RESULT:     -10.0      0.000      0.000
REMARK  13 active torsions:
REMARK  status: ('A' for Active; 'I' for Inactive)
REMARK    1  A    between atoms: C2_2  and  O3_3 
REMARK    2  A    between atoms: O3_3  and  C4_4 
REMARK    3  A    between atoms: C10_10  and  C11_11 
REMARK    4  A    between atoms: C11_11  and  O13_13 
REMARK    5  A    between atoms: O13_13  and  C14_14 
REMARK    6  A    between atoms: C14_14  and  O17_16 
REMARK    7  A    between atoms: O17_16  and  C18_17 
REMARK    8  A    between atoms: C18_17  and  O20_19 
REMARK    9  A    between atoms: O20_19  and  C21_20 
REMARK   10  A    between atoms: N28_27  and  C29_28 
REMARK   11  A    between atoms: C29_28  and  C30_29 
REMARK   12  A    between atoms: C33_32  and  C34_33 
REMARK   13  A    between atoms: C39_38  and  C40_39 
ROOT
ATOM      1  C4  ZIN A   1      18.931   2.787  10.140  0.00  0.00     0.249 A 
ATOM      2  N5  ZIN A   1      18.057   3.732   9.911  0.00  0.00    -0.206 NA
ATOM      3  C6  ZIN A   1      17.558   4.187  11.091  0.00  0.00     0.089 A 
ATOM      4  C7  ZIN A   1      16.620   5.165  11.424  0.00  0.00     0.034 A 
ATOM      5  C8  ZIN A   1      16.310   5.409  12.746  0.00  0.00     0.003 A 
ATOM      6  C9  ZIN A   1      16.917   4.688  13.757  0.00  0.00     0.020 A 
ATOM      7  C10 ZIN A   1      17.864   3.708  13.452  0.00  0.00     0.069 A 
ATOM      8  C27 ZIN A   1      18.185   3.453  12.111  0.00  0.00     0.083 A 
ATOM      9  N28 ZIN A   1      19.045   2.578  11.485  0.00  0.00    -0.304 N 
ENDROOT
BRANCH   9  10
ATOM     10  C29 ZIN A   1      19.921   1.603  12.139  0.00  0.00     0.171 C 
BRANCH  10  11
ATOM     11  C30 ZIN A   1      19.436   0.209  11.837  0.00  0.00    -0.040 A 
ATOM     12  C46 ZIN A   1      18.098  -0.104  11.999  0.00  0.00     0.010 A 
ATOM     13  C45 ZIN A   1      17.647  -1.379  11.724  0.00  0.00     0.013 A 
ATOM     14  C33 ZIN A   1      18.543  -2.353  11.283  0.00  0.00    -0.025 A 
ATOM     15  C32 ZIN A   1      19.889  -2.031  11.122  0.00  0.00     0.013 A 
ATOM     16  C31 ZIN A   1      20.328  -0.751  11.395  0.00  0.00     0.010 A 
BRANCH  14  17
ATOM     17  C34 ZIN A   1      18.064  -3.724  10.986  0.00  0.00    -0.012 A 
ATOM     18  C39 ZIN A   1      17.987  -4.172   9.658  0.00  0.00     0.026 A 
ATOM     19  C38 ZIN A   1      17.543  -5.463   9.392  0.00  0.00     0.016 A 
ATOM     20  C37 ZIN A   1      17.169  -6.292  10.431  0.00  0.00     0.001 A 
ATOM     21  C36 ZIN A   1      17.239  -5.849  11.740  0.00  0.00     0.001 A 
ATOM     22  C35 ZIN A   1      17.684  -4.572  12.022  0.00  0.00     0.013 A 
BRANCH  18  23
ATOM     23  C40 ZIN A   1      18.384  -3.275   8.544  0.00  0.00     0.207 A 
ATOM     24  N44 ZIN A   1      19.480  -3.373   7.798  0.00  0.00    -0.106 NA
ATOM     25  N43 ZIN A   1      19.455  -2.409   6.944  0.00  0.00    -0.021 NA
ATOM     26  N42 ZIN A   1      18.388  -1.712   7.124  0.00  0.00    -0.021 NA
ATOM     27  N41 ZIN A   1      17.709  -2.223   8.095  0.00  0.00    -0.106 NA
ENDBRANCH  18  23
ENDBRANCH  14  17
ENDBRANCH  10  11
ENDBRANCH   9  10
BRANCH   1  28
ATOM     28  O3  ZIN A   1      19.618   2.117   9.189  0.00  0.00    -0.321 OA
BRANCH  28  29
ATOM     29  C2  ZIN A   1      18.869   1.245   8.340  0.00  0.00     0.174 C 
ATOM     30  C1  ZIN A   1      19.049   1.674   6.882  0.00  0.00     0.034 C 
ENDBRANCH  28  29
ENDBRANCH   1  28
BRANCH   7  31
ATOM     31  C11 ZIN A   1      18.516   2.945  14.530  0.00  0.00     0.298 C 
ATOM     32  O12 ZIN A   1      18.059   1.874  14.879  0.00  0.00    -0.259 OA
BRANCH  31  33
ATOM     33  O13 ZIN A   1      19.620   3.434  15.129  0.00  0.00    -0.285 OA
BRANCH  33  34
ATOM     34  C14 ZIN A   1      19.472   3.915  16.492  0.00  0.00     0.277 C 
ATOM     35  C16 ZIN A   1      19.202   5.421  16.473  0.00  0.00     0.072 C 
BRANCH  34  36
ATOM     36  O17 ZIN A   1      18.359   3.232  17.127  0.00  0.00    -0.266 OA
BRANCH  36  37
ATOM     37  C18 ZIN A   1      18.626   2.547  18.254  0.00  0.00     0.409 C 
ATOM     38  O19 ZIN A   1      19.657   2.754  18.860  0.00  0.00    -0.229 OA
BRANCH  37  39
ATOM     39  O20 ZIN A   1      17.750   1.631  18.708  0.00  0.00    -0.293 OA
BRANCH  39  40
ATOM     40  C21 ZIN A   1      17.918   0.269  18.235  0.00  0.00     0.134 C 
ATOM     41  C26 ZIN A   1      19.320   0.104  17.645  0.00  0.00     0.032 C 
ATOM     42  C25 ZIN A   1      19.497  -1.332  17.146  0.00  0.00     0.002 C 
ATOM     43  C24 ZIN A   1      18.452  -1.630  16.069  0.00  0.00     0.000 C 
ATOM     44  C23 ZIN A   1      17.050  -1.464  16.658  0.00  0.00     0.002 C 
ATOM     45  C22 ZIN A   1      16.873  -0.029  17.157  0.00  0.00     0.032 C 
ENDBRANCH  39  40
ENDBRANCH  37  39
ENDBRANCH  36  37
ENDBRANCH  34  36
ENDBRANCH  33  34
ENDBRANCH  31  33
ENDBRANCH   7  31
TORSDOF 13
ENDMDL
MODEL 2
REMARK VINA RESULT:      -9.3      1.277      2.755
REMARK  13 active torsions:
REMARK  status: ('A' for Active; 'I' for Inactive)
REMARK    1  A    between atoms: C2_2  and  O3_3 
REMARK    2  A    between atoms: O3_3  and  C4_4 
REMARK    3  A    between atoms: C10_10  and  C11_11 
REMARK    4  A    between atoms: C11_11  and  O13_13 
REMARK    5  A    between atoms: O13_13  and  C14_14 
REMARK    6  A    between atoms: C14_14  and  O17_16 
REMARK    7  A    between atoms: O17_16  and  C18_17 
REMARK    8  A    between atoms: C18_17  and  O20_19 
REMARK    9  A    between atoms: O20_19  and  C21_20 
REMARK   10  A    between atoms: N28_27  and  C29_28 
REMARK   11  A    between atoms: C29_28  and  C30_29 
REMARK   12  A    between atoms: C33_32  and  C34_33 
REMARK   13  A    between atoms: C39_38  and  C40_39 
ROOT
ATOM      1  C4  ZIN A   1      18.984   2.616   9.957  0.00  0.00     0.249 A 
ATOM      2  N5  ZIN A   1      18.121   3.568   9.714  0.00  0.00    -0.206 NA
ATOM      3  C6  ZIN A   1      17.678   4.091  10.888  0.00  0.00     0.089 A 
ATOM      4  C7  ZIN A   1      16.774   5.105  11.207  0.00  0.00     0.034 A 
ATOM      5  C8  ZIN A   1      16.521   5.420  12.526  0.00  0.00     0.003 A 
ATOM      6  C9  ZIN A   1      17.153   4.737  13.547  0.00  0.00     0.020 A 
ATOM      7  C10 ZIN A   1      18.067   3.723  13.256  0.00  0.00     0.069 A 
ATOM      8  C27 ZIN A   1      18.330   3.394  11.919  0.00  0.00     0.083 A 
ATOM      9  N28 ZIN A   1      19.147   2.471  11.304  0.00  0.00    -0.304 N 
ENDROOT
BRANCH   9  10
ATOM     10  C29 ZIN A   1      20.028   1.510  11.973  0.00  0.00     0.171 C 
BRANCH  10  11
ATOM     11  C30 ZIN A   1      19.535   0.110  11.712  0.00  0.00    -0.040 A 
ATOM     12  C46 ZIN A   1      20.435  -0.885  11.373  0.00  0.00     0.010 A 
ATOM     13  C45 ZIN A   1      19.990  -2.168  11.134  0.00  0.00     0.013 A 
ATOM     14  C33 ZIN A   1      18.630  -2.462  11.233  0.00  0.00    -0.025 A 
ATOM     15  C32 ZIN A   1      17.729  -1.456  11.574  0.00  0.00     0.013 A 
ATOM     16  C31 ZIN A   1      18.186  -0.176  11.816  0.00  0.00     0.010 A 
BRANCH  14  17
ATOM     17  C34 ZIN A   1      18.146  -3.840  10.976  0.00  0.00    -0.012 A 
ATOM     18  C39 ZIN A   1      18.073  -4.327   9.662  0.00  0.00     0.026 A 
ATOM     19  C38 ZIN A   1      17.622  -5.624   9.433  0.00  0.00     0.016 A 
ATOM     20  C37 ZIN A   1      17.239  -6.419  10.495  0.00  0.00     0.001 A 
ATOM     21  C36 ZIN A   1      17.305  -5.936  11.790  0.00  0.00     0.001 A 
ATOM     22  C35 ZIN A   1      17.756  -4.653  12.035  0.00  0.00     0.013 A 
BRANCH  18  23
ATOM     23  C40 ZIN A   1      18.479  -3.467   8.523  0.00  0.00     0.207 A 
ATOM     24  N44 ZIN A   1      19.594  -3.574   7.807  0.00  0.00    -0.106 NA
ATOM     25  N43 ZIN A   1      19.573  -2.644   6.915  0.00  0.00    -0.021 NA
ATOM     26  N42 ZIN A   1      18.490  -1.960   7.044  0.00  0.00    -0.021 NA
ATOM     27  N41 ZIN A   1      17.798  -2.445   8.018  0.00  0.00    -0.106 NA
ENDBRANCH  18  23
ENDBRANCH  14  17
ENDBRANCH  10  11
ENDBRANCH   9  10
BRANCH   1  28
ATOM     28  O3  ZIN A   1      19.620   1.884   9.014  0.00  0.00    -0.321 OA
BRANCH  28  29
ATOM     29  C2  ZIN A   1      18.810   1.043   8.191  0.00  0.00     0.174 C 
ATOM     30  C1  ZIN A   1      18.874   1.531   6.742  0.00  0.00     0.034 C 
ENDBRANCH  28  29
ENDBRANCH   1  28
BRANCH   7  31
ATOM     31  C11 ZIN A   1      18.746   2.999  14.345  0.00  0.00     0.298 C 
ATOM     32  O12 ZIN A   1      19.515   3.588  15.079  0.00  0.00    -0.259 OA
BRANCH  31  33
ATOM     33  O13 ZIN A   1      18.514   1.684  14.528  0.00  0.00    -0.285 OA
BRANCH  33  34
ATOM     34  C14 ZIN A   1      17.992   1.281  15.822  0.00  0.00     0.277 C 
ATOM     35  C16 ZIN A   1      17.282  -0.068  15.687  0.00  0.00     0.072 C 
BRANCH  34  36
ATOM     36  O17 ZIN A   1      19.086   1.159  16.769  0.00  0.00    -0.266 OA
BRANCH  36  37
ATOM     37  C18 ZIN A   1      18.921   1.740  17.971  0.00  0.00     0.409 C 
ATOM     38  O19 ZIN A   1      19.860   1.831  18.735  0.00  0.00    -0.229 OA
BRANCH  37  39
ATOM     39  O20 ZIN A   1      17.715   2.222  18.325  0.00  0.00    -0.293 OA
BRANCH  39  40
ATOM     40  C21 ZIN A   1      17.691   3.514  18.986  0.00  0.00     0.134 C 
ATOM     41  C26 ZIN A   1      16.442   3.614  19.864  0.00  0.00     0.032 C 
ATOM     42  C25 ZIN A   1      16.415   4.976  20.560  0.00  0.00     0.002 C 
ATOM     43  C24 ZIN A   1      16.387   6.086  19.507  0.00  0.00     0.000 C 
ATOM     44  C23 ZIN A   1      17.635   5.986  18.629  0.00  0.00     0.002 C 
ATOM     45  C22 ZIN A   1      17.662   4.625  17.933  0.00  0.00     0.032 C 
ENDBRANCH  39  40
ENDBRANCH  37  39
ENDBRANCH  36  37
ENDBRANCH  34  36
ENDBRANCH  33  34
ENDBRANCH  31  33
ENDBRANCH   7  31
TORSDOF 13
ENDMDL
MODEL 3
REMARK VINA RESULT:      -8.7      3.340      9.796
REMARK  13 active torsions:
REMARK  status: ('A' for Active; 'I' for Inactive)
REMARK    1  A    between atoms: C2_2  and  O3_3 
REMARK    2  A    between atoms: O3_3  and  C4_4 
REMARK    3  A    between atoms: C10_10  and  C11_11 
REMARK    4  A    between atoms: C11_11  and  O13_13 
REMARK    5  A    between atoms: O13_13  and  C14_14 
REMARK    6  A    between atoms: C14_14  and  O17_16 
REMARK    7  A    between atoms: O17_16  and  C18_17 
REMARK    8  A    between atoms: C18_17  and  O20_19 
REMARK    9  A    between atoms: O20_19  and  C21_20 
REMARK   10  A    between atoms: N28_27  and  C29_28 
REMARK   11  A    between atoms: C29_28  and  C30_29 
REMARK   12  A    between atoms: C33_32  and  C34_33 
REMARK   13  A    between atoms: C39_38  and  C40_39 
ROOT
ATOM      1  C4  ZIN A   1      18.973  -2.301  12.834  0.00  0.00     0.249 A 
ATOM      2  N5  ZIN A   1      18.211  -3.356  12.957  0.00  0.00    -0.206 NA
ATOM      3  C6  ZIN A   1      17.760  -3.736  11.732  0.00  0.00     0.089 A 
ATOM      4  C7  ZIN A   1      16.934  -4.772  11.291  0.00  0.00     0.034 A 
ATOM      5  C8  ZIN A   1      16.647  -4.908   9.949  0.00  0.00     0.003 A 
ATOM      6  C9  ZIN A   1      17.166  -4.021   9.024  0.00  0.00     0.020 A 
ATOM      7  C10 ZIN A   1      17.999  -2.981   9.437  0.00  0.00     0.069 A 
ATOM      8  C27 ZIN A   1      18.297  -2.834  10.799  0.00  0.00     0.083 A 
ATOM      9  N28 ZIN A   1      19.058  -1.940  11.521  0.00  0.00    -0.304 N 
ENDROOT
BRANCH   9  10
ATOM     10  C29 ZIN A   1      19.817  -0.811  10.979  0.00  0.00     0.171 C 
BRANCH  10  11
ATOM     11  C30 ZIN A   1      19.253   0.479  11.517  0.00  0.00    -0.040 A 
ATOM     12  C46 ZIN A   1      17.887   0.615  11.687  0.00  0.00     0.010 A 
ATOM     13  C45 ZIN A   1      17.365   1.793  12.180  0.00  0.00     0.013 A 
ATOM     14  C33 ZIN A   1      18.217   2.848  12.508  0.00  0.00    -0.025 A 
ATOM     15  C32 ZIN A   1      19.592   2.704  12.334  0.00  0.00     0.013 A 
ATOM     16  C31 ZIN A   1      20.104   1.519  11.845  0.00  0.00     0.010 A 
BRANCH  14  17
ATOM     17  C34 ZIN A   1      17.662   4.116  13.037  0.00  0.00    -0.012 A 
ATOM     18  C39 ZIN A   1      17.810   4.437  14.396  0.00  0.00     0.026 A 
ATOM     19  C38 ZIN A   1      17.290   5.633  14.881  0.00  0.00     0.016 A 
ATOM     20  C37 ZIN A   1      16.623   6.491  14.030  0.00  0.00     0.001 A 
ATOM     21  C36 ZIN A   1      16.471   6.172  12.691  0.00  0.00     0.001 A 
ATOM     22  C35 ZIN A   1      16.987   4.992  12.193  0.00  0.00     0.013 A 
BRANCH  18  23
ATOM     23  C40 ZIN A   1      18.522   3.509  15.309  0.00  0.00     0.207 A 
ATOM     24  N44 ZIN A   1      19.633   3.765  15.992  0.00  0.00    -0.106 NA
ATOM     25  N43 ZIN A   1      19.929   2.706  16.663  0.00  0.00    -0.021 NA
ATOM     26  N42 ZIN A   1      19.047   1.798  16.429  0.00  0.00    -0.021 NA
ATOM     27  N41 ZIN A   1      18.170   2.263  15.606  0.00  0.00    -0.106 NA
ENDBRANCH  18  23
ENDBRANCH  14  17
ENDBRANCH  10  11
ENDBRANCH   9  10
BRANCH   1  28
ATOM     28  O3  ZIN A   1      19.587  -1.663  13.856  0.00  0.00    -0.321 OA
BRANCH  28  29
ATOM     29  C2  ZIN A   1      18.753  -1.164  14.904  0.00  0.00     0.174 C 
ATOM     30  C1  ZIN A   1      19.210  -1.748  16.242  0.00  0.00     0.034 C 
ENDBRANCH  28  29
ENDBRANCH   1  28
BRANCH   7  31
ATOM     31  C11 ZIN A   1      18.558  -2.040   8.450  0.00  0.00     0.298 C 
ATOM     32  O12 ZIN A   1      18.063  -0.939   8.312  0.00  0.00    -0.259 OA
BRANCH  31  33
ATOM     33  O13 ZIN A   1      19.618  -2.401   7.699  0.00  0.00    -0.285 OA
BRANCH  33  34
ATOM     34  C14 ZIN A   1      19.346  -3.197   6.515  0.00  0.00     0.277 C 
ATOM     35  C16 ZIN A   1      19.386  -2.297   5.278  0.00  0.00     0.072 C 
BRANCH  34  36
ATOM     36  O17 ZIN A   1      20.352  -4.237   6.389  0.00  0.00    -0.266 OA
BRANCH  36  37
ATOM     37  C18 ZIN A   1      20.084  -5.418   6.975  0.00  0.00     0.409 C 
ATOM     38  O19 ZIN A   1      20.567  -5.683   8.057  0.00  0.00    -0.229 OA
BRANCH  37  39
ATOM     39  O20 ZIN A   1      19.281  -6.306   6.360  0.00  0.00    -0.293 OA
BRANCH  39  40
ATOM     40  C21 ZIN A   1      17.932  -6.442   6.879  0.00  0.00     0.134 C 
ATOM     41  C26 ZIN A   1      17.698  -7.889   7.318  0.00  0.00     0.032 C 
ATOM     42  C25 ZIN A   1      16.276  -8.033   7.864  0.00  0.00     0.002 C 
ATOM     43  C24 ZIN A   1      15.271  -7.664   6.772  0.00  0.00     0.000 C 
ATOM     44  C23 ZIN A   1      15.504  -6.218   6.333  0.00  0.00     0.002 C 
ATOM     45  C22 ZIN A   1      16.925  -6.073   5.786  0.00  0.00     0.032 C 
ENDBRANCH  39  40
ENDBRANCH  37  39
ENDBRANCH  36  37
ENDBRANCH  34  36
ENDBRANCH  33  34
ENDBRANCH  31  33
ENDBRANCH   7  31
TORSDOF 13
ENDMDL
MODEL 4
REMARK VINA RESULT:      -8.7      4.216      9.673
REMARK  13 active torsions:
REMARK  status: ('A' for Active; 'I' for Inactive)
REMARK    1  A    between atoms: C2_2  and  O3_3 
REMARK    2  A    between atoms: O3_3  and  C4_4 
REMARK    3  A    between atoms: C10_10  and  C11_11 
REMARK    4  A    between atoms: C11_11  and  O13_13 
REMARK    5  A    between atoms: O13_13  and  C14_14 
REMARK    6  A    between atoms: C14_14  and  O17_16 
REMARK    7  A    between atoms: O17_16  and  C18_17 
REMARK    8  A    between atoms: C18_17  and  O20_19 
REMARK    9  A    between atoms: O20_19  and  C21_20 
REMARK   10  A    between atoms: N28_27  and  C29_28 
REMARK   11  A    between atoms: C29_28  and  C30_29 
REMARK   12  A    between atoms: C33_32  and  C34_33 
REMARK   13  A    between atoms: C39_38  and  C40_39 
ROOT
ATOM      1  C4  ZIN A   1      18.088   0.358   8.609  0.00  0.00     0.249 A 
ATOM      2  N5  ZIN A   1      18.448   0.549   7.367  0.00  0.00    -0.206 NA
ATOM      3  C6  ZIN A   1      18.755  -0.646   6.795  0.00  0.00     0.089 A 
ATOM      4  C7  ZIN A   1      19.186  -1.017   5.520  0.00  0.00     0.034 A 
ATOM      5  C8  ZIN A   1      19.422  -2.345   5.226  0.00  0.00     0.003 A 
ATOM      6  C9  ZIN A   1      19.241  -3.322   6.186  0.00  0.00     0.020 A 
ATOM      7  C10 ZIN A   1      18.805  -2.978   7.467  0.00  0.00     0.069 A 
ATOM      8  C27 ZIN A   1      18.562  -1.633   7.775  0.00  0.00     0.083 A 
ATOM      9  N28 ZIN A   1      18.142  -0.972   8.909  0.00  0.00    -0.304 N 
ENDROOT
BRANCH   9  10
ATOM     10  C29 ZIN A   1      17.814  -1.584  10.199  0.00  0.00     0.171 C 
BRANCH  10  11
ATOM     11  C30 ZIN A   1      18.063  -0.591  11.304  0.00  0.00    -0.040 A 
ATOM     12  C46 ZIN A   1      19.360  -0.259  11.653  0.00  0.00     0.010 A 
ATOM     13  C45 ZIN A   1      19.594   0.650  12.664  0.00  0.00     0.013 A 
ATOM     14  C33 ZIN A   1      18.520   1.234  13.335  0.00  0.00    -0.025 A 
ATOM     15  C32 ZIN A   1      17.216   0.895  12.980  0.00  0.00     0.013 A 
ATOM     16  C31 ZIN A   1      16.993  -0.011  11.964  0.00  0.00     0.010 A 
BRANCH  14  17
ATOM     17  C34 ZIN A   1      18.765   2.211  14.423  0.00  0.00    -0.012 A 
ATOM     18  C39 ZIN A   1      18.691   1.805  15.765  0.00  0.00     0.026 A 
ATOM     19  C38 ZIN A   1      18.929   2.730  16.778  0.00  0.00     0.016 A 
ATOM     20  C37 ZIN A   1      19.224   4.041  16.460  0.00  0.00     0.001 A 
ATOM     21  C36 ZIN A   1      19.290   4.442  15.137  0.00  0.00     0.001 A 
ATOM     22  C35 ZIN A   1      19.063   3.536  14.120  0.00  0.00     0.013 A 
BRANCH  18  23
ATOM     23  C40 ZIN A   1      18.368   0.397  16.102  0.00  0.00     0.207 A 
ATOM     24  N44 ZIN A   1      17.191  -0.073  16.504  0.00  0.00    -0.106 NA
ATOM     25  N43 ZIN A   1      17.324  -1.341  16.693  0.00  0.00    -0.021 NA
ATOM     26  N42 ZIN A   1      18.535  -1.683  16.423  0.00  0.00    -0.021 NA
ATOM     27  N41 ZIN A   1      19.197  -0.640  16.053  0.00  0.00    -0.106 NA
ENDBRANCH  18  23
ENDBRANCH  14  17
ENDBRANCH  10  11
ENDBRANCH   9  10
BRANCH   1  28
ATOM     28  O3  ZIN A   1      17.717   1.334   9.469  0.00  0.00    -0.321 OA
BRANCH  28  29
ATOM     29  C2  ZIN A   1      18.513   2.520   9.485  0.00  0.00     0.174 C 
ATOM     30  C1  ZIN A   1      17.891   3.539  10.443  0.00  0.00     0.034 C 
ENDBRANCH  28  29
ENDBRANCH   1  28
BRANCH   7  31
ATOM     31  C11 ZIN A   1      18.605  -4.021   8.489  0.00  0.00     0.298 C 
ATOM     32  O12 ZIN A   1      19.534  -4.370   9.190  0.00  0.00    -0.259 OA
BRANCH  31  33
ATOM     33  O13 ZIN A   1      17.393  -4.589   8.645  0.00  0.00    -0.285 OA
BRANCH  33  34
ATOM     34  C14 ZIN A   1      17.270  -5.607   9.674  0.00  0.00     0.277 C 
ATOM     35  C16 ZIN A   1      16.587  -5.006  10.905  0.00  0.00     0.072 C 
BRANCH  34  36
ATOM     36  O17 ZIN A   1      16.473  -6.711   9.170  0.00  0.00    -0.266 OA
BRANCH  36  37
ATOM     37  C18 ZIN A   1      15.617  -6.439   8.169  0.00  0.00     0.409 C 
ATOM     38  O19 ZIN A   1      14.586  -5.839   8.397  0.00  0.00    -0.229 OA
BRANCH  37  39
ATOM     39  O20 ZIN A   1      15.904  -6.832   6.913  0.00  0.00    -0.293 OA
BRANCH  39  40
ATOM     40  C21 ZIN A   1      15.371  -6.023   5.833  0.00  0.00     0.134 C 
ATOM     41  C26 ZIN A   1      14.474  -6.887   4.943  0.00  0.00     0.032 C 
ATOM     42  C25 ZIN A   1      13.913  -6.034   3.803  0.00  0.00     0.002 C 
ATOM     43  C24 ZIN A   1      15.067  -5.472   2.971  0.00  0.00     0.000 C 
ATOM     44  C23 ZIN A   1      15.962  -4.608   3.860  0.00  0.00     0.002 C 
ATOM     45  C22 ZIN A   1      16.524  -5.460   4.999  0.00  0.00     0.032 C 
ENDBRANCH  39  40
ENDBRANCH  37  39
ENDBRANCH  36  37
ENDBRANCH  34  36
ENDBRANCH  33  34
ENDBRANCH  31  33
ENDBRANCH   7  31
TORSDOF 13
ENDMDL
MODEL 5
REMARK VINA RESULT:      -8.6      3.195      6.471
REMARK  13 active torsions:
REMARK  status: ('A' for Active; 'I' for Inactive)
REMARK    1  A    between atoms: C2_2  and  O3_3 
REMARK    2  A    between atoms: O3_3  and  C4_4 
REMARK    3  A    between atoms: C10_10  and  C11_11 
REMARK    4  A    between atoms: C11_11  and  O13_13 
REMARK    5  A    between atoms: O13_13  and  C14_14 
REMARK    6  A    between atoms: C14_14  and  O17_16 
REMARK    7  A    between atoms: O17_16  and  C18_17 
REMARK    8  A    between atoms: C18_17  and  O20_19 
REMARK    9  A    between atoms: O20_19  and  C21_20 
REMARK   10  A    between atoms: N28_27  and  C29_28 
REMARK   11  A    between atoms: C29_28  and  C30_29 
REMARK   12  A    between atoms: C33_32  and  C34_33 
REMARK   13  A    between atoms: C39_38  and  C40_39 
ROOT
ATOM      1  C4  ZIN A   1      17.926   6.597  16.325  0.00  0.00     0.249 A 
ATOM      2  N5  ZIN A   1      16.782   6.794  16.925  0.00  0.00    -0.206 NA
ATOM      3  C6  ZIN A   1      16.543   5.776  17.794  0.00  0.00     0.089 A 
ATOM      4  C7  ZIN A   1      15.497   5.489  18.672  0.00  0.00     0.034 A 
ATOM      5  C8  ZIN A   1      15.536   4.348  19.448  0.00  0.00     0.003 A 
ATOM      6  C9  ZIN A   1      16.604   3.475  19.366  0.00  0.00     0.020 A 
ATOM      7  C10 ZIN A   1      17.666   3.743  18.500  0.00  0.00     0.069 A 
ATOM      8  C27 ZIN A   1      17.636   4.898  17.707  0.00  0.00     0.083 A 
ATOM      9  N28 ZIN A   1      18.493   5.439  16.774  0.00  0.00    -0.304 N 
ENDROOT
BRANCH   9  10
ATOM     10  C29 ZIN A   1      19.775   4.877  16.343  0.00  0.00     0.171 C 
BRANCH  10  11
ATOM     11  C30 ZIN A   1      19.613   4.238  14.988  0.00  0.00    -0.040 A 
ATOM     12  C46 ZIN A   1      18.956   3.027  14.872  0.00  0.00     0.010 A 
ATOM     13  C45 ZIN A   1      18.804   2.437  13.634  0.00  0.00     0.013 A 
ATOM     14  C33 ZIN A   1      19.316   3.064  12.498  0.00  0.00    -0.025 A 
ATOM     15  C32 ZIN A   1      19.979   4.284  12.622  0.00  0.00     0.013 A 
ATOM     16  C31 ZIN A   1      20.119   4.867  13.865  0.00  0.00     0.010 A 
BRANCH  14  17
ATOM     17  C34 ZIN A   1      19.157   2.435  11.165  0.00  0.00    -0.012 A 
ATOM     18  C39 ZIN A   1      18.301   3.009  10.213  0.00  0.00     0.026 A 
ATOM     19  C38 ZIN A   1      18.164   2.413   8.963  0.00  0.00     0.016 A 
ATOM     20  C37 ZIN A   1      18.860   1.257   8.669  0.00  0.00     0.001 A 
ATOM     21  C36 ZIN A   1      19.700   0.688   9.611  0.00  0.00     0.001 A 
ATOM     22  C35 ZIN A   1      19.851   1.270  10.854  0.00  0.00     0.013 A 
BRANCH  18  23
ATOM     23  C40 ZIN A   1      17.550   4.247  10.535  0.00  0.00     0.207 A 
ATOM     24  N44 ZIN A   1      17.681   5.431   9.944  0.00  0.00    -0.106 NA
ATOM     25  N43 ZIN A   1      16.854   6.242  10.510  0.00  0.00    -0.021 NA
ATOM     26  N42 ZIN A   1      16.211   5.613  11.431  0.00  0.00    -0.021 NA
ATOM     27  N41 ZIN A   1      16.612   4.388  11.465  0.00  0.00    -0.106 NA
ENDBRANCH  18  23
ENDBRANCH  14  17
ENDBRANCH  10  11
ENDBRANCH   9  10
BRANCH   1  28
ATOM     28  O3  ZIN A   1      18.469   7.419  15.398  0.00  0.00    -0.321 OA
BRANCH  28  29
ATOM     29  C2  ZIN A   1      17.569   8.051  14.486  0.00  0.00     0.174 C 
ATOM     30  C1  ZIN A   1      17.729   9.570  14.582  0.00  0.00     0.034 C 
ENDBRANCH  28  29
ENDBRANCH   1  28
BRANCH   7  31
ATOM     31  C11 ZIN A   1      18.808   2.815  18.418  0.00  0.00     0.298 C 
ATOM     32  O12 ZIN A   1      19.721   2.903  19.215  0.00  0.00    -0.259 OA
BRANCH  31  33
ATOM     33  O13 ZIN A   1      18.840   1.869  17.458  0.00  0.00    -0.285 OA
BRANCH  33  34
ATOM     34  C14 ZIN A   1      18.365   0.545  17.823  0.00  0.00     0.277 C 
ATOM     35  C16 ZIN A   1      16.944   0.350  17.292  0.00  0.00     0.072 C 
BRANCH  34  36
ATOM     36  O17 ZIN A   1      19.240  -0.459  17.244  0.00  0.00    -0.266 OA
BRANCH  36  37
ATOM     37  C18 ZIN A   1      18.767  -1.146  16.188  0.00  0.00     0.409 C 
ATOM     38  O19 ZIN A   1      18.115  -2.155  16.363  0.00  0.00    -0.229 OA
BRANCH  37  39
ATOM     39  O20 ZIN A   1      19.016  -0.713  14.938  0.00  0.00    -0.293 OA
BRANCH  39  40
ATOM     40  C21 ZIN A   1      18.570  -1.561  13.848  0.00  0.00     0.134 C 
ATOM     41  C26 ZIN A   1      19.784  -2.071  13.068  0.00  0.00     0.032 C 
ATOM     42  C25 ZIN A   1      19.314  -2.964  11.918  0.00  0.00     0.002 C 
ATOM     43  C24 ZIN A   1      18.410  -2.158  10.983  0.00  0.00     0.000 C 
ATOM     44  C23 ZIN A   1      17.196  -1.649  11.762  0.00  0.00     0.002 C 
ATOM     45  C22 ZIN A   1      17.666  -0.755  12.912  0.00  0.00     0.032 C 
ENDBRANCH  39  40
ENDBRANCH  37  39
ENDBRANCH  36  37
ENDBRANCH  34  36
ENDBRANCH  33  34
ENDBRANCH  31  33
ENDBRANCH   7  31
TORSDOF 13
ENDMDL
MODEL 6
REMARK VINA RESULT:      -8.5      4.523     10.873
REMARK  13 active torsions:
REMARK  status: ('A' for Active; 'I' for Inactive)
REMARK    1  A    between atoms: C2_2  and  O3_3 
REMARK    2  A    between atoms: O3_3  and  C4_4 
REMARK    3  A    between atoms: C10_10  and  C11_11 
REMARK    4  A    between atoms: C11_11  and  O13_13 
REMARK    5  A    between atoms: O13_13  and  C14_14 
REMARK    6  A    between atoms: C14_14  and  O17_16 
REMARK    7  A    between atoms: O17_16  and  C18_17 
REMARK    8  A    between atoms: C18_17  and  O20_19 
REMARK    9  A    between atoms: O20_19  and  C21_20 
REMARK   10  A    between atoms: N28_27  and  C29_28 
REMARK   11  A    between atoms: C29_28  and  C30_29 
REMARK   12  A    between atoms: C33_32  and  C34_33 
REMARK   13  A    between atoms: C39_38  and  C40_39 
ROOT
ATOM      1  C4  ZIN A   1      17.714  -3.367   9.935  0.00  0.00     0.249 A 
ATOM      2  N5  ZIN A   1      16.895  -4.385   9.898  0.00  0.00    -0.206 NA
ATOM      3  C6  ZIN A   1      16.969  -4.985   8.680  0.00  0.00     0.089 A 
ATOM      4  C7  ZIN A   1      16.329  -6.087   8.113  0.00  0.00     0.034 A 
ATOM      5  C8  ZIN A   1      16.618  -6.468   6.818  0.00  0.00     0.003 A 
ATOM      6  C9  ZIN A   1      17.539  -5.763   6.066  0.00  0.00     0.020 A 
ATOM      7  C10 ZIN A   1      18.198  -4.661   6.612  0.00  0.00     0.069 A 
ATOM      8  C27 ZIN A   1      17.911  -4.266   7.926  0.00  0.00     0.083 A 
ATOM      9  N28 ZIN A   1      18.365  -3.251   8.740  0.00  0.00    -0.304 N 
ENDROOT
BRANCH   9  10
ATOM     10  C29 ZIN A   1      19.362  -2.237   8.390  0.00  0.00     0.171 C 
BRANCH  10  11
ATOM     11  C30 ZIN A   1      18.984  -0.922   9.022  0.00  0.00    -0.040 A 
ATOM     12  C46 ZIN A   1      19.926  -0.209   9.743  0.00  0.00     0.010 A 
ATOM     13  C45 ZIN A   1      19.586   0.995  10.324  0.00  0.00     0.013 A 
ATOM     14  C33 ZIN A   1      18.291   1.493  10.184  0.00  0.00    -0.025 A 
ATOM     15  C32 ZIN A   1      17.347   0.771   9.457  0.00  0.00     0.013 A 
ATOM     16  C31 ZIN A   1      17.700  -0.431   8.876  0.00  0.00     0.010 A 
BRANCH  14  17
ATOM     17  C34 ZIN A   1      17.920   2.787  10.806  0.00  0.00    -0.012 A 
ATOM     18  C39 ZIN A   1      17.789   2.886  12.201  0.00  0.00     0.026 A 
ATOM     19  C38 ZIN A   1      17.447   4.107  12.774  0.00  0.00     0.016 A 
ATOM     20  C37 ZIN A   1      17.226   5.209  11.972  0.00  0.00     0.001 A 
ATOM     21  C36 ZIN A   1      17.348   5.109  10.597  0.00  0.00     0.001 A 
ATOM     22  C35 ZIN A   1      17.694   3.907  10.012  0.00  0.00     0.013 A 
BRANCH  18  23
ATOM     23  C40 ZIN A   1      18.022   1.698  13.058  0.00  0.00     0.207 A 
ATOM     24  N44 ZIN A   1      17.192   0.675  13.238  0.00  0.00    -0.106 NA
ATOM     25  N43 ZIN A   1      17.760  -0.147  14.053  0.00  0.00    -0.021 NA
ATOM     26  N42 ZIN A   1      18.912   0.320  14.388  0.00  0.00    -0.021 NA
ATOM     27  N41 ZIN A   1      19.101   1.447  13.790  0.00  0.00    -0.106 NA
ENDBRANCH  18  23
ENDBRANCH  14  17
ENDBRANCH  10  11
ENDBRANCH   9  10
BRANCH   1  28
ATOM     28  O3  ZIN A   1      17.891  -2.549  10.997  0.00  0.00    -0.321 OA
BRANCH  28  29
ATOM     29  C2  ZIN A   1      18.429  -3.136  12.184  0.00  0.00     0.174 C 
ATOM     30  C1  ZIN A   1      19.926  -2.832  12.271  0.00  0.00     0.034 C 
ENDBRANCH  28  29
ENDBRANCH   1  28
BRANCH   7  31
ATOM     31  C11 ZIN A   1      19.185  -3.914   5.811  0.00  0.00     0.298 C 
ATOM     32  O12 ZIN A   1      20.342  -3.851   6.179  0.00  0.00    -0.259 OA
BRANCH  31  33
ATOM     33  O13 ZIN A   1      18.805  -3.302   4.673  0.00  0.00    -0.285 OA
BRANCH  33  34
ATOM     34  C14 ZIN A   1      17.649  -2.426   4.750  0.00  0.00     0.277 C 
ATOM     35  C16 ZIN A   1      18.117  -0.977   4.901  0.00  0.00     0.072 C 
BRANCH  34  36
ATOM     36  O17 ZIN A   1      16.861  -2.556   3.537  0.00  0.00    -0.266 OA
BRANCH  36  37
ATOM     37  C18 ZIN A   1      16.440  -3.792   3.213  0.00  0.00     0.409 C 
ATOM     38  O19 ZIN A   1      17.138  -4.511   2.528  0.00  0.00    -0.229 OA
BRANCH  37  39
ATOM     39  O20 ZIN A   1      15.244  -4.230   3.647  0.00  0.00    -0.293 OA
BRANCH  39  40
ATOM     40  C21 ZIN A   1      14.795  -5.518   3.151  0.00  0.00     0.134 C 
ATOM     41  C26 ZIN A   1      13.731  -5.305   2.071  0.00  0.00     0.032 C 
ATOM     42  C25 ZIN A   1      13.257  -6.663   1.548  0.00  0.00     0.002 C 
ATOM     43  C24 ZIN A   1      12.659  -7.473   2.700  0.00  0.00     0.000 C 
ATOM     44  C23 ZIN A   1      13.722  -7.686   3.778  0.00  0.00     0.002 C 
ATOM     45  C22 ZIN A   1      14.196  -6.329   4.302  0.00  0.00     0.032 C 
ENDBRANCH  39  40
ENDBRANCH  37  39
ENDBRANCH  36  37
ENDBRANCH  34  36
ENDBRANCH  33  34
ENDBRANCH  31  33
ENDBRANCH   7  31
TORSDOF 13
ENDMDL
MODEL 7
REMARK VINA RESULT:      -8.5      2.621      4.837
REMARK  13 active torsions:
REMARK  status: ('A' for Active; 'I' for Inactive)
REMARK    1  A    between atoms: C2_2  and  O3_3 
REMARK    2  A    between atoms: O3_3  and  C4_4 
REMARK    3  A    between atoms: C10_10  and  C11_11 
REMARK    4  A    between atoms: C11_11  and  O13_13 
REMARK    5  A    between atoms: O13_13  and  C14_14 
REMARK    6  A    between atoms: C14_14  and  O17_16 
REMARK    7  A    between atoms: O17_16  and  C18_17 
REMARK    8  A    between atoms: C18_17  and  O20_19 
REMARK    9  A    between atoms: O20_19  and  C21_20 
REMARK   10  A    between atoms: N28_27  and  C29_28 
REMARK   11  A    between atoms: C29_28  and  C30_29 
REMARK   12  A    between atoms: C33_32  and  C34_33 
REMARK   13  A    between atoms: C39_38  and  C40_39 
ROOT
ATOM      1  C4  ZIN A   1      18.487   1.813  15.747  0.00  0.00     0.249 A 
ATOM      2  N5  ZIN A   1      19.370   2.390  16.520  0.00  0.00    -0.206 NA
ATOM      3  C6  ZIN A   1      19.720   3.593  15.991  0.00  0.00     0.089 A 
ATOM      4  C7  ZIN A   1      20.600   4.598  16.394  0.00  0.00     0.034 A 
ATOM      5  C8  ZIN A   1      20.749   5.737  15.629  0.00  0.00     0.003 A 
ATOM      6  C9  ZIN A   1      20.035   5.897  14.457  0.00  0.00     0.020 A 
ATOM      7  C10 ZIN A   1      19.143   4.910  14.035  0.00  0.00     0.069 A 
ATOM      8  C27 ZIN A   1      18.985   3.749  14.804  0.00  0.00     0.083 A 
ATOM      9  N28 ZIN A   1      18.216   2.613  14.674  0.00  0.00    -0.304 N 
ENDROOT
BRANCH   9  10
ATOM     10  C29 ZIN A   1      17.281   2.318  13.587  0.00  0.00     0.171 C 
BRANCH  10  11
ATOM     11  C30 ZIN A   1      17.714   1.060  12.879  0.00  0.00    -0.040 A 
ATOM     12  C46 ZIN A   1      19.027   0.919  12.467  0.00  0.00     0.010 A 
ATOM     13  C45 ZIN A   1      19.430  -0.230  11.819  0.00  0.00     0.013 A 
ATOM     14  C33 ZIN A   1      18.510  -1.251  11.578  0.00  0.00    -0.025 A 
ATOM     15  C32 ZIN A   1      17.189  -1.103  11.995  0.00  0.00     0.013 A 
ATOM     16  C31 ZIN A   1      16.799   0.049  12.647  0.00  0.00     0.010 A 
BRANCH  14  17
ATOM     17  C34 ZIN A   1      18.937  -2.488  10.882  0.00  0.00    -0.012 A 
ATOM     18  C39 ZIN A   1      18.984  -2.527   9.479  0.00  0.00     0.026 A 
ATOM     19  C38 ZIN A   1      19.392  -3.692   8.836  0.00  0.00     0.016 A 
ATOM     20  C37 ZIN A   1      19.736  -4.805   9.577  0.00  0.00     0.001 A 
ATOM     21  C36 ZIN A   1      19.684  -4.769  10.960  0.00  0.00     0.001 A 
ATOM     22  C35 ZIN A   1      19.287  -3.619  11.614  0.00  0.00     0.013 A 
BRANCH  18  23
ATOM     23  C40 ZIN A   1      18.607  -1.330   8.687  0.00  0.00     0.207 A 
ATOM     24  N44 ZIN A   1      17.382  -0.988   8.300  0.00  0.00    -0.106 NA
ATOM     25  N43 ZIN A   1      17.478   0.112   7.635  0.00  0.00    -0.021 NA
ATOM     26  N42 ZIN A   1      18.713   0.471   7.591  0.00  0.00    -0.021 NA
ATOM     27  N41 ZIN A   1      19.428  -0.390   8.231  0.00  0.00    -0.106 NA
ENDBRANCH  18  23
ENDBRANCH  14  17
ENDBRANCH  10  11
ENDBRANCH   9  10
BRANCH   1  28
ATOM     28  O3  ZIN A   1      17.924   0.605  15.976  0.00  0.00    -0.321 OA
BRANCH  28  29
ATOM     29  C2  ZIN A   1      18.780  -0.424  16.477  0.00  0.00     0.174 C 
ATOM     30  C1  ZIN A   1      19.101  -1.413  15.355  0.00  0.00     0.034 C 
ENDBRANCH  28  29
ENDBRANCH   1  28
BRANCH   7  31
ATOM     31  C11 ZIN A   1      18.377   5.084  12.789  0.00  0.00     0.298 C 
ATOM     32  O12 ZIN A   1      18.833   4.687  11.735  0.00  0.00    -0.259 OA
BRANCH  31  33
ATOM     33  O13 ZIN A   1      17.170   5.684  12.817  0.00  0.00    -0.285 OA
BRANCH  33  34
ATOM     34  C14 ZIN A   1      16.735   6.227  14.092  0.00  0.00     0.277 C 
ATOM     35  C16 ZIN A   1      16.763   7.755  14.031  0.00  0.00     0.072 C 
BRANCH  34  36
ATOM     36  O17 ZIN A   1      15.382   5.779  14.372  0.00  0.00    -0.266 OA
BRANCH  36  37
ATOM     37  C18 ZIN A   1      14.805   6.243  15.495  0.00  0.00     0.409 C 
ATOM     38  O19 ZIN A   1      13.595   6.311  15.573  0.00  0.00    -0.229 OA
BRANCH  37  39
ATOM     39  O20 ZIN A   1      15.570   6.634  16.532  0.00  0.00    -0.293 OA
BRANCH  39  40
ATOM     40  C21 ZIN A   1      15.793   5.662  17.587  0.00  0.00     0.134 C 
ATOM     41  C26 ZIN A   1      15.133   6.151  18.878  0.00  0.00     0.032 C 
ATOM     42  C25 ZIN A   1      15.368   5.128  19.991  0.00  0.00     0.002 C 
ATOM     43  C24 ZIN A   1      16.871   4.960  20.219  0.00  0.00     0.000 C 
ATOM     44  C23 ZIN A   1      17.531   4.471  18.929  0.00  0.00     0.002 C 
ATOM     45  C22 ZIN A   1      17.297   5.494  17.816  0.00  0.00     0.032 C 
ENDBRANCH  39  40
ENDBRANCH  37  39
ENDBRANCH  36  37
ENDBRANCH  34  36
ENDBRANCH  33  34
ENDBRANCH  31  33
ENDBRANCH   7  31
TORSDOF 13
ENDMDL
MODEL 8
REMARK VINA RESULT:      -8.4      3.503      5.873
REMARK  13 active torsions:
REMARK  status: ('A' for Active; 'I' for Inactive)
REMARK    1  A    between atoms: C2_2  and  O3_3 
REMARK    2  A    between atoms: O3_3  and  C4_4 
REMARK    3  A    between atoms: C10_10  and  C11_11 
REMARK    4  A    between atoms: C11_11  and  O13_13 
REMARK    5  A    between atoms: O13_13  and  C14_14 
REMARK    6  A    between atoms: C14_14  and  O17_16 
REMARK    7  A    between atoms: O17_16  and  C18_17 
REMARK    8  A    between atoms: C18_17  and  O20_19 
REMARK    9  A    between atoms: O20_19  and  C21_20 
REMARK   10  A    between atoms: N28_27  and  C29_28 
REMARK   11  A    between atoms: C29_28  and  C30_29 
REMARK   12  A    between atoms: C33_32  and  C34_33 
REMARK   13  A    between atoms: C39_38  and  C40_39 
ROOT
ATOM      1  C4  ZIN A   1      19.261  -2.239   6.049  0.00  0.00     0.249 A 
ATOM      2  N5  ZIN A   1      19.126  -0.995   5.671  0.00  0.00    -0.206 NA
ATOM      3  C6  ZIN A   1      19.084  -0.189   6.765  0.00  0.00     0.089 A 
ATOM      4  C7  ZIN A   1      18.954   1.190   6.938  0.00  0.00     0.034 A 
ATOM      5  C8  ZIN A   1      18.944   1.733   8.206  0.00  0.00     0.003 A 
ATOM      6  C9  ZIN A   1      19.055   0.923   9.320  0.00  0.00     0.020 A 
ATOM      7  C10 ZIN A   1      19.192  -0.459   9.175  0.00  0.00     0.069 A 
ATOM      8  C27 ZIN A   1      19.204  -1.020   7.891  0.00  0.00     0.083 A 
ATOM      9  N28 ZIN A   1      19.314  -2.307   7.411  0.00  0.00    -0.304 N 
ENDROOT
BRANCH   9  10
ATOM     10  C29 ZIN A   1      19.461  -3.523   8.213  0.00  0.00     0.171 C 
BRANCH  10  11
ATOM     11  C30 ZIN A   1      18.198  -4.340   8.124  0.00  0.00    -0.040 A 
ATOM     12  C46 ZIN A   1      17.854  -4.947   6.929  0.00  0.00     0.010 A 
ATOM     13  C45 ZIN A   1      16.699  -5.697   6.841  0.00  0.00     0.013 A 
ATOM     14  C33 ZIN A   1      15.878  -5.842   7.959  0.00  0.00    -0.025 A 
ATOM     15  C32 ZIN A   1      16.230  -5.228   9.159  0.00  0.00     0.013 A 
ATOM     16  C31 ZIN A   1      17.390  -4.485   9.237  0.00  0.00     0.010 A 
BRANCH  14  17
ATOM     17  C34 ZIN A   1      14.635  -6.646   7.870  0.00  0.00    -0.012 A 
ATOM     18  C39 ZIN A   1      14.681  -7.963   7.386  0.00  0.00     0.026 A 
ATOM     19  C38 ZIN A   1      13.510  -8.710   7.313  0.00  0.00     0.016 A 
ATOM     20  C37 ZIN A   1      12.309  -8.151   7.704  0.00  0.00     0.001 A 
ATOM     21  C36 ZIN A   1      12.263  -6.851   8.176  0.00  0.00     0.001 A 
ATOM     22  C35 ZIN A   1      13.418  -6.098   8.261  0.00  0.00     0.013 A 
BRANCH  18  23
ATOM     23  C40 ZIN A   1      15.972  -8.557   6.961  0.00  0.00     0.207 A 
ATOM     24  N44 ZIN A   1      16.401  -8.713   5.712  0.00  0.00    -0.106 NA
ATOM     25  N43 ZIN A   1      17.564  -9.265   5.767  0.00  0.00    -0.021 NA
ATOM     26  N42 ZIN A   1      17.881  -9.459   6.999  0.00  0.00    -0.021 NA
ATOM     27  N41 ZIN A   1      16.927  -9.031   7.753  0.00  0.00    -0.106 NA
ENDBRANCH  18  23
ENDBRANCH  14  17
ENDBRANCH  10  11
ENDBRANCH   9  10
BRANCH   1  28
ATOM     28  O3  ZIN A   1      19.337  -3.300   5.214  0.00  0.00    -0.321 OA
BRANCH  28  29
ATOM     29  C2  ZIN A   1      18.840  -3.119   3.887  0.00  0.00     0.174 C 
ATOM     30  C1  ZIN A   1      17.331  -3.372   3.868  0.00  0.00     0.034 C 
ENDBRANCH  28  29
ENDBRANCH   1  28
BRANCH   7  31
ATOM     31  C11 ZIN A   1      19.318  -1.321  10.364  0.00  0.00     0.298 C 
ATOM     32  O12 ZIN A   1      20.403  -1.772  10.674  0.00  0.00    -0.259 OA
BRANCH  31  33
ATOM     33  O13 ZIN A   1      18.231  -1.610  11.106  0.00  0.00    -0.285 OA
BRANCH  33  34
ATOM     34  C14 ZIN A   1      17.897  -0.683  12.174  0.00  0.00     0.277 C 
ATOM     35  C16 ZIN A   1      16.554  -0.018  11.869  0.00  0.00     0.072 C 
BRANCH  34  36
ATOM     36  O17 ZIN A   1      17.806  -1.406  13.430  0.00  0.00    -0.266 OA
BRANCH  36  37
ATOM     37  C18 ZIN A   1      18.863  -1.326  14.258  0.00  0.00     0.409 C 
ATOM     38  O19 ZIN A   1      19.963  -1.067  13.815  0.00  0.00    -0.229 OA
BRANCH  37  39
ATOM     39  O20 ZIN A   1      18.700  -1.534  15.578  0.00  0.00    -0.293 OA
BRANCH  39  40
ATOM     40  C21 ZIN A   1      18.504  -0.361  16.410  0.00  0.00     0.134 C 
ATOM     41  C26 ZIN A   1      19.445  -0.427  17.614  0.00  0.00     0.032 C 
ATOM     42  C25 ZIN A   1      19.239   0.810  18.492  0.00  0.00     0.002 C 
ATOM     43  C24 ZIN A   1      17.789   0.852  18.980  0.00  0.00     0.000 C 
ATOM     44  C23 ZIN A   1      16.848   0.918  17.776  0.00  0.00     0.002 C 
ATOM     45  C22 ZIN A   1      17.054  -0.318  16.899  0.00  0.00     0.032 C 
ENDBRANCH  39  40
ENDBRANCH  37  39
ENDBRANCH  36  37
ENDBRANCH  34  36
ENDBRANCH  33  34
ENDBRANCH  31  33
ENDBRANCH   7  31
TORSDOF 13
ENDMDL
MODEL 9
REMARK VINA RESULT:      -8.2      2.365      5.236
REMARK  13 active torsions:
REMARK  status: ('A' for Active; 'I' for Inactive)
REMARK    1  A    between atoms: C2_2  and  O3_3 
REMARK    2  A    between atoms: O3_3  and  C4_4 
REMARK    3  A    between atoms: C10_10  and  C11_11 
REMARK    4  A    between atoms: C11_11  and  O13_13 
REMARK    5  A    between atoms: O13_13  and  C14_14 
REMARK    6  A    between atoms: C14_14  and  O17_16 
REMARK    7  A    between atoms: O17_16  and  C18_17 
REMARK    8  A    between atoms: C18_17  and  O20_19 
REMARK    9  A    between atoms: O20_19  and  C21_20 
REMARK   10  A    between atoms: N28_27  and  C29_28 
REMARK   11  A    between atoms: C29_28  and  C30_29 
REMARK   12  A    between atoms: C33_32  and  C34_33 
REMARK   13  A    between atoms: C39_38  and  C40_39 
ROOT
ATOM      1  C4  ZIN A   1      19.234  -1.495  13.714  0.00  0.00     0.249 A 
ATOM      2  N5  ZIN A   1      18.505  -2.096  14.618  0.00  0.00    -0.206 NA
ATOM      3  C6  ZIN A   1      18.117  -1.196  15.561  0.00  0.00     0.089 A 
ATOM      4  C7  ZIN A   1      17.345  -1.293  16.719  0.00  0.00     0.034 A 
ATOM      5  C8  ZIN A   1      17.117  -0.176  17.497  0.00  0.00     0.003 A 
ATOM      6  C9  ZIN A   1      17.652   1.049  17.145  0.00  0.00     0.020 A 
ATOM      7  C10 ZIN A   1      18.422   1.174  15.987  0.00  0.00     0.069 A 
ATOM      8  C27 ZIN A   1      18.659   0.045  15.191  0.00  0.00     0.083 A 
ATOM      9  N28 ZIN A   1      19.359  -0.172  14.024  0.00  0.00    -0.304 N 
ENDROOT
BRANCH   9  10
ATOM     10  C29 ZIN A   1      20.099   0.833  13.256  0.00  0.00     0.171 C 
BRANCH  10  11
ATOM     11  C30 ZIN A   1      19.777   0.683  11.792  0.00  0.00    -0.040 A 
ATOM     12  C46 ZIN A   1      20.659   0.020  10.957  0.00  0.00     0.010 A 
ATOM     13  C45 ZIN A   1      20.369  -0.120   9.615  0.00  0.00     0.013 A 
ATOM     14  C33 ZIN A   1      19.185   0.409   9.101  0.00  0.00    -0.025 A 
ATOM     15  C32 ZIN A   1      18.302   1.076   9.947  0.00  0.00     0.013 A 
ATOM     16  C31 ZIN A   1      18.599   1.206  11.288  0.00  0.00     0.010 A 
BRANCH  14  17
ATOM     17  C34 ZIN A   1      18.869   0.262   7.660  0.00  0.00    -0.012 A 
ATOM     18  C39 ZIN A   1      18.412  -0.968   7.161  0.00  0.00     0.026 A 
ATOM     19  C38 ZIN A   1      18.112  -1.093   5.808  0.00  0.00     0.016 A 
ATOM     20  C37 ZIN A   1      18.276  -0.013   4.962  0.00  0.00     0.001 A 
ATOM     21  C36 ZIN A   1      18.732   1.198   5.454  0.00  0.00     0.001 A 
ATOM     22  C35 ZIN A   1      19.028   1.340   6.795  0.00  0.00     0.013 A 
BRANCH  18  23
ATOM     23  C40 ZIN A   1      18.244  -2.127   8.071  0.00  0.00     0.207 A 
ATOM     24  N44 ZIN A   1      17.382  -2.226   9.079  0.00  0.00    -0.106 NA
ATOM     25  N43 ZIN A   1      17.550  -3.384   9.621  0.00  0.00    -0.021 NA
ATOM     26  N42 ZIN A   1      18.481  -4.013   8.993  0.00  0.00    -0.021 NA
ATOM     27  N41 ZIN A   1      18.921  -3.270   8.035  0.00  0.00    -0.106 NA
ENDBRANCH  18  23
ENDBRANCH  14  17
ENDBRANCH  10  11
ENDBRANCH   9  10
BRANCH   1  28
ATOM     28  O3  ZIN A   1      19.784  -2.095  12.635  0.00  0.00    -0.321 OA
BRANCH  28  29
ATOM     29  C2  ZIN A   1      19.317  -3.407  12.314  0.00  0.00     0.174 C 
ATOM     30  C1  ZIN A   1      20.436  -4.194  11.628  0.00  0.00     0.034 C 
ENDBRANCH  28  29
ENDBRANCH   1  28
BRANCH   7  31
ATOM     31  C11 ZIN A   1      18.986   2.482  15.608  0.00  0.00     0.298 C 
ATOM     32  O12 ZIN A   1      19.998   2.886  16.146  0.00  0.00    -0.259 OA
BRANCH  31  33
ATOM     33  O13 ZIN A   1      18.379   3.230  14.665  0.00  0.00    -0.285 OA
BRANCH  33  34
ATOM     34  C14 ZIN A   1      19.008   4.493  14.321  0.00  0.00     0.277 C 
ATOM     35  C16 ZIN A   1      19.312   4.518  12.821  0.00  0.00     0.072 C 
BRANCH  34  36
ATOM     36  O17 ZIN A   1      18.111   5.586  14.651  0.00  0.00    -0.266 OA
BRANCH  36  37
ATOM     37  C18 ZIN A   1      18.415   6.318  15.738  0.00  0.00     0.409 C 
ATOM     38  O19 ZIN A   1      18.526   7.524  15.647  0.00  0.00    -0.229 OA
BRANCH  37  39
ATOM     39  O20 ZIN A   1      18.597   5.712  16.927  0.00  0.00    -0.293 OA
BRANCH  39  40
ATOM     40  C21 ZIN A   1      17.412   5.203  17.593  0.00  0.00     0.134 C 
ATOM     41  C26 ZIN A   1      16.615   6.371  18.179  0.00  0.00     0.032 C 
ATOM     42  C25 ZIN A   1      15.367   5.834  18.883  0.00  0.00     0.002 C 
ATOM     43  C24 ZIN A   1      15.784   4.886  20.008  0.00  0.00     0.000 C 
ATOM     44  C23 ZIN A   1      16.580   3.719  19.423  0.00  0.00     0.002 C 
ATOM     45  C22 ZIN A   1      17.828   4.255  18.720  0.00  0.00     0.032 C 
ENDBRANCH  39  40
ENDBRANCH  37  39
ENDBRANCH  36  37
ENDBRANCH  34  36
ENDBRANCH  33  34
ENDBRANCH  31  33
ENDBRANCH   7  31
TORSDOF 13
ENDMDL
