MODEL 1
REMARK VINA RESULT:      -8.4      0.000      0.000
REMARK  4 active torsions:
REMARK  status: ('A' for Active; 'I' for Inactive)
REMARK    1  A    between atoms: O2_2  and  C3_3 
REMARK    2  A    between atoms: C4_4  and  N5_5 
REMARK    3  A    between atoms: N18_17  and  C19_18 
REMARK    4  A    between atoms: C23_22  and  C24_23 
ROOT
ATOM      1  C3  ZIN A   1      18.641  -0.598  10.336  0.00  0.00     0.120 A 
ATOM      2  C4  ZIN A   1      18.791   0.727   9.948  0.00  0.00     0.086 A 
ATOM      3  C13 ZIN A   1      19.133   1.045   8.633  0.00  0.00     0.141 A 
ATOM      4  F14 ZIN A   1      19.276   2.339   8.270  0.00  0.00    -0.204 F 
ATOM      5  C15 ZIN A   1      19.323   0.055   7.710  0.00  0.00     0.062 A 
ATOM      6  C16 ZIN A   1      19.175  -1.283   8.083  0.00  0.00     0.048 A 
ATOM      7  C17 ZIN A   1      18.838  -1.617   9.407  0.00  0.00     0.084 A 
ATOM      8  N18 ZIN A   1      18.691  -2.940   9.776  0.00  0.00    -0.348 N 
ATOM      9  C22 ZIN A   1      18.858  -3.954   8.918  0.00  0.00     0.114 A 
ATOM     10  C23 ZIN A   1      19.189  -3.749   7.593  0.00  0.00     0.107 A 
ATOM     11  C27 ZIN A   1      19.374  -2.370   7.110  0.00  0.00     0.203 A 
ATOM     12  O28 ZIN A   1      19.667  -2.138   5.950  0.00  0.00    -0.286 OA
ENDROOT
BRANCH   2  13
ATOM     13  N5  ZIN A   1      18.600   1.748  10.881  0.00  0.00    -0.275 NA
ATOM     14  C12 ZIN A   1      17.743   2.807  10.332  0.00  0.00     0.131 C 
ATOM     15  C9  ZIN A   1      17.493   3.867  11.409  0.00  0.00     0.229 C 
ATOM     16  N8  ZIN A   1      18.779   4.415  11.862  0.00  0.00     0.090 N 
ATOM     17  C11 ZIN A   1      16.633   4.992  10.829  0.00  0.00     0.044 C 
ATOM     18  C7  ZIN A   1      19.637   3.354  12.409  0.00  0.00     0.284 C 
ATOM     19  H36 ZIN A   1      18.640   5.153  12.535  0.00  0.00     0.316 HD
ATOM     20  C6  ZIN A   1      19.887   2.296  11.332  0.00  0.00     0.126 C 
ENDBRANCH   2  13
BRANCH   1  21
ATOM     21  O2  ZIN A   1      18.309  -0.900  11.621  0.00  0.00    -0.352 OA
ATOM     22  C1  ZIN A   1      17.036  -0.446  12.085  0.00  0.00     0.210 C 
ENDBRANCH   1  21
BRANCH   8  23
ATOM     23  C19 ZIN A   1      18.339  -3.246  11.164  0.00  0.00     0.090 A 
ATOM     24  C21 ZIN A   1      18.515  -4.690  11.637  0.00  0.00     0.028 A 
ATOM     25  C20 ZIN A   1      17.112  -4.127  11.404  0.00  0.00     0.028 A 
ENDBRANCH   8  23
BRANCH  10  26
ATOM     26  C24 ZIN A   1      19.362  -4.886   6.683  0.00  0.00     0.214 C 
ATOM     27  O25 ZIN A   1      20.294  -5.663   6.847  0.00  0.00    -0.644 OA
ATOM     28  O26 ZIN A   1      18.576  -5.059   5.762  0.00  0.00    -0.644 OA
ENDBRANCH  10  26
TORSDOF 4
ENDMDL
MODEL 2
REMARK VINA RESULT:      -8.4      1.290      1.560
REMARK  4 active torsions:
REMARK  status: ('A' for Active; 'I' for Inactive)
REMARK    1  A    between atoms: O2_2  and  C3_3 
REMARK    2  A    between atoms: C4_4  and  N5_5 
REMARK    3  A    between atoms: N18_17  and  C19_18 
REMARK    4  A    between atoms: C23_22  and  C24_23 
ROOT
ATOM      1  C3  ZIN A   1      18.862   0.543  10.945  0.00  0.00     0.120 A 
ATOM      2  C4  ZIN A   1      18.738   1.906  10.706  0.00  0.00     0.086 A 
ATOM      3  C13 ZIN A   1      18.709   2.395   9.399  0.00  0.00     0.141 A 
ATOM      4  F14 ZIN A   1      18.590   3.723   9.181  0.00  0.00    -0.204 F 
ATOM      5  C15 ZIN A   1      18.801   1.537   8.338  0.00  0.00     0.062 A 
ATOM      6  C16 ZIN A   1      18.924   0.164   8.562  0.00  0.00     0.048 A 
ATOM      7  C17 ZIN A   1      18.962  -0.341   9.874  0.00  0.00     0.084 A 
ATOM      8  N18 ZIN A   1      19.083  -1.699  10.094  0.00  0.00    -0.348 N 
ATOM      9  C22 ZIN A   1      19.171  -2.589   9.099  0.00  0.00     0.114 A 
ATOM     10  C23 ZIN A   1      19.144  -2.212   7.770  0.00  0.00     0.107 A 
ATOM     11  C27 ZIN A   1      19.025  -0.782   7.438  0.00  0.00     0.203 A 
ATOM     12  O28 ZIN A   1      18.997  -0.399   6.281  0.00  0.00    -0.286 OA
ENDROOT
BRANCH   2  13
ATOM     13  N5  ZIN A   1      18.644   2.792  11.780  0.00  0.00    -0.275 NA
ATOM     14  C12 ZIN A   1      17.449   3.639  11.660  0.00  0.00     0.131 C 
ATOM     15  C9  ZIN A   1      17.339   4.539  12.893  0.00  0.00     0.229 C 
ATOM     16  N8  ZIN A   1      18.553   5.359  13.008  0.00  0.00     0.090 N 
ATOM     17  C11 ZIN A   1      16.117   5.450  12.753  0.00  0.00     0.044 C 
ATOM     18  C7  ZIN A   1      19.748   4.512  13.127  0.00  0.00     0.284 C 
ATOM     19  H36 ZIN A   1      18.484   6.000  13.784  0.00  0.00     0.316 HD
ATOM     20  C6  ZIN A   1      19.858   3.613  11.894  0.00  0.00     0.126 C 
ENDBRANCH   2  13
BRANCH   1  21
ATOM     21  O2  ZIN A   1      18.890   0.074  12.223  0.00  0.00    -0.352 OA
ATOM     22  C1  ZIN A   1      17.685   0.186  12.981  0.00  0.00     0.210 C 
ENDBRANCH   1  21
BRANCH   8  23
ATOM     23  C19 ZIN A   1      19.118  -2.185  11.475  0.00  0.00     0.090 A 
ATOM     24  C21 ZIN A   1      19.653  -3.597  11.715  0.00  0.00     0.028 A 
ATOM     25  C20 ZIN A   1      18.156  -3.314  11.851  0.00  0.00     0.028 A 
ENDBRANCH   8  23
BRANCH  10  26
ATOM     26  C24 ZIN A   1      19.242  -3.218   6.707  0.00  0.00     0.214 C 
ATOM     27  O25 ZIN A   1      20.341  -3.604   6.330  0.00  0.00    -0.644 OA
ATOM     28  O26 ZIN A   1      18.226  -3.672   6.198  0.00  0.00    -0.644 OA
ENDBRANCH  10  26
TORSDOF 4
ENDMDL
MODEL 3
REMARK VINA RESULT:      -7.8      3.505      5.157
REMARK  4 active torsions:
REMARK  status: ('A' for Active; 'I' for Inactive)
REMARK    1  A    between atoms: O2_2  and  C3_3 
REMARK    2  A    between atoms: C4_4  and  N5_5 
REMARK    3  A    between atoms: N18_17  and  C19_18 
REMARK    4  A    between atoms: C23_22  and  C24_23 
ROOT
ATOM      1  C3  ZIN A   1      18.073   2.225  14.441  0.00  0.00     0.120 A 
ATOM      2  C4  ZIN A   1      17.908   3.434  13.778  0.00  0.00     0.086 A 
ATOM      3  C13 ZIN A   1      17.735   3.464  12.393  0.00  0.00     0.141 A 
ATOM      4  F14 ZIN A   1      17.578   4.648  11.760  0.00  0.00    -0.204 F 
ATOM      5  C15 ZIN A   1      17.725   2.302  11.673  0.00  0.00     0.062 A 
ATOM      6  C16 ZIN A   1      17.888   1.077  12.325  0.00  0.00     0.048 A 
ATOM      7  C17 ZIN A   1      18.070   1.034  13.718  0.00  0.00     0.084 A 
ATOM      8  N18 ZIN A   1      18.230  -0.177  14.363  0.00  0.00    -0.348 N 
ATOM      9  C22 ZIN A   1      18.223  -1.348  13.716  0.00  0.00     0.114 A 
ATOM     10  C23 ZIN A   1      18.052  -1.431  12.347  0.00  0.00     0.107 A 
ATOM     11  C27 ZIN A   1      17.881  -0.189  11.574  0.00  0.00     0.203 A 
ATOM     12  O28 ZIN A   1      17.727  -0.210  10.365  0.00  0.00    -0.286 OA
ENDROOT
BRANCH   2  13
ATOM     13  N5  ZIN A   1      17.917   4.628  14.500  0.00  0.00    -0.275 NA
ATOM     14  C12 ZIN A   1      16.619   5.309  14.408  0.00  0.00     0.131 C 
ATOM     15  C9  ZIN A   1      16.643   6.570  15.276  0.00  0.00     0.229 C 
ATOM     16  N8  ZIN A   1      17.730   7.451  14.826  0.00  0.00     0.090 N 
ATOM     17  C11 ZIN A   1      15.306   7.303  15.150  0.00  0.00     0.044 C 
ATOM     18  C7  ZIN A   1      19.029   6.769  14.917  0.00  0.00     0.284 C 
ATOM     19  H36 ZIN A   1      17.735   8.313  15.348  0.00  0.00     0.316 HD
ATOM     20  C6  ZIN A   1      19.004   5.509  14.049  0.00  0.00     0.126 C 
ENDBRANCH   2  13
BRANCH   1  21
ATOM     21  O2  ZIN A   1      18.241   2.205  15.791  0.00  0.00    -0.352 OA
ATOM     22  C1  ZIN A   1      19.460   2.748  16.301  0.00  0.00     0.210 C 
ENDBRANCH   1  21
BRANCH   8  23
ATOM     23  C19 ZIN A   1      18.416  -0.179  15.816  0.00  0.00     0.090 A 
ATOM     24  C21 ZIN A   1      18.749  -1.514  16.484  0.00  0.00     0.028 A 
ATOM     25  C20 ZIN A   1      17.362  -0.894  16.662  0.00  0.00     0.028 A 
ENDBRANCH   8  23
BRANCH  10  26
ATOM     26  C24 ZIN A   1      18.049  -2.734  11.674  0.00  0.00     0.214 C 
ATOM     27  O25 ZIN A   1      19.109  -3.278  11.390  0.00  0.00    -0.644 OA
ATOM     28  O26 ZIN A   1      16.989  -3.278  11.396  0.00  0.00    -0.644 OA
ENDBRANCH  10  26
TORSDOF 4
ENDMDL
MODEL 4
REMARK VINA RESULT:      -7.8      2.104      2.746
REMARK  4 active torsions:
REMARK  status: ('A' for Active; 'I' for Inactive)
REMARK    1  A    between atoms: O2_2  and  C3_3 
REMARK    2  A    between atoms: C4_4  and  N5_5 
REMARK    3  A    between atoms: N18_17  and  C19_18 
REMARK    4  A    between atoms: C23_22  and  C24_23 
ROOT
ATOM      1  C3  ZIN A   1      18.580  -0.231  10.490  0.00  0.00     0.120 A 
ATOM      2  C4  ZIN A   1      18.666   1.059  11.000  0.00  0.00     0.086 A 
ATOM      3  C13 ZIN A   1      18.825   2.149  10.143  0.00  0.00     0.141 A 
ATOM      4  F14 ZIN A   1      18.907   3.398  10.653  0.00  0.00    -0.204 F 
ATOM      5  C15 ZIN A   1      18.898   1.961   8.792  0.00  0.00     0.062 A 
ATOM      6  C16 ZIN A   1      18.813   0.670   8.262  0.00  0.00     0.048 A 
ATOM      7  C17 ZIN A   1      18.659  -0.437   9.115  0.00  0.00     0.084 A 
ATOM      8  N18 ZIN A   1      18.574  -1.712   8.592  0.00  0.00    -0.348 N 
ATOM      9  C22 ZIN A   1      18.632  -1.962   7.278  0.00  0.00     0.114 A 
ATOM     10  C23 ZIN A   1      18.781  -0.954   6.345  0.00  0.00     0.107 A 
ATOM     11  C27 ZIN A   1      18.888   0.439   6.810  0.00  0.00     0.203 A 
ATOM     12  O28 ZIN A   1      19.021   1.362   6.026  0.00  0.00    -0.286 OA
ENDROOT
BRANCH   2  13
ATOM     13  N5  ZIN A   1      18.593   1.265  12.378  0.00  0.00    -0.275 NA
ATOM     14  C12 ZIN A   1      18.184   2.643  12.683  0.00  0.00     0.131 C 
ATOM     15  C9  ZIN A   1      18.039   2.806  14.199  0.00  0.00     0.229 C 
ATOM     16  N8  ZIN A   1      19.317   2.483  14.848  0.00  0.00     0.090 N 
ATOM     17  C11 ZIN A   1      17.651   4.251  14.522  0.00  0.00     0.044 C 
ATOM     18  C7  ZIN A   1      19.726   1.105  14.542  0.00  0.00     0.284 C 
ATOM     19  H36 ZIN A   1      19.264   2.633  15.844  0.00  0.00     0.316 HD
ATOM     20  C6  ZIN A   1      19.872   0.942  13.028  0.00  0.00     0.126 C 
ENDBRANCH   2  13
BRANCH   1  21
ATOM     21  O2  ZIN A   1      18.426  -1.289  11.333  0.00  0.00    -0.352 OA
ATOM     22  C1  ZIN A   1      17.190  -1.377  12.043  0.00  0.00     0.210 C 
ENDBRANCH   1  21
BRANCH   8  23
ATOM     23  C19 ZIN A   1      18.414  -2.839   9.514  0.00  0.00     0.090 A 
ATOM     24  C21 ZIN A   1      18.923  -4.206   9.054  0.00  0.00     0.028 A 
ATOM     25  C20 ZIN A   1      17.419  -3.935   9.124  0.00  0.00     0.028 A 
ENDBRANCH   8  23
BRANCH  10  26
ATOM     26  C24 ZIN A   1      18.840  -1.268   4.913  0.00  0.00     0.214 C 
ATOM     27  O25 ZIN A   1      17.808  -1.330   4.258  0.00  0.00    -0.644 OA
ATOM     28  O26 ZIN A   1      19.921  -1.467   4.373  0.00  0.00    -0.644 OA
ENDBRANCH  10  26
TORSDOF 4
ENDMDL
MODEL 5
REMARK VINA RESULT:      -7.8      3.858      8.173
REMARK  4 active torsions:
REMARK  status: ('A' for Active; 'I' for Inactive)
REMARK    1  A    between atoms: O2_2  and  C3_3 
REMARK    2  A    between atoms: C4_4  and  N5_5 
REMARK    3  A    between atoms: N18_17  and  C19_18 
REMARK    4  A    between atoms: C23_22  and  C24_23 
ROOT
ATOM      1  C3  ZIN A   1      18.717   0.848  12.759  0.00  0.00     0.120 A 
ATOM      2  C4  ZIN A   1      18.781  -0.451  12.271  0.00  0.00     0.086 A 
ATOM      3  C13 ZIN A   1      18.854  -1.534  13.149  0.00  0.00     0.141 A 
ATOM      4  F14 ZIN A   1      18.917  -2.793  12.660  0.00  0.00    -0.204 F 
ATOM      5  C15 ZIN A   1      18.863  -1.328  14.500  0.00  0.00     0.062 A 
ATOM      6  C16 ZIN A   1      18.798  -0.028  15.007  0.00  0.00     0.048 A 
ATOM      7  C17 ZIN A   1      18.731   1.072  14.133  0.00  0.00     0.084 A 
ATOM      8  N18 ZIN A   1      18.666   2.357  14.635  0.00  0.00    -0.348 N 
ATOM      9  C22 ZIN A   1      18.665   2.624  15.946  0.00  0.00     0.114 A 
ATOM     10  C23 ZIN A   1      18.727   1.625  16.899  0.00  0.00     0.107 A 
ATOM     11  C27 ZIN A   1      18.806   0.222  16.458  0.00  0.00     0.203 A 
ATOM     12  O28 ZIN A   1      18.862  -0.693  17.261  0.00  0.00    -0.286 OA
ENDROOT
BRANCH   2  13
ATOM     13  N5  ZIN A   1      18.773  -0.675  10.894  0.00  0.00    -0.275 NA
ATOM     14  C12 ZIN A   1      18.252  -2.013  10.581  0.00  0.00     0.131 C 
ATOM     15  C9  ZIN A   1      18.185  -2.190   9.062  0.00  0.00     0.229 C 
ATOM     16  N8  ZIN A   1      19.526  -2.004   8.490  0.00  0.00     0.090 N 
ATOM     17  C11 ZIN A   1      17.680  -3.597   8.733  0.00  0.00     0.044 C 
ATOM     18  C7  ZIN A   1      20.048  -0.666   8.803  0.00  0.00     0.284 C 
ATOM     19  H36 ZIN A   1      19.520  -2.166   7.494  0.00  0.00     0.316 HD
ATOM     20  C6  ZIN A   1      20.115  -0.489  10.322  0.00  0.00     0.126 C 
ENDBRANCH   2  13
BRANCH   1  21
ATOM     21  O2  ZIN A   1      18.647   1.898  11.895  0.00  0.00    -0.352 OA
ATOM     22  C1  ZIN A   1      17.472   1.998  11.090  0.00  0.00     0.210 C 
ENDBRANCH   1  21
BRANCH   8  23
ATOM     23  C19 ZIN A   1      18.597   3.475  13.691  0.00  0.00     0.090 A 
ATOM     24  C21 ZIN A   1      18.952   4.867  14.217  0.00  0.00     0.028 A 
ATOM     25  C20 ZIN A   1      17.496   4.515  13.907  0.00  0.00     0.028 A 
ENDBRANCH   8  23
BRANCH  10  26
ATOM     26  C24 ZIN A   1      18.722   1.958  18.328  0.00  0.00     0.214 C 
ATOM     27  O25 ZIN A   1      19.776   2.195  18.904  0.00  0.00    -0.644 OA
ATOM     28  O26 ZIN A   1      17.665   1.998  18.944  0.00  0.00    -0.644 OA
ENDBRANCH  10  26
TORSDOF 4
ENDMDL
MODEL 6
REMARK VINA RESULT:      -7.7      2.896      7.521
REMARK  4 active torsions:
REMARK  status: ('A' for Active; 'I' for Inactive)
REMARK    1  A    between atoms: O2_2  and  C3_3 
REMARK    2  A    between atoms: C4_4  and  N5_5 
REMARK    3  A    between atoms: N18_17  and  C19_18 
REMARK    4  A    between atoms: C23_22  and  C24_23 
ROOT
ATOM      1  C3  ZIN A   1      18.014  -2.158   8.707  0.00  0.00     0.120 A 
ATOM      2  C4  ZIN A   1      17.704  -3.287   9.454  0.00  0.00     0.086 A 
ATOM      3  C13 ZIN A   1      17.385  -3.174  10.808  0.00  0.00     0.141 A 
ATOM      4  F14 ZIN A   1      17.087  -4.282  11.523  0.00  0.00    -0.204 F 
ATOM      5  C15 ZIN A   1      17.372  -1.950  11.415  0.00  0.00     0.062 A 
ATOM      6  C16 ZIN A   1      17.680  -0.804  10.678  0.00  0.00     0.048 A 
ATOM      7  C17 ZIN A   1      18.010  -0.904   9.314  0.00  0.00     0.084 A 
ATOM      8  N18 ZIN A   1      18.313   0.229   8.585  0.00  0.00    -0.348 N 
ATOM      9  C22 ZIN A   1      18.311   1.456   9.120  0.00  0.00     0.114 A 
ATOM     10  C23 ZIN A   1      18.003   1.679  10.448  0.00  0.00     0.107 A 
ATOM     11  C27 ZIN A   1      17.673   0.528  11.306  0.00  0.00     0.203 A 
ATOM     12  O28 ZIN A   1      17.395   0.673  12.484  0.00  0.00    -0.286 OA
ENDROOT
BRANCH   2  13
ATOM     13  N5  ZIN A   1      17.714  -4.544   8.846  0.00  0.00    -0.275 NA
ATOM     14  C12 ZIN A   1      16.354  -5.088   8.743  0.00  0.00     0.131 C 
ATOM     15  C9  ZIN A   1      16.397  -6.427   8.002  0.00  0.00     0.229 C 
ATOM     16  N8  ZIN A   1      17.279  -7.355   8.724  0.00  0.00     0.090 N 
ATOM     17  C11 ZIN A   1      14.987  -7.017   7.927  0.00  0.00     0.044 C 
ATOM     18  C7  ZIN A   1      18.640  -6.809   8.828  0.00  0.00     0.284 C 
ATOM     19  H36 ZIN A   1      17.286  -8.263   8.285  0.00  0.00     0.316 HD
ATOM     20  C6  ZIN A   1      18.596  -5.471   9.569  0.00  0.00     0.126 C 
ENDBRANCH   2  13
BRANCH   1  21
ATOM     21  O2  ZIN A   1      18.324  -2.277   7.387  0.00  0.00    -0.352 OA
ATOM     22  C1  ZIN A   1      19.543  -2.949   7.065  0.00  0.00     0.210 C 
ENDBRANCH   1  21
BRANCH   8  23
ATOM     23  C19 ZIN A   1      18.651   0.081   7.168  0.00  0.00     0.090 A 
ATOM     24  C21 ZIN A   1      18.947   1.355   6.376  0.00  0.00     0.028 A 
ATOM     25  C20 ZIN A   1      17.639   0.598   6.143  0.00  0.00     0.028 A 
ENDBRANCH   8  23
BRANCH  10  26
ATOM     26  C24 ZIN A   1      18.011   3.039  10.997  0.00  0.00     0.214 C 
ATOM     27  O25 ZIN A   1      16.971   3.681  11.054  0.00  0.00    -0.644 OA
ATOM     28  O26 ZIN A   1      19.058   3.531  11.398  0.00  0.00    -0.644 OA
ENDBRANCH  10  26
TORSDOF 4
ENDMDL
MODEL 7
REMARK VINA RESULT:      -7.4      3.199      7.717
REMARK  4 active torsions:
REMARK  status: ('A' for Active; 'I' for Inactive)
REMARK    1  A    between atoms: O2_2  and  C3_3 
REMARK    2  A    between atoms: C4_4  and  N5_5 
REMARK    3  A    between atoms: N18_17  and  C19_18 
REMARK    4  A    between atoms: C23_22  and  C24_23 
ROOT
ATOM      1  C3  ZIN A   1      17.902  -3.174   9.167  0.00  0.00     0.120 A 
ATOM      2  C4  ZIN A   1      17.458  -4.439   9.530  0.00  0.00     0.086 A 
ATOM      3  C13 ZIN A   1      17.383  -4.805  10.875  0.00  0.00     0.141 A 
ATOM      4  F14 ZIN A   1      16.950  -6.039  11.213  0.00  0.00    -0.204 F 
ATOM      5  C15 ZIN A   1      17.746  -3.920  11.852  0.00  0.00     0.062 A 
ATOM      6  C16 ZIN A   1      18.194  -2.643  11.504  0.00  0.00     0.048 A 
ATOM      7  C17 ZIN A   1      18.280  -2.265  10.153  0.00  0.00     0.084 A 
ATOM      8  N18 ZIN A   1      18.721  -1.003   9.809  0.00  0.00    -0.348 N 
ATOM      9  C22 ZIN A   1      19.085  -0.090  10.718  0.00  0.00     0.114 A 
ATOM     10  C23 ZIN A   1      19.042  -0.347  12.075  0.00  0.00     0.107 A 
ATOM     11  C27 ZIN A   1      18.591  -1.671  12.537  0.00  0.00     0.203 A 
ATOM     12  O28 ZIN A   1      18.536  -1.945  13.723  0.00  0.00    -0.286 OA
ENDROOT
BRANCH   2  13
ATOM     13  N5  ZIN A   1      17.084  -5.352   8.542  0.00  0.00    -0.275 NA
ATOM     14  C12 ZIN A   1      15.659  -5.692   8.651  0.00  0.00     0.131 C 
ATOM     15  C9  ZIN A   1      15.272  -6.630   7.505  0.00  0.00     0.229 C 
ATOM     16  N8  ZIN A   1      16.104  -7.840   7.564  0.00  0.00     0.090 N 
ATOM     17  C11 ZIN A   1      13.797  -7.018   7.639  0.00  0.00     0.044 C 
ATOM     18  C7  ZIN A   1      17.530  -7.500   7.456  0.00  0.00     0.284 C 
ATOM     19  H36 ZIN A   1      15.834  -8.500   6.850  0.00  0.00     0.316 HD
ATOM     20  C6  ZIN A   1      17.917  -6.562   8.601  0.00  0.00     0.126 C 
ENDBRANCH   2  13
BRANCH   1  21
ATOM     21  O2  ZIN A   1      17.971  -2.826   7.853  0.00  0.00    -0.352 OA
ATOM     22  C1  ZIN A   1      19.038  -3.390   7.089  0.00  0.00     0.210 C 
ENDBRANCH   1  21
BRANCH   8  23
ATOM     23  C19 ZIN A   1      18.796  -0.648   8.390  0.00  0.00     0.090 A 
ATOM     24  C21 ZIN A   1      19.215   0.781   8.040  0.00  0.00     0.028 A 
ATOM     25  C20 ZIN A   1      17.761   0.344   7.855  0.00  0.00     0.028 A 
ENDBRANCH   8  23
BRANCH  10  26
ATOM     26  C24 ZIN A   1      19.448   0.680  13.041  0.00  0.00     0.214 C 
ATOM     27  O25 ZIN A   1      20.514   0.574  13.633  0.00  0.00    -0.644 OA
ATOM     28  O26 ZIN A   1      18.721   1.641  13.255  0.00  0.00    -0.644 OA
ENDBRANCH  10  26
TORSDOF 4
ENDMDL
MODEL 8
REMARK VINA RESULT:      -7.4      3.268      7.037
REMARK  4 active torsions:
REMARK  status: ('A' for Active; 'I' for Inactive)
REMARK    1  A    between atoms: O2_2  and  C3_3 
REMARK    2  A    between atoms: C4_4  and  N5_5 
REMARK    3  A    between atoms: N18_17  and  C19_18 
REMARK    4  A    between atoms: C23_22  and  C24_23 
ROOT
ATOM      1  C3  ZIN A   1      18.654   0.654  11.479  0.00  0.00     0.120 A 
ATOM      2  C4  ZIN A   1      18.646   1.256  10.228  0.00  0.00     0.086 A 
ATOM      3  C13 ZIN A   1      18.753   2.643  10.109  0.00  0.00     0.141 A 
ATOM      4  F14 ZIN A   1      18.743   3.216   8.885  0.00  0.00    -0.204 F 
ATOM      5  C15 ZIN A   1      18.870   3.425  11.224  0.00  0.00     0.062 A 
ATOM      6  C16 ZIN A   1      18.881   2.835  12.491  0.00  0.00     0.048 A 
ATOM      7  C17 ZIN A   1      18.766   1.440  12.624  0.00  0.00     0.084 A 
ATOM      8  N18 ZIN A   1      18.778   0.857  13.876  0.00  0.00    -0.348 N 
ATOM      9  C22 ZIN A   1      18.896   1.566  15.004  0.00  0.00     0.114 A 
ATOM     10  C23 ZIN A   1      19.015   2.942  14.998  0.00  0.00     0.107 A 
ATOM     11  C27 ZIN A   1      19.005   3.653  13.708  0.00  0.00     0.203 A 
ATOM     12  O28 ZIN A   1      19.108   4.866  13.651  0.00  0.00    -0.286 OA
ENDROOT
BRANCH   2  13
ATOM     13  N5  ZIN A   1      18.527   0.470   9.081  0.00  0.00    -0.275 NA
ATOM     14  C12 ZIN A   1      19.098   1.154   7.913  0.00  0.00     0.131 C 
ATOM     15  C9  ZIN A   1      19.021   0.229   6.695  0.00  0.00     0.229 C 
ATOM     16  N8  ZIN A   1      17.620  -0.141   6.452  0.00  0.00     0.090 N 
ATOM     17  C11 ZIN A   1      19.579   0.953   5.468  0.00  0.00     0.044 C 
ATOM     18  C7  ZIN A   1      17.048  -0.824   7.621  0.00  0.00     0.284 C 
ATOM     19  H36 ZIN A   1      17.535  -0.709   5.623  0.00  0.00     0.316 HD
ATOM     20  C6  ZIN A   1      17.125   0.101   8.838  0.00  0.00     0.126 C 
ENDBRANCH   2  13
BRANCH   1  21
ATOM     21  O2  ZIN A   1      18.548  -0.699  11.586  0.00  0.00    -0.352 OA
ATOM     22  C1  ZIN A   1      19.639  -1.476  11.091  0.00  0.00     0.210 C 
ENDBRANCH   1  21
BRANCH   8  23
ATOM     23  C19 ZIN A   1      18.657  -0.600  13.972  0.00  0.00     0.090 A 
ATOM     24  C21 ZIN A   1      18.304  -1.191  15.338  0.00  0.00     0.028 A 
ATOM     25  C20 ZIN A   1      19.720  -1.346  14.781  0.00  0.00     0.028 A 
ENDBRANCH   8  23
BRANCH  10  26
ATOM     26  C24 ZIN A   1      19.143   3.685  16.257  0.00  0.00     0.214 C 
ATOM     27  O25 ZIN A   1      20.241   3.812  16.783  0.00  0.00    -0.644 OA
ATOM     28  O26 ZIN A   1      18.153   4.178  16.781  0.00  0.00    -0.644 OA
ENDBRANCH  10  26
TORSDOF 4
ENDMDL
MODEL 9
REMARK VINA RESULT:      -7.4      3.540      8.454
REMARK  4 active torsions:
REMARK  status: ('A' for Active; 'I' for Inactive)
REMARK    1  A    between atoms: O2_2  and  C3_3 
REMARK    2  A    between atoms: C4_4  and  N5_5 
REMARK    3  A    between atoms: N18_17  and  C19_18 
REMARK    4  A    between atoms: C23_22  and  C24_23 
ROOT
ATOM      1  C3  ZIN A   1      18.191   1.122  12.329  0.00  0.00     0.120 A 
ATOM      2  C4  ZIN A   1      18.611  -0.185  12.537  0.00  0.00     0.086 A 
ATOM      3  C13 ZIN A   1      19.217  -0.550  13.741  0.00  0.00     0.141 A 
ATOM      4  F14 ZIN A   1      19.622  -1.826  13.929  0.00  0.00    -0.204 F 
ATOM      5  C15 ZIN A   1      19.404   0.375  14.729  0.00  0.00     0.062 A 
ATOM      6  C16 ZIN A   1      18.986   1.694  14.536  0.00  0.00     0.048 A 
ATOM      7  C17 ZIN A   1      18.380   2.077  13.326  0.00  0.00     0.084 A 
ATOM      8  N18 ZIN A   1      17.966   3.380  13.136  0.00  0.00    -0.348 N 
ATOM      9  C22 ZIN A   1      18.115   4.331  14.066  0.00  0.00     0.114 A 
ATOM     10  C23 ZIN A   1      18.696   4.074  15.293  0.00  0.00     0.107 A 
ATOM     11  C27 ZIN A   1      19.175   2.711  15.584  0.00  0.00     0.203 A 
ATOM     12  O28 ZIN A   1      19.694   2.435  16.651  0.00  0.00    -0.286 OA
ENDROOT
BRANCH   2  13
ATOM     13  N5  ZIN A   1      18.426  -1.140  11.537  0.00  0.00    -0.275 NA
ATOM     14  C12 ZIN A   1      17.721  -2.319  12.057  0.00  0.00     0.131 C 
ATOM     15  C9  ZIN A   1      17.468  -3.305  10.914  0.00  0.00     0.229 C 
ATOM     16  N8  ZIN A   1      18.751  -3.689  10.309  0.00  0.00     0.090 N 
ATOM     17  C11 ZIN A   1      16.768  -4.552  11.461  0.00  0.00     0.044 C 
ATOM     18  C7  ZIN A   1      19.457  -2.509   9.789  0.00  0.00     0.284 C 
ATOM     19  H36 ZIN A   1      18.617  -4.379   9.586  0.00  0.00     0.316 HD
ATOM     20  C6  ZIN A   1      19.710  -1.523  10.931  0.00  0.00     0.126 C 
ENDBRANCH   2  13
BRANCH   1  21
ATOM     21  O2  ZIN A   1      17.601   1.470  11.153  0.00  0.00    -0.352 OA
ATOM     22  C1  ZIN A   1      18.442   1.541  10.001  0.00  0.00     0.210 C 
ENDBRANCH   1  21
BRANCH   8  23
ATOM     23  C19 ZIN A   1      17.339   3.738  11.862  0.00  0.00     0.090 A 
ATOM     24  C21 ZIN A   1      17.876   4.969  11.130  0.00  0.00     0.028 A 
ATOM     25  C20 ZIN A   1      16.511   5.024  11.818  0.00  0.00     0.028 A 
ENDBRANCH   8  23
BRANCH  10  26
ATOM     26  C24 ZIN A   1      18.840   5.142  16.288  0.00  0.00     0.214 C 
ATOM     27  O25 ZIN A   1      17.970   5.314  17.131  0.00  0.00    -0.644 OA
ATOM     28  O26 ZIN A   1      19.831   5.861  16.276  0.00  0.00    -0.644 OA
ENDBRANCH  10  26
TORSDOF 4
ENDMDL
