MODEL 1
REMARK VINA RESULT:      -7.8      0.000      0.000
REMARK  11 active torsions:
REMARK  status: ('A' for Active; 'I' for Inactive)
REMARK    1  A    between atoms: C2_2  and  C3_3 
REMARK    2  A    between atoms: C3_3  and  C4_4 
REMARK    3  A    between atoms: C4_4  and  C5_5 
REMARK    4  A    between atoms: C6_6  and  C7_7 
REMARK    5  A    between atoms: C7_7  and  C9_9 
REMARK    6  A    between atoms: C13_13  and  O14_14 
REMARK    7  A    between atoms: O14_14  and  C15_15 
REMARK    8  A    between atoms: C15_15  and  C16_16 
REMARK    9  A    between atoms: C16_16  and  N17_17 
REMARK   10  A    between atoms: N17_17  and  C18_18 
REMARK   11  A    between atoms: N17_17  and  C20_20 
ROOT
ATOM      1  C9  ZIN A   1      19.772  -0.423  10.994  0.00  0.00     0.018 A 
ATOM      2  C10 ZIN A   1      19.483   0.199   9.777  0.00  0.00     0.036 A 
ATOM      3  C11 ZIN A   1      19.063  -0.555   8.703  0.00  0.00     0.042 A 
ATOM      4  I12 ZIN A   1      18.629   0.376   6.877  0.00  0.00    -0.042 I 
ATOM      5  C13 ZIN A   1      18.929  -1.932   8.829  0.00  0.00     0.101 A 
ATOM      6  C22 ZIN A   1      19.216  -2.556  10.038  0.00  0.00     0.042 A 
ATOM      7  I23 ZIN A   1      19.012  -4.632  10.221  0.00  0.00    -0.042 I 
ATOM      8  C24 ZIN A   1      19.641  -1.809  11.115  0.00  0.00     0.036 A 
ENDROOT
BRANCH   1   9
ATOM      9  C7  ZIN A   1      20.223   0.381  12.148  0.00  0.00     0.195 C 
ATOM     10  O8  ZIN A   1      21.391   0.710  12.241  0.00  0.00    -0.287 OA
BRANCH   9  11
ATOM     11  C6  ZIN A   1      19.260   0.785  13.182  0.00  0.00     0.058 A 
ATOM     12  C5  ZIN A   1      18.590   1.968  13.264  0.00  0.00     0.069 A 
ATOM     13  O31 ZIN A   1      17.805   1.971  14.348  0.00  0.00    -0.313 OA
ATOM     14  C30 ZIN A   1      17.901   0.808  15.027  0.00  0.00     0.087 A 
ATOM     15  C25 ZIN A   1      18.817  -0.006  14.346  0.00  0.00     0.014 A 
ATOM     16  C29 ZIN A   1      17.299   0.334  16.186  0.00  0.00     0.038 A 
ATOM     17  C26 ZIN A   1      19.119  -1.275  14.828  0.00  0.00     0.015 A 
ATOM     18  C27 ZIN A   1      18.512  -1.729  15.981  0.00  0.00     0.001 A 
ATOM     19  C28 ZIN A   1      17.606  -0.926  16.655  0.00  0.00     0.003 A 
BRANCH  12  20
ATOM     20  C4  ZIN A   1      18.718   3.108  12.285  0.00  0.00     0.066 C 
BRANCH  20  21
ATOM     21  C3  ZIN A   1      17.637   2.980  11.210  0.00  0.00     0.006 C 
BRANCH  21  22
ATOM     22  C2  ZIN A   1      17.219   4.374  10.739  0.00  0.00    -0.004 C 
ATOM     23  C1  ZIN A   1      16.599   5.142  11.907  0.00  0.00     0.005 C 
ENDBRANCH  21  22
ENDBRANCH  20  21
ENDBRANCH  12  20
ENDBRANCH   9  11
ENDBRANCH   1   9
BRANCH   5  24
ATOM     24  O14 ZIN A   1      18.515  -2.672   7.768  0.00  0.00    -0.347 OA
BRANCH  24  25
ATOM     25  C15 ZIN A   1      19.510  -3.055   6.817  0.00  0.00     0.206 C 
BRANCH  25  26
ATOM     26  C16 ZIN A   1      19.181  -4.443   6.265  0.00  0.00     0.299 C 
BRANCH  26  27
ATOM     27  N17 ZIN A   1      18.528  -4.308   4.955  0.00  0.00     0.089 N 
BRANCH  27  28
ATOM     28  C18 ZIN A   1      17.142  -4.793   5.006  0.00  0.00     0.268 C 
ATOM     29  C19 ZIN A   1      16.978  -5.739   6.196  0.00  0.00     0.037 C 
ENDBRANCH  27  28
BRANCH  27  30
ATOM     30  C20 ZIN A   1      18.584  -2.919   4.480  0.00  0.00     0.268 C 
ATOM     31  C21 ZIN A   1      17.192  -2.480   4.023  0.00  0.00     0.037 C 
ENDBRANCH  27  30
ENDBRANCH  26  27
ENDBRANCH  25  26
ENDBRANCH  24  25
ENDBRANCH   5  24
TORSDOF 11
ENDMDL
MODEL 2
REMARK VINA RESULT:      -7.8      0.435      2.198
REMARK  11 active torsions:
REMARK  status: ('A' for Active; 'I' for Inactive)
REMARK    1  A    between atoms: C2_2  and  C3_3 
REMARK    2  A    between atoms: C3_3  and  C4_4 
REMARK    3  A    between atoms: C4_4  and  C5_5 
REMARK    4  A    between atoms: C6_6  and  C7_7 
REMARK    5  A    between atoms: C7_7  and  C9_9 
REMARK    6  A    between atoms: C13_13  and  O14_14 
REMARK    7  A    between atoms: O14_14  and  C15_15 
REMARK    8  A    between atoms: C15_15  and  C16_16 
REMARK    9  A    between atoms: C16_16  and  N17_17 
REMARK   10  A    between atoms: N17_17  and  C18_18 
REMARK   11  A    between atoms: N17_17  and  C20_20 
ROOT
ATOM      1  C9  ZIN A   1      19.815  -0.446  10.976  0.00  0.00     0.018 A 
ATOM      2  C10 ZIN A   1      19.681  -1.832  11.082  0.00  0.00     0.036 A 
ATOM      3  C11 ZIN A   1      19.266  -2.568   9.994  0.00  0.00     0.042 A 
ATOM      4  I12 ZIN A   1      19.064  -4.647  10.152  0.00  0.00    -0.042 I 
ATOM      5  C13 ZIN A   1      18.980  -1.933   8.792  0.00  0.00     0.101 A 
ATOM      6  C22 ZIN A   1      19.111  -0.553   8.681  0.00  0.00     0.042 A 
ATOM      7  I23 ZIN A   1      18.679   0.398   6.866  0.00  0.00    -0.042 I 
ATOM      8  C24 ZIN A   1      19.522   0.190   9.766  0.00  0.00     0.036 A 
ENDROOT
BRANCH   1   9
ATOM      9  C7  ZIN A   1      20.259   0.347  12.140  0.00  0.00     0.195 C 
ATOM     10  O8  ZIN A   1      21.430   0.659  12.252  0.00  0.00    -0.287 OA
BRANCH   9  11
ATOM     11  C6  ZIN A   1      19.287   0.758  13.163  0.00  0.00     0.058 A 
ATOM     12  C5  ZIN A   1      18.622   1.944  13.235  0.00  0.00     0.069 A 
ATOM     13  O31 ZIN A   1      17.825   1.954  14.310  0.00  0.00    -0.313 OA
ATOM     14  C30 ZIN A   1      17.907   0.792  14.992  0.00  0.00     0.087 A 
ATOM     15  C25 ZIN A   1      18.827  -0.029  14.323  0.00  0.00     0.014 A 
ATOM     16  C29 ZIN A   1      17.289   0.323  16.145  0.00  0.00     0.038 A 
ATOM     17  C26 ZIN A   1      19.117  -1.299  14.812  0.00  0.00     0.015 A 
ATOM     18  C27 ZIN A   1      18.494  -1.747  15.958  0.00  0.00     0.001 A 
ATOM     19  C28 ZIN A   1      17.584  -0.938  16.620  0.00  0.00     0.003 A 
BRANCH  12  20
ATOM     20  C4  ZIN A   1      18.767   3.081  12.255  0.00  0.00     0.066 C 
BRANCH  20  21
ATOM     21  C3  ZIN A   1      17.736   2.923  11.135  0.00  0.00     0.006 C 
BRANCH  21  22
ATOM     22  C2  ZIN A   1      17.603   4.244  10.376  0.00  0.00    -0.004 C 
ATOM     23  C1  ZIN A   1      16.708   5.200  11.166  0.00  0.00     0.005 C 
ENDBRANCH  21  22
ENDBRANCH  20  21
ENDBRANCH  12  20
ENDBRANCH   9  11
ENDBRANCH   1   9
BRANCH   5  24
ATOM     24  O14 ZIN A   1      18.571  -2.661   7.721  0.00  0.00    -0.347 OA
BRANCH  24  25
ATOM     25  C15 ZIN A   1      19.570  -3.030   6.768  0.00  0.00     0.206 C 
BRANCH  25  26
ATOM     26  C16 ZIN A   1      19.203  -4.375   6.140  0.00  0.00     0.299 C 
BRANCH  26  27
ATOM     27  N17 ZIN A   1      17.819  -4.325   5.646  0.00  0.00     0.089 N 
BRANCH  27  28
ATOM     28  C18 ZIN A   1      17.781  -3.951   4.226  0.00  0.00     0.268 C 
ATOM     29  C19 ZIN A   1      17.145  -2.567   4.080  0.00  0.00     0.037 C 
ENDBRANCH  27  28
BRANCH  27  30
ATOM     30  C20 ZIN A   1      17.132  -5.603   5.875  0.00  0.00     0.268 C 
ATOM     31  C21 ZIN A   1      18.059  -6.552   6.635  0.00  0.00     0.037 C 
ENDBRANCH  27  30
ENDBRANCH  26  27
ENDBRANCH  25  26
ENDBRANCH  24  25
ENDBRANCH   5  24
TORSDOF 11
ENDMDL
MODEL 3
REMARK VINA RESULT:      -7.6      1.684      2.416
REMARK  11 active torsions:
REMARK  status: ('A' for Active; 'I' for Inactive)
REMARK    1  A    between atoms: C2_2  and  C3_3 
REMARK    2  A    between atoms: C3_3  and  C4_4 
REMARK    3  A    between atoms: C4_4  and  C5_5 
REMARK    4  A    between atoms: C6_6  and  C7_7 
REMARK    5  A    between atoms: C7_7  and  C9_9 
REMARK    6  A    between atoms: C13_13  and  O14_14 
REMARK    7  A    between atoms: O14_14  and  C15_15 
REMARK    8  A    between atoms: C15_15  and  C16_16 
REMARK    9  A    between atoms: C16_16  and  N17_17 
REMARK   10  A    between atoms: N17_17  and  C18_18 
REMARK   11  A    between atoms: N17_17  and  C20_20 
ROOT
ATOM      1  C9  ZIN A   1      19.145  -1.557  10.684  0.00  0.00     0.018 A 
ATOM      2  C10 ZIN A   1      19.257  -1.359   9.306  0.00  0.00     0.036 A 
ATOM      3  C11 ZIN A   1      18.798  -2.322   8.435  0.00  0.00     0.042 A 
ATOM      4  I12 ZIN A   1      18.965  -2.028   6.367  0.00  0.00    -0.042 I 
ATOM      5  C13 ZIN A   1      18.224  -3.489   8.925  0.00  0.00     0.101 A 
ATOM      6  C22 ZIN A   1      18.111  -3.690  10.296  0.00  0.00     0.042 A 
ATOM      7  I23 ZIN A   1      17.246  -5.451  11.029  0.00  0.00    -0.042 I 
ATOM      8  C24 ZIN A   1      18.572  -2.734  11.174  0.00  0.00     0.036 A 
ENDROOT
BRANCH   1   9
ATOM      9  C7  ZIN A   1      19.637  -0.527  11.622  0.00  0.00     0.195 C 
ATOM     10  O8  ZIN A   1      20.766  -0.090  11.508  0.00  0.00    -0.287 OA
BRANCH   9  11
ATOM     11  C6  ZIN A   1      18.760  -0.030  12.693  0.00  0.00     0.058 A 
ATOM     12  C5  ZIN A   1      17.812   0.942  12.595  0.00  0.00     0.069 A 
ATOM     13  O31 ZIN A   1      17.222   1.123  13.782  0.00  0.00    -0.313 OA
ATOM     14  C30 ZIN A   1      17.728   0.288  14.714  0.00  0.00     0.087 A 
ATOM     15  C25 ZIN A   1      18.724  -0.483  14.097  0.00  0.00     0.014 A 
ATOM     16  C29 ZIN A   1      17.453   0.092  16.062  0.00  0.00     0.038 A 
ATOM     17  C26 ZIN A   1      19.428  -1.434  14.829  0.00  0.00     0.015 A 
ATOM     18  C27 ZIN A   1      19.141  -1.614  16.167  0.00  0.00     0.001 A 
ATOM     19  C28 ZIN A   1      18.157  -0.853  16.778  0.00  0.00     0.003 A 
BRANCH  12  20
ATOM     20  C4  ZIN A   1      17.481   1.707  11.338  0.00  0.00     0.066 C 
BRANCH  20  21
ATOM     21  C3  ZIN A   1      18.545   2.782  11.101  0.00  0.00     0.006 C 
BRANCH  21  22
ATOM     22  C2  ZIN A   1      18.488   3.243   9.644  0.00  0.00    -0.004 C 
ATOM     23  C1  ZIN A   1      19.109   2.172   8.746  0.00  0.00     0.005 C 
ENDBRANCH  21  22
ENDBRANCH  20  21
ENDBRANCH  12  20
ENDBRANCH   9  11
ENDBRANCH   1   9
BRANCH   5  24
ATOM     24  O14 ZIN A   1      17.773  -4.436   8.063  0.00  0.00    -0.347 OA
BRANCH  24  25
ATOM     25  C15 ZIN A   1      18.703  -5.444   7.662  0.00  0.00     0.206 C 
BRANCH  25  26
ATOM     26  C16 ZIN A   1      17.945  -6.720   7.293  0.00  0.00     0.299 C 
BRANCH  26  27
ATOM     27  N17 ZIN A   1      16.583  -6.374   6.862  0.00  0.00     0.089 N 
BRANCH  27  28
ATOM     28  C18 ZIN A   1      16.409  -6.616   5.424  0.00  0.00     0.268 C 
ATOM     29  C19 ZIN A   1      16.279  -5.277   4.694  0.00  0.00     0.037 C 
ENDBRANCH  27  28
BRANCH  27  30
ATOM     30  C20 ZIN A   1      15.581  -7.108   7.646  0.00  0.00     0.268 C 
ATOM     31  C21 ZIN A   1      14.481  -6.145   8.097  0.00  0.00     0.037 C 
ENDBRANCH  27  30
ENDBRANCH  26  27
ENDBRANCH  25  26
ENDBRANCH  24  25
ENDBRANCH   5  24
TORSDOF 11
ENDMDL
MODEL 4
REMARK VINA RESULT:      -7.5      1.505      3.857
REMARK  11 active torsions:
REMARK  status: ('A' for Active; 'I' for Inactive)
REMARK    1  A    between atoms: C2_2  and  C3_3 
REMARK    2  A    between atoms: C3_3  and  C4_4 
REMARK    3  A    between atoms: C4_4  and  C5_5 
REMARK    4  A    between atoms: C6_6  and  C7_7 
REMARK    5  A    between atoms: C7_7  and  C9_9 
REMARK    6  A    between atoms: C13_13  and  O14_14 
REMARK    7  A    between atoms: O14_14  and  C15_15 
REMARK    8  A    between atoms: C15_15  and  C16_16 
REMARK    9  A    between atoms: C16_16  and  N17_17 
REMARK   10  A    between atoms: N17_17  and  C18_18 
REMARK   11  A    between atoms: N17_17  and  C20_20 
ROOT
ATOM      1  C9  ZIN A   1      17.523  -0.666  10.293  0.00  0.00     0.018 A 
ATOM      2  C10 ZIN A   1      17.707  -0.054   9.051  0.00  0.00     0.036 A 
ATOM      3  C11 ZIN A   1      18.285  -0.757   8.018  0.00  0.00     0.042 A 
ATOM      4  I12 ZIN A   1      18.563   0.160   6.154  0.00  0.00    -0.042 I 
ATOM      5  C13 ZIN A   1      18.686  -2.074   8.209  0.00  0.00     0.101 A 
ATOM      6  C22 ZIN A   1      18.506  -2.687   9.444  0.00  0.00     0.042 A 
ATOM      7  I23 ZIN A   1      19.112  -4.672   9.726  0.00  0.00    -0.042 I 
ATOM      8  C24 ZIN A   1      17.932  -1.989  10.484  0.00  0.00     0.036 A 
ENDROOT
BRANCH   1   9
ATOM      9  C7  ZIN A   1      16.903   0.085  11.404  0.00  0.00     0.195 C 
ATOM     10  O8  ZIN A   1      15.708  -0.008  11.608  0.00  0.00    -0.287 OA
BRANCH   9  11
ATOM     11  C6  ZIN A   1      17.733   0.943  12.263  0.00  0.00     0.058 A 
ATOM     12  C5  ZIN A   1      18.410   0.573  13.385  0.00  0.00     0.069 A 
ATOM     13  O31 ZIN A   1      19.048   1.631  13.900  0.00  0.00    -0.313 OA
ATOM     14  C30 ZIN A   1      18.842   2.738  13.156  0.00  0.00     0.087 A 
ATOM     15  C25 ZIN A   1      18.005   2.382  12.088  0.00  0.00     0.014 A 
ATOM     16  C29 ZIN A   1      19.279   4.052  13.269  0.00  0.00     0.038 A 
ATOM     17  C26 ZIN A   1      17.617   3.337  11.154  0.00  0.00     0.015 A 
ATOM     18  C27 ZIN A   1      18.061   4.637  11.283  0.00  0.00     0.001 A 
ATOM     19  C28 ZIN A   1      18.889   4.990  12.337  0.00  0.00     0.003 A 
BRANCH  12  20
ATOM     20  C4  ZIN A   1      18.432  -0.818  13.966  0.00  0.00     0.066 C 
BRANCH  20  21
ATOM     21  C3  ZIN A   1      18.915  -0.757  15.417  0.00  0.00     0.006 C 
BRANCH  21  22
ATOM     22  C2  ZIN A   1      17.833  -1.324  16.338  0.00  0.00    -0.004 C 
ATOM     23  C1  ZIN A   1      17.067  -0.174  16.994  0.00  0.00     0.005 C 
ENDBRANCH  21  22
ENDBRANCH  20  21
ENDBRANCH  12  20
ENDBRANCH   9  11
ENDBRANCH   1   9
BRANCH   5  24
ATOM     24  O14 ZIN A   1      19.256  -2.764   7.188  0.00  0.00    -0.347 OA
BRANCH  24  25
ATOM     25  C15 ZIN A   1      18.407  -3.640   6.444  0.00  0.00     0.206 C 
BRANCH  25  26
ATOM     26  C16 ZIN A   1      18.749  -3.541   4.957  0.00  0.00     0.299 C 
BRANCH  26  27
ATOM     27  N17 ZIN A   1      17.756  -4.289   4.174  0.00  0.00     0.089 N 
BRANCH  27  28
ATOM     28  C18 ZIN A   1      17.159  -5.367   4.975  0.00  0.00     0.268 C 
ATOM     29  C19 ZIN A   1      17.674  -6.718   4.474  0.00  0.00     0.037 C 
ENDBRANCH  27  28
BRANCH  27  30
ATOM     30  C20 ZIN A   1      16.721  -3.393   3.642  0.00  0.00     0.268 C 
ATOM     31  C21 ZIN A   1      16.008  -4.074   2.473  0.00  0.00     0.037 C 
ENDBRANCH  27  30
ENDBRANCH  26  27
ENDBRANCH  25  26
ENDBRANCH  24  25
ENDBRANCH   5  24
TORSDOF 11
ENDMDL
MODEL 5
REMARK VINA RESULT:      -7.5      1.267      4.074
REMARK  11 active torsions:
REMARK  status: ('A' for Active; 'I' for Inactive)
REMARK    1  A    between atoms: C2_2  and  C3_3 
REMARK    2  A    between atoms: C3_3  and  C4_4 
REMARK    3  A    between atoms: C4_4  and  C5_5 
REMARK    4  A    between atoms: C6_6  and  C7_7 
REMARK    5  A    between atoms: C7_7  and  C9_9 
REMARK    6  A    between atoms: C13_13  and  O14_14 
REMARK    7  A    between atoms: O14_14  and  C15_15 
REMARK    8  A    between atoms: C15_15  and  C16_16 
REMARK    9  A    between atoms: C16_16  and  N17_17 
REMARK   10  A    between atoms: N17_17  and  C18_18 
REMARK   11  A    between atoms: N17_17  and  C20_20 
ROOT
ATOM      1  C9  ZIN A   1      19.442  -0.440  10.902  0.00  0.00     0.018 A 
ATOM      2  C10 ZIN A   1      19.421  -0.291   9.514  0.00  0.00     0.036 A 
ATOM      3  C11 ZIN A   1      18.917  -1.300   8.723  0.00  0.00     0.042 A 
ATOM      4  I12 ZIN A   1      18.885  -1.080   6.640  0.00  0.00    -0.042 I 
ATOM      5  C13 ZIN A   1      18.430  -2.465   9.304  0.00  0.00     0.101 A 
ATOM      6  C22 ZIN A   1      18.450  -2.617  10.686  0.00  0.00     0.042 A 
ATOM      7  I23 ZIN A   1      17.715  -4.375  11.557  0.00  0.00    -0.042 I 
ATOM      8  C24 ZIN A   1      18.956  -1.614  11.484  0.00  0.00     0.036 A 
ENDROOT
BRANCH   1   9
ATOM      9  C7  ZIN A   1      19.982   0.640  11.754  0.00  0.00     0.195 C 
ATOM     10  O8  ZIN A   1      21.163   0.652  12.044  0.00  0.00    -0.287 OA
BRANCH   9  11
ATOM     11  C6  ZIN A   1      19.090   1.698  12.252  0.00  0.00     0.058 A 
ATOM     12  C5  ZIN A   1      18.630   1.854  13.524  0.00  0.00     0.069 A 
ATOM     13  O31 ZIN A   1      17.838   2.930  13.591  0.00  0.00    -0.313 OA
ATOM     14  C30 ZIN A   1      17.739   3.543  12.392  0.00  0.00     0.087 A 
ATOM     15  C25 ZIN A   1      18.510   2.812  11.477  0.00  0.00     0.014 A 
ATOM     16  C29 ZIN A   1      17.055   4.671  11.957  0.00  0.00     0.038 A 
ATOM     17  C26 ZIN A   1      18.589   3.214  10.148  0.00  0.00     0.015 A 
ATOM     18  C27 ZIN A   1      17.902   4.338   9.734  0.00  0.00     0.001 A 
ATOM     19  C28 ZIN A   1      17.139   5.061  10.637  0.00  0.00     0.003 A 
BRANCH  12  20
ATOM     20  C4  ZIN A   1      18.958   0.947  14.682  0.00  0.00     0.066 C 
BRANCH  20  21
ATOM     21  C3  ZIN A   1      17.826  -0.066  14.872  0.00  0.00     0.006 C 
BRANCH  21  22
ATOM     22  C2  ZIN A   1      18.299  -1.192  15.793  0.00  0.00    -0.004 C 
ATOM     23  C1  ZIN A   1      17.261  -1.423  16.892  0.00  0.00     0.005 C 
ENDBRANCH  21  22
ENDBRANCH  20  21
ENDBRANCH  12  20
ENDBRANCH   9  11
ENDBRANCH   1   9
BRANCH   5  24
ATOM     24  O14 ZIN A   1      17.935  -3.457   8.522  0.00  0.00    -0.347 OA
BRANCH  24  25
ATOM     25  C15 ZIN A   1      18.856  -4.458   8.083  0.00  0.00     0.206 C 
BRANCH  25  26
ATOM     26  C16 ZIN A   1      18.100  -5.758   7.801  0.00  0.00     0.299 C 
BRANCH  26  27
ATOM     27  N17 ZIN A   1      17.031  -5.501   6.824  0.00  0.00     0.089 N 
BRANCH  27  28
ATOM     28  C18 ZIN A   1      17.508  -5.726   5.453  0.00  0.00     0.268 C 
ATOM     29  C19 ZIN A   1      16.896  -4.677   4.522  0.00  0.00     0.037 C 
ENDBRANCH  27  28
BRANCH  27  30
ATOM     30  C20 ZIN A   1      15.847  -6.320   7.113  0.00  0.00     0.268 C 
ATOM     31  C21 ZIN A   1      15.251  -5.900   8.457  0.00  0.00     0.037 C 
ENDBRANCH  27  30
ENDBRANCH  26  27
ENDBRANCH  25  26
ENDBRANCH  24  25
ENDBRANCH   5  24
TORSDOF 11
ENDMDL
MODEL 6
REMARK VINA RESULT:      -7.4      4.111      9.383
REMARK  11 active torsions:
REMARK  status: ('A' for Active; 'I' for Inactive)
REMARK    1  A    between atoms: C2_2  and  C3_3 
REMARK    2  A    between atoms: C3_3  and  C4_4 
REMARK    3  A    between atoms: C4_4  and  C5_5 
REMARK    4  A    between atoms: C6_6  and  C7_7 
REMARK    5  A    between atoms: C7_7  and  C9_9 
REMARK    6  A    between atoms: C13_13  and  O14_14 
REMARK    7  A    between atoms: O14_14  and  C15_15 
REMARK    8  A    between atoms: C15_15  and  C16_16 
REMARK    9  A    between atoms: C16_16  and  N17_17 
REMARK   10  A    between atoms: N17_17  and  C18_18 
REMARK   11  A    between atoms: N17_17  and  C20_20 
ROOT
ATOM      1  C9  ZIN A   1      19.804   0.179  12.178  0.00  0.00     0.018 A 
ATOM      2  C10 ZIN A   1      19.501  -0.573  13.316  0.00  0.00     0.036 A 
ATOM      3  C11 ZIN A   1      18.992   0.050  14.435  0.00  0.00     0.042 A 
ATOM      4  I12 ZIN A   1      18.536  -1.076  16.142  0.00  0.00    -0.042 I 
ATOM      5  C13 ZIN A   1      18.782   1.423  14.433  0.00  0.00     0.101 A 
ATOM      6  C22 ZIN A   1      19.084   2.176  13.303  0.00  0.00     0.042 A 
ATOM      7  I23 ZIN A   1      18.765   4.246  13.307  0.00  0.00    -0.042 I 
ATOM      8  C24 ZIN A   1      19.597   1.561  12.182  0.00  0.00     0.036 A 
ENDROOT
BRANCH   1   9
ATOM      9  C7  ZIN A   1      20.350  -0.485  10.977  0.00  0.00     0.195 C 
ATOM     10  O8  ZIN A   1      21.546  -0.689  10.885  0.00  0.00    -0.287 OA
BRANCH   9  11
ATOM     11  C6  ZIN A   1      19.447  -0.898   9.892  0.00  0.00     0.058 A 
ATOM     12  C5  ZIN A   1      18.772  -2.076   9.790  0.00  0.00     0.069 A 
ATOM     13  O31 ZIN A   1      18.054  -2.091   8.660  0.00  0.00    -0.313 OA
ATOM     14  C30 ZIN A   1      18.202  -0.941   7.969  0.00  0.00     0.087 A 
ATOM     15  C25 ZIN A   1      19.084  -0.123   8.690  0.00  0.00     0.014 A 
ATOM     16  C29 ZIN A   1      17.677  -0.482   6.768  0.00  0.00     0.038 A 
ATOM     17  C26 ZIN A   1      19.428   1.134   8.206  0.00  0.00     0.015 A 
ATOM     18  C27 ZIN A   1      18.896   1.574   7.011  0.00  0.00     0.001 A 
ATOM     19  C28 ZIN A   1      18.024   0.767   6.297  0.00  0.00     0.003 A 
BRANCH  12  20
ATOM     20  C4  ZIN A   1      18.829  -3.199  10.794  0.00  0.00     0.066 C 
BRANCH  20  21
ATOM     21  C3  ZIN A   1      17.530  -3.226  11.604  0.00  0.00     0.006 C 
BRANCH  21  22
ATOM     22  C2  ZIN A   1      16.779  -4.527  11.319  0.00  0.00    -0.004 C 
ATOM     23  C1  ZIN A   1      17.497  -5.691  12.004  0.00  0.00     0.005 C 
ENDBRANCH  21  22
ENDBRANCH  20  21
ENDBRANCH  12  20
ENDBRANCH   9  11
ENDBRANCH   1   9
BRANCH   5  24
ATOM     24  O14 ZIN A   1      18.281   2.034  15.537  0.00  0.00    -0.347 OA
BRANCH  24  25
ATOM     25  C15 ZIN A   1      19.161   2.177  16.655  0.00  0.00     0.206 C 
BRANCH  25  26
ATOM     26  C16 ZIN A   1      19.337   3.662  16.978  0.00  0.00     0.299 C 
BRANCH  26  27
ATOM     27  N17 ZIN A   1      18.108   4.178  17.597  0.00  0.00     0.089 N 
BRANCH  27  28
ATOM     28  C18 ZIN A   1      18.064   3.849  19.029  0.00  0.00     0.268 C 
ATOM     29  C19 ZIN A   1      16.673   3.320  19.387  0.00  0.00     0.037 C 
ENDBRANCH  27  28
BRANCH  27  30
ATOM     30  C20 ZIN A   1      17.978   5.625  17.384  0.00  0.00     0.268 C 
ATOM     31  C21 ZIN A   1      16.729   5.906  16.547  0.00  0.00     0.037 C 
ENDBRANCH  27  30
ENDBRANCH  26  27
ENDBRANCH  25  26
ENDBRANCH  24  25
ENDBRANCH   5  24
TORSDOF 11
ENDMDL
MODEL 7
REMARK VINA RESULT:      -7.4      3.731      6.334
REMARK  11 active torsions:
REMARK  status: ('A' for Active; 'I' for Inactive)
REMARK    1  A    between atoms: C2_2  and  C3_3 
REMARK    2  A    between atoms: C3_3  and  C4_4 
REMARK    3  A    between atoms: C4_4  and  C5_5 
REMARK    4  A    between atoms: C6_6  and  C7_7 
REMARK    5  A    between atoms: C7_7  and  C9_9 
REMARK    6  A    between atoms: C13_13  and  O14_14 
REMARK    7  A    between atoms: O14_14  and  C15_15 
REMARK    8  A    between atoms: C15_15  and  C16_16 
REMARK    9  A    between atoms: C16_16  and  N17_17 
REMARK   10  A    between atoms: N17_17  and  C18_18 
REMARK   11  A    between atoms: N17_17  and  C20_20 
ROOT
ATOM      1  C9  ZIN A   1      18.779   3.130  14.980  0.00  0.00     0.018 A 
ATOM      2  C10 ZIN A   1      18.760   1.769  14.664  0.00  0.00     0.036 A 
ATOM      3  C11 ZIN A   1      18.257   1.353  13.451  0.00  0.00     0.042 A 
ATOM      4  I12 ZIN A   1      18.227  -0.687  12.975  0.00  0.00    -0.042 I 
ATOM      5  C13 ZIN A   1      17.769   2.284  12.542  0.00  0.00     0.101 A 
ATOM      6  C22 ZIN A   1      17.786   3.639  12.853  0.00  0.00     0.042 A 
ATOM      7  I23 ZIN A   1      17.048   5.038  11.479  0.00  0.00    -0.042 I 
ATOM      8  C24 ZIN A   1      18.283   4.063  14.066  0.00  0.00     0.036 A 
ENDROOT
BRANCH   1   9
ATOM      9  C7  ZIN A   1      19.317   3.580  16.280  0.00  0.00     0.195 C 
ATOM     10  O8  ZIN A   1      20.454   4.008  16.352  0.00  0.00    -0.287 OA
BRANCH   9  11
ATOM     11  C6  ZIN A   1      18.478   3.513  17.485  0.00  0.00     0.058 A 
ATOM     12  C5  ZIN A   1      18.465   2.525  18.423  0.00  0.00     0.069 A 
ATOM     13  O31 ZIN A   1      17.565   2.812  19.371  0.00  0.00    -0.313 OA
ATOM     14  C30 ZIN A   1      16.950   3.988  19.125  0.00  0.00     0.087 A 
ATOM     15  C25 ZIN A   1      17.476   4.501  17.930  0.00  0.00     0.014 A 
ATOM     16  C29 ZIN A   1      15.967   4.703  19.798  0.00  0.00     0.038 A 
ATOM     17  C26 ZIN A   1      17.017   5.713  17.426  0.00  0.00     0.015 A 
ATOM     18  C27 ZIN A   1      16.040   6.409  18.108  0.00  0.00     0.001 A 
ATOM     19  C28 ZIN A   1      15.520   5.904  19.289  0.00  0.00     0.003 A 
BRANCH  12  20
ATOM     20  C4  ZIN A   1      19.330   1.291  18.394  0.00  0.00     0.066 C 
BRANCH  20  21
ATOM     21  C3  ZIN A   1      18.458   0.053  18.617  0.00  0.00     0.006 C 
BRANCH  21  22
ATOM     22  C2  ZIN A   1      18.236  -0.661  17.282  0.00  0.00    -0.004 C 
ATOM     23  C1  ZIN A   1      16.796  -0.437  16.818  0.00  0.00     0.005 C 
ENDBRANCH  21  22
ENDBRANCH  20  21
ENDBRANCH  12  20
ENDBRANCH   9  11
ENDBRANCH   1   9
BRANCH   5  24
ATOM     24  O14 ZIN A   1      17.274   1.871  11.347  0.00  0.00    -0.347 OA
BRANCH  24  25
ATOM     25  C15 ZIN A   1      18.191   1.808  10.253  0.00  0.00     0.206 C 
BRANCH  25  26
ATOM     26  C16 ZIN A   1      17.729   0.738   9.262  0.00  0.00     0.299 C 
BRANCH  26  27
ATOM     27  N17 ZIN A   1      18.826   0.419   8.338  0.00  0.00     0.089 N 
BRANCH  27  28
ATOM     28  C18 ZIN A   1      19.654  -0.675   8.863  0.00  0.00     0.268 C 
ATOM     29  C19 ZIN A   1      19.037  -2.018   8.464  0.00  0.00     0.037 C 
ENDBRANCH  27  28
BRANCH  27  30
ATOM     30  C20 ZIN A   1      18.311   0.096   7.000  0.00  0.00     0.268 C 
ATOM     31  C21 ZIN A   1      19.071   0.909   5.952  0.00  0.00     0.037 C 
ENDBRANCH  27  30
ENDBRANCH  26  27
ENDBRANCH  25  26
ENDBRANCH  24  25
ENDBRANCH   5  24
TORSDOF 11
ENDMDL
MODEL 8
REMARK VINA RESULT:      -7.3      4.038      9.125
REMARK  11 active torsions:
REMARK  status: ('A' for Active; 'I' for Inactive)
REMARK    1  A    between atoms: C2_2  and  C3_3 
REMARK    2  A    between atoms: C3_3  and  C4_4 
REMARK    3  A    between atoms: C4_4  and  C5_5 
REMARK    4  A    between atoms: C6_6  and  C7_7 
REMARK    5  A    between atoms: C7_7  and  C9_9 
REMARK    6  A    between atoms: C13_13  and  O14_14 
REMARK    7  A    between atoms: O14_14  and  C15_15 
REMARK    8  A    between atoms: C15_15  and  C16_16 
REMARK    9  A    between atoms: C16_16  and  N17_17 
REMARK   10  A    between atoms: N17_17  and  C18_18 
REMARK   11  A    between atoms: N17_17  and  C20_20 
ROOT
ATOM      1  C9  ZIN A   1      19.624   0.183  11.865  0.00  0.00     0.018 A 
ATOM      2  C10 ZIN A   1      19.305   1.534  11.714  0.00  0.00     0.036 A 
ATOM      3  C11 ZIN A   1      18.764   2.234  12.770  0.00  0.00     0.042 A 
ATOM      4  I12 ZIN A   1      18.284   4.261  12.546  0.00  0.00    -0.042 I 
ATOM      5  C13 ZIN A   1      18.534   1.597  13.984  0.00  0.00     0.101 A 
ATOM      6  C22 ZIN A   1      18.850   0.252  14.139  0.00  0.00     0.042 A 
ATOM      7  I23 ZIN A   1      18.502  -0.702  15.970  0.00  0.00    -0.042 I 
ATOM      8  C24 ZIN A   1      19.388  -0.456  13.086  0.00  0.00     0.036 A 
ENDROOT
BRANCH   1   9
ATOM      9  C7  ZIN A   1      20.205  -0.572  10.736  0.00  0.00     0.195 C 
ATOM     10  O8  ZIN A   1      21.395  -0.824  10.721  0.00  0.00    -0.287 OA
BRANCH   9  11
ATOM     11  C6  ZIN A   1      19.343  -1.017   9.630  0.00  0.00     0.058 A 
ATOM     12  C5  ZIN A   1      18.696  -2.211   9.523  0.00  0.00     0.069 A 
ATOM     13  O31 ZIN A   1      18.013  -2.254   8.373  0.00  0.00    -0.313 OA
ATOM     14  C30 ZIN A   1      18.158  -1.110   7.672  0.00  0.00     0.087 A 
ATOM     15  C25 ZIN A   1      19.001  -0.265   8.408  0.00  0.00     0.014 A 
ATOM     16  C29 ZIN A   1      17.659  -0.677   6.450  0.00  0.00     0.038 A 
ATOM     17  C26 ZIN A   1      19.333   0.994   7.918  0.00  0.00     0.015 A 
ATOM     18  C27 ZIN A   1      18.828   1.407   6.702  0.00  0.00     0.001 A 
ATOM     19  C28 ZIN A   1      17.995   0.573   5.973  0.00  0.00     0.003 A 
BRANCH  12  20
ATOM     20  C4  ZIN A   1      18.746  -3.320  10.543  0.00  0.00     0.066 C 
BRANCH  20  21
ATOM     21  C3  ZIN A   1      17.504  -3.248  11.435  0.00  0.00     0.006 C 
BRANCH  21  22
ATOM     22  C2  ZIN A   1      16.930  -4.654  11.622  0.00  0.00    -0.004 C 
ATOM     23  C1  ZIN A   1      17.539  -5.596  10.582  0.00  0.00     0.005 C 
ENDBRANCH  21  22
ENDBRANCH  20  21
ENDBRANCH  12  20
ENDBRANCH   9  11
ENDBRANCH   1   9
BRANCH   5  24
ATOM     24  O14 ZIN A   1      18.001   2.290  15.022  0.00  0.00    -0.347 OA
BRANCH  24  25
ATOM     25  C15 ZIN A   1      18.916   2.856  15.963  0.00  0.00     0.206 C 
BRANCH  25  26
ATOM     26  C16 ZIN A   1      18.272   4.070  16.634  0.00  0.00     0.299 C 
BRANCH  26  27
ATOM     27  N17 ZIN A   1      18.862   5.301  16.090  0.00  0.00     0.089 N 
BRANCH  27  28
ATOM     28  C18 ZIN A   1      18.404   6.479  16.839  0.00  0.00     0.268 C 
ATOM     29  C19 ZIN A   1      16.876   6.463  16.928  0.00  0.00     0.037 C 
ENDBRANCH  27  28
BRANCH  27  30
ATOM     30  C20 ZIN A   1      20.329   5.222  16.077  0.00  0.00     0.268 C 
ATOM     31  C21 ZIN A   1      20.878   6.112  14.962  0.00  0.00     0.037 C 
ENDBRANCH  27  30
ENDBRANCH  26  27
ENDBRANCH  25  26
ENDBRANCH  24  25
ENDBRANCH   5  24
TORSDOF 11
ENDMDL
MODEL 9
REMARK VINA RESULT:      -7.1      4.132      8.752
REMARK  11 active torsions:
REMARK  status: ('A' for Active; 'I' for Inactive)
REMARK    1  A    between atoms: C2_2  and  C3_3 
REMARK    2  A    between atoms: C3_3  and  C4_4 
REMARK    3  A    between atoms: C4_4  and  C5_5 
REMARK    4  A    between atoms: C6_6  and  C7_7 
REMARK    5  A    between atoms: C7_7  and  C9_9 
REMARK    6  A    between atoms: C13_13  and  O14_14 
REMARK    7  A    between atoms: O14_14  and  C15_15 
REMARK    8  A    between atoms: C15_15  and  C16_16 
REMARK    9  A    between atoms: C16_16  and  N17_17 
REMARK   10  A    between atoms: N17_17  and  C18_18 
REMARK   11  A    between atoms: N17_17  and  C20_20 
ROOT
ATOM      1  C9  ZIN A   1      19.474   0.115  12.291  0.00  0.00     0.018 A 
ATOM      2  C10 ZIN A   1      19.194  -0.572  13.475  0.00  0.00     0.036 A 
ATOM      3  C11 ZIN A   1      18.812   0.126  14.599  0.00  0.00     0.042 A 
ATOM      4  I12 ZIN A   1      18.392  -0.901  16.376  0.00  0.00    -0.042 I 
ATOM      5  C13 ZIN A   1      18.706   1.511  14.557  0.00  0.00     0.101 A 
ATOM      6  C22 ZIN A   1      18.985   2.199  13.381  0.00  0.00     0.042 A 
ATOM      7  I23 ZIN A   1      18.823   4.286  13.325  0.00  0.00    -0.042 I 
ATOM      8  C24 ZIN A   1      19.372   1.508  12.253  0.00  0.00     0.036 A 
ENDROOT
BRANCH   1   9
ATOM      9  C7  ZIN A   1      19.885  -0.630  11.083  0.00  0.00     0.195 C 
ATOM     10  O8  ZIN A   1      21.017  -0.514  10.653  0.00  0.00    -0.287 OA
BRANCH   9  11
ATOM     11  C6  ZIN A   1      18.925  -1.510  10.401  0.00  0.00     0.058 A 
ATOM     12  C5  ZIN A   1      17.993  -1.150   9.476  0.00  0.00     0.069 A 
ATOM     13  O31 ZIN A   1      17.300  -2.226   9.087  0.00  0.00    -0.313 OA
ATOM     14  C30 ZIN A   1      17.732  -3.341   9.712  0.00  0.00     0.087 A 
ATOM     15  C25 ZIN A   1      18.772  -2.967  10.576  0.00  0.00     0.014 A 
ATOM     16  C29 ZIN A   1      17.346  -4.674   9.649  0.00  0.00     0.038 A 
ATOM     17  C26 ZIN A   1      19.408  -3.923  11.361  0.00  0.00     0.015 A 
ATOM     18  C27 ZIN A   1      19.011  -5.242  11.285  0.00  0.00     0.001 A 
ATOM     19  C28 ZIN A   1      17.984  -5.614  10.432  0.00  0.00     0.003 A 
BRANCH  12  20
ATOM     20  C4  ZIN A   1      17.770   0.253   8.971  0.00  0.00     0.066 C 
BRANCH  20  21
ATOM     21  C3  ZIN A   1      18.678   0.511   7.766  0.00  0.00     0.006 C 
BRANCH  21  22
ATOM     22  C2  ZIN A   1      19.419   1.835   7.961  0.00  0.00    -0.004 C 
ATOM     23  C1  ZIN A   1      18.805   2.594   9.139  0.00  0.00     0.005 C 
ENDBRANCH  21  22
ENDBRANCH  20  21
ENDBRANCH  12  20
ENDBRANCH   9  11
ENDBRANCH   1   9
BRANCH   5  24
ATOM     24  O14 ZIN A   1      18.329   2.196  15.668  0.00  0.00    -0.347 OA
BRANCH  24  25
ATOM     25  C15 ZIN A   1      19.334   2.430  16.657  0.00  0.00     0.206 C 
BRANCH  25  26
ATOM     26  C16 ZIN A   1      19.262   3.885  17.122  0.00  0.00     0.299 C 
BRANCH  26  27
ATOM     27  N17 ZIN A   1      17.890   4.196  17.549  0.00  0.00     0.089 N 
BRANCH  27  28
ATOM     28  C18 ZIN A   1      17.780   4.182  19.014  0.00  0.00     0.268 C 
ATOM     29  C19 ZIN A   1      16.710   3.173  19.435  0.00  0.00     0.037 C 
ENDBRANCH  27  28
BRANCH  27  30
ATOM     30  C20 ZIN A   1      17.447   5.484  16.999  0.00  0.00     0.268 C 
ATOM     31  C21 ZIN A   1      18.666   6.358  16.701  0.00  0.00     0.037 C 
ENDBRANCH  27  30
ENDBRANCH  26  27
ENDBRANCH  25  26
ENDBRANCH  24  25
ENDBRANCH   5  24
TORSDOF 11
ENDMDL
