MODEL 1
REMARK VINA RESULT:      -9.0      0.000      0.000
REMARK  8 active torsions:
REMARK  status: ('A' for Active; 'I' for Inactive)
REMARK    1  A    between atoms: O1_1  and  C2_2 
REMARK    2  A    between atoms: C2_2  and  C4_3 
REMARK    3  A    between atoms: C2_2  and  C24_21 
REMARK    4  A    between atoms: C4_3  and  N5_4 
REMARK    5  A    between atoms: N5_4  and  C8_7 
REMARK    6  A    between atoms: C8_7  and  C9_8 
REMARK    7  A    between atoms: C9_8  and  O11_9 
REMARK    8  A    between atoms: C9_8  and  C12_10 
ROOT
ATOM      1  N5  ZIN A   1      20.101   3.764  16.469  0.00  0.00    -0.070 N 
ATOM      2  H6  ZIN A   1      19.991   3.166  15.664  0.00  0.00     0.277 HD
ATOM      3  H7  ZIN A   1      20.907   3.470  16.999  0.00  0.00     0.277 HD
ENDROOT
BRANCH   1   4
ATOM      4  C4  ZIN A   1      20.287   5.152  16.025  0.00  0.00     0.266 C 
BRANCH   4   5
ATOM      5  C2  ZIN A   1      18.924   5.772  15.707  0.00  0.00     0.173 C 
BRANCH   5   6
ATOM      6  O1  ZIN A   1      18.962   7.173  15.987  0.00  0.00    -0.391 OA
ATOM      7  H36 ZIN A   1      19.855   7.540  16.038  0.00  0.00     0.210 HD
ENDBRANCH   5   6
BRANCH   5   8
ATOM      8  C24 ZIN A   1      18.598   5.557  14.228  0.00  0.00     0.159 C 
ATOM      9  O35 ZIN A   1      19.357   4.457  13.724  0.00  0.00    -0.343 OA
ATOM     10  C34 ZIN A   1      19.032   3.969  12.497  0.00  0.00     0.075 A 
ATOM     11  C28 ZIN A   1      17.818   4.254  11.898  0.00  0.00    -0.022 A 
ATOM     12  C33 ZIN A   1      19.953   3.161  11.839  0.00  0.00     0.040 A 
ATOM     13  C27 ZIN A   1      16.795   5.131  12.574  0.00  0.00     0.044 C 
ATOM     14  C29 ZIN A   1      17.524   3.728  10.651  0.00  0.00     0.052 A 
ATOM     15  C26 ZIN A   1      17.108   5.231  14.068  0.00  0.00     0.040 C 
ATOM     16  C30 ZIN A   1      18.441   2.922  10.000  0.00  0.00     0.117 A 
ATOM     17  F31 ZIN A   1      18.149   2.411   8.784  0.00  0.00    -0.206 F 
ATOM     18  C32 ZIN A   1      19.658   2.640  10.596  0.00  0.00     0.045 A 
ENDBRANCH   5   8
ENDBRANCH   4   5
ENDBRANCH   1   4
BRANCH   1  19
ATOM     19  C8  ZIN A   1      18.902   3.676  17.313  0.00  0.00     0.266 C 
BRANCH  19  20
ATOM     20  C9  ZIN A   1      18.773   2.256  17.868  0.00  0.00     0.173 C 
BRANCH  20  21
ATOM     21  O11 ZIN A   1      19.731   2.063  18.911  0.00  0.00    -0.391 OA
ATOM     22  H41 ZIN A   1      19.390   1.572  19.671  0.00  0.00     0.210 HD
ENDBRANCH  20  21
BRANCH  20  23
ATOM     23  C12 ZIN A   1      19.028   1.245  16.748  0.00  0.00     0.159 C 
ATOM     24  O23 ZIN A   1      18.143   1.503  15.657  0.00  0.00    -0.343 OA
ATOM     25  C22 ZIN A   1      18.062   0.570  14.671  0.00  0.00     0.075 A 
ATOM     26  C16 ZIN A   1      18.514  -0.725  14.853  0.00  0.00    -0.022 A 
ATOM     27  C21 ZIN A   1      17.503   0.941  13.453  0.00  0.00     0.040 A 
ATOM     28  C15 ZIN A   1      19.133  -1.165  16.155  0.00  0.00     0.044 C 
ATOM     29  C17 ZIN A   1      18.402  -1.645  13.825  0.00  0.00     0.052 A 
ATOM     30  C14 ZIN A   1      18.762  -0.175  17.263  0.00  0.00     0.040 C 
ATOM     31  C18 ZIN A   1      17.844  -1.275  12.614  0.00  0.00     0.117 A 
ATOM     32  F19 ZIN A   1      17.737  -2.177  11.615  0.00  0.00    -0.206 F 
ATOM     33  C20 ZIN A   1      17.395   0.022  12.429  0.00  0.00     0.045 A 
ENDBRANCH  20  23
ENDBRANCH  19  20
ENDBRANCH   1  19
TORSDOF 8
ENDMDL
MODEL 2
REMARK VINA RESULT:      -9.0      5.535      8.248
REMARK  8 active torsions:
REMARK  status: ('A' for Active; 'I' for Inactive)
REMARK    1  A    between atoms: O1_1  and  C2_2 
REMARK    2  A    between atoms: C2_2  and  C4_3 
REMARK    3  A    between atoms: C2_2  and  C24_21 
REMARK    4  A    between atoms: C4_3  and  N5_4 
REMARK    5  A    between atoms: N5_4  and  C8_7 
REMARK    6  A    between atoms: C8_7  and  C9_8 
REMARK    7  A    between atoms: C9_8  and  O11_9 
REMARK    8  A    between atoms: C9_8  and  C12_10 
ROOT
ATOM      1  N5  ZIN A   1      17.874  -3.628   6.964  0.00  0.00    -0.070 N 
ATOM      2  H6  ZIN A   1      18.169  -2.804   7.466  0.00  0.00     0.277 HD
ATOM      3  H7  ZIN A   1      16.870  -3.709   7.011  0.00  0.00     0.277 HD
ENDROOT
BRANCH   1   4
ATOM      4  C4  ZIN A   1      18.290  -3.521   5.560  0.00  0.00     0.266 C 
BRANCH   4   5
ATOM      5  C2  ZIN A   1      19.329  -2.406   5.419  0.00  0.00     0.173 C 
BRANCH   5   6
ATOM      6  O1  ZIN A   1      19.459  -2.047   4.042  0.00  0.00    -0.391 OA
ATOM      7  H36 ZIN A   1      20.220  -2.448   3.601  0.00  0.00     0.210 HD
ENDBRANCH   5   6
BRANCH   5   8
ATOM      8  C24 ZIN A   1      18.880  -1.185   6.224  0.00  0.00     0.159 C 
ATOM      9  O35 ZIN A   1      19.520  -1.188   7.500  0.00  0.00    -0.343 OA
ATOM     10  C34 ZIN A   1      19.425  -0.066   8.262  0.00  0.00     0.075 A 
ATOM     11  C28 ZIN A   1      19.052   1.152   7.722  0.00  0.00    -0.022 A 
ATOM     12  C33 ZIN A   1      19.719  -0.158   9.619  0.00  0.00     0.040 A 
ATOM     13  C27 ZIN A   1      18.719   1.294   6.258  0.00  0.00     0.044 C 
ATOM     14  C29 ZIN A   1      18.978   2.272   8.533  0.00  0.00     0.052 A 
ATOM     15  C26 ZIN A   1      19.279   0.098   5.485  0.00  0.00     0.040 C 
ATOM     16  C30 ZIN A   1      19.273   2.178   9.881  0.00  0.00     0.117 A 
ATOM     17  F31 ZIN A   1      19.199   3.274  10.667  0.00  0.00    -0.206 F 
ATOM     18  C32 ZIN A   1      19.642   0.960  10.424  0.00  0.00     0.045 A 
ENDBRANCH   5   8
ENDBRANCH   4   5
ENDBRANCH   1   4
BRANCH   1  19
ATOM     19  C8  ZIN A   1      18.490  -4.816   7.568  0.00  0.00     0.266 C 
BRANCH  19  20
ATOM     20  C9  ZIN A   1      17.572  -5.365   8.663  0.00  0.00     0.173 C 
BRANCH  20  21
ATOM     21  O11 ZIN A   1      16.226  -4.961   8.404  0.00  0.00    -0.391 OA
ATOM     22  H41 ZIN A   1      15.822  -5.407   7.647  0.00  0.00     0.210 HD
ENDBRANCH  20  21
BRANCH  20  23
ATOM     23  C12 ZIN A   1      18.016  -4.819  10.022  0.00  0.00     0.159 C 
ATOM     24  O23 ZIN A   1      17.468  -3.514  10.218  0.00  0.00    -0.343 OA
ATOM     25  C22 ZIN A   1      17.937  -2.778  11.261  0.00  0.00     0.075 A 
ATOM     26  C16 ZIN A   1      19.127  -3.089  11.895  0.00  0.00    -0.022 A 
ATOM     27  C21 ZIN A   1      17.193  -1.683  11.686  0.00  0.00     0.040 A 
ATOM     28  C15 ZIN A   1      19.959  -4.271  11.469  0.00  0.00     0.044 C 
ATOM     29  C17 ZIN A   1      19.573  -2.306  12.945  0.00  0.00     0.052 A 
ATOM     30  C14 ZIN A   1      19.545  -4.713  10.063  0.00  0.00     0.040 C 
ATOM     31  C18 ZIN A   1      18.833  -1.215  13.367  0.00  0.00     0.117 A 
ATOM     32  F19 ZIN A   1      19.273  -0.454  14.392  0.00  0.00    -0.206 F 
ATOM     33  C20 ZIN A   1      17.640  -0.906  12.735  0.00  0.00     0.045 A 
ENDBRANCH  20  23
ENDBRANCH  19  20
ENDBRANCH   1  19
TORSDOF 8
ENDMDL
MODEL 3
REMARK VINA RESULT:      -8.9      5.229      8.768
REMARK  8 active torsions:
REMARK  status: ('A' for Active; 'I' for Inactive)
REMARK    1  A    between atoms: O1_1  and  C2_2 
REMARK    2  A    between atoms: C2_2  and  C4_3 
REMARK    3  A    between atoms: C2_2  and  C24_21 
REMARK    4  A    between atoms: C4_3  and  N5_4 
REMARK    5  A    between atoms: N5_4  and  C8_7 
REMARK    6  A    between atoms: C8_7  and  C9_8 
REMARK    7  A    between atoms: C9_8  and  O11_9 
REMARK    8  A    between atoms: C9_8  and  C12_10 
ROOT
ATOM      1  N5  ZIN A   1      19.206  -3.054   7.124  0.00  0.00    -0.070 N 
ATOM      2  H6  ZIN A   1      19.551  -2.213   7.562  0.00  0.00     0.277 HD
ATOM      3  H7  ZIN A   1      19.985  -3.640   6.863  0.00  0.00     0.277 HD
ENDROOT
BRANCH   1   4
ATOM      4  C4  ZIN A   1      18.343  -3.778   8.065  0.00  0.00     0.266 C 
BRANCH   4   5
ATOM      5  C2  ZIN A   1      19.206  -4.637   8.992  0.00  0.00     0.173 C 
BRANCH   5   6
ATOM      6  O1  ZIN A   1      20.484  -4.850   8.390  0.00  0.00    -0.391 OA
ATOM      7  H36 ZIN A   1      20.877  -4.054   8.008  0.00  0.00     0.210 HD
ENDBRANCH   5   6
BRANCH   5   8
ATOM      8  C24 ZIN A   1      19.387  -3.918  10.331  0.00  0.00     0.159 C 
ATOM      9  O35 ZIN A   1      19.882  -2.598  10.105  0.00  0.00    -0.343 OA
ATOM     10  C34 ZIN A   1      19.886  -1.733  11.153  0.00  0.00     0.075 A 
ATOM     11  C28 ZIN A   1      19.130  -1.961  12.290  0.00  0.00    -0.022 A 
ATOM     12  C33 ZIN A   1      20.672  -0.589  11.066  0.00  0.00     0.040 A 
ATOM     13  C27 ZIN A   1      18.269  -3.191  12.427  0.00  0.00     0.044 C 
ATOM     14  C29 ZIN A   1      19.156  -1.047  13.330  0.00  0.00     0.052 A 
ATOM     15  C26 ZIN A   1      18.035  -3.813  11.048  0.00  0.00     0.040 C 
ATOM     16  C30 ZIN A   1      19.937   0.091  13.240  0.00  0.00     0.117 A 
ATOM     17  F31 ZIN A   1      19.958   0.979  14.257  0.00  0.00    -0.206 F 
ATOM     18  C32 ZIN A   1      20.697   0.319  12.106  0.00  0.00     0.045 A 
ENDBRANCH   5   8
ENDBRANCH   4   5
ENDBRANCH   1   4
BRANCH   1  19
ATOM     19  C8  ZIN A   1      18.436  -2.701   5.924  0.00  0.00     0.266 C 
BRANCH  19  20
ATOM     20  C9  ZIN A   1      18.721  -1.246   5.544  0.00  0.00     0.173 C 
BRANCH  20  21
ATOM     21  O11 ZIN A   1      19.890  -1.188   4.725  0.00  0.00    -0.391 OA
ATOM     22  H41 ZIN A   1      20.627  -1.722   5.054  0.00  0.00     0.210 HD
ENDBRANCH  20  21
BRANCH  20  23
ATOM     23  C12 ZIN A   1      18.946  -0.422   6.814  0.00  0.00     0.159 C 
ATOM     24  O23 ZIN A   1      17.877  -0.654   7.733  0.00  0.00    -0.343 OA
ATOM     25  C22 ZIN A   1      17.783   0.163   8.816  0.00  0.00     0.075 A 
ATOM     26  C16 ZIN A   1      18.439   1.379   8.871  0.00  0.00    -0.022 A 
ATOM     27  C21 ZIN A   1      16.997  -0.247   9.888  0.00  0.00     0.040 A 
ATOM     28  C15 ZIN A   1      19.306   1.857   7.733  0.00  0.00     0.044 C 
ATOM     29  C17 ZIN A   1      18.306   2.185   9.989  0.00  0.00     0.052 A 
ATOM     30  C14 ZIN A   1      18.969   1.070   6.464  0.00  0.00     0.040 C 
ATOM     31  C18 ZIN A   1      17.523   1.776  11.054  0.00  0.00     0.117 A 
ATOM     32  F19 ZIN A   1      17.396   2.566  12.142  0.00  0.00    -0.206 F 
ATOM     33  C20 ZIN A   1      16.869   0.557  11.002  0.00  0.00     0.045 A 
ENDBRANCH  20  23
ENDBRANCH  19  20
ENDBRANCH   1  19
TORSDOF 8
ENDMDL
MODEL 4
REMARK VINA RESULT:      -8.8      1.598      5.185
REMARK  8 active torsions:
REMARK  status: ('A' for Active; 'I' for Inactive)
REMARK    1  A    between atoms: O1_1  and  C2_2 
REMARK    2  A    between atoms: C2_2  and  C4_3 
REMARK    3  A    between atoms: C2_2  and  C24_21 
REMARK    4  A    between atoms: C4_3  and  N5_4 
REMARK    5  A    between atoms: N5_4  and  C8_7 
REMARK    6  A    between atoms: C8_7  and  C9_8 
REMARK    7  A    between atoms: C9_8  and  O11_9 
REMARK    8  A    between atoms: C9_8  and  C12_10 
ROOT
ATOM      1  N5  ZIN A   1      18.090   2.239  16.097  0.00  0.00    -0.070 N 
ATOM      2  H6  ZIN A   1      17.875   2.113  15.119  0.00  0.00     0.277 HD
ATOM      3  H7  ZIN A   1      17.233   2.297  16.625  0.00  0.00     0.277 HD
ENDROOT
BRANCH   1   4
ATOM      4  C4  ZIN A   1      18.882   1.098  16.575  0.00  0.00     0.266 C 
BRANCH   4   5
ATOM      5  C2  ZIN A   1      18.003  -0.155  16.606  0.00  0.00     0.173 C 
BRANCH   5   6
ATOM      6  O1  ZIN A   1      16.661   0.213  16.931  0.00  0.00    -0.391 OA
ATOM      7  H36 ZIN A   1      16.475   1.155  16.824  0.00  0.00     0.210 HD
ENDBRANCH   5   6
BRANCH   5   8
ATOM      8  C24 ZIN A   1      18.029  -0.831  15.234  0.00  0.00     0.159 C 
ATOM      9  O35 ZIN A   1      17.421   0.024  14.265  0.00  0.00    -0.343 OA
ATOM     10  C34 ZIN A   1      17.558  -0.303  12.953  0.00  0.00     0.075 A 
ATOM     11  C28 ZIN A   1      18.523  -1.196  12.522  0.00  0.00    -0.022 A 
ATOM     12  C33 ZIN A   1      16.701   0.286  12.030  0.00  0.00     0.040 A 
ATOM     13  C27 ZIN A   1      19.468  -1.861  13.491  0.00  0.00     0.044 C 
ATOM     14  C29 ZIN A   1      18.634  -1.493  11.174  0.00  0.00     0.052 A 
ATOM     15  C26 ZIN A   1      19.481  -1.087  14.811  0.00  0.00     0.040 C 
ATOM     16  C30 ZIN A   1      17.782  -0.904  10.257  0.00  0.00     0.117 A 
ATOM     17  F31 ZIN A   1      17.895  -1.197   8.943  0.00  0.00    -0.206 F 
ATOM     18  C32 ZIN A   1      16.813  -0.015  10.687  0.00  0.00     0.045 A 
ENDBRANCH   5   8
ENDBRANCH   4   5
ENDBRANCH   1   4
BRANCH   1  19
ATOM     19  C8  ZIN A   1      18.860   3.477  16.274  0.00  0.00     0.266 C 
BRANCH  19  20
ATOM     20  C9  ZIN A   1      18.143   4.629  15.564  0.00  0.00     0.173 C 
BRANCH  20  21
ATOM     21  O11 ZIN A   1      16.949   4.958  16.276  0.00  0.00    -0.391 OA
ATOM     22  H41 ZIN A   1      17.093   5.531  17.041  0.00  0.00     0.210 HD
ENDBRANCH  20  21
BRANCH  20  23
ATOM     23  C12 ZIN A   1      17.787   4.205  14.137  0.00  0.00     0.159 C 
ATOM     24  O23 ZIN A   1      18.911   3.565  13.531  0.00  0.00    -0.343 OA
ATOM     25  C22 ZIN A   1      18.862   3.328  12.193  0.00  0.00     0.075 A 
ATOM     26  C16 ZIN A   1      17.958   3.978  11.371  0.00  0.00    -0.022 A 
ATOM     27  C21 ZIN A   1      19.754   2.410  11.649  0.00  0.00     0.040 A 
ATOM     28  C15 ZIN A   1      16.970   4.974  11.922  0.00  0.00     0.044 C 
ATOM     29  C17 ZIN A   1      17.950   3.715  10.012  0.00  0.00     0.052 A 
ATOM     30  C14 ZIN A   1      17.427   5.442  13.306  0.00  0.00     0.040 C 
ATOM     31  C18 ZIN A   1      18.839   2.802   9.472  0.00  0.00     0.117 A 
ATOM     32  F19 ZIN A   1      18.827   2.549   8.146  0.00  0.00    -0.206 F 
ATOM     33  C20 ZIN A   1      19.741   2.149  10.294  0.00  0.00     0.045 A 
ENDBRANCH  20  23
ENDBRANCH  19  20
ENDBRANCH   1  19
TORSDOF 8
ENDMDL
MODEL 5
REMARK VINA RESULT:      -8.7      2.446      3.467
REMARK  8 active torsions:
REMARK  status: ('A' for Active; 'I' for Inactive)
REMARK    1  A    between atoms: O1_1  and  C2_2 
REMARK    2  A    between atoms: C2_2  and  C4_3 
REMARK    3  A    between atoms: C2_2  and  C24_21 
REMARK    4  A    between atoms: C4_3  and  N5_4 
REMARK    5  A    between atoms: N5_4  and  C8_7 
REMARK    6  A    between atoms: C8_7  and  C9_8 
REMARK    7  A    between atoms: C9_8  and  O11_9 
REMARK    8  A    between atoms: C9_8  and  C12_10 
ROOT
ATOM      1  N5  ZIN A   1      19.148   4.122  14.085  0.00  0.00    -0.070 N 
ATOM      2  H6  ZIN A   1      19.778   3.456  13.664  0.00  0.00     0.277 HD
ATOM      3  H7  ZIN A   1      19.673   4.767  14.656  0.00  0.00     0.277 HD
ENDROOT
BRANCH   1   4
ATOM      4  C4  ZIN A   1      18.444   4.864  13.032  0.00  0.00     0.266 C 
BRANCH   4   5
ATOM      5  C2  ZIN A   1      17.386   3.962  12.392  0.00  0.00     0.173 C 
BRANCH   5   6
ATOM      6  O1  ZIN A   1      16.399   4.769  11.746  0.00  0.00    -0.391 OA
ATOM      7  H36 ZIN A   1      16.749   5.328  11.039  0.00  0.00     0.210 HD
ENDBRANCH   5   6
BRANCH   5   8
ATOM      8  C24 ZIN A   1      18.051   3.047  11.361  0.00  0.00     0.159 C 
ATOM      9  O35 ZIN A   1      17.275   1.859  11.201  0.00  0.00    -0.343 OA
ATOM     10  C34 ZIN A   1      17.580   1.036  10.163  0.00  0.00     0.075 A 
ATOM     11  C28 ZIN A   1      18.347   1.464   9.094  0.00  0.00    -0.022 A 
ATOM     12  C33 ZIN A   1      17.099  -0.269  10.189  0.00  0.00     0.040 A 
ATOM     13  C27 ZIN A   1      18.893   2.868   9.031  0.00  0.00     0.044 C 
ATOM     14  C29 ZIN A   1      18.625   0.594   8.053  0.00  0.00     0.052 A 
ATOM     15  C26 ZIN A   1      18.126   3.763  10.007  0.00  0.00     0.040 C 
ATOM     16  C30 ZIN A   1      18.143  -0.702   8.079  0.00  0.00     0.117 A 
ATOM     17  F31 ZIN A   1      18.418  -1.546   7.061  0.00  0.00    -0.206 F 
ATOM     18  C32 ZIN A   1      17.380  -1.134   9.150  0.00  0.00     0.045 A 
ENDBRANCH   5   8
ENDBRANCH   4   5
ENDBRANCH   1   4
BRANCH   1  19
ATOM     19  C8  ZIN A   1      18.172   3.412  14.921  0.00  0.00     0.266 C 
BRANCH  19  20
ATOM     20  C9  ZIN A   1      18.910   2.546  15.944  0.00  0.00     0.173 C 
BRANCH  20  21
ATOM     21  O11 ZIN A   1      20.131   3.188  16.319  0.00  0.00    -0.391 OA
ATOM     22  H41 ZIN A   1      20.423   2.981  17.217  0.00  0.00     0.210 HD
ENDBRANCH  20  21
BRANCH  20  23
ATOM     23  C12 ZIN A   1      19.220   1.180  15.328  0.00  0.00     0.159 C 
ATOM     24  O23 ZIN A   1      19.645   1.349  13.974  0.00  0.00    -0.343 OA
ATOM     25  C22 ZIN A   1      19.742   0.238  13.196  0.00  0.00     0.075 A 
ATOM     26  C16 ZIN A   1      19.128  -0.952  13.545  0.00  0.00    -0.022 A 
ATOM     27  C21 ZIN A   1      20.476   0.317  12.018  0.00  0.00     0.040 A 
ATOM     28  C15 ZIN A   1      18.329  -1.081  14.817  0.00  0.00     0.044 C 
ATOM     29  C17 ZIN A   1      19.243  -2.056  12.717  0.00  0.00     0.052 A 
ATOM     30  C14 ZIN A   1      17.957   0.311  15.335  0.00  0.00     0.040 C 
ATOM     31  C18 ZIN A   1      19.973  -1.975  11.544  0.00  0.00     0.117 A 
ATOM     32  F19 ZIN A   1      20.082  -3.055  10.741  0.00  0.00    -0.206 F 
ATOM     33  C20 ZIN A   1      20.591  -0.786  11.196  0.00  0.00     0.045 A 
ENDBRANCH  20  23
ENDBRANCH  19  20
ENDBRANCH   1  19
TORSDOF 8
ENDMDL
MODEL 6
REMARK VINA RESULT:      -8.6      2.588      4.173
REMARK  8 active torsions:
REMARK  status: ('A' for Active; 'I' for Inactive)
REMARK    1  A    between atoms: O1_1  and  C2_2 
REMARK    2  A    between atoms: C2_2  and  C4_3 
REMARK    3  A    between atoms: C2_2  and  C24_21 
REMARK    4  A    between atoms: C4_3  and  N5_4 
REMARK    5  A    between atoms: N5_4  and  C8_7 
REMARK    6  A    between atoms: C8_7  and  C9_8 
REMARK    7  A    between atoms: C9_8  and  O11_9 
REMARK    8  A    between atoms: C9_8  and  C12_10 
ROOT
ATOM      1  N5  ZIN A   1      19.958   4.707  13.469  0.00  0.00    -0.070 N 
ATOM      2  H6  ZIN A   1      20.603   3.975  13.727  0.00  0.00     0.277 HD
ATOM      3  H7  ZIN A   1      20.474   5.537  13.218  0.00  0.00     0.277 HD
ENDROOT
BRANCH   1   4
ATOM      4  C4  ZIN A   1      19.151   4.268  12.324  0.00  0.00     0.266 C 
BRANCH   4   5
ATOM      5  C2  ZIN A   1      19.851   3.101  11.624  0.00  0.00     0.173 C 
BRANCH   5   6
ATOM      6  O1  ZIN A   1      20.277   2.147  12.598  0.00  0.00    -0.391 OA
ATOM      7  H36 ZIN A   1      19.552   1.728  13.082  0.00  0.00     0.210 HD
ENDBRANCH   5   6
BRANCH   5   8
ATOM      8  C24 ZIN A   1      18.880   2.434  10.648  0.00  0.00     0.159 C 
ATOM      9  O35 ZIN A   1      19.498   2.305   9.367  0.00  0.00    -0.343 OA
ATOM     10  C34 ZIN A   1      18.878   1.530   8.437  0.00  0.00     0.075 A 
ATOM     11  C28 ZIN A   1      17.900   0.616   8.786  0.00  0.00    -0.022 A 
ATOM     12  C33 ZIN A   1      19.250   1.669   7.104  0.00  0.00     0.040 A 
ATOM     13  C27 ZIN A   1      17.463   0.439  10.218  0.00  0.00     0.044 C 
ATOM     14  C29 ZIN A   1      17.302  -0.160   7.806  0.00  0.00     0.052 A 
ATOM     15  C26 ZIN A   1      18.518   1.033  11.155  0.00  0.00     0.040 C 
ATOM     16  C30 ZIN A   1      17.676  -0.023   6.482  0.00  0.00     0.117 A 
ATOM     17  F31 ZIN A   1      17.090  -0.782   5.531  0.00  0.00    -0.206 F 
ATOM     18  C32 ZIN A   1      18.651   0.895   6.131  0.00  0.00     0.045 A 
ENDBRANCH   5   8
ENDBRANCH   4   5
ENDBRANCH   1   4
BRANCH   1  19
ATOM     19  C8  ZIN A   1      19.075   5.004  14.605  0.00  0.00     0.266 C 
BRANCH  19  20
ATOM     20  C9  ZIN A   1      19.860   4.862  15.912  0.00  0.00     0.173 C 
BRANCH  20  21
ATOM     21  O11 ZIN A   1      21.213   5.272  15.702  0.00  0.00    -0.391 OA
ATOM     22  H41 ZIN A   1      21.655   4.809  14.977  0.00  0.00     0.210 HD
ENDBRANCH  20  21
BRANCH  20  23
ATOM     23  C12 ZIN A   1      19.835   3.401  16.366  0.00  0.00     0.159 C 
ATOM     24  O23 ZIN A   1      19.115   2.614  15.416  0.00  0.00    -0.343 OA
ATOM     25  C22 ZIN A   1      18.789   1.341  15.763  0.00  0.00     0.075 A 
ATOM     26  C16 ZIN A   1      18.812   0.915  17.079  0.00  0.00    -0.022 A 
ATOM     27  C21 ZIN A   1      18.419   0.454  14.757  0.00  0.00     0.040 A 
ATOM     28  C15 ZIN A   1      19.215   1.842  18.198  0.00  0.00     0.044 C 
ATOM     29  C17 ZIN A   1      18.462  -0.388  17.388  0.00  0.00     0.052 A 
ATOM     30  C14 ZIN A   1      19.125   3.294  17.721  0.00  0.00     0.040 C 
ATOM     31  C18 ZIN A   1      18.093  -1.268  16.387  0.00  0.00     0.117 A 
ATOM     32  F19 ZIN A   1      17.752  -2.538  16.694  0.00  0.00    -0.206 F 
ATOM     33  C20 ZIN A   1      18.073  -0.845  15.069  0.00  0.00     0.045 A 
ENDBRANCH  20  23
ENDBRANCH  19  20
ENDBRANCH   1  19
TORSDOF 8
ENDMDL
MODEL 7
REMARK VINA RESULT:      -8.6      5.400      9.421
REMARK  8 active torsions:
REMARK  status: ('A' for Active; 'I' for Inactive)
REMARK    1  A    between atoms: O1_1  and  C2_2 
REMARK    2  A    between atoms: C2_2  and  C4_3 
REMARK    3  A    between atoms: C2_2  and  C24_21 
REMARK    4  A    between atoms: C4_3  and  N5_4 
REMARK    5  A    between atoms: N5_4  and  C8_7 
REMARK    6  A    between atoms: C8_7  and  C9_8 
REMARK    7  A    between atoms: C9_8  and  O11_9 
REMARK    8  A    between atoms: C9_8  and  C12_10 
ROOT
ATOM      1  N5  ZIN A   1      17.940  -3.665   6.938  0.00  0.00    -0.070 N 
ATOM      2  H6  ZIN A   1      17.114  -3.821   6.380  0.00  0.00     0.277 HD
ATOM      3  H7  ZIN A   1      17.792  -2.873   7.545  0.00  0.00     0.277 HD
ENDROOT
BRANCH   1   4
ATOM      4  C4  ZIN A   1      18.216  -4.858   7.749  0.00  0.00     0.266 C 
BRANCH   4   5
ATOM      5  C2  ZIN A   1      17.511  -4.729   9.101  0.00  0.00     0.173 C 
BRANCH   5   6
ATOM      6  O1  ZIN A   1      17.423  -6.016   9.717  0.00  0.00    -0.391 OA
ATOM      7  H36 ZIN A   1      16.542  -6.233  10.050  0.00  0.00     0.210 HD
ENDBRANCH   5   6
BRANCH   5   8
ATOM      8  C24 ZIN A   1      18.307  -3.786  10.005  0.00  0.00     0.159 C 
ATOM      9  O35 ZIN A   1      17.410  -2.950  10.737  0.00  0.00    -0.343 OA
ATOM     10  C34 ZIN A   1      17.920  -2.211  11.758  0.00  0.00     0.075 A 
ATOM     11  C28 ZIN A   1      19.153  -2.495  12.318  0.00  0.00    -0.022 A 
ATOM     12  C33 ZIN A   1      17.169  -1.145  12.244  0.00  0.00     0.040 A 
ATOM     13  C27 ZIN A   1      20.000  -3.636  11.816  0.00  0.00     0.044 C 
ATOM     14  C29 ZIN A   1      19.629  -1.721  13.364  0.00  0.00     0.052 A 
ATOM     15  C26 ZIN A   1      19.135  -4.602  11.005  0.00  0.00     0.040 C 
ATOM     16  C30 ZIN A   1      18.880  -0.664  13.847  0.00  0.00     0.117 A 
ATOM     17  F31 ZIN A   1      19.349   0.087  14.867  0.00  0.00    -0.206 F 
ATOM     18  C32 ZIN A   1      17.649  -0.376  13.284  0.00  0.00     0.045 A 
ENDBRANCH   5   8
ENDBRANCH   4   5
ENDBRANCH   1   4
BRANCH   1  19
ATOM     19  C8  ZIN A   1      19.084  -3.398   6.056  0.00  0.00     0.266 C 
BRANCH  19  20
ATOM     20  C9  ZIN A   1      18.778  -2.181   5.179  0.00  0.00     0.173 C 
BRANCH  20  21
ATOM     21  O11 ZIN A   1      19.538  -2.260   3.972  0.00  0.00    -0.391 OA
ATOM     22  H41 ZIN A   1      20.400  -1.826   4.021  0.00  0.00     0.210 HD
ENDBRANCH  20  21
BRANCH  20  23
ATOM     23  C12 ZIN A   1      19.151  -0.903   5.933  0.00  0.00     0.159 C 
ATOM     24  O23 ZIN A   1      19.203  -1.170   7.336  0.00  0.00    -0.343 OA
ATOM     25  C22 ZIN A   1      19.290  -0.108   8.181  0.00  0.00     0.075 A 
ATOM     26  C16 ZIN A   1      18.982   1.177   7.772  0.00  0.00    -0.022 A 
ATOM     27  C21 ZIN A   1      19.696  -0.337   9.492  0.00  0.00     0.040 A 
ATOM     28  C15 ZIN A   1      18.546   1.468   6.359  0.00  0.00     0.044 C 
ATOM     29  C17 ZIN A   1      19.075   2.227   8.670  0.00  0.00     0.052 A 
ATOM     30  C14 ZIN A   1      18.087   0.173   5.684  0.00  0.00     0.040 C 
ATOM     31  C18 ZIN A   1      19.477   1.997   9.974  0.00  0.00     0.117 A 
ATOM     32  F19 ZIN A   1      19.565   3.025  10.845  0.00  0.00    -0.206 F 
ATOM     33  C20 ZIN A   1      19.789   0.712  10.383  0.00  0.00     0.045 A 
ENDBRANCH  20  23
ENDBRANCH  19  20
ENDBRANCH   1  19
TORSDOF 8
ENDMDL
MODEL 8
REMARK VINA RESULT:      -8.6      5.014      6.881
REMARK  8 active torsions:
REMARK  status: ('A' for Active; 'I' for Inactive)
REMARK    1  A    between atoms: O1_1  and  C2_2 
REMARK    2  A    between atoms: C2_2  and  C4_3 
REMARK    3  A    between atoms: C2_2  and  C24_21 
REMARK    4  A    between atoms: C4_3  and  N5_4 
REMARK    5  A    between atoms: N5_4  and  C8_7 
REMARK    6  A    between atoms: C8_7  and  C9_8 
REMARK    7  A    between atoms: C9_8  and  O11_9 
REMARK    8  A    between atoms: C9_8  and  C12_10 
ROOT
ATOM      1  N5  ZIN A   1      19.658  -0.978  13.146  0.00  0.00    -0.070 N 
ATOM      2  H6  ZIN A   1      20.651  -1.026  12.976  0.00  0.00     0.277 HD
ATOM      3  H7  ZIN A   1      19.490  -0.908  14.139  0.00  0.00     0.277 HD
ENDROOT
BRANCH   1   4
ATOM      4  C4  ZIN A   1      19.101   0.202  12.472  0.00  0.00     0.266 C 
BRANCH   4   5
ATOM      5  C2  ZIN A   1      20.239   1.034  11.877  0.00  0.00     0.173 C 
BRANCH   5   6
ATOM      6  O1  ZIN A   1      21.493   0.435  12.213  0.00  0.00    -0.391 OA
ATOM      7  H36 ZIN A   1      21.424  -0.294  12.844  0.00  0.00     0.210 HD
ENDBRANCH   5   6
BRANCH   5   8
ATOM      8  C24 ZIN A   1      20.091   1.089  10.356  0.00  0.00     0.159 C 
ATOM      9  O35 ZIN A   1      19.669  -0.186   9.868  0.00  0.00    -0.343 OA
ATOM     10  C34 ZIN A   1      19.262  -0.268   8.574  0.00  0.00     0.075 A 
ATOM     11  C28 ZIN A   1      18.918   0.857   7.845  0.00  0.00    -0.022 A 
ATOM     12  C33 ZIN A   1      19.191  -1.523   7.979  0.00  0.00     0.040 A 
ATOM     13  C27 ZIN A   1      18.987   2.237   8.450  0.00  0.00     0.044 C 
ATOM     14  C29 ZIN A   1      18.498   0.726   6.532  0.00  0.00     0.052 A 
ATOM     15  C26 ZIN A   1      19.031   2.129   9.976  0.00  0.00     0.040 C 
ATOM     16  C30 ZIN A   1      18.426  -0.524   5.944  0.00  0.00     0.117 A 
ATOM     17  F31 ZIN A   1      18.016  -0.645   4.663  0.00  0.00    -0.206 F 
ATOM     18  C32 ZIN A   1      18.774  -1.649   6.669  0.00  0.00     0.045 A 
ENDBRANCH   5   8
ENDBRANCH   4   5
ENDBRANCH   1   4
BRANCH   1  19
ATOM     19  C8  ZIN A   1      19.012  -2.190  12.625  0.00  0.00     0.266 C 
BRANCH  19  20
ATOM     20  C9  ZIN A   1      20.078  -3.134  12.065  0.00  0.00     0.173 C 
BRANCH  20  21
ATOM     21  O11 ZIN A   1      20.837  -2.455  11.062  0.00  0.00    -0.391 OA
ATOM     22  H41 ZIN A   1      21.351  -3.044  10.493  0.00  0.00     0.210 HD
ENDBRANCH  20  21
BRANCH  20  23
ATOM     23  C12 ZIN A   1      19.399  -4.360  11.448  0.00  0.00     0.159 C 
ATOM     24  O23 ZIN A   1      19.533  -4.319  10.026  0.00  0.00    -0.343 OA
ATOM     25  C22 ZIN A   1      18.799  -5.198   9.293  0.00  0.00     0.075 A 
ATOM     26  C16 ZIN A   1      17.706  -5.857   9.828  0.00  0.00    -0.022 A 
ATOM     27  C21 ZIN A   1      19.163  -5.425   7.971  0.00  0.00     0.040 A 
ATOM     28  C15 ZIN A   1      17.282  -5.644  11.258  0.00  0.00     0.044 C 
ATOM     29  C17 ZIN A   1      16.979  -6.735   9.042  0.00  0.00     0.052 A 
ATOM     30  C14 ZIN A   1      17.906  -4.353  11.794  0.00  0.00     0.040 C 
ATOM     31  C18 ZIN A   1      17.343  -6.959   7.726  0.00  0.00     0.117 A 
ATOM     32  F19 ZIN A   1      16.630  -7.817   6.964  0.00  0.00    -0.206 F 
ATOM     33  C20 ZIN A   1      18.438  -6.303   7.191  0.00  0.00     0.045 A 
ENDBRANCH  20  23
ENDBRANCH  19  20
ENDBRANCH   1  19
TORSDOF 8
ENDMDL
MODEL 9
REMARK VINA RESULT:      -8.3      4.271      6.498
REMARK  8 active torsions:
REMARK  status: ('A' for Active; 'I' for Inactive)
REMARK    1  A    between atoms: O1_1  and  C2_2 
REMARK    2  A    between atoms: C2_2  and  C4_3 
REMARK    3  A    between atoms: C2_2  and  C24_21 
REMARK    4  A    between atoms: C4_3  and  N5_4 
REMARK    5  A    between atoms: N5_4  and  C8_7 
REMARK    6  A    between atoms: C8_7  and  C9_8 
REMARK    7  A    between atoms: C9_8  and  O11_9 
REMARK    8  A    between atoms: C9_8  and  C12_10 
ROOT
ATOM      1  N5  ZIN A   1      18.839  -1.748  12.224  0.00  0.00    -0.070 N 
ATOM      2  H6  ZIN A   1      18.917  -2.580  12.789  0.00  0.00     0.277 HD
ATOM      3  H7  ZIN A   1      19.079  -0.940  12.779  0.00  0.00     0.277 HD
ENDROOT
BRANCH   1   4
ATOM      4  C4  ZIN A   1      19.753  -1.844  11.080  0.00  0.00     0.266 C 
BRANCH   4   5
ATOM      5  C2  ZIN A   1      20.373  -0.472  10.805  0.00  0.00     0.173 C 
BRANCH   5   6
ATOM      6  O1  ZIN A   1      21.769  -0.511  11.108  0.00  0.00    -0.391 OA
ATOM      7  H36 ZIN A   1      22.020  -1.220  11.716  0.00  0.00     0.210 HD
ENDBRANCH   5   6
BRANCH   5   8
ATOM      8  C24 ZIN A   1      20.182  -0.112   9.330  0.00  0.00     0.159 C 
ATOM      9  O35 ZIN A   1      19.620  -1.224   8.633  0.00  0.00    -0.343 OA
ATOM     10  C34 ZIN A   1      19.165  -1.017   7.368  0.00  0.00     0.075 A 
ATOM     11  C28 ZIN A   1      18.910   0.254   6.884  0.00  0.00    -0.022 A 
ATOM     12  C33 ZIN A   1      18.950  -2.122   6.552  0.00  0.00     0.040 A 
ATOM     13  C27 ZIN A   1      19.136   1.479   7.735  0.00  0.00     0.044 C 
ATOM     14  C29 ZIN A   1      18.437   0.418   5.593  0.00  0.00     0.052 A 
ATOM     15  C26 ZIN A   1      19.218   1.075   9.208  0.00  0.00     0.040 C 
ATOM     16  C30 ZIN A   1      18.222  -0.683   4.784  0.00  0.00     0.117 A 
ATOM     17  F31 ZIN A   1      17.761  -0.517   3.525  0.00  0.00    -0.206 F 
ATOM     18  C32 ZIN A   1      18.481  -1.954   5.265  0.00  0.00     0.045 A 
ENDBRANCH   5   8
ENDBRANCH   4   5
ENDBRANCH   1   4
BRANCH   1  19
ATOM     19  C8  ZIN A   1      17.459  -1.613  11.738  0.00  0.00     0.266 C 
BRANCH  19  20
ATOM     20  C9  ZIN A   1      16.854  -0.313  12.274  0.00  0.00     0.173 C 
BRANCH  20  21
ATOM     21  O11 ZIN A   1      16.675   0.608  11.197  0.00  0.00    -0.391 OA
ATOM     22  H41 ZIN A   1      17.178   1.428  11.294  0.00  0.00     0.210 HD
ENDBRANCH  20  21
BRANCH  20  23
ATOM     23  C12 ZIN A   1      17.795   0.296  13.316  0.00  0.00     0.159 C 
ATOM     24  O23 ZIN A   1      17.384  -0.099  14.625  0.00  0.00    -0.343 OA
ATOM     25  C22 ZIN A   1      17.957   0.529  15.687  0.00  0.00     0.075 A 
ATOM     26  C16 ZIN A   1      18.628   1.730  15.548  0.00  0.00    -0.022 A 
ATOM     27  C21 ZIN A   1      17.851  -0.062  16.942  0.00  0.00     0.040 A 
ATOM     28  C15 ZIN A   1      18.771   2.400  14.205  0.00  0.00     0.044 C 
ATOM     29  C17 ZIN A   1      19.187   2.340  16.658  0.00  0.00     0.052 A 
ATOM     30  C14 ZIN A   1      17.739   1.826  13.231  0.00  0.00     0.040 C 
ATOM     31  C18 ZIN A   1      19.079   1.751  17.906  0.00  0.00     0.117 A 
ATOM     32  F19 ZIN A   1      19.626   2.351  18.986  0.00  0.00    -0.206 F 
ATOM     33  C20 ZIN A   1      18.411   0.547  18.046  0.00  0.00     0.045 A 
ENDBRANCH  20  23
ENDBRANCH  19  20
ENDBRANCH   1  19
TORSDOF 8
ENDMDL
