MODEL 1
REMARK VINA RESULT:      -7.1      0.000      0.000
REMARK  12 active torsions:
REMARK  status: ('A' for Active; 'I' for Inactive)
REMARK    1  A    between atoms: C2_2  and  O3_3 
REMARK    2  A    between atoms: O3_3  and  C4_4 
REMARK    3  A    between atoms: C9_9  and  O10_10 
REMARK    4  A    between atoms: O10_10  and  C11_11 
REMARK    5  A    between atoms: C11_11  and  C12_12 
REMARK    6  A    between atoms: C12_12  and  N13_13 
REMARK    7  A    between atoms: N13_13  and  C16_16 
REMARK    8  A    between atoms: C16_16  and  C19_18 
REMARK    9  A    between atoms: C19_18  and  C20_19 
REMARK   10  A    between atoms: C23_22  and  O24_23 
REMARK   11  A    between atoms: C26_25  and  S27_26 
REMARK   12  A    between atoms: S27_26  and  N28_27 
ROOT
ATOM      1  C16 ZIN A   1      19.844  -2.529  11.375  0.00  0.00     0.186 C 
ATOM      2  C18 ZIN A   1      20.333  -3.951  11.662  0.00  0.00     0.040 C 
ENDROOT
BRANCH   1   3
ATOM      3  N13 ZIN A   1      19.594  -2.378   9.936  0.00  0.00    -0.069 N 
ATOM      4  H14 ZIN A   1      20.363  -2.777   9.417  0.00  0.00     0.277 HD
ATOM      5  H15 ZIN A   1      19.510  -1.397   9.710  0.00  0.00     0.277 HD
BRANCH   3   6
ATOM      6  C12 ZIN A   1      18.349  -3.071   9.579  0.00  0.00     0.259 C 
BRANCH   6   7
ATOM      7  C11 ZIN A   1      18.332  -3.344   8.073  0.00  0.00     0.203 C 
BRANCH   7   8
ATOM      8  O10 ZIN A   1      19.453  -2.706   7.460  0.00  0.00    -0.347 OA
BRANCH   8   9
ATOM      9  C9  ZIN A   1      19.188  -1.781   6.498  0.00  0.00     0.102 A 
ATOM     10  C4  ZIN A   1      19.160  -0.427   6.821  0.00  0.00     0.102 A 
ATOM     11  C5  ZIN A   1      18.890   0.511   5.838  0.00  0.00     0.039 A 
ATOM     12  C6  ZIN A   1      18.643   0.100   4.540  0.00  0.00     0.003 A 
ATOM     13  C7  ZIN A   1      18.666  -1.245   4.221  0.00  0.00     0.003 A 
ATOM     14  C8  ZIN A   1      18.935  -2.185   5.198  0.00  0.00     0.039 A 
BRANCH  10  15
ATOM     15  O3  ZIN A   1      19.403  -0.026   8.098  0.00  0.00    -0.349 OA
BRANCH  15  16
ATOM     16  C2  ZIN A   1      18.633   1.072   8.589  0.00  0.00     0.171 C 
ATOM     17  C1  ZIN A   1      17.512   0.546   9.489  0.00  0.00     0.034 C 
ENDBRANCH  15  16
ENDBRANCH  10  15
ENDBRANCH   8   9
ENDBRANCH   7   8
ENDBRANCH   6   7
ENDBRANCH   3   6
ENDBRANCH   1   3
BRANCH   1  18
ATOM     18  C19 ZIN A   1      18.549  -2.271  12.148  0.00  0.00     0.071 C 
BRANCH  18  19
ATOM     19  C20 ZIN A   1      18.763  -1.139  13.120  0.00  0.00    -0.054 A 
ATOM     20  C31 ZIN A   1      18.356  -1.271  14.435  0.00  0.00     0.035 A 
ATOM     21  C26 ZIN A   1      18.556  -0.237  15.329  0.00  0.00     0.113 A 
ATOM     22  C23 ZIN A   1      19.158   0.939  14.903  0.00  0.00     0.091 A 
ATOM     23  C22 ZIN A   1      19.560   1.072  13.582  0.00  0.00     0.039 A 
ATOM     24  C21 ZIN A   1      19.363   0.032  12.694  0.00  0.00     0.010 A 
BRANCH  21  25
ATOM     25  S27 ZIN A   1      18.043  -0.408  17.005  0.00  0.00     0.259 S 
ATOM     26  O29 ZIN A   1      17.030  -1.406  17.015  0.00  0.00    -0.201 OA
ATOM     27  O30 ZIN A   1      19.230  -0.498  17.782  0.00  0.00    -0.201 OA
BRANCH  25  28
ATOM     28  N28 ZIN A   1      17.305   1.009  17.439  0.00  0.00    -0.324 N 
ATOM     29  H55 ZIN A   1      16.688   1.026  18.187  0.00  0.00     0.169 HD
ATOM     30  H56 ZIN A   1      17.491   1.824  16.945  0.00  0.00     0.169 HD
ENDBRANCH  25  28
ENDBRANCH  21  25
BRANCH  22  31
ATOM     31  O24 ZIN A   1      19.351   1.961  15.779  0.00  0.00    -0.354 OA
ATOM     32  C25 ZIN A   1      19.034   3.276  15.322  0.00  0.00     0.210 C 
ENDBRANCH  22  31
ENDBRANCH  18  19
ENDBRANCH   1  18
TORSDOF 12
ENDMDL
MODEL 2
REMARK VINA RESULT:      -7.1      1.646      2.624
REMARK  12 active torsions:
REMARK  status: ('A' for Active; 'I' for Inactive)
REMARK    1  A    between atoms: C2_2  and  O3_3 
REMARK    2  A    between atoms: O3_3  and  C4_4 
REMARK    3  A    between atoms: C9_9  and  O10_10 
REMARK    4  A    between atoms: O10_10  and  C11_11 
REMARK    5  A    between atoms: C11_11  and  C12_12 
REMARK    6  A    between atoms: C12_12  and  N13_13 
REMARK    7  A    between atoms: N13_13  and  C16_16 
REMARK    8  A    between atoms: C16_16  and  C19_18 
REMARK    9  A    between atoms: C19_18  and  C20_19 
REMARK   10  A    between atoms: C23_22  and  O24_23 
REMARK   11  A    between atoms: C26_25  and  S27_26 
REMARK   12  A    between atoms: S27_26  and  N28_27 
ROOT
ATOM      1  C16 ZIN A   1      18.479  -1.379  11.978  0.00  0.00     0.186 C 
ATOM      2  C18 ZIN A   1      17.147  -0.683  11.688  0.00  0.00     0.040 C 
ENDROOT
BRANCH   1   3
ATOM      3  N13 ZIN A   1      18.931  -2.092  10.777  0.00  0.00    -0.069 N 
ATOM      4  H14 ZIN A   1      19.658  -2.746  11.028  0.00  0.00     0.277 HD
ATOM      5  H15 ZIN A   1      19.293  -1.428  10.108  0.00  0.00     0.277 HD
BRANCH   3   6
ATOM      6  C12 ZIN A   1      17.801  -2.818  10.184  0.00  0.00     0.259 C 
BRANCH   6   7
ATOM      7  C11 ZIN A   1      18.039  -2.992   8.682  0.00  0.00     0.203 C 
BRANCH   7   8
ATOM      8  O10 ZIN A   1      19.237  -2.311   8.307  0.00  0.00    -0.347 OA
BRANCH   8   9
ATOM      9  C9  ZIN A   1      19.163  -1.476   7.236  0.00  0.00     0.102 A 
ATOM     10  C4  ZIN A   1      18.981  -0.109   7.429  0.00  0.00     0.102 A 
ATOM     11  C5  ZIN A   1      18.906   0.738   6.335  0.00  0.00     0.039 A 
ATOM     12  C6  ZIN A   1      19.008   0.223   5.054  0.00  0.00     0.003 A 
ATOM     13  C7  ZIN A   1      19.183  -1.135   4.864  0.00  0.00     0.003 A 
ATOM     14  C8  ZIN A   1      19.258  -1.984   5.952  0.00  0.00     0.039 A 
BRANCH  10  15
ATOM     15  O3  ZIN A   1      18.882   0.395   8.688  0.00  0.00    -0.349 OA
BRANCH  15  16
ATOM     16  C2  ZIN A   1      19.376   1.719   8.897  0.00  0.00     0.171 C 
ATOM     17  C1  ZIN A   1      18.454   2.459   9.869  0.00  0.00     0.034 C 
ENDBRANCH  15  16
ENDBRANCH  10  15
ENDBRANCH   8   9
ENDBRANCH   7   8
ENDBRANCH   6   7
ENDBRANCH   3   6
ENDBRANCH   1   3
BRANCH   1  18
ATOM     18  C19 ZIN A   1      19.523  -0.334  12.376  0.00  0.00     0.071 C 
BRANCH  18  19
ATOM     19  C20 ZIN A   1      19.327   0.045  13.821  0.00  0.00    -0.054 A 
ATOM     20  C31 ZIN A   1      19.310   1.379  14.189  0.00  0.00     0.035 A 
ATOM     21  C26 ZIN A   1      19.125   1.730  15.513  0.00  0.00     0.113 A 
ATOM     22  C23 ZIN A   1      18.965   0.742  16.475  0.00  0.00     0.091 A 
ATOM     23  C22 ZIN A   1      18.987  -0.595  16.104  0.00  0.00     0.039 A 
ATOM     24  C21 ZIN A   1      19.167  -0.940  14.779  0.00  0.00     0.010 A 
BRANCH  21  25
ATOM     25  S27 ZIN A   1      19.100   3.428  15.979  0.00  0.00     0.259 S 
ATOM     26  O29 ZIN A   1      20.288   3.658  16.725  0.00  0.00    -0.201 OA
ATOM     27  O30 ZIN A   1      18.762   4.161  14.809  0.00  0.00    -0.201 OA
BRANCH  25  28
ATOM     28  N28 ZIN A   1      17.840   3.627  17.035  0.00  0.00    -0.324 N 
ATOM     29  H55 ZIN A   1      16.990   3.192  16.864  0.00  0.00     0.169 HD
ATOM     30  H56 ZIN A   1      17.952   4.179  17.825  0.00  0.00     0.169 HD
ENDBRANCH  25  28
ENDBRANCH  21  25
BRANCH  22  31
ATOM     31  O24 ZIN A   1      18.789   1.084  17.778  0.00  0.00    -0.354 OA
ATOM     32  C25 ZIN A   1      18.549   0.021  18.701  0.00  0.00     0.210 C 
ENDBRANCH  22  31
ENDBRANCH  18  19
ENDBRANCH   1  18
TORSDOF 12
ENDMDL
MODEL 3
REMARK VINA RESULT:      -7.1      3.144      8.630
REMARK  12 active torsions:
REMARK  status: ('A' for Active; 'I' for Inactive)
REMARK    1  A    between atoms: C2_2  and  O3_3 
REMARK    2  A    between atoms: O3_3  and  C4_4 
REMARK    3  A    between atoms: C9_9  and  O10_10 
REMARK    4  A    between atoms: O10_10  and  C11_11 
REMARK    5  A    between atoms: C11_11  and  C12_12 
REMARK    6  A    between atoms: C12_12  and  N13_13 
REMARK    7  A    between atoms: N13_13  and  C16_16 
REMARK    8  A    between atoms: C16_16  and  C19_18 
REMARK    9  A    between atoms: C19_18  and  C20_19 
REMARK   10  A    between atoms: C23_22  and  O24_23 
REMARK   11  A    between atoms: C26_25  and  S27_26 
REMARK   12  A    between atoms: S27_26  and  N28_27 
ROOT
ATOM      1  C16 ZIN A   1      18.890   2.344   9.721  0.00  0.00     0.186 C 
ATOM      2  C18 ZIN A   1      18.266   3.463  10.557  0.00  0.00     0.040 C 
ENDROOT
BRANCH   1   3
ATOM      3  N13 ZIN A   1      20.007   1.743  10.461  0.00  0.00    -0.069 N 
ATOM      4  H14 ZIN A   1      20.858   2.245  10.252  0.00  0.00     0.277 HD
ATOM      5  H15 ZIN A   1      20.111   0.777  10.187  0.00  0.00     0.277 HD
BRANCH   3   6
ATOM      6  C12 ZIN A   1      19.736   1.817  11.902  0.00  0.00     0.259 C 
BRANCH   6   7
ATOM      7  C11 ZIN A   1      19.689   0.403  12.485  0.00  0.00     0.203 C 
BRANCH   7   8
ATOM      8  O10 ZIN A   1      20.227   0.415  13.809  0.00  0.00    -0.347 OA
BRANCH   8   9
ATOM      9  C9  ZIN A   1      19.383   0.082  14.821  0.00  0.00     0.102 A 
ATOM     10  C4  ZIN A   1      18.939   1.059  15.708  0.00  0.00     0.102 A 
ATOM     11  C5  ZIN A   1      18.078   0.716  16.738  0.00  0.00     0.039 A 
ATOM     12  C6  ZIN A   1      17.667  -0.597  16.887  0.00  0.00     0.003 A 
ATOM     13  C7  ZIN A   1      18.113  -1.567  16.009  0.00  0.00     0.003 A 
ATOM     14  C8  ZIN A   1      18.972  -1.230  14.980  0.00  0.00     0.039 A 
BRANCH  10  15
ATOM     15  O3  ZIN A   1      19.344   2.349  15.561  0.00  0.00    -0.349 OA
BRANCH  15  16
ATOM     16  C2  ZIN A   1      18.365   3.288  15.112  0.00  0.00     0.171 C 
ATOM     17  C1  ZIN A   1      18.300   4.463  16.091  0.00  0.00     0.034 C 
ENDBRANCH  15  16
ENDBRANCH  10  15
ENDBRANCH   8   9
ENDBRANCH   7   8
ENDBRANCH   6   7
ENDBRANCH   3   6
ENDBRANCH   1   3
BRANCH   1  18
ATOM     18  C19 ZIN A   1      17.835   1.274   9.432  0.00  0.00     0.071 C 
BRANCH  18  19
ATOM     19  C20 ZIN A   1      18.323   0.373   8.328  0.00  0.00    -0.054 A 
ATOM     20  C31 ZIN A   1      18.450  -0.987   8.552  0.00  0.00     0.035 A 
ATOM     21  C26 ZIN A   1      18.893  -1.816   7.539  0.00  0.00     0.113 A 
ATOM     22  C23 ZIN A   1      19.219  -1.283   6.300  0.00  0.00     0.091 A 
ATOM     23  C22 ZIN A   1      19.096   0.081   6.080  0.00  0.00     0.039 A 
ATOM     24  C21 ZIN A   1      18.647   0.906   7.094  0.00  0.00     0.010 A 
BRANCH  21  25
ATOM     25  S27 ZIN A   1      19.049  -3.547   7.823  0.00  0.00     0.259 S 
ATOM     26  O29 ZIN A   1      19.186  -3.713   9.228  0.00  0.00    -0.201 OA
ATOM     27  O30 ZIN A   1      18.024  -4.173   7.063  0.00  0.00    -0.201 OA
BRANCH  25  28
ATOM     28  N28 ZIN A   1      20.486  -4.026   7.154  0.00  0.00    -0.324 N 
ATOM     29  H55 ZIN A   1      21.156  -3.365   6.918  0.00  0.00     0.169 HD
ATOM     30  H56 ZIN A   1      20.659  -4.968   6.999  0.00  0.00     0.169 HD
ENDBRANCH  25  28
ENDBRANCH  21  25
BRANCH  22  31
ATOM     31  O24 ZIN A   1      19.660  -2.096   5.304  0.00  0.00    -0.354 OA
ATOM     32  C25 ZIN A   1      18.775  -2.313   4.204  0.00  0.00     0.210 C 
ENDBRANCH  22  31
ENDBRANCH  18  19
ENDBRANCH   1  18
TORSDOF 12
ENDMDL
MODEL 4
REMARK VINA RESULT:      -7.0      3.306      8.988
REMARK  12 active torsions:
REMARK  status: ('A' for Active; 'I' for Inactive)
REMARK    1  A    between atoms: C2_2  and  O3_3 
REMARK    2  A    between atoms: O3_3  and  C4_4 
REMARK    3  A    between atoms: C9_9  and  O10_10 
REMARK    4  A    between atoms: O10_10  and  C11_11 
REMARK    5  A    between atoms: C11_11  and  C12_12 
REMARK    6  A    between atoms: C12_12  and  N13_13 
REMARK    7  A    between atoms: N13_13  and  C16_16 
REMARK    8  A    between atoms: C16_16  and  C19_18 
REMARK    9  A    between atoms: C19_18  and  C20_19 
REMARK   10  A    between atoms: C23_22  and  O24_23 
REMARK   11  A    between atoms: C26_25  and  S27_26 
REMARK   12  A    between atoms: S27_26  and  N28_27 
ROOT
ATOM      1  C16 ZIN A   1      18.885   1.916   9.609  0.00  0.00     0.186 C 
ATOM      2  C18 ZIN A   1      18.408   3.362   9.758  0.00  0.00     0.040 C 
ENDROOT
BRANCH   1   3
ATOM      3  N13 ZIN A   1      19.774   1.576  10.727  0.00  0.00    -0.069 N 
ATOM      4  H14 ZIN A   1      20.222   2.414  11.068  0.00  0.00     0.277 HD
ATOM      5  H15 ZIN A   1      20.478   0.925  10.410  0.00  0.00     0.277 HD
BRANCH   3   6
ATOM      6  C12 ZIN A   1      18.991   0.964  11.808  0.00  0.00     0.259 C 
BRANCH   6   7
ATOM      7  C11 ZIN A   1      19.191   1.763  13.097  0.00  0.00     0.203 C 
BRANCH   7   8
ATOM      8  O10 ZIN A   1      19.871   0.955  14.060  0.00  0.00    -0.347 OA
BRANCH   8   9
ATOM      9  C9  ZIN A   1      19.110   0.376  15.027  0.00  0.00     0.102 A 
ATOM     10  C4  ZIN A   1      18.960  -1.008  15.060  0.00  0.00     0.102 A 
ATOM     11  C5  ZIN A   1      18.185  -1.594  16.048  0.00  0.00     0.039 A 
ATOM     12  C6  ZIN A   1      17.558  -0.803  16.994  0.00  0.00     0.003 A 
ATOM     13  C7  ZIN A   1      17.703   0.571  16.958  0.00  0.00     0.003 A 
ATOM     14  C8  ZIN A   1      18.475   1.161  15.974  0.00  0.00     0.039 A 
BRANCH  10  15
ATOM     15  O3  ZIN A   1      19.577  -1.784  14.129  0.00  0.00    -0.349 OA
BRANCH  15  16
ATOM     16  C2  ZIN A   1      18.761  -2.313  13.083  0.00  0.00     0.171 C 
ATOM     17  C1  ZIN A   1      19.653  -2.961  12.020  0.00  0.00     0.034 C 
ENDBRANCH  15  16
ENDBRANCH  10  15
ENDBRANCH   8   9
ENDBRANCH   7   8
ENDBRANCH   6   7
ENDBRANCH   3   6
ENDBRANCH   1   3
BRANCH   1  18
ATOM     18  C19 ZIN A   1      17.675   0.978   9.615  0.00  0.00     0.071 C 
BRANCH  18  19
ATOM     19  C20 ZIN A   1      17.947  -0.195   8.709  0.00  0.00    -0.054 A 
ATOM     20  C31 ZIN A   1      18.177   0.013   7.361  0.00  0.00     0.035 A 
ATOM     21  C26 ZIN A   1      18.431  -1.060   6.528  0.00  0.00     0.113 A 
ATOM     22  C23 ZIN A   1      18.445  -2.349   7.045  0.00  0.00     0.091 A 
ATOM     23  C22 ZIN A   1      18.209  -2.555   8.396  0.00  0.00     0.039 A 
ATOM     24  C21 ZIN A   1      17.961  -1.478   9.225  0.00  0.00     0.010 A 
BRANCH  21  25
ATOM     25  S27 ZIN A   1      18.729  -0.795   4.813  0.00  0.00     0.259 S 
ATOM     26  O29 ZIN A   1      18.340   0.545   4.540  0.00  0.00    -0.201 OA
ATOM     27  O30 ZIN A   1      20.035  -1.293   4.550  0.00  0.00    -0.201 OA
BRANCH  25  28
ATOM     28  N28 ZIN A   1      17.681  -1.766   3.977  0.00  0.00    -0.324 N 
ATOM     29  H55 ZIN A   1      17.293  -1.456   3.143  0.00  0.00     0.169 HD
ATOM     30  H56 ZIN A   1      17.457  -2.645   4.320  0.00  0.00     0.169 HD
ENDBRANCH  25  28
ENDBRANCH  21  25
BRANCH  22  31
ATOM     31  O24 ZIN A   1      18.689  -3.407   6.227  0.00  0.00    -0.354 OA
ATOM     32  C25 ZIN A   1      19.815  -4.227   6.546  0.00  0.00     0.210 C 
ENDBRANCH  22  31
ENDBRANCH  18  19
ENDBRANCH   1  18
TORSDOF 12
ENDMDL
MODEL 5
REMARK VINA RESULT:      -7.0      1.801      2.509
REMARK  12 active torsions:
REMARK  status: ('A' for Active; 'I' for Inactive)
REMARK    1  A    between atoms: C2_2  and  O3_3 
REMARK    2  A    between atoms: O3_3  and  C4_4 
REMARK    3  A    between atoms: C9_9  and  O10_10 
REMARK    4  A    between atoms: O10_10  and  C11_11 
REMARK    5  A    between atoms: C11_11  and  C12_12 
REMARK    6  A    between atoms: C12_12  and  N13_13 
REMARK    7  A    between atoms: N13_13  and  C16_16 
REMARK    8  A    between atoms: C16_16  and  C19_18 
REMARK    9  A    between atoms: C19_18  and  C20_19 
REMARK   10  A    between atoms: C23_22  and  O24_23 
REMARK   11  A    between atoms: C26_25  and  S27_26 
REMARK   12  A    between atoms: S27_26  and  N28_27 
ROOT
ATOM      1  C16 ZIN A   1      19.118  -3.043  11.372  0.00  0.00     0.186 C 
ATOM      2  C18 ZIN A   1      19.023  -4.556  11.581  0.00  0.00     0.040 C 
ENDROOT
BRANCH   1   3
ATOM      3  N13 ZIN A   1      19.242  -2.753   9.938  0.00  0.00    -0.069 N 
ATOM      4  H14 ZIN A   1      20.108  -3.138   9.590  0.00  0.00     0.277 HD
ATOM      5  H15 ZIN A   1      19.239  -1.753   9.795  0.00  0.00     0.277 HD
BRANCH   3   6
ATOM      6  C12 ZIN A   1      18.113  -3.354   9.216  0.00  0.00     0.259 C 
BRANCH   6   7
ATOM      7  C11 ZIN A   1      18.561  -3.750   7.807  0.00  0.00     0.203 C 
BRANCH   7   8
ATOM      8  O10 ZIN A   1      19.592  -2.863   7.368  0.00  0.00    -0.347 OA
BRANCH   8   9
ATOM      9  C9  ZIN A   1      19.241  -1.908   6.466  0.00  0.00     0.102 A 
ATOM     10  C4  ZIN A   1      19.099  -0.584   6.873  0.00  0.00     0.102 A 
ATOM     11  C5  ZIN A   1      18.742   0.386   5.950  0.00  0.00     0.039 A 
ATOM     12  C6  ZIN A   1      18.522   0.037   4.630  0.00  0.00     0.003 A 
ATOM     13  C7  ZIN A   1      18.657  -1.279   4.228  0.00  0.00     0.003 A 
ATOM     14  C8  ZIN A   1      19.013  -2.251   5.145  0.00  0.00     0.039 A 
BRANCH  10  15
ATOM     15  O3  ZIN A   1      19.316  -0.242   8.171  0.00  0.00    -0.349 OA
BRANCH  15  16
ATOM     16  C2  ZIN A   1      18.421   0.709   8.749  0.00  0.00     0.171 C 
ATOM     17  C1  ZIN A   1      19.211   1.932   9.220  0.00  0.00     0.034 C 
ENDBRANCH  15  16
ENDBRANCH  10  15
ENDBRANCH   8   9
ENDBRANCH   7   8
ENDBRANCH   6   7
ENDBRANCH   3   6
ENDBRANCH   1   3
BRANCH   1  18
ATOM     18  C19 ZIN A   1      17.857  -2.372  11.921  0.00  0.00     0.071 C 
BRANCH  18  19
ATOM     19  C20 ZIN A   1      18.249  -1.264  12.864  0.00  0.00    -0.054 A 
ATOM     20  C31 ZIN A   1      18.055   0.056  12.497  0.00  0.00     0.035 A 
ATOM     21  C26 ZIN A   1      18.409   1.074  13.361  0.00  0.00     0.113 A 
ATOM     22  C23 ZIN A   1      18.967   0.771  14.596  0.00  0.00     0.091 A 
ATOM     23  C22 ZIN A   1      19.165  -0.553  14.959  0.00  0.00     0.039 A 
ATOM     24  C21 ZIN A   1      18.805  -1.567  14.093  0.00  0.00     0.010 A 
BRANCH  21  25
ATOM     25  S27 ZIN A   1      18.157   2.753  12.895  0.00  0.00     0.259 S 
ATOM     26  O29 ZIN A   1      19.449   3.311  12.691  0.00  0.00    -0.201 OA
ATOM     27  O30 ZIN A   1      17.147   2.746  11.895  0.00  0.00    -0.201 OA
BRANCH  25  28
ATOM     28  N28 ZIN A   1      17.513   3.535  14.205  0.00  0.00    -0.324 N 
ATOM     29  H55 ZIN A   1      16.687   3.216  14.602  0.00  0.00     0.169 HD
ATOM     30  H56 ZIN A   1      17.961   4.311  14.575  0.00  0.00     0.169 HD
ENDBRANCH  25  28
ENDBRANCH  21  25
BRANCH  22  31
ATOM     31  O24 ZIN A   1      19.321   1.771  15.446  0.00  0.00    -0.354 OA
ATOM     32  C25 ZIN A   1      19.058   1.565  16.834  0.00  0.00     0.210 C 
ENDBRANCH  22  31
ENDBRANCH  18  19
ENDBRANCH   1  18
TORSDOF 12
ENDMDL
MODEL 6
REMARK VINA RESULT:      -7.0      3.495      8.943
REMARK  12 active torsions:
REMARK  status: ('A' for Active; 'I' for Inactive)
REMARK    1  A    between atoms: C2_2  and  O3_3 
REMARK    2  A    between atoms: O3_3  and  C4_4 
REMARK    3  A    between atoms: C9_9  and  O10_10 
REMARK    4  A    between atoms: O10_10  and  C11_11 
REMARK    5  A    between atoms: C11_11  and  C12_12 
REMARK    6  A    between atoms: C12_12  and  N13_13 
REMARK    7  A    between atoms: N13_13  and  C16_16 
REMARK    8  A    between atoms: C16_16  and  C19_18 
REMARK    9  A    between atoms: C19_18  and  C20_19 
REMARK   10  A    between atoms: C23_22  and  O24_23 
REMARK   11  A    between atoms: C26_25  and  S27_26 
REMARK   12  A    between atoms: S27_26  and  N28_27 
ROOT
ATOM      1  C16 ZIN A   1      18.872   1.933   9.501  0.00  0.00     0.186 C 
ATOM      2  C18 ZIN A   1      18.481   3.295  10.079  0.00  0.00     0.040 C 
ENDROOT
BRANCH   1   3
ATOM      3  N13 ZIN A   1      19.981   1.369  10.282  0.00  0.00    -0.069 N 
ATOM      4  H14 ZIN A   1      20.840   1.836  10.031  0.00  0.00     0.277 HD
ATOM      5  H15 ZIN A   1      20.064   0.383  10.083  0.00  0.00     0.277 HD
BRANCH   3   6
ATOM      6  C12 ZIN A   1      19.718   1.560  11.714  0.00  0.00     0.259 C 
BRANCH   6   7
ATOM      7  C11 ZIN A   1      19.734   0.202  12.420  0.00  0.00     0.203 C 
BRANCH   7   8
ATOM      8  O10 ZIN A   1      20.251   0.358  13.743  0.00  0.00    -0.347 OA
BRANCH   8   9
ATOM      9  C9  ZIN A   1      19.414   0.061  14.772  0.00  0.00     0.102 A 
ATOM     10  C4  ZIN A   1      18.889   1.082  15.561  0.00  0.00     0.102 A 
ATOM     11  C5  ZIN A   1      18.036   0.775  16.609  0.00  0.00     0.039 A 
ATOM     12  C6  ZIN A   1      17.713  -0.544  16.873  0.00  0.00     0.003 A 
ATOM     13  C7  ZIN A   1      18.238  -1.557  16.093  0.00  0.00     0.003 A 
ATOM     14  C8  ZIN A   1      19.091  -1.256  15.046  0.00  0.00     0.039 A 
BRANCH  10  15
ATOM     15  O3  ZIN A   1      19.208   2.378  15.300  0.00  0.00    -0.349 OA
BRANCH  15  16
ATOM     16  C2  ZIN A   1      18.227   3.163  14.620  0.00  0.00     0.171 C 
ATOM     17  C1  ZIN A   1      18.839   4.506  14.215  0.00  0.00     0.034 C 
ENDBRANCH  15  16
ENDBRANCH  10  15
ENDBRANCH   8   9
ENDBRANCH   7   8
ENDBRANCH   6   7
ENDBRANCH   3   6
ENDBRANCH   1   3
BRANCH   1  18
ATOM     18  C19 ZIN A   1      17.669   0.988   9.566  0.00  0.00     0.071 C 
BRANCH  18  19
ATOM     19  C20 ZIN A   1      17.928  -0.212   8.692  0.00  0.00    -0.054 A 
ATOM     20  C31 ZIN A   1      18.149  -0.045   7.337  0.00  0.00     0.035 A 
ATOM     21  C26 ZIN A   1      18.391  -1.144   6.535  0.00  0.00     0.113 A 
ATOM     22  C23 ZIN A   1      18.403  -2.417   7.089  0.00  0.00     0.091 A 
ATOM     23  C22 ZIN A   1      18.175  -2.581   8.448  0.00  0.00     0.039 A 
ATOM     24  C21 ZIN A   1      17.939  -1.479   9.246  0.00  0.00     0.010 A 
BRANCH  21  25
ATOM     25  S27 ZIN A   1      18.677  -0.930   4.811  0.00  0.00     0.259 S 
ATOM     26  O29 ZIN A   1      18.299   0.405   4.503  0.00  0.00    -0.201 OA
ATOM     27  O30 ZIN A   1      19.975  -1.450   4.551  0.00  0.00    -0.201 OA
BRANCH  25  28
ATOM     28  N28 ZIN A   1      17.612  -1.914   4.011  0.00  0.00    -0.324 N 
ATOM     29  H55 ZIN A   1      17.165  -1.597   3.211  0.00  0.00     0.169 HD
ATOM     30  H56 ZIN A   1      17.436  -2.809   4.343  0.00  0.00     0.169 HD
ENDBRANCH  25  28
ENDBRANCH  21  25
BRANCH  22  31
ATOM     31  O24 ZIN A   1      18.635  -3.500   6.302  0.00  0.00    -0.354 OA
ATOM     32  C25 ZIN A   1      18.418  -4.785   6.885  0.00  0.00     0.210 C 
ENDBRANCH  22  31
ENDBRANCH  18  19
ENDBRANCH   1  18
TORSDOF 12
ENDMDL
MODEL 7
REMARK VINA RESULT:      -7.0      2.912      8.618
REMARK  12 active torsions:
REMARK  status: ('A' for Active; 'I' for Inactive)
REMARK    1  A    between atoms: C2_2  and  O3_3 
REMARK    2  A    between atoms: O3_3  and  C4_4 
REMARK    3  A    between atoms: C9_9  and  O10_10 
REMARK    4  A    between atoms: O10_10  and  C11_11 
REMARK    5  A    between atoms: C11_11  and  C12_12 
REMARK    6  A    between atoms: C12_12  and  N13_13 
REMARK    7  A    between atoms: N13_13  and  C16_16 
REMARK    8  A    between atoms: C16_16  and  C19_18 
REMARK    9  A    between atoms: C19_18  and  C20_19 
REMARK   10  A    between atoms: C23_22  and  O24_23 
REMARK   11  A    between atoms: C26_25  and  S27_26 
REMARK   12  A    between atoms: S27_26  and  N28_27 
ROOT
ATOM      1  C16 ZIN A   1      18.799   1.906  10.196  0.00  0.00     0.186 C 
ATOM      2  C18 ZIN A   1      18.355   3.342   9.908  0.00  0.00     0.040 C 
ENDROOT
BRANCH   1   3
ATOM      3  N13 ZIN A   1      19.016   1.741  11.639  0.00  0.00    -0.069 N 
ATOM      4  H14 ZIN A   1      19.978   1.484  11.808  0.00  0.00     0.277 HD
ATOM      5  H15 ZIN A   1      18.408   1.014  11.989  0.00  0.00     0.277 HD
BRANCH   3   6
ATOM      6  C12 ZIN A   1      18.717   3.003  12.327  0.00  0.00     0.259 C 
BRANCH   6   7
ATOM      7  C11 ZIN A   1      18.814   2.794  13.840  0.00  0.00     0.203 C 
BRANCH   7   8
ATOM      8  O10 ZIN A   1      17.769   1.920  14.269  0.00  0.00    -0.347 OA
BRANCH   8   9
ATOM      9  C9  ZIN A   1      18.121   0.893  15.089  0.00  0.00     0.102 A 
ATOM     10  C4  ZIN A   1      18.226  -0.400  14.582  0.00  0.00     0.102 A 
ATOM     11  C5  ZIN A   1      18.585  -1.442  15.421  0.00  0.00     0.039 A 
ATOM     12  C6  ZIN A   1      18.832  -1.198  16.760  0.00  0.00     0.003 A 
ATOM     13  C7  ZIN A   1      18.721   0.084  17.264  0.00  0.00     0.003 A 
ATOM     14  C8  ZIN A   1      18.363   1.129  16.431  0.00  0.00     0.039 A 
BRANCH  10  15
ATOM     15  O3  ZIN A   1      17.984  -0.637  13.265  0.00  0.00    -0.349 OA
BRANCH  15  16
ATOM     16  C2  ZIN A   1      18.321  -1.933  12.767  0.00  0.00     0.171 C 
ATOM     17  C1  ZIN A   1      19.608  -1.843  11.944  0.00  0.00     0.034 C 
ENDBRANCH  15  16
ENDBRANCH  10  15
ENDBRANCH   8   9
ENDBRANCH   7   8
ENDBRANCH   6   7
ENDBRANCH   3   6
ENDBRANCH   1   3
BRANCH   1  18
ATOM     18  C19 ZIN A   1      17.715   0.933   9.727  0.00  0.00     0.071 C 
BRANCH  18  19
ATOM     19  C20 ZIN A   1      18.234   0.127   8.565  0.00  0.00    -0.054 A 
ATOM     20  C31 ZIN A   1      18.391  -1.242   8.689  0.00  0.00     0.035 A 
ATOM     21  C26 ZIN A   1      18.862  -1.984   7.623  0.00  0.00     0.113 A 
ATOM     22  C23 ZIN A   1      19.185  -1.354   6.430  0.00  0.00     0.091 A 
ATOM     23  C22 ZIN A   1      19.031   0.020   6.309  0.00  0.00     0.039 A 
ATOM     24  C21 ZIN A   1      18.555   0.757   7.376  0.00  0.00     0.010 A 
BRANCH  21  25
ATOM     25  S27 ZIN A   1      19.058  -3.727   7.781  0.00  0.00     0.259 S 
ATOM     26  O29 ZIN A   1      19.189  -3.993   9.172  0.00  0.00    -0.201 OA
ATOM     27  O30 ZIN A   1      18.053  -4.320   6.968  0.00  0.00    -0.201 OA
BRANCH  25  28
ATOM     28  N28 ZIN A   1      20.510  -4.122   7.091  0.00  0.00    -0.324 N 
ATOM     29  H55 ZIN A   1      20.683  -3.898   6.163  0.00  0.00     0.169 HD
ATOM     30  H56 ZIN A   1      21.188  -4.577   7.615  0.00  0.00     0.169 HD
ENDBRANCH  25  28
ENDBRANCH  21  25
BRANCH  22  31
ATOM     31  O24 ZIN A   1      19.653  -2.081   5.381  0.00  0.00    -0.354 OA
ATOM     32  C25 ZIN A   1      18.782  -2.238   4.260  0.00  0.00     0.210 C 
ENDBRANCH  22  31
ENDBRANCH  18  19
ENDBRANCH   1  18
TORSDOF 12
ENDMDL
MODEL 8
REMARK VINA RESULT:      -6.8      2.201      3.455
REMARK  12 active torsions:
REMARK  status: ('A' for Active; 'I' for Inactive)
REMARK    1  A    between atoms: C2_2  and  O3_3 
REMARK    2  A    between atoms: O3_3  and  C4_4 
REMARK    3  A    between atoms: C9_9  and  O10_10 
REMARK    4  A    between atoms: O10_10  and  C11_11 
REMARK    5  A    between atoms: C11_11  and  C12_12 
REMARK    6  A    between atoms: C12_12  and  N13_13 
REMARK    7  A    between atoms: N13_13  and  C16_16 
REMARK    8  A    between atoms: C16_16  and  C19_18 
REMARK    9  A    between atoms: C19_18  and  C20_19 
REMARK   10  A    between atoms: C23_22  and  O24_23 
REMARK   11  A    between atoms: C26_25  and  S27_26 
REMARK   12  A    between atoms: S27_26  and  N28_27 
ROOT
ATOM      1  C16 ZIN A   1      18.893  -3.002  11.112  0.00  0.00     0.186 C 
ATOM      2  C18 ZIN A   1      20.053  -3.950  11.425  0.00  0.00     0.040 C 
ENDROOT
BRANCH   1   3
ATOM      3  N13 ZIN A   1      18.078  -3.566  10.029  0.00  0.00    -0.069 N 
ATOM      4  H14 ZIN A   1      17.515  -2.837   9.617  0.00  0.00     0.277 HD
ATOM      5  H15 ZIN A   1      17.475  -4.285  10.403  0.00  0.00     0.277 HD
BRANCH   3   6
ATOM      6  C12 ZIN A   1      18.956  -4.147   9.006  0.00  0.00     0.259 C 
BRANCH   6   7
ATOM      7  C11 ZIN A   1      19.073  -3.178   7.827  0.00  0.00     0.203 C 
BRANCH   7   8
ATOM      8  O10 ZIN A   1      18.049  -2.187   7.920  0.00  0.00    -0.347 OA
BRANCH   8   9
ATOM      9  C9  ZIN A   1      18.433  -0.888   7.794  0.00  0.00     0.102 A 
ATOM     10  C4  ZIN A   1      18.071  -0.161   6.663  0.00  0.00     0.102 A 
ATOM     11  C5  ZIN A   1      18.464   1.162   6.540  0.00  0.00     0.039 A 
ATOM     12  C6  ZIN A   1      19.219   1.755   7.536  0.00  0.00     0.003 A 
ATOM     13  C7  ZIN A   1      19.583   1.030   8.656  0.00  0.00     0.003 A 
ATOM     14  C8  ZIN A   1      19.193  -0.291   8.784  0.00  0.00     0.039 A 
BRANCH  10  15
ATOM     15  O3  ZIN A   1      17.328  -0.745   5.685  0.00  0.00    -0.349 OA
BRANCH  15  16
ATOM     16  C2  ZIN A   1      18.038  -1.304   4.580  0.00  0.00     0.171 C 
ATOM     17  C1  ZIN A   1      17.309  -2.557   4.087  0.00  0.00     0.034 C 
ENDBRANCH  15  16
ENDBRANCH  10  15
ENDBRANCH   8   9
ENDBRANCH   7   8
ENDBRANCH   6   7
ENDBRANCH   3   6
ENDBRANCH   1   3
BRANCH   1  18
ATOM     18  C19 ZIN A   1      18.030  -2.824  12.363  0.00  0.00     0.071 C 
BRANCH  18  19
ATOM     19  C20 ZIN A   1      18.357  -1.505  13.014  0.00  0.00    -0.054 A 
ATOM     20  C31 ZIN A   1      18.178  -0.325  12.314  0.00  0.00     0.035 A 
ATOM     21  C26 ZIN A   1      18.472   0.886  12.910  0.00  0.00     0.113 A 
ATOM     22  C23 ZIN A   1      18.957   0.917  14.210  0.00  0.00     0.091 A 
ATOM     23  C22 ZIN A   1      19.141  -0.267  14.909  0.00  0.00     0.039 A 
ATOM     24  C21 ZIN A   1      18.840  -1.475  14.310  0.00  0.00     0.010 A 
BRANCH  21  25
ATOM     25  S27 ZIN A   1      18.239   2.387  12.020  0.00  0.00     0.259 S 
ATOM     26  O29 ZIN A   1      19.537   2.874  11.705  0.00  0.00    -0.201 OA
ATOM     27  O30 ZIN A   1      17.250   2.120  11.034  0.00  0.00    -0.201 OA
BRANCH  25  28
ATOM     28  N28 ZIN A   1      17.571   3.481  13.068  0.00  0.00    -0.324 N 
ATOM     29  H55 ZIN A   1      17.941   3.587  13.959  0.00  0.00     0.169 HD
ATOM     30  H56 ZIN A   1      16.811   4.016  12.791  0.00  0.00     0.169 HD
ENDBRANCH  25  28
ENDBRANCH  21  25
BRANCH  22  31
ATOM     31  O24 ZIN A   1      19.253   2.107  14.798  0.00  0.00    -0.354 OA
ATOM     32  C25 ZIN A   1      19.145   2.172  16.221  0.00  0.00     0.210 C 
ENDBRANCH  22  31
ENDBRANCH  18  19
ENDBRANCH   1  18
TORSDOF 12
ENDMDL
MODEL 9
REMARK VINA RESULT:      -6.7      1.882      3.473
REMARK  12 active torsions:
REMARK  status: ('A' for Active; 'I' for Inactive)
REMARK    1  A    between atoms: C2_2  and  O3_3 
REMARK    2  A    between atoms: O3_3  and  C4_4 
REMARK    3  A    between atoms: C9_9  and  O10_10 
REMARK    4  A    between atoms: O10_10  and  C11_11 
REMARK    5  A    between atoms: C11_11  and  C12_12 
REMARK    6  A    between atoms: C12_12  and  N13_13 
REMARK    7  A    between atoms: N13_13  and  C16_16 
REMARK    8  A    between atoms: C16_16  and  C19_18 
REMARK    9  A    between atoms: C19_18  and  C20_19 
REMARK   10  A    between atoms: C23_22  and  O24_23 
REMARK   11  A    between atoms: C26_25  and  S27_26 
REMARK   12  A    between atoms: S27_26  and  N28_27 
ROOT
ATOM      1  C16 ZIN A   1      20.032   0.771  11.749  0.00  0.00     0.186 C 
ATOM      2  C18 ZIN A   1      20.598  -0.466  11.048  0.00  0.00     0.040 C 
ENDROOT
BRANCH   1   3
ATOM      3  N13 ZIN A   1      20.132   1.930  10.853  0.00  0.00    -0.069 N 
ATOM      4  H14 ZIN A   1      20.879   1.781  10.191  0.00  0.00     0.277 HD
ATOM      5  H15 ZIN A   1      20.324   2.760  11.396  0.00  0.00     0.277 HD
BRANCH   3   6
ATOM      6  C12 ZIN A   1      18.864   2.102  10.131  0.00  0.00     0.259 C 
BRANCH   6   7
ATOM      7  C11 ZIN A   1      19.066   1.744   8.656  0.00  0.00     0.203 C 
BRANCH   7   8
ATOM      8  O10 ZIN A   1      18.661   0.392   8.434  0.00  0.00    -0.347 OA
BRANCH   8   9
ATOM      9  C9  ZIN A   1      18.858  -0.114   7.187  0.00  0.00     0.102 A 
ATOM     10  C4  ZIN A   1      19.077  -1.479   7.015  0.00  0.00     0.102 A 
ATOM     11  C5  ZIN A   1      19.277  -1.990   5.743  0.00  0.00     0.039 A 
ATOM     12  C6  ZIN A   1      19.264  -1.145   4.649  0.00  0.00     0.003 A 
ATOM     13  C7  ZIN A   1      19.053   0.211   4.821  0.00  0.00     0.003 A 
ATOM     14  C8  ZIN A   1      18.853   0.727   6.088  0.00  0.00     0.039 A 
BRANCH  10  15
ATOM     15  O3  ZIN A   1      19.088  -2.309   8.093  0.00  0.00    -0.349 OA
BRANCH  15  16
ATOM     16  C2  ZIN A   1      18.755  -3.678   7.859  0.00  0.00     0.171 C 
ATOM     17  C1  ZIN A   1      18.391  -4.347   9.187  0.00  0.00     0.034 C 
ENDBRANCH  15  16
ENDBRANCH  10  15
ENDBRANCH   8   9
ENDBRANCH   7   8
ENDBRANCH   6   7
ENDBRANCH   3   6
ENDBRANCH   1   3
BRANCH   1  18
ATOM     18  C19 ZIN A   1      18.565   0.527  12.107  0.00  0.00     0.071 C 
BRANCH  18  19
ATOM     19  C20 ZIN A   1      18.395   0.599  13.603  0.00  0.00    -0.054 A 
ATOM     20  C31 ZIN A   1      18.676   1.776  14.274  0.00  0.00     0.035 A 
ATOM     21  C26 ZIN A   1      18.516   1.846  15.644  0.00  0.00     0.113 A 
ATOM     22  C23 ZIN A   1      18.083   0.731  16.349  0.00  0.00     0.091 A 
ATOM     23  C22 ZIN A   1      17.808  -0.449  15.675  0.00  0.00     0.039 A 
ATOM     24  C21 ZIN A   1      17.964  -0.513  14.304  0.00  0.00     0.010 A 
BRANCH  21  25
ATOM     25  S27 ZIN A   1      18.869   3.346  16.497  0.00  0.00     0.259 S 
ATOM     26  O29 ZIN A   1      20.052   3.113  17.249  0.00  0.00    -0.201 OA
ATOM     27  O30 ZIN A   1      18.750   4.390  15.539  0.00  0.00    -0.201 OA
BRANCH  25  28
ATOM     28  N28 ZIN A   1      17.654   3.582  17.598  0.00  0.00    -0.324 N 
ATOM     29  H55 ZIN A   1      17.842   3.522  18.548  0.00  0.00     0.169 HD
ATOM     30  H56 ZIN A   1      16.755   3.780  17.292  0.00  0.00     0.169 HD
ENDBRANCH  25  28
ENDBRANCH  21  25
BRANCH  22  31
ATOM     31  O24 ZIN A   1      17.931   0.796  17.698  0.00  0.00    -0.354 OA
ATOM     32  C25 ZIN A   1      18.846   0.038  18.491  0.00  0.00     0.210 C 
ENDBRANCH  22  31
ENDBRANCH  18  19
ENDBRANCH   1  18
TORSDOF 12
ENDMDL
