MODEL 1
REMARK VINA RESULT:     -10.7      0.000      0.000
REMARK  7 active torsions:
REMARK  status: ('A' for Active; 'I' for Inactive)
REMARK    1  A    between atoms: C5_5  and  N6_6 
REMARK       I    between atoms: N6_6  and  C7_7 
REMARK    2  A    between atoms: C7_7  and  C9_9 
REMARK    3  A    between atoms: C12_12  and  C13_13 
REMARK    4  A    between atoms: C13_13  and  N14_14 
REMARK    5  A    between atoms: C25_25  and  N26_26 
REMARK    6  A    between atoms: N26_26  and  C27_27 
REMARK    7  A    between atoms: C31_31  and  C32_32 
ROOT
ATOM      1  C1  ZIN A   1      18.139  -5.941   7.458  0.00  0.00     0.050 C 
ATOM      2  C2  ZIN A   1      18.326  -5.174   8.742  0.00  0.00    -0.035 A 
ATOM      3  C3  ZIN A   1      17.764  -5.643   9.913  0.00  0.00     0.011 A 
ATOM      4  C4  ZIN A   1      17.932  -4.942  11.092  0.00  0.00     0.030 A 
ATOM      5  C5  ZIN A   1      18.668  -3.763  11.103  0.00  0.00     0.037 A 
ATOM      6  C24 ZIN A   1      19.234  -3.290   9.928  0.00  0.00     0.060 A 
ATOM      7  C25 ZIN A   1      19.068  -3.999   8.746  0.00  0.00     0.057 A 
ENDROOT
BRANCH   5   8
ATOM      8  N6  ZIN A   1      18.838  -3.056  12.297  0.00  0.00    -0.323 N 
ATOM      9  C7  ZIN A   1      18.015  -2.032  12.597  0.00  0.00     0.256 C 
ATOM     10  O8  ZIN A   1      17.067  -1.784  11.878  0.00  0.00    -0.267 OA
ATOM     11  H44 ZIN A   1      19.549  -3.302  12.909  0.00  0.00     0.169 HD
BRANCH   9  12
ATOM     12  C9  ZIN A   1      18.264  -1.211  13.801  0.00  0.00     0.032 A 
ATOM     13  C23 ZIN A   1      19.143  -1.660  14.786  0.00  0.00     0.017 A 
ATOM     14  C22 ZIN A   1      19.376  -0.886  15.905  0.00  0.00     0.010 A 
ATOM     15  C12 ZIN A   1      18.732   0.329  16.054  0.00  0.00    -0.030 A 
ATOM     16  C11 ZIN A   1      17.855   0.778  15.083  0.00  0.00     0.010 A 
ATOM     17  C10 ZIN A   1      17.618   0.017  13.957  0.00  0.00     0.017 A 
BRANCH  15  18
ATOM     18  C13 ZIN A   1      18.986   1.167  17.281  0.00  0.00     0.311 C 
BRANCH  18  19
ATOM     19  N14 ZIN A   1      18.561   2.550  17.025  0.00  0.00     0.095 N 
ATOM     20  C21 ZIN A   1      18.081   3.189  18.259  0.00  0.00     0.300 C 
ATOM     21  C20 ZIN A   1      17.593   4.605  17.939  0.00  0.00     0.264 C 
ATOM     22  N17 ZIN A   1      18.696   5.383  17.361  0.00  0.00    -0.072 N 
ATOM     23  C16 ZIN A   1      19.148   4.747  16.117  0.00  0.00     0.264 C 
ATOM     24  H18 ZIN A   1      19.461   5.422  18.017  0.00  0.00     0.279 HD
ATOM     25  C19 ZIN A   1      18.232   6.747  17.071  0.00  0.00     0.269 C 
ATOM     26  C15 ZIN A   1      19.649   3.332  16.421  0.00  0.00     0.300 C 
ENDBRANCH  18  19
ENDBRANCH  15  18
ENDBRANCH   9  12
ENDBRANCH   5   8
BRANCH   7  27
ATOM     27  N26 ZIN A   1      19.637  -3.525   7.561  0.00  0.00    -0.188 N 
ATOM     28  H63 ZIN A   1      20.203  -4.107   7.028  0.00  0.00     0.184 HD
BRANCH  27  29
ATOM     29  C27 ZIN A   1      19.392  -2.227   7.145  0.00  0.00     0.727 A 
ATOM     30  N38 ZIN A   1      19.064  -1.313   8.045  0.00  0.00    -0.062 NA
ATOM     31  C31 ZIN A   1      18.827  -0.056   7.678  0.00  0.00     0.089 A 
ATOM     32  C30 ZIN A   1      18.919   0.284   6.325  0.00  0.00     0.053 A 
ATOM     33  C29 ZIN A   1      19.260  -0.705   5.419  0.00  0.00     0.139 A 
ATOM     34  N28 ZIN A   1      19.487  -1.933   5.856  0.00  0.00    -0.075 NA
BRANCH  31  35
ATOM     35  C32 ZIN A   1      18.464   0.968   8.688  0.00  0.00     0.011 A 
ATOM     36  C37 ZIN A   1      17.589   0.657   9.729  0.00  0.00     0.130 A 
ATOM     37  N36 ZIN A   1      17.271   1.564  10.629  0.00  0.00    -0.272 NA
ATOM     38  C35 ZIN A   1      17.750   2.793  10.580  0.00  0.00     0.116 A 
ATOM     39  C34 ZIN A   1      18.617   3.180   9.576  0.00  0.00     0.020 A 
ATOM     40  C33 ZIN A   1      18.987   2.261   8.608  0.00  0.00     0.017 A 
ENDBRANCH  31  35
ENDBRANCH  27  29
ENDBRANCH   7  27
TORSDOF 7
ENDMDL
MODEL 2
REMARK VINA RESULT:     -10.5      1.960      9.035
REMARK  7 active torsions:
REMARK  status: ('A' for Active; 'I' for Inactive)
REMARK    1  A    between atoms: C5_5  and  N6_6 
REMARK       I    between atoms: N6_6  and  C7_7 
REMARK    2  A    between atoms: C7_7  and  C9_9 
REMARK    3  A    between atoms: C12_12  and  C13_13 
REMARK    4  A    between atoms: C13_13  and  N14_14 
REMARK    5  A    between atoms: C25_25  and  N26_26 
REMARK    6  A    between atoms: N26_26  and  C27_27 
REMARK    7  A    between atoms: C31_31  and  C32_32 
ROOT
ATOM      1  C1  ZIN A   1      18.813   2.018  17.910  0.00  0.00     0.050 C 
ATOM      2  C2  ZIN A   1      18.989   1.011  16.803  0.00  0.00    -0.035 A 
ATOM      3  C3  ZIN A   1      18.949  -0.340  17.088  0.00  0.00     0.011 A 
ATOM      4  C4  ZIN A   1      19.111  -1.267  16.076  0.00  0.00     0.030 A 
ATOM      5  C5  ZIN A   1      19.313  -0.843  14.768  0.00  0.00     0.037 A 
ATOM      6  C24 ZIN A   1      19.353   0.513  14.479  0.00  0.00     0.060 A 
ATOM      7  C25 ZIN A   1      19.186   1.442  15.496  0.00  0.00     0.057 A 
ENDROOT
BRANCH   5   8
ATOM      8  N6  ZIN A   1      19.476  -1.783  13.745  0.00  0.00    -0.323 N 
ATOM      9  C7  ZIN A   1      18.476  -2.005  12.869  0.00  0.00     0.256 C 
ATOM     10  O8  ZIN A   1      17.471  -1.324  12.908  0.00  0.00    -0.267 OA
ATOM     11  H44 ZIN A   1      20.309  -2.274  13.666  0.00  0.00     0.169 HD
BRANCH   9  12
ATOM     12  C9  ZIN A   1      18.603  -3.078  11.860  0.00  0.00     0.032 A 
ATOM     13  C23 ZIN A   1      17.479  -3.520  11.162  0.00  0.00     0.017 A 
ATOM     14  C22 ZIN A   1      17.604  -4.519  10.218  0.00  0.00     0.010 A 
ATOM     15  C12 ZIN A   1      18.841  -5.088   9.970  0.00  0.00    -0.030 A 
ATOM     16  C11 ZIN A   1      19.959  -4.658  10.662  0.00  0.00     0.010 A 
ATOM     17  C10 ZIN A   1      19.848  -3.656  11.604  0.00  0.00     0.017 A 
BRANCH  15  18
ATOM     18  C13 ZIN A   1      18.970  -6.181   8.941  0.00  0.00     0.311 C 
BRANCH  18  19
ATOM     19  N14 ZIN A   1      18.378  -5.733   7.673  0.00  0.00     0.095 N 
ATOM     20  C21 ZIN A   1      19.308  -4.864   6.937  0.00  0.00     0.300 C 
ATOM     21  C20 ZIN A   1      18.632  -4.372   5.654  0.00  0.00     0.264 C 
ATOM     22  N17 ZIN A   1      18.254  -5.524   4.827  0.00  0.00    -0.072 N 
ATOM     23  C16 ZIN A   1      17.307  -6.370   5.566  0.00  0.00     0.264 C 
ATOM     24  H18 ZIN A   1      19.077  -6.060   4.600  0.00  0.00     0.279 HD
ATOM     25  C19 ZIN A   1      17.622  -5.050   3.588  0.00  0.00     0.269 C 
ATOM     26  C15 ZIN A   1      17.970  -6.879   6.848  0.00  0.00     0.300 C 
ENDBRANCH  18  19
ENDBRANCH  15  18
ENDBRANCH   9  12
ENDBRANCH   5   8
BRANCH   7  27
ATOM     27  N26 ZIN A   1      19.225   2.809  15.209  0.00  0.00    -0.188 N 
ATOM     28  H63 ZIN A   1      19.694   3.417  15.802  0.00  0.00     0.184 HD
BRANCH  27  29
ATOM     29  C27 ZIN A   1      18.594   3.298  14.077  0.00  0.00     0.727 A 
ATOM     30  N38 ZIN A   1      18.683   2.617  12.945  0.00  0.00    -0.062 NA
ATOM     31  C31 ZIN A   1      18.084   3.057  11.840  0.00  0.00     0.089 A 
ATOM     32  C30 ZIN A   1      17.367   4.257  11.891  0.00  0.00     0.053 A 
ATOM     33  C29 ZIN A   1      17.305   4.937  13.094  0.00  0.00     0.139 A 
ATOM     34  N28 ZIN A   1      17.921   4.437  14.153  0.00  0.00    -0.075 NA
BRANCH  31  35
ATOM     35  C32 ZIN A   1      18.181   2.291  10.575  0.00  0.00     0.011 A 
ATOM     36  C37 ZIN A   1      17.514   1.075  10.430  0.00  0.00     0.130 A 
ATOM     37  N36 ZIN A   1      17.596   0.397   9.303  0.00  0.00    -0.272 NA
ATOM     38  C35 ZIN A   1      18.311   0.826   8.281  0.00  0.00     0.116 A 
ATOM     39  C34 ZIN A   1      19.006   2.020   8.350  0.00  0.00     0.020 A 
ATOM     40  C33 ZIN A   1      18.948   2.773   9.510  0.00  0.00     0.017 A 
ENDBRANCH  31  35
ENDBRANCH  27  29
ENDBRANCH   7  27
TORSDOF 7
ENDMDL
MODEL 3
REMARK VINA RESULT:     -10.4      2.031      9.978
REMARK  7 active torsions:
REMARK  status: ('A' for Active; 'I' for Inactive)
REMARK    1  A    between atoms: C5_5  and  N6_6 
REMARK       I    between atoms: N6_6  and  C7_7 
REMARK    2  A    between atoms: C7_7  and  C9_9 
REMARK    3  A    between atoms: C12_12  and  C13_13 
REMARK    4  A    between atoms: C13_13  and  N14_14 
REMARK    5  A    between atoms: C25_25  and  N26_26 
REMARK    6  A    between atoms: N26_26  and  C27_27 
REMARK    7  A    between atoms: C31_31  and  C32_32 
ROOT
ATOM      1  C1  ZIN A   1      16.629   5.875  15.597  0.00  0.00     0.050 C 
ATOM      2  C2  ZIN A   1      16.948   5.173  14.303  0.00  0.00    -0.035 A 
ATOM      3  C3  ZIN A   1      16.479   5.682  13.108  0.00  0.00     0.011 A 
ATOM      4  C4  ZIN A   1      16.768   5.040  11.919  0.00  0.00     0.030 A 
ATOM      5  C5  ZIN A   1      17.535   3.881  11.921  0.00  0.00     0.037 A 
ATOM      6  C24 ZIN A   1      18.008   3.368  13.121  0.00  0.00     0.060 A 
ATOM      7  C25 ZIN A   1      17.720   4.017  14.312  0.00  0.00     0.057 A 
ENDROOT
BRANCH   5   8
ATOM      8  N6  ZIN A   1      17.828   3.233  10.717  0.00  0.00    -0.323 N 
ATOM      9  C7  ZIN A   1      17.527   1.929  10.563  0.00  0.00     0.256 C 
ATOM     10  O8  ZIN A   1      16.915   1.340  11.432  0.00  0.00    -0.267 OA
ATOM     11  H44 ZIN A   1      18.249   3.723   9.993  0.00  0.00     0.169 HD
BRANCH   9  12
ATOM     12  C9  ZIN A   1      17.940   1.215   9.336  0.00  0.00     0.032 A 
ATOM     13  C23 ZIN A   1      18.893   1.777   8.485  0.00  0.00     0.017 A 
ATOM     14  C22 ZIN A   1      19.278   1.103   7.345  0.00  0.00     0.010 A 
ATOM     15  C12 ZIN A   1      18.715  -0.124   7.039  0.00  0.00    -0.030 A 
ATOM     16  C11 ZIN A   1      17.766  -0.684   7.876  0.00  0.00     0.010 A 
ATOM     17  C10 ZIN A   1      17.376  -0.023   9.022  0.00  0.00     0.017 A 
BRANCH  15  18
ATOM     18  C13 ZIN A   1      19.137  -0.852   5.789  0.00  0.00     0.311 C 
BRANCH  18  19
ATOM     19  N14 ZIN A   1      18.604  -2.221   5.817  0.00  0.00     0.095 N 
ATOM     20  C21 ZIN A   1      18.056  -2.599   4.506  0.00  0.00     0.300 C 
ATOM     21  C20 ZIN A   1      17.459  -4.006   4.595  0.00  0.00     0.264 C 
ATOM     22  N17 ZIN A   1      18.502  -4.956   5.000  0.00  0.00    -0.072 N 
ATOM     23  C16 ZIN A   1      19.023  -4.580   6.321  0.00  0.00     0.264 C 
ATOM     24  H18 ZIN A   1      19.252  -4.940   4.326  0.00  0.00     0.279 HD
ATOM     25  C19 ZIN A   1      17.933  -6.309   5.067  0.00  0.00     0.269 C 
ATOM     26  C15 ZIN A   1      19.633  -3.178   6.249  0.00  0.00     0.300 C 
ENDBRANCH  18  19
ENDBRANCH  15  18
ENDBRANCH   9  12
ENDBRANCH   5   8
BRANCH   7  27
ATOM     27  N26 ZIN A   1      18.196   3.503  15.522  0.00  0.00    -0.188 N 
ATOM     28  H63 ZIN A   1      18.341   4.095  16.277  0.00  0.00     0.184 HD
BRANCH  27  29
ATOM     29  C27 ZIN A   1      18.460   2.149  15.643  0.00  0.00     0.727 A 
ATOM     30  N38 ZIN A   1      18.699   1.438  14.552  0.00  0.00    -0.062 NA
ATOM     31  C31 ZIN A   1      18.960   0.136  14.636  0.00  0.00     0.089 A 
ATOM     32  C30 ZIN A   1      18.968  -0.475  15.894  0.00  0.00     0.053 A 
ATOM     33  C29 ZIN A   1      18.707   0.306  17.006  0.00  0.00     0.139 A 
ATOM     34  N28 ZIN A   1      18.460   1.596  16.848  0.00  0.00    -0.075 NA
BRANCH  31  35
ATOM     35  C32 ZIN A   1      19.233  -0.657  13.413  0.00  0.00     0.011 A 
ATOM     36  C37 ZIN A   1      19.989  -0.118  12.373  0.00  0.00     0.130 A 
ATOM     37  N36 ZIN A   1      20.236  -0.825  11.289  0.00  0.00    -0.272 NA
ATOM     38  C35 ZIN A   1      19.776  -2.052  11.136  0.00  0.00     0.116 A 
ATOM     39  C34 ZIN A   1      19.013  -2.654  12.120  0.00  0.00     0.020 A 
ATOM     40  C33 ZIN A   1      18.731  -1.955  13.281  0.00  0.00     0.017 A 
ENDBRANCH  31  35
ENDBRANCH  27  29
ENDBRANCH   7  27
TORSDOF 7
ENDMDL
MODEL 4
REMARK VINA RESULT:     -10.1      1.738      4.834
REMARK  7 active torsions:
REMARK  status: ('A' for Active; 'I' for Inactive)
REMARK    1  A    between atoms: C5_5  and  N6_6 
REMARK       I    between atoms: N6_6  and  C7_7 
REMARK    2  A    between atoms: C7_7  and  C9_9 
REMARK    3  A    between atoms: C12_12  and  C13_13 
REMARK    4  A    between atoms: C13_13  and  N14_14 
REMARK    5  A    between atoms: C25_25  and  N26_26 
REMARK    6  A    between atoms: N26_26  and  C27_27 
REMARK    7  A    between atoms: C31_31  and  C32_32 
ROOT
ATOM      1  C1  ZIN A   1      18.815  -1.454   5.100  0.00  0.00     0.050 C 
ATOM      2  C2  ZIN A   1      18.982  -0.523   6.272  0.00  0.00    -0.035 A 
ATOM      3  C3  ZIN A   1      18.838   0.839   6.098  0.00  0.00     0.011 A 
ATOM      4  C4  ZIN A   1      18.992   1.697   7.170  0.00  0.00     0.030 A 
ATOM      5  C5  ZIN A   1      19.292   1.190   8.430  0.00  0.00     0.037 A 
ATOM      6  C24 ZIN A   1      19.437  -0.178   8.608  0.00  0.00     0.060 A 
ATOM      7  C25 ZIN A   1      19.277  -1.037   7.530  0.00  0.00     0.057 A 
ENDROOT
BRANCH   5   8
ATOM      8  N6  ZIN A   1      19.446   2.059   9.514  0.00  0.00    -0.323 N 
ATOM      9  C7  ZIN A   1      18.407   2.303  10.336  0.00  0.00     0.256 C 
ATOM     10  O8  ZIN A   1      17.363   1.697  10.192  0.00  0.00    -0.267 OA
ATOM     11  H44 ZIN A   1      20.303   2.486   9.675  0.00  0.00     0.169 HD
BRANCH   9  12
ATOM     12  C9  ZIN A   1      18.535   3.308  11.413  0.00  0.00     0.032 A 
ATOM     13  C23 ZIN A   1      17.395   3.838  12.016  0.00  0.00     0.017 A 
ATOM     14  C22 ZIN A   1      17.522   4.772  13.024  0.00  0.00     0.010 A 
ATOM     15  C12 ZIN A   1      18.777   5.190  13.429  0.00  0.00    -0.030 A 
ATOM     16  C11 ZIN A   1      19.912   4.672  12.831  0.00  0.00     0.010 A 
ATOM     17  C10 ZIN A   1      19.799   3.733  11.827  0.00  0.00     0.017 A 
BRANCH  15  18
ATOM     18  C13 ZIN A   1      18.908   6.214  14.527  0.00  0.00     0.311 C 
BRANCH  18  19
ATOM     19  N14 ZIN A   1      18.256   5.714  15.745  0.00  0.00     0.095 N 
ATOM     20  C21 ZIN A   1      19.075   4.680  16.393  0.00  0.00     0.300 C 
ATOM     21  C20 ZIN A   1      18.333   4.143  17.621  0.00  0.00     0.264 C 
ATOM     22  N17 ZIN A   1      18.074   5.245  18.556  0.00  0.00    -0.072 N 
ATOM     23  C16 ZIN A   1      17.235   6.258  17.902  0.00  0.00     0.264 C 
ATOM     24  H18 ZIN A   1      18.949   5.662  18.835  0.00  0.00     0.279 HD
ATOM     25  C19 ZIN A   1      17.379   4.726  19.742  0.00  0.00     0.269 C 
ATOM     26  C15 ZIN A   1      17.966   6.813  16.677  0.00  0.00     0.300 C 
ENDBRANCH  18  19
ENDBRANCH  15  18
ENDBRANCH   9  12
ENDBRANCH   5   8
BRANCH   7  27
ATOM     27  N26 ZIN A   1      19.422  -2.416   7.706  0.00  0.00    -0.188 N 
ATOM     28  H63 ZIN A   1      19.763  -2.965   6.982  0.00  0.00     0.184 HD
BRANCH  27  29
ATOM     29  C27 ZIN A   1      19.081  -2.999   8.915  0.00  0.00     0.727 A 
ATOM     30  N38 ZIN A   1      18.980  -2.238   9.993  0.00  0.00    -0.062 NA
ATOM     31  C31 ZIN A   1      18.649  -2.767  11.169  0.00  0.00     0.089 A 
ATOM     32  C30 ZIN A   1      18.420  -4.144  11.251  0.00  0.00     0.053 A 
ATOM     33  C29 ZIN A   1      18.542  -4.902  10.100  0.00  0.00     0.139 A 
ATOM     34  N28 ZIN A   1      18.869  -4.307   8.965  0.00  0.00    -0.075 NA
BRANCH  31  35
ATOM     35  C32 ZIN A   1      18.532  -1.911  12.374  0.00  0.00     0.011 A 
ATOM     36  C37 ZIN A   1      19.394  -2.088  13.455  0.00  0.00     0.130 A 
ATOM     37  N36 ZIN A   1      19.294  -1.324  14.523  0.00  0.00    -0.272 NA
ATOM     38  C35 ZIN A   1      18.379  -0.378  14.621  0.00  0.00     0.116 A 
ATOM     39  C34 ZIN A   1      17.483  -0.145  13.594  0.00  0.00     0.020 A 
ATOM     40  C33 ZIN A   1      17.551  -0.918  12.447  0.00  0.00     0.017 A 
ENDBRANCH  31  35
ENDBRANCH  27  29
ENDBRANCH   7  27
TORSDOF 7
ENDMDL
MODEL 5
REMARK VINA RESULT:     -10.0      2.732     10.361
REMARK  7 active torsions:
REMARK  status: ('A' for Active; 'I' for Inactive)
REMARK    1  A    between atoms: C5_5  and  N6_6 
REMARK       I    between atoms: N6_6  and  C7_7 
REMARK    2  A    between atoms: C7_7  and  C9_9 
REMARK    3  A    between atoms: C12_12  and  C13_13 
REMARK    4  A    between atoms: C13_13  and  N14_14 
REMARK    5  A    between atoms: C25_25  and  N26_26 
REMARK    6  A    between atoms: N26_26  and  C27_27 
REMARK    7  A    between atoms: C31_31  and  C32_32 
ROOT
ATOM      1  C1  ZIN A   1      18.497   4.972  13.411  0.00  0.00     0.050 C 
ATOM      2  C2  ZIN A   1      18.552   4.085  12.194  0.00  0.00    -0.035 A 
ATOM      3  C3  ZIN A   1      18.050   4.535  10.989  0.00  0.00     0.011 A 
ATOM      4  C4  ZIN A   1      18.097   3.724   9.872  0.00  0.00     0.030 A 
ATOM      5  C5  ZIN A   1      18.651   2.453   9.956  0.00  0.00     0.037 A 
ATOM      6  C24 ZIN A   1      19.157   1.998  11.166  0.00  0.00     0.060 A 
ATOM      7  C25 ZIN A   1      19.112   2.816  12.285  0.00  0.00     0.057 A 
ENDROOT
BRANCH   5   8
ATOM      8  N6  ZIN A   1      18.699   1.634   8.824  0.00  0.00    -0.323 N 
ATOM      9  C7  ZIN A   1      17.879   0.569   8.727  0.00  0.00     0.256 C 
ATOM     10  O8  ZIN A   1      17.033   0.374   9.577  0.00  0.00    -0.267 OA
ATOM     11  H44 ZIN A   1      19.324   1.832   8.108  0.00  0.00     0.169 HD
BRANCH   9  12
ATOM     12  C9  ZIN A   1      18.008  -0.363   7.587  0.00  0.00     0.032 A 
ATOM     13  C23 ZIN A   1      18.753  -1.535   7.720  0.00  0.00     0.017 A 
ATOM     14  C22 ZIN A   1      18.865  -2.403   6.654  0.00  0.00     0.010 A 
ATOM     15  C12 ZIN A   1      18.250  -2.108   5.450  0.00  0.00    -0.030 A 
ATOM     16  C11 ZIN A   1      17.515  -0.944   5.309  0.00  0.00     0.010 A 
ATOM     17  C10 ZIN A   1      17.390  -0.071   6.369  0.00  0.00     0.017 A 
BRANCH  15  18
ATOM     18  C13 ZIN A   1      18.382  -3.058   4.288  0.00  0.00     0.311 C 
BRANCH  18  19
ATOM     19  N14 ZIN A   1      17.087  -3.705   4.035  0.00  0.00     0.095 N 
ATOM     20  C21 ZIN A   1      16.930  -4.029   2.610  0.00  0.00     0.300 C 
ATOM     21  C20 ZIN A   1      15.547  -4.645   2.381  0.00  0.00     0.264 C 
ATOM     22  N17 ZIN A   1      15.412  -5.860   3.194  0.00  0.00    -0.072 N 
ATOM     23  C16 ZIN A   1      15.547  -5.517   4.616  0.00  0.00     0.264 C 
ATOM     24  H18 ZIN A   1      16.131  -6.519   2.937  0.00  0.00     0.279 HD
ATOM     25  C19 ZIN A   1      14.092  -6.461   2.960  0.00  0.00     0.269 C 
ATOM     26  C15 ZIN A   1      16.929  -4.908   4.865  0.00  0.00     0.300 C 
ENDBRANCH  18  19
ENDBRANCH  15  18
ENDBRANCH   9  12
ENDBRANCH   5   8
BRANCH   7  27
ATOM     27  N26 ZIN A   1      19.622   2.361  13.505  0.00  0.00    -0.188 N 
ATOM     28  H63 ZIN A   1      20.160   2.951  14.057  0.00  0.00     0.184 HD
BRANCH  27  29
ATOM     29  C27 ZIN A   1      19.358   1.069  13.927  0.00  0.00     0.727 A 
ATOM     30  N38 ZIN A   1      19.206   0.114  13.023  0.00  0.00    -0.062 NA
ATOM     31  C31 ZIN A   1      18.956  -1.139  13.396  0.00  0.00     0.089 A 
ATOM     32  C30 ZIN A   1      18.844  -1.430  14.760  0.00  0.00     0.053 A 
ATOM     33  C29 ZIN A   1      19.004  -0.400  15.669  0.00  0.00     0.139 A 
ATOM     34  N28 ZIN A   1      19.257   0.821  15.225  0.00  0.00    -0.075 NA
BRANCH  31  35
ATOM     35  C32 ZIN A   1      18.791  -2.209  12.383  0.00  0.00     0.011 A 
ATOM     36  C37 ZIN A   1      19.843  -3.076  12.091  0.00  0.00     0.130 A 
ATOM     37  N36 ZIN A   1      19.696  -4.030  11.194  0.00  0.00    -0.272 NA
ATOM     38  C35 ZIN A   1      18.565  -4.197  10.534  0.00  0.00     0.116 A 
ATOM     39  C34 ZIN A   1      17.478  -3.374  10.763  0.00  0.00     0.020 A 
ATOM     40  C33 ZIN A   1      17.581  -2.360  11.700  0.00  0.00     0.017 A 
ENDBRANCH  31  35
ENDBRANCH  27  29
ENDBRANCH   7  27
TORSDOF 7
ENDMDL
MODEL 6
REMARK VINA RESULT:      -9.8      1.551      2.232
REMARK  7 active torsions:
REMARK  status: ('A' for Active; 'I' for Inactive)
REMARK    1  A    between atoms: C5_5  and  N6_6 
REMARK       I    between atoms: N6_6  and  C7_7 
REMARK    2  A    between atoms: C7_7  and  C9_9 
REMARK    3  A    between atoms: C12_12  and  C13_13 
REMARK    4  A    between atoms: C13_13  and  N14_14 
REMARK    5  A    between atoms: C25_25  and  N26_26 
REMARK    6  A    between atoms: N26_26  and  C27_27 
REMARK    7  A    between atoms: C31_31  and  C32_32 
ROOT
ATOM      1  C1  ZIN A   1      17.782  -4.282   8.286  0.00  0.00     0.050 C 
ATOM      2  C2  ZIN A   1      17.980  -3.640   9.635  0.00  0.00    -0.035 A 
ATOM      3  C3  ZIN A   1      17.341  -4.157  10.745  0.00  0.00     0.011 A 
ATOM      4  C4  ZIN A   1      17.518  -3.571  11.983  0.00  0.00     0.030 A 
ATOM      5  C5  ZIN A   1      18.342  -2.459  12.117  0.00  0.00     0.037 A 
ATOM      6  C24 ZIN A   1      18.985  -1.938  11.003  0.00  0.00     0.060 A 
ATOM      7  C25 ZIN A   1      18.809  -2.532   9.762  0.00  0.00     0.057 A 
ENDROOT
BRANCH   5   8
ATOM      8  N6  ZIN A   1      18.521  -1.868  13.371  0.00  0.00    -0.323 N 
ATOM      9  C7  ZIN A   1      17.968  -0.668  13.636  0.00  0.00     0.256 C 
ATOM     10  O8  ZIN A   1      17.236  -0.143  12.820  0.00  0.00    -0.267 OA
ATOM     11  H44 ZIN A   1      19.044  -2.321  14.051  0.00  0.00     0.169 HD
BRANCH   9  12
ATOM     12  C9  ZIN A   1      18.253   0.011  14.918  0.00  0.00     0.032 A 
ATOM     13  C23 ZIN A   1      19.143   1.085  14.960  0.00  0.00     0.017 A 
ATOM     14  C22 ZIN A   1      19.401   1.717  16.159  0.00  0.00     0.010 A 
ATOM     15  C12 ZIN A   1      18.785   1.282  17.320  0.00  0.00    -0.030 A 
ATOM     16  C11 ZIN A   1      17.905   0.215  17.285  0.00  0.00     0.010 A 
ATOM     17  C10 ZIN A   1      17.635  -0.422  16.092  0.00  0.00     0.017 A 
BRANCH  15  18
ATOM     18  C13 ZIN A   1      19.075   1.974  18.626  0.00  0.00     0.311 C 
BRANCH  18  19
ATOM     19  N14 ZIN A   1      18.307   3.225  18.699  0.00  0.00     0.095 N 
ATOM     20  C21 ZIN A   1      18.260   3.890  17.389  0.00  0.00     0.300 C 
ATOM     21  C20 ZIN A   1      17.505   5.215  17.521  0.00  0.00     0.264 C 
ATOM     22  N17 ZIN A   1      16.144   4.957  18.008  0.00  0.00    -0.072 N 
ATOM     23  C16 ZIN A   1      16.207   4.315  19.328  0.00  0.00     0.264 C 
ATOM     24  H18 ZIN A   1      15.665   4.349  17.361  0.00  0.00     0.279 HD
ATOM     25  C19 ZIN A   1      15.414   6.227  18.117  0.00  0.00     0.269 C 
ATOM     26  C15 ZIN A   1      16.951   2.982  19.211  0.00  0.00     0.300 C 
ENDBRANCH  18  19
ENDBRANCH  15  18
ENDBRANCH   9  12
ENDBRANCH   5   8
BRANCH   7  27
ATOM     27  N26 ZIN A   1      19.456  -2.009   8.638  0.00  0.00    -0.188 N 
ATOM     28  H63 ZIN A   1      20.043  -2.574   8.110  0.00  0.00     0.184 HD
BRANCH  27  29
ATOM     29  C27 ZIN A   1      19.260  -0.687   8.278  0.00  0.00     0.727 A 
ATOM     30  N38 ZIN A   1      19.184   0.235   9.226  0.00  0.00    -0.062 NA
ATOM     31  C31 ZIN A   1      19.000   1.516   8.912  0.00  0.00     0.089 A 
ATOM     32  C30 ZIN A   1      18.878   1.873   7.566  0.00  0.00     0.053 A 
ATOM     33  C29 ZIN A   1      18.959   0.876   6.610  0.00  0.00     0.139 A 
ATOM     34  N28 ZIN A   1      19.148  -0.376   6.995  0.00  0.00    -0.075 NA
BRANCH  31  35
ATOM     35  C32 ZIN A   1      18.920   2.547   9.975  0.00  0.00     0.011 A 
ATOM     36  C37 ZIN A   1      19.675   2.423  11.141  0.00  0.00     0.130 A 
ATOM     37  N36 ZIN A   1      19.608   3.342  12.082  0.00  0.00    -0.272 NA
ATOM     38  C35 ZIN A   1      18.826   4.399  11.971  0.00  0.00     0.116 A 
ATOM     39  C34 ZIN A   1      18.042   4.590  10.847  0.00  0.00     0.020 A 
ATOM     40  C33 ZIN A   1      18.082   3.655   9.827  0.00  0.00     0.017 A 
ENDBRANCH  31  35
ENDBRANCH  27  29
ENDBRANCH   7  27
TORSDOF 7
ENDMDL
MODEL 7
REMARK VINA RESULT:      -9.5      2.320      5.884
REMARK  7 active torsions:
REMARK  status: ('A' for Active; 'I' for Inactive)
REMARK    1  A    between atoms: C5_5  and  N6_6 
REMARK       I    between atoms: N6_6  and  C7_7 
REMARK    2  A    between atoms: C7_7  and  C9_9 
REMARK    3  A    between atoms: C12_12  and  C13_13 
REMARK    4  A    between atoms: C13_13  and  N14_14 
REMARK    5  A    between atoms: C25_25  and  N26_26 
REMARK    6  A    between atoms: N26_26  and  C27_27 
REMARK    7  A    between atoms: C31_31  and  C32_32 
ROOT
ATOM      1  C1  ZIN A   1      18.964  -1.190   5.769  0.00  0.00     0.050 C 
ATOM      2  C2  ZIN A   1      19.083  -0.234   6.928  0.00  0.00    -0.035 A 
ATOM      3  C3  ZIN A   1      18.866   1.116   6.734  0.00  0.00     0.011 A 
ATOM      4  C4  ZIN A   1      18.975   1.995   7.794  0.00  0.00     0.030 A 
ATOM      5  C5  ZIN A   1      19.303   1.524   9.060  0.00  0.00     0.037 A 
ATOM      6  C24 ZIN A   1      19.521   0.168   9.257  0.00  0.00     0.060 A 
ATOM      7  C25 ZIN A   1      19.406  -0.713   8.192  0.00  0.00     0.057 A 
ENDROOT
BRANCH   5   8
ATOM      8  N6  ZIN A   1      19.412   2.415  10.131  0.00  0.00    -0.323 N 
ATOM      9  C7  ZIN A   1      18.318   2.753  10.842  0.00  0.00     0.256 C 
ATOM     10  O8  ZIN A   1      17.254   2.212  10.613  0.00  0.00    -0.267 OA
ATOM     11  H44 ZIN A   1      20.276   2.791  10.364  0.00  0.00     0.169 HD
BRANCH   9  12
ATOM     12  C9  ZIN A   1      18.411   3.782  11.899  0.00  0.00     0.032 A 
ATOM     13  C23 ZIN A   1      17.256   4.398  12.381  0.00  0.00     0.017 A 
ATOM     14  C22 ZIN A   1      17.349   5.354  13.372  0.00  0.00     0.010 A 
ATOM     15  C12 ZIN A   1      18.586   5.708  13.881  0.00  0.00    -0.030 A 
ATOM     16  C11 ZIN A   1      19.736   5.104  13.403  0.00  0.00     0.010 A 
ATOM     17  C10 ZIN A   1      19.656   4.143  12.418  0.00  0.00     0.017 A 
BRANCH  15  18
ATOM     18  C13 ZIN A   1      18.681   6.757  14.959  0.00  0.00     0.311 C 
BRANCH  18  19
ATOM     19  N14 ZIN A   1      18.401   6.143  16.264  0.00  0.00     0.095 N 
ATOM     20  C21 ZIN A   1      17.019   6.413  16.686  0.00  0.00     0.300 C 
ATOM     21  C20 ZIN A   1      16.787   5.809  18.074  0.00  0.00     0.264 C 
ATOM     22  N17 ZIN A   1      17.029   4.362  18.026  0.00  0.00    -0.072 N 
ATOM     23  C16 ZIN A   1      18.420   4.109  17.626  0.00  0.00     0.264 C 
ATOM     24  H18 ZIN A   1      16.405   3.939  17.356  0.00  0.00     0.279 HD
ATOM     25  C19 ZIN A   1      16.788   3.782  19.354  0.00  0.00     0.269 C 
ATOM     26  C15 ZIN A   1      18.667   4.698  16.235  0.00  0.00     0.300 C 
ENDBRANCH  18  19
ENDBRANCH  15  18
ENDBRANCH   9  12
ENDBRANCH   5   8
BRANCH   7  27
ATOM     27  N26 ZIN A   1      19.625  -2.080   8.388  0.00  0.00    -0.188 N 
ATOM     28  H63 ZIN A   1      20.397  -2.511   7.986  0.00  0.00     0.184 HD
BRANCH  27  29
ATOM     29  C27 ZIN A   1      18.742  -2.820   9.156  0.00  0.00     0.727 A 
ATOM     30  N38 ZIN A   1      18.134  -3.863   8.615  0.00  0.00    -0.062 NA
ATOM     31  C31 ZIN A   1      17.283  -4.598   9.328  0.00  0.00     0.089 A 
ATOM     32  C30 ZIN A   1      17.031  -4.243  10.657  0.00  0.00     0.053 A 
ATOM     33  C29 ZIN A   1      17.685  -3.141  11.180  0.00  0.00     0.139 A 
ATOM     34  N28 ZIN A   1      18.522  -2.461  10.413  0.00  0.00    -0.075 NA
BRANCH  31  35
ATOM     35  C32 ZIN A   1      16.607  -5.769   8.720  0.00  0.00     0.011 A 
ATOM     36  C37 ZIN A   1      15.229  -5.760   8.507  0.00  0.00     0.130 A 
ATOM     37  N36 ZIN A   1      14.628  -6.798   7.963  0.00  0.00    -0.272 NA
ATOM     38  C35 ZIN A   1      15.293  -7.882   7.610  0.00  0.00     0.116 A 
ATOM     39  C34 ZIN A   1      16.661  -7.970   7.794  0.00  0.00     0.020 A 
ATOM     40  C33 ZIN A   1      17.339  -6.903   8.358  0.00  0.00     0.017 A 
ENDBRANCH  31  35
ENDBRANCH  27  29
ENDBRANCH   7  27
TORSDOF 7
ENDMDL
MODEL 8
REMARK VINA RESULT:      -9.3      2.143      9.401
REMARK  7 active torsions:
REMARK  status: ('A' for Active; 'I' for Inactive)
REMARK    1  A    between atoms: C5_5  and  N6_6 
REMARK       I    between atoms: N6_6  and  C7_7 
REMARK    2  A    between atoms: C7_7  and  C9_9 
REMARK    3  A    between atoms: C12_12  and  C13_13 
REMARK    4  A    between atoms: C13_13  and  N14_14 
REMARK    5  A    between atoms: C25_25  and  N26_26 
REMARK    6  A    between atoms: N26_26  and  C27_27 
REMARK    7  A    between atoms: C31_31  and  C32_32 
ROOT
ATOM      1  C1  ZIN A   1      17.682   1.679  18.816  0.00  0.00     0.050 C 
ATOM      2  C2  ZIN A   1      18.046   0.816  17.636  0.00  0.00    -0.035 A 
ATOM      3  C3  ZIN A   1      17.508  -0.450  17.515  0.00  0.00     0.011 A 
ATOM      4  C4  ZIN A   1      17.841  -1.246  16.435  0.00  0.00     0.030 A 
ATOM      5  C5  ZIN A   1      18.718  -0.773  15.466  0.00  0.00     0.037 A 
ATOM      6  C24 ZIN A   1      19.260   0.499  15.585  0.00  0.00     0.060 A 
ATOM      7  C25 ZIN A   1      18.920   1.296  16.668  0.00  0.00     0.057 A 
ENDROOT
BRANCH   5   8
ATOM      8  N6  ZIN A   1      19.053  -1.579  14.373  0.00  0.00    -0.323 N 
ATOM      9  C7  ZIN A   1      18.446  -1.390  13.185  0.00  0.00     0.256 C 
ATOM     10  O8  ZIN A   1      17.677  -0.460  13.036  0.00  0.00    -0.267 OA
ATOM     11  H44 ZIN A   1      19.723  -2.274  14.470  0.00  0.00     0.169 HD
BRANCH   9  12
ATOM     12  C9  ZIN A   1      18.714  -2.313  12.062  0.00  0.00     0.032 A 
ATOM     13  C23 ZIN A   1      18.588  -1.871  10.745  0.00  0.00     0.017 A 
ATOM     14  C22 ZIN A   1      18.844  -2.737   9.702  0.00  0.00     0.010 A 
ATOM     15  C12 ZIN A   1      19.217  -4.044   9.960  0.00  0.00    -0.030 A 
ATOM     16  C11 ZIN A   1      19.339  -4.491  11.264  0.00  0.00     0.010 A 
ATOM     17  C10 ZIN A   1      19.091  -3.634  12.316  0.00  0.00     0.017 A 
BRANCH  15  18
ATOM     18  C13 ZIN A   1      19.490  -4.986   8.816  0.00  0.00     0.311 C 
BRANCH  18  19
ATOM     19  N14 ZIN A   1      18.297  -5.079   7.963  0.00  0.00     0.095 N 
ATOM     20  C21 ZIN A   1      18.614  -5.732   6.684  0.00  0.00     0.300 C 
ATOM     21  C20 ZIN A   1      17.362  -5.755   5.804  0.00  0.00     0.264 C 
ATOM     22  N17 ZIN A   1      16.292  -6.485   6.494  0.00  0.00    -0.072 N 
ATOM     23  C16 ZIN A   1      15.969  -5.807   7.757  0.00  0.00     0.264 C 
ATOM     24  H18 ZIN A   1      16.596  -7.427   6.686  0.00  0.00     0.279 HD
ATOM     25  C19 ZIN A   1      15.097  -6.522   5.640  0.00  0.00     0.269 C 
ATOM     26  C15 ZIN A   1      17.209  -5.785   8.654  0.00  0.00     0.300 C 
ENDBRANCH  18  19
ENDBRANCH  15  18
ENDBRANCH   9  12
ENDBRANCH   5   8
BRANCH   7  27
ATOM     27  N26 ZIN A   1      19.464   2.578  16.790  0.00  0.00    -0.188 N 
ATOM     28  H63 ZIN A   1      20.186   2.742  17.419  0.00  0.00     0.184 HD
BRANCH  27  29
ATOM     29  C27 ZIN A   1      18.975   3.615  16.014  0.00  0.00     0.727 A 
ATOM     30  N38 ZIN A   1      18.858   3.443  14.707  0.00  0.00    -0.062 NA
ATOM     31  C31 ZIN A   1      18.387   4.419  13.933  0.00  0.00     0.089 A 
ATOM     32  C30 ZIN A   1      18.027   5.635  14.522  0.00  0.00     0.053 A 
ATOM     33  C29 ZIN A   1      18.171   5.773  15.891  0.00  0.00     0.139 A 
ATOM     34  N28 ZIN A   1      18.641   4.757  16.598  0.00  0.00    -0.075 NA
BRANCH  31  35
ATOM     35  C32 ZIN A   1      18.253   4.222  12.470  0.00  0.00     0.011 A 
ATOM     36  C37 ZIN A   1      18.994   3.237  11.817  0.00  0.00     0.130 A 
ATOM     37  N36 ZIN A   1      18.870   3.058  10.518  0.00  0.00    -0.272 NA
ATOM     38  C35 ZIN A   1      18.060   3.799   9.785  0.00  0.00     0.116 A 
ATOM     39  C34 ZIN A   1      17.296   4.799  10.359  0.00  0.00     0.020 A 
ATOM     40  C33 ZIN A   1      17.386   5.023  11.722  0.00  0.00     0.017 A 
ENDBRANCH  31  35
ENDBRANCH  27  29
ENDBRANCH   7  27
TORSDOF 7
ENDMDL
MODEL 9
REMARK VINA RESULT:      -9.3      2.521      5.989
REMARK  7 active torsions:
REMARK  status: ('A' for Active; 'I' for Inactive)
REMARK    1  A    between atoms: C5_5  and  N6_6 
REMARK       I    between atoms: N6_6  and  C7_7 
REMARK    2  A    between atoms: C7_7  and  C9_9 
REMARK    3  A    between atoms: C12_12  and  C13_13 
REMARK    4  A    between atoms: C13_13  and  N14_14 
REMARK    5  A    between atoms: C25_25  and  N26_26 
REMARK    6  A    between atoms: N26_26  and  C27_27 
REMARK    7  A    between atoms: C31_31  and  C32_32 
ROOT
ATOM      1  C1  ZIN A   1      18.435  -2.974   4.015  0.00  0.00     0.050 C 
ATOM      2  C2  ZIN A   1      18.345  -2.051   5.203  0.00  0.00    -0.035 A 
ATOM      3  C3  ZIN A   1      17.635  -0.871   5.108  0.00  0.00     0.011 A 
ATOM      4  C4  ZIN A   1      17.551  -0.022   6.194  0.00  0.00     0.030 A 
ATOM      5  C5  ZIN A   1      18.181  -0.353   7.388  0.00  0.00     0.037 A 
ATOM      6  C24 ZIN A   1      18.896  -1.539   7.486  0.00  0.00     0.060 A 
ATOM      7  C25 ZIN A   1      18.974  -2.392   6.395  0.00  0.00     0.057 A 
ENDROOT
BRANCH   5   8
ATOM      8  N6  ZIN A   1      18.095   0.507   8.487  0.00  0.00    -0.323 N 
ATOM      9  C7  ZIN A   1      18.916   1.572   8.576  0.00  0.00     0.256 C 
ATOM     10  O8  ZIN A   1      19.666   1.839   7.658  0.00  0.00    -0.267 OA
ATOM     11  H44 ZIN A   1      17.444   0.337   9.186  0.00  0.00     0.169 HD
BRANCH   9  12
ATOM     12  C9  ZIN A   1      18.906   2.414   9.791  0.00  0.00     0.032 A 
ATOM     13  C23 ZIN A   1      18.113   3.561   9.842  0.00  0.00     0.017 A 
ATOM     14  C22 ZIN A   1      18.104   4.340  10.980  0.00  0.00     0.010 A 
ATOM     15  C12 ZIN A   1      18.886   3.991  12.067  0.00  0.00    -0.030 A 
ATOM     16  C11 ZIN A   1      19.678   2.858  12.021  0.00  0.00     0.010 A 
ATOM     17  C10 ZIN A   1      19.692   2.067  10.891  0.00  0.00     0.017 A 
BRANCH  15  18
ATOM     18  C13 ZIN A   1      18.876   4.849  13.305  0.00  0.00     0.311 C 
BRANCH  18  19
ATOM     19  N14 ZIN A   1      19.058   4.001  14.491  0.00  0.00     0.095 N 
ATOM     20  C21 ZIN A   1      19.041   4.805  15.721  0.00  0.00     0.300 C 
ATOM     21  C20 ZIN A   1      19.293   3.893  16.925  0.00  0.00     0.264 C 
ATOM     22  N17 ZIN A   1      18.253   2.859  16.982  0.00  0.00    -0.072 N 
ATOM     23  C16 ZIN A   1      18.297   2.048  15.757  0.00  0.00     0.264 C 
ATOM     24  H18 ZIN A   1      17.347   3.296  17.063  0.00  0.00     0.279 HD
ATOM     25  C19 ZIN A   1      18.485   1.996  18.148  0.00  0.00     0.269 C 
ATOM     26  C15 ZIN A   1      18.037   2.944  14.543  0.00  0.00     0.300 C 
ENDBRANCH  18  19
ENDBRANCH  15  18
ENDBRANCH   9  12
ENDBRANCH   5   8
BRANCH   7  27
ATOM     27  N26 ZIN A   1      19.692  -3.587   6.492  0.00  0.00    -0.188 N 
ATOM     28  H63 ZIN A   1      20.517  -3.699   5.993  0.00  0.00     0.184 HD
BRANCH  27  29
ATOM     29  C27 ZIN A   1      19.227  -4.611   7.299  0.00  0.00     0.727 A 
ATOM     30  N38 ZIN A   1      17.979  -5.030   7.156  0.00  0.00    -0.062 NA
ATOM     31  C31 ZIN A   1      17.504  -6.015   7.914  0.00  0.00     0.089 A 
ATOM     32  C30 ZIN A   1      18.339  -6.596   8.873  0.00  0.00     0.053 A 
ATOM     33  C29 ZIN A   1      19.634  -6.123   8.991  0.00  0.00     0.139 A 
ATOM     34  N28 ZIN A   1      20.041  -5.144   8.200  0.00  0.00    -0.075 NA
BRANCH  31  35
ATOM     35  C32 ZIN A   1      16.107  -6.485   7.748  0.00  0.00     0.011 A 
ATOM     36  C37 ZIN A   1      15.833  -7.658   7.045  0.00  0.00     0.130 A 
ATOM     37  N36 ZIN A   1      14.593  -8.079   6.903  0.00  0.00    -0.272 NA
ATOM     38  C35 ZIN A   1      13.569  -7.414   7.403  0.00  0.00     0.116 A 
ATOM     39  C34 ZIN A   1      13.759  -6.239   8.108  0.00  0.00     0.020 A 
ATOM     40  C33 ZIN A   1      15.044  -5.758   8.290  0.00  0.00     0.017 A 
ENDBRANCH  31  35
ENDBRANCH  27  29
ENDBRANCH   7  27
TORSDOF 7
ENDMDL
