MODEL 1
REMARK VINA RESULT:      -5.7      0.000      0.000
REMARK  5 active torsions:
REMARK  status: ('A' for Active; 'I' for Inactive)
REMARK    1  A    between atoms: C2_2  and  N3_3 
REMARK    2  A    between atoms: N3_3  and  C5_5 
REMARK    3  A    between atoms: N3_3  and  C7_7 
REMARK    4  A    between atoms: C7_7  and  C10_9 
REMARK    5  A    between atoms: C10_9  and  C12_11 
ROOT
ATOM      1  C7  ZIN A   1      18.166  -0.927  11.727  0.00  0.00     0.258 C 
ATOM      2  C9  ZIN A   1      17.657  -2.368  11.801  0.00  0.00     0.049 C 
ENDROOT
BRANCH   1   3
ATOM      3  N3  ZIN A   1      18.158  -0.335  13.071  0.00  0.00    -0.061 N 
ATOM      4  H4  ZIN A   1      17.218  -0.058  13.311  0.00  0.00     0.280 HD
BRANCH   3   5
ATOM      5  C2  ZIN A   1      18.640  -1.325  14.044  0.00  0.00     0.231 C 
ATOM      6  C1  ZIN A   1      18.134  -0.955  15.440  0.00  0.00     0.034 C 
ENDBRANCH   3   5
BRANCH   3   7
ATOM      7  C5  ZIN A   1      19.036   0.842  13.093  0.00  0.00     0.231 C 
ATOM      8  C6  ZIN A   1      20.432   0.446  12.606  0.00  0.00     0.034 C 
ENDBRANCH   3   7
ENDBRANCH   1   3
BRANCH   1   9
ATOM      9  C10 ZIN A   1      17.270  -0.123  10.819  0.00  0.00     0.190 C 
ATOM     10  O11 ZIN A   1      16.142   0.152  11.169  0.00  0.00    -0.290 OA
BRANCH   9  11
ATOM     11  C12 ZIN A   1      17.764   0.326   9.508  0.00  0.00     0.012 A 
ATOM     12  C17 ZIN A   1      18.692   1.369   9.425  0.00  0.00     0.015 A 
ATOM     13  C16 ZIN A   1      19.154   1.780   8.193  0.00  0.00     0.001 A 
ATOM     14  C15 ZIN A   1      18.694   1.170   7.039  0.00  0.00     0.000 A 
ATOM     15  C14 ZIN A   1      17.771   0.142   7.112  0.00  0.00     0.001 A 
ATOM     16  C13 ZIN A   1      17.303  -0.285   8.337  0.00  0.00     0.015 A 
ENDBRANCH   9  11
ENDBRANCH   1   9
TORSDOF 5
ENDMDL
MODEL 2
REMARK VINA RESULT:      -5.7      0.136      1.251
REMARK  5 active torsions:
REMARK  status: ('A' for Active; 'I' for Inactive)
REMARK    1  A    between atoms: C2_2  and  N3_3 
REMARK    2  A    between atoms: N3_3  and  C5_5 
REMARK    3  A    between atoms: N3_3  and  C7_7 
REMARK    4  A    between atoms: C7_7  and  C10_9 
REMARK    5  A    between atoms: C10_9  and  C12_11 
ROOT
ATOM      1  C7  ZIN A   1      18.167  -0.885  11.842  0.00  0.00     0.258 C 
ATOM      2  C9  ZIN A   1      17.704  -2.342  11.895  0.00  0.00     0.049 C 
ENDROOT
BRANCH   1   3
ATOM      3  N3  ZIN A   1      18.108  -0.304  13.190  0.00  0.00    -0.061 N 
ATOM      4  H4  ZIN A   1      17.162  -0.021  13.393  0.00  0.00     0.280 HD
BRANCH   3   5
ATOM      5  C2  ZIN A   1      18.542  -1.305  14.174  0.00  0.00     0.231 C 
ATOM      6  C1  ZIN A   1      18.034  -0.908  15.562  0.00  0.00     0.034 C 
ENDBRANCH   3   5
BRANCH   3   7
ATOM      7  C5  ZIN A   1      18.995   0.865  13.258  0.00  0.00     0.231 C 
ATOM      8  C6  ZIN A   1      20.389   0.478  12.759  0.00  0.00     0.034 C 
ENDBRANCH   3   7
ENDBRANCH   1   3
BRANCH   1   9
ATOM      9  C10 ZIN A   1      17.268  -0.104  10.919  0.00  0.00     0.190 C 
ATOM     10  O11 ZIN A   1      16.128   0.144  11.250  0.00  0.00    -0.290 OA
BRANCH   9  11
ATOM     11  C12 ZIN A   1      17.772   0.355   9.616  0.00  0.00     0.012 A 
ATOM     12  C17 ZIN A   1      17.370  -0.286   8.439  0.00  0.00     0.015 A 
ATOM     13  C16 ZIN A   1      17.843   0.154   7.221  0.00  0.00     0.001 A 
ATOM     14  C15 ZIN A   1      18.721   1.223   7.162  0.00  0.00     0.000 A 
ATOM     15  C14 ZIN A   1      19.128   1.859   8.321  0.00  0.00     0.001 A 
ATOM     16  C13 ZIN A   1      18.661   1.434   9.546  0.00  0.00     0.015 A 
ENDBRANCH   9  11
ENDBRANCH   1   9
TORSDOF 5
ENDMDL
MODEL 3
REMARK VINA RESULT:      -5.5      1.078      2.076
REMARK  5 active torsions:
REMARK  status: ('A' for Active; 'I' for Inactive)
REMARK    1  A    between atoms: C2_2  and  N3_3 
REMARK    2  A    between atoms: N3_3  and  C5_5 
REMARK    3  A    between atoms: N3_3  and  C7_7 
REMARK    4  A    between atoms: C7_7  and  C10_9 
REMARK    5  A    between atoms: C10_9  and  C12_11 
ROOT
ATOM      1  C7  ZIN A   1      18.797   0.771  12.398  0.00  0.00     0.258 C 
ATOM      2  C9  ZIN A   1      20.125   0.335  11.777  0.00  0.00     0.049 C 
ENDROOT
BRANCH   1   3
ATOM      3  N3  ZIN A   1      18.054  -0.413  12.849  0.00  0.00    -0.061 N 
ATOM      4  H4  ZIN A   1      17.149  -0.432  12.404  0.00  0.00     0.280 HD
BRANCH   3   5
ATOM      5  C2  ZIN A   1      18.802  -1.626  12.489  0.00  0.00     0.231 C 
ATOM      6  C1  ZIN A   1      17.864  -2.615  11.795  0.00  0.00     0.034 C 
ENDBRANCH   3   5
BRANCH   3   7
ATOM      7  C5  ZIN A   1      17.882  -0.358  14.307  0.00  0.00     0.231 C 
ATOM      8  C6  ZIN A   1      18.992  -1.168  14.982  0.00  0.00     0.034 C 
ENDBRANCH   3   7
ENDBRANCH   1   3
BRANCH   1   9
ATOM      9  C10 ZIN A   1      17.982   1.515  11.371  0.00  0.00     0.190 C 
ATOM     10  O11 ZIN A   1      17.195   2.368  11.724  0.00  0.00    -0.290 OA
BRANCH   9  11
ATOM     11  C12 ZIN A   1      18.138   1.205   9.942  0.00  0.00     0.012 A 
ATOM     12  C17 ZIN A   1      18.997   1.969   9.146  0.00  0.00     0.015 A 
ATOM     13  C16 ZIN A   1      19.143   1.669   7.808  0.00  0.00     0.001 A 
ATOM     14  C15 ZIN A   1      18.433   0.620   7.250  0.00  0.00     0.000 A 
ATOM     15  C14 ZIN A   1      17.576  -0.138   8.029  0.00  0.00     0.001 A 
ATOM     16  C13 ZIN A   1      17.424   0.147   9.370  0.00  0.00     0.015 A 
ENDBRANCH   9  11
ENDBRANCH   1   9
TORSDOF 5
ENDMDL
MODEL 4
REMARK VINA RESULT:      -5.4      2.038      5.901
REMARK  5 active torsions:
REMARK  status: ('A' for Active; 'I' for Inactive)
REMARK    1  A    between atoms: C2_2  and  N3_3 
REMARK    2  A    between atoms: N3_3  and  C5_5 
REMARK    3  A    between atoms: N3_3  and  C7_7 
REMARK    4  A    between atoms: C7_7  and  C10_9 
REMARK    5  A    between atoms: C10_9  and  C12_11 
ROOT
ATOM      1  C7  ZIN A   1      18.087   1.241  12.096  0.00  0.00     0.258 C 
ATOM      2  C9  ZIN A   1      17.137   0.201  11.499  0.00  0.00     0.049 C 
ENDROOT
BRANCH   1   3
ATOM      3  N3  ZIN A   1      18.806   1.926  11.014  0.00  0.00    -0.061 N 
ATOM      4  H4  ZIN A   1      19.751   1.579  10.966  0.00  0.00     0.280 HD
BRANCH   3   5
ATOM      5  C2  ZIN A   1      18.125   1.672   9.737  0.00  0.00     0.231 C 
ATOM      6  C1  ZIN A   1      19.107   1.888   8.584  0.00  0.00     0.034 C 
ENDBRANCH   3   5
BRANCH   3   7
ATOM      7  C5  ZIN A   1      18.827   3.371  11.278  0.00  0.00     0.231 C 
ATOM      8  C6  ZIN A   1      17.406   3.930  11.172  0.00  0.00     0.034 C 
ENDBRANCH   3   7
ENDBRANCH   1   3
BRANCH   1   9
ATOM      9  C10 ZIN A   1      19.078   0.555  13.002  0.00  0.00     0.190 C 
ATOM     10  O11 ZIN A   1      20.240   0.463  12.668  0.00  0.00    -0.290 OA
BRANCH   9  11
ATOM     11  C12 ZIN A   1      18.635  -0.003  14.289  0.00  0.00     0.012 A 
ATOM     12  C17 ZIN A   1      17.646   0.647  15.034  0.00  0.00     0.015 A 
ATOM     13  C16 ZIN A   1      17.232   0.114  16.237  0.00  0.00     0.001 A 
ATOM     14  C15 ZIN A   1      17.801  -1.055  16.712  0.00  0.00     0.000 A 
ATOM     15  C14 ZIN A   1      18.785  -1.700  15.983  0.00  0.00     0.001 A 
ATOM     16  C13 ZIN A   1      19.206  -1.183  14.776  0.00  0.00     0.015 A 
ENDBRANCH   9  11
ENDBRANCH   1   9
TORSDOF 5
ENDMDL
MODEL 5
REMARK VINA RESULT:      -5.4      1.548      2.447
REMARK  5 active torsions:
REMARK  status: ('A' for Active; 'I' for Inactive)
REMARK    1  A    between atoms: C2_2  and  N3_3 
REMARK    2  A    between atoms: N3_3  and  C5_5 
REMARK    3  A    between atoms: N3_3  and  C7_7 
REMARK    4  A    between atoms: C7_7  and  C10_9 
REMARK    5  A    between atoms: C10_9  and  C12_11 
ROOT
ATOM      1  C7  ZIN A   1      17.794  -0.739  11.112  0.00  0.00     0.258 C 
ATOM      2  C9  ZIN A   1      16.797   0.065  11.947  0.00  0.00     0.049 C 
ENDROOT
BRANCH   1   3
ATOM      3  N3  ZIN A   1      18.650  -1.534  12.002  0.00  0.00    -0.061 N 
ATOM      4  H4  ZIN A   1      19.611  -1.250  11.888  0.00  0.00     0.280 HD
BRANCH   3   5
ATOM      5  C2  ZIN A   1      18.239  -1.318  13.397  0.00  0.00     0.231 C 
ATOM      6  C1  ZIN A   1      19.480  -1.117  14.268  0.00  0.00     0.034 C 
ENDBRANCH   3   5
BRANCH   3   7
ATOM      7  C5  ZIN A   1      18.516  -2.958  11.668  0.00  0.00     0.231 C 
ATOM      8  C6  ZIN A   1      19.907  -3.584  11.535  0.00  0.00     0.034 C 
ENDBRANCH   3   7
ENDBRANCH   1   3
BRANCH   1   9
ATOM      9  C10 ZIN A   1      18.649   0.204  10.304  0.00  0.00     0.190 C 
ATOM     10  O11 ZIN A   1      19.532   0.835  10.845  0.00  0.00    -0.290 OA
BRANCH   9  11
ATOM     11  C12 ZIN A   1      18.412   0.359   8.861  0.00  0.00     0.012 A 
ATOM     12  C17 ZIN A   1      17.383  -0.355   8.236  0.00  0.00     0.015 A 
ATOM     13  C16 ZIN A   1      17.163  -0.199   6.884  0.00  0.00     0.001 A 
ATOM     14  C15 ZIN A   1      17.964   0.652   6.143  0.00  0.00     0.000 A 
ATOM     15  C14 ZIN A   1      18.988   1.357   6.752  0.00  0.00     0.001 A 
ATOM     16  C13 ZIN A   1      19.217   1.217   8.104  0.00  0.00     0.015 A 
ENDBRANCH   9  11
ENDBRANCH   1   9
TORSDOF 5
ENDMDL
MODEL 6
REMARK VINA RESULT:      -5.4      1.658      5.435
REMARK  5 active torsions:
REMARK  status: ('A' for Active; 'I' for Inactive)
REMARK    1  A    between atoms: C2_2  and  N3_3 
REMARK    2  A    between atoms: N3_3  and  C5_5 
REMARK    3  A    between atoms: N3_3  and  C7_7 
REMARK    4  A    between atoms: C7_7  and  C10_9 
REMARK    5  A    between atoms: C10_9  and  C12_11 
ROOT
ATOM      1  C7  ZIN A   1      18.101   0.656  10.795  0.00  0.00     0.258 C 
ATOM      2  C9  ZIN A   1      17.741   2.092  10.414  0.00  0.00     0.049 C 
ENDROOT
BRANCH   1   3
ATOM      3  N3  ZIN A   1      17.958  -0.213   9.620  0.00  0.00    -0.061 N 
ATOM      4  H4  ZIN A   1      17.072  -0.692   9.661  0.00  0.00     0.280 HD
BRANCH   3   5
ATOM      5  C2  ZIN A   1      18.018   0.602   8.398  0.00  0.00     0.231 C 
ATOM      6  C1  ZIN A   1      17.379  -0.168   7.241  0.00  0.00     0.034 C 
ENDBRANCH   3   5
BRANCH   3   7
ATOM      7  C5  ZIN A   1      19.048  -1.199   9.603  0.00  0.00     0.231 C 
ATOM      8  C6  ZIN A   1      20.342  -0.537  10.081  0.00  0.00     0.034 C 
ENDBRANCH   3   7
ENDBRANCH   1   3
BRANCH   1   9
ATOM      9  C10 ZIN A   1      17.179   0.178  11.888  0.00  0.00     0.190 C 
ATOM     10  O11 ZIN A   1      15.992   0.061  11.670  0.00  0.00    -0.290 OA
BRANCH   9  11
ATOM     11  C12 ZIN A   1      17.718  -0.143  13.217  0.00  0.00     0.012 A 
ATOM     12  C17 ZIN A   1      18.566  -1.243  13.386  0.00  0.00     0.015 A 
ATOM     13  C16 ZIN A   1      19.072  -1.534  14.635  0.00  0.00     0.001 A 
ATOM     14  C15 ZIN A   1      18.735  -0.748  15.723  0.00  0.00     0.000 A 
ATOM     15  C14 ZIN A   1      17.892   0.338  15.566  0.00  0.00     0.001 A 
ATOM     16  C13 ZIN A   1      17.382   0.646  14.322  0.00  0.00     0.015 A 
ENDBRANCH   9  11
ENDBRANCH   1   9
TORSDOF 5
ENDMDL
MODEL 7
REMARK VINA RESULT:      -5.2      2.538      3.938
REMARK  5 active torsions:
REMARK  status: ('A' for Active; 'I' for Inactive)
REMARK    1  A    between atoms: C2_2  and  N3_3 
REMARK    2  A    between atoms: N3_3  and  C5_5 
REMARK    3  A    between atoms: N3_3  and  C7_7 
REMARK    4  A    between atoms: C7_7  and  C10_9 
REMARK    5  A    between atoms: C10_9  and  C12_11 
ROOT
ATOM      1  C7  ZIN A   1      18.797   0.186   9.682  0.00  0.00     0.258 C 
ATOM      2  C9  ZIN A   1      17.363  -0.105   9.238  0.00  0.00     0.049 C 
ENDROOT
BRANCH   1   3
ATOM      3  N3  ZIN A   1      18.922  -0.056  11.125  0.00  0.00    -0.061 N 
ATOM      4  H4  ZIN A   1      19.187   0.800  11.588  0.00  0.00     0.280 HD
BRANCH   3   5
ATOM      5  C2  ZIN A   1      17.632  -0.520  11.656  0.00  0.00     0.231 C 
ATOM      6  C1  ZIN A   1      17.236   0.343  12.856  0.00  0.00     0.034 C 
ENDBRANCH   3   5
BRANCH   3   7
ATOM      7  C5  ZIN A   1      19.947  -1.081  11.363  0.00  0.00     0.231 C 
ATOM      8  C6  ZIN A   1      19.277  -2.451  11.496  0.00  0.00     0.034 C 
ENDBRANCH   3   7
ENDBRANCH   1   3
BRANCH   1   9
ATOM      9  C10 ZIN A   1      19.135   1.624   9.382  0.00  0.00     0.190 C 
ATOM     10  O11 ZIN A   1      19.623   1.922   8.313  0.00  0.00    -0.290 OA
BRANCH   9  11
ATOM     11  C12 ZIN A   1      18.874   2.666  10.387  0.00  0.00     0.012 A 
ATOM     12  C17 ZIN A   1      17.613   3.265  10.469  0.00  0.00     0.015 A 
ATOM     13  C16 ZIN A   1      17.375   4.237  11.418  0.00  0.00     0.001 A 
ATOM     14  C15 ZIN A   1      18.383   4.627  12.282  0.00  0.00     0.000 A 
ATOM     15  C14 ZIN A   1      19.636   4.043  12.204  0.00  0.00     0.001 A 
ATOM     16  C13 ZIN A   1      19.888   3.066  11.264  0.00  0.00     0.015 A 
ENDBRANCH   9  11
ENDBRANCH   1   9
TORSDOF 5
ENDMDL
MODEL 8
REMARK VINA RESULT:      -5.2      1.564      5.243
REMARK  5 active torsions:
REMARK  status: ('A' for Active; 'I' for Inactive)
REMARK    1  A    between atoms: C2_2  and  N3_3 
REMARK    2  A    between atoms: N3_3  and  C5_5 
REMARK    3  A    between atoms: N3_3  and  C7_7 
REMARK    4  A    between atoms: C7_7  and  C10_9 
REMARK    5  A    between atoms: C10_9  and  C12_11 
ROOT
ATOM      1  C7  ZIN A   1      18.679  -0.542  10.702  0.00  0.00     0.258 C 
ATOM      2  C9  ZIN A   1      20.002  -0.030  11.273  0.00  0.00     0.049 C 
ENDROOT
BRANCH   1   3
ATOM      3  N3  ZIN A   1      17.910   0.585  10.159  0.00  0.00    -0.061 N 
ATOM      4  H4  ZIN A   1      17.016   0.637  10.622  0.00  0.00     0.280 HD
BRANCH   3   5
ATOM      5  C2  ZIN A   1      18.651   1.835  10.382  0.00  0.00     0.231 C 
ATOM      6  C1  ZIN A   1      17.680   2.928  10.833  0.00  0.00     0.034 C 
ENDBRANCH   3   5
BRANCH   3   7
ATOM      7  C5  ZIN A   1      17.705   0.389   8.717  0.00  0.00     0.231 C 
ATOM      8  C6  ZIN A   1      18.844   1.058   7.944  0.00  0.00     0.034 C 
ENDBRANCH   3   7
ENDBRANCH   1   3
BRANCH   1   9
ATOM      9  C10 ZIN A   1      17.884  -1.211  11.795  0.00  0.00     0.190 C 
ATOM     10  O11 ZIN A   1      17.085  -2.080  11.517  0.00  0.00    -0.290 OA
BRANCH   9  11
ATOM     11  C12 ZIN A   1      18.078  -0.811  13.196  0.00  0.00     0.012 A 
ATOM     12  C17 ZIN A   1      18.861  -1.594  14.051  0.00  0.00     0.015 A 
ATOM     13  C16 ZIN A   1      19.042  -1.209  15.362  0.00  0.00     0.001 A 
ATOM     14  C15 ZIN A   1      18.444  -0.054  15.836  0.00  0.00     0.000 A 
ATOM     15  C14 ZIN A   1      17.664   0.724  14.999  0.00  0.00     0.001 A 
ATOM     16  C13 ZIN A   1      17.477   0.354  13.684  0.00  0.00     0.015 A 
ENDBRANCH   9  11
ENDBRANCH   1   9
TORSDOF 5
ENDMDL
MODEL 9
REMARK VINA RESULT:      -5.1      2.826      4.008
REMARK  5 active torsions:
REMARK  status: ('A' for Active; 'I' for Inactive)
REMARK    1  A    between atoms: C2_2  and  N3_3 
REMARK    2  A    between atoms: N3_3  and  C5_5 
REMARK    3  A    between atoms: N3_3  and  C7_7 
REMARK    4  A    between atoms: C7_7  and  C10_9 
REMARK    5  A    between atoms: C10_9  and  C12_11 
ROOT
ATOM      1  C7  ZIN A   1      17.899  -2.886   9.614  0.00  0.00     0.258 C 
ATOM      2  C9  ZIN A   1      17.442  -3.638  10.865  0.00  0.00     0.049 C 
ENDROOT
BRANCH   1   3
ATOM      3  N3  ZIN A   1      19.160  -3.462   9.130  0.00  0.00    -0.061 N 
ATOM      4  H4  ZIN A   1      19.862  -2.740   9.077  0.00  0.00     0.280 HD
BRANCH   3   5
ATOM      5  C2  ZIN A   1      19.607  -4.511  10.057  0.00  0.00     0.231 C 
ATOM      6  C1  ZIN A   1      19.975  -5.767   9.266  0.00  0.00     0.034 C 
ENDBRANCH   3   5
BRANCH   3   7
ATOM      7  C5  ZIN A   1      18.953  -4.043   7.796  0.00  0.00     0.231 C 
ATOM      8  C6  ZIN A   1      19.710  -3.215   6.756  0.00  0.00     0.034 C 
ENDBRANCH   3   7
ENDBRANCH   1   3
BRANCH   1   9
ATOM      9  C10 ZIN A   1      18.107  -1.431   9.949  0.00  0.00     0.190 C 
ATOM     10  O11 ZIN A   1      18.091  -1.068  11.106  0.00  0.00    -0.290 OA
BRANCH   9  11
ATOM     11  C12 ZIN A   1      18.328  -0.453   8.874  0.00  0.00     0.012 A 
ATOM     12  C17 ZIN A   1      19.257   0.579   9.041  0.00  0.00     0.015 A 
ATOM     13  C16 ZIN A   1      19.463   1.489   8.026  0.00  0.00     0.001 A 
ATOM     14  C15 ZIN A   1      18.746   1.388   6.847  0.00  0.00     0.000 A 
ATOM     15  C14 ZIN A   1      17.821   0.374   6.675  0.00  0.00     0.001 A 
ATOM     16  C13 ZIN A   1      17.607  -0.547   7.679  0.00  0.00     0.015 A 
ENDBRANCH   9  11
ENDBRANCH   1   9
TORSDOF 5
ENDMDL
