MODEL 1
REMARK VINA RESULT:      -6.3      0.000      0.000
REMARK  2 active torsions:
REMARK  status: ('A' for Active; 'I' for Inactive)
REMARK    1  A    between atoms: N1_1  and  N2_2 
REMARK    2  A    between atoms: N2_2  and  C3_3 
ROOT
ATOM      1  C3  <0> d   1      20.499   0.938  12.355  0.00  0.00     0.143 A 
ATOM      2  C4  <0> d   1      19.615   0.451  13.344  0.00  0.00     0.022 A 
ATOM      3  C5  <0> d   1      19.734  -0.826  13.903  0.00  0.00     0.016 A 
ATOM      4  C6  <0> d   1      18.842  -1.226  14.854  0.00  0.00     0.001 A 
ATOM      5  C7  <0> d   1      17.816  -0.385  15.276  0.00  0.00     0.001 A 
ATOM      6  C8  <0> d   1      17.671   0.866  14.753  0.00  0.00     0.014 A 
ATOM      7  C9  <0> d   1      18.570   1.309  13.774  0.00  0.00    -0.003 A 
ATOM      8  C10 <0> d   1      18.488   2.585  13.186  0.00  0.00     0.151 A 
ATOM      9  N11 <0> d   1      19.369   2.928  12.276  0.00  0.00    -0.185 NA
ATOM     10  N12 <0> d   1      20.317   2.160  11.885  0.00  0.00    -0.261 N 
ATOM     11  H13 <0> d   1      20.928   2.489  11.207  0.00  0.00     0.191 HD
ENDROOT
BRANCH   1  12
ATOM     12  N2  <0> d   1      21.541   0.151  11.890  0.00  0.00    -0.308 N 
ATOM     13  H16 <0> d   1      22.377   0.116  12.380  0.00  0.00     0.182 HD
BRANCH  12  14
ATOM     14  N1  <0> d   1      21.391  -0.573  10.742  0.00  0.00    -0.248 NA
ATOM     15  H14 <0> d   1      22.227  -1.094  10.531  0.00  0.00     0.143 HD
ATOM     16  H15 <0> d   1      20.588  -1.181  10.801  0.00  0.00     0.143 HD
ENDBRANCH  12  14
ENDBRANCH   1  12
TORSDOF 2
ENDMDL
MODEL 2
REMARK VINA RESULT:      -6.2      1.295      1.611
REMARK  2 active torsions:
REMARK  status: ('A' for Active; 'I' for Inactive)
REMARK    1  A    between atoms: N1_1  and  N2_2 
REMARK    2  A    between atoms: N2_2  and  C3_3 
ROOT
ATOM      1  C3  <0> d   1      19.784   0.655  13.621  0.00  0.00     0.143 A 
ATOM      2  C4  <0> d   1      19.047   0.061  14.671  0.00  0.00     0.022 A 
ATOM      3  C5  <0> d   1      19.224  -1.270  15.061  0.00  0.00     0.016 A 
ATOM      4  C6  <0> d   1      18.476  -1.774  16.084  0.00  0.00     0.001 A 
ATOM      5  C7  <0> d   1      17.538  -0.984  16.744  0.00  0.00     0.001 A 
ATOM      6  C8  <0> d   1      17.339   0.318  16.389  0.00  0.00     0.014 A 
ATOM      7  C9  <0> d   1      18.091   0.867  15.343  0.00  0.00    -0.003 A 
ATOM      8  C10 <0> d   1      17.945   2.201  14.918  0.00  0.00     0.151 A 
ATOM      9  N11 <0> d   1      18.688   2.642  13.930  0.00  0.00    -0.185 NA
ATOM     10  N12 <0> d   1      19.555   1.922  13.321  0.00  0.00    -0.261 N 
ATOM     11  H13 <0> d   1      20.065   2.324  12.600  0.00  0.00     0.191 HD
ENDROOT
BRANCH   1  12
ATOM     12  N2  <0> d   1      20.732  -0.075  12.923  0.00  0.00    -0.308 N 
ATOM     13  H16 <0> d   1      20.765  -1.041  13.016  0.00  0.00     0.182 HD
BRANCH  12  14
ATOM     14  N1  <0> d   1      21.620   0.563  12.105  0.00  0.00    -0.248 NA
ATOM     15  H14 <0> d   1      21.689   0.099  11.213  0.00  0.00     0.143 HD
ATOM     16  H15 <0> d   1      21.372   1.535  11.991  0.00  0.00     0.143 HD
ENDBRANCH  12  14
ENDBRANCH   1  12
TORSDOF 2
ENDMDL
MODEL 3
REMARK VINA RESULT:      -6.1      1.934      3.353
REMARK  2 active torsions:
REMARK  status: ('A' for Active; 'I' for Inactive)
REMARK    1  A    between atoms: N1_1  and  N2_2 
REMARK    2  A    between atoms: N2_2  and  C3_3 
ROOT
ATOM      1  C3  <0> d   1      20.431   1.019  12.505  0.00  0.00     0.143 A 
ATOM      2  C4  <0> d   1      19.504   1.843  11.827  0.00  0.00     0.022 A 
ATOM      3  C5  <0> d   1      19.665   2.224  10.491  0.00  0.00     0.016 A 
ATOM      4  C6  <0> d   1      18.727   3.022   9.904  0.00  0.00     0.001 A 
ATOM      5  C7  <0> d   1      17.614   3.463  10.614  0.00  0.00     0.001 A 
ATOM      6  C8  <0> d   1      17.425   3.111  11.918  0.00  0.00     0.014 A 
ATOM      7  C9  <0> d   1      18.369   2.292  12.551  0.00  0.00    -0.003 A 
ATOM      8  C10 <0> d   1      18.246   1.885  13.893  0.00  0.00     0.151 A 
ATOM      9  N11 <0> d   1      19.172   1.116  14.415  0.00  0.00    -0.185 NA
ATOM     10  N12 <0> d   1      20.197   0.704  13.767  0.00  0.00    -0.261 N 
ATOM     11  H13 <0> d   1      20.836   0.136  14.226  0.00  0.00     0.191 HD
ENDROOT
BRANCH   1  12
ATOM     12  N2  <0> d   1      21.560   0.546  11.857  0.00  0.00    -0.308 N 
ATOM     13  H16 <0> d   1      22.404   1.017  11.947  0.00  0.00     0.182 HD
BRANCH  12  14
ATOM     14  N1  <0> d   1      21.486  -0.582  11.089  0.00  0.00    -0.248 NA
ATOM     15  H14 <0> d   1      21.698  -1.404  11.633  0.00  0.00     0.143 HD
ATOM     16  H15 <0> d   1      20.581  -0.661  10.650  0.00  0.00     0.143 HD
ENDBRANCH  12  14
ENDBRANCH   1  12
TORSDOF 2
ENDMDL
MODEL 4
REMARK VINA RESULT:      -6.0      3.610      5.092
REMARK  2 active torsions:
REMARK  status: ('A' for Active; 'I' for Inactive)
REMARK    1  A    between atoms: N1_1  and  N2_2 
REMARK    2  A    between atoms: N2_2  and  C3_3 
ROOT
ATOM      1  C3  <0> d   1      20.386  -0.925  10.803  0.00  0.00     0.143 A 
ATOM      2  C4  <0> d   1      19.536  -0.492   9.760  0.00  0.00     0.022 A 
ATOM      3  C5  <0> d   1      19.793   0.654   9.001  0.00  0.00     0.016 A 
ATOM      4  C6  <0> d   1      18.926   1.009   8.010  0.00  0.00     0.001 A 
ATOM      5  C7  <0> d   1      17.790   0.250   7.743  0.00  0.00     0.001 A 
ATOM      6  C8  <0> d   1      17.509  -0.873   8.464  0.00  0.00     0.014 A 
ATOM      7  C9  <0> d   1      18.379  -1.267   9.489  0.00  0.00    -0.003 A 
ATOM      8  C10 <0> d   1      18.159  -2.412  10.277  0.00  0.00     0.151 A 
ATOM      9  N11 <0> d   1      19.021  -2.716  11.218  0.00  0.00    -0.185 NA
ATOM     10  N12 <0> d   1      20.070  -2.023  11.467  0.00  0.00    -0.261 N 
ATOM     11  H13 <0> d   1      20.658  -2.316  12.181  0.00  0.00     0.191 HD
ENDROOT
BRANCH   1  12
ATOM     12  N2  <0> d   1      21.533  -0.215  11.120  0.00  0.00    -0.308 N 
ATOM     13  H16 <0> d   1      22.324  -0.299  10.565  0.00  0.00     0.182 HD
BRANCH  12  14
ATOM     14  N1  <0> d   1      21.549   0.603  12.214  0.00  0.00    -0.248 NA
ATOM     15  H14 <0> d   1      21.492   1.572  11.943  0.00  0.00     0.143 HD
ATOM     16  H15 <0> d   1      20.809   0.362  12.856  0.00  0.00     0.143 HD
ENDBRANCH  12  14
ENDBRANCH   1  12
TORSDOF 2
ENDMDL
MODEL 5
REMARK VINA RESULT:      -6.0      3.544      4.235
REMARK  2 active torsions:
REMARK  status: ('A' for Active; 'I' for Inactive)
REMARK    1  A    between atoms: N1_1  and  N2_2 
REMARK    2  A    between atoms: N2_2  and  C3_3 
ROOT
ATOM      1  C3  <0> d   1      20.458  -0.683  10.337  0.00  0.00     0.143 A 
ATOM      2  C4  <0> d   1      19.644  -1.819  10.549  0.00  0.00     0.022 A 
ATOM      3  C5  <0> d   1      19.904  -2.759  11.551  0.00  0.00     0.016 A 
ATOM      4  C6  <0> d   1      19.073  -3.831  11.695  0.00  0.00     0.001 A 
ATOM      5  C7  <0> d   1      17.972  -4.004  10.859  0.00  0.00     0.001 A 
ATOM      6  C8  <0> d   1      17.691  -3.107   9.872  0.00  0.00     0.014 A 
ATOM      7  C9  <0> d   1      18.523  -1.994   9.697  0.00  0.00    -0.003 A 
ATOM      8  C10 <0> d   1      18.299  -1.024   8.702  0.00  0.00     0.151 A 
ATOM      9  N11 <0> d   1      19.124  -0.009   8.602  0.00  0.00    -0.185 NA
ATOM     10  N12 <0> d   1      20.137   0.158   9.369  0.00  0.00    -0.261 N 
ATOM     11  H13 <0> d   1      20.698   0.937   9.230  0.00  0.00     0.191 HD
ENDROOT
BRANCH   1  12
ATOM     12  N2  <0> d   1      21.568  -0.451  11.133  0.00  0.00    -0.308 N 
ATOM     13  H16 <0> d   1      22.366  -0.992  11.020  0.00  0.00     0.182 HD
BRANCH  12  14
ATOM     14  N1  <0> d   1      21.539   0.536  12.076  0.00  0.00    -0.248 NA
ATOM     15  H14 <0> d   1      22.415   1.034  12.106  0.00  0.00     0.143 HD
ATOM     16  H15 <0> d   1      20.768   1.167  11.915  0.00  0.00     0.143 HD
ENDBRANCH  12  14
ENDBRANCH   1  12
TORSDOF 2
ENDMDL
MODEL 6
REMARK VINA RESULT:      -5.9      2.850      4.142
REMARK  2 active torsions:
REMARK  status: ('A' for Active; 'I' for Inactive)
REMARK    1  A    between atoms: N1_1  and  N2_2 
REMARK    2  A    between atoms: N2_2  and  C3_3 
ROOT
ATOM      1  C3  <0> d   1      19.756   1.947  11.322  0.00  0.00     0.143 A 
ATOM      2  C4  <0> d   1      18.858   3.023  11.504  0.00  0.00     0.022 A 
ATOM      3  C5  <0> d   1      18.600   3.590  12.756  0.00  0.00     0.016 A 
ATOM      4  C6  <0> d   1      17.720   4.627  12.853  0.00  0.00     0.001 A 
ATOM      5  C7  <0> d   1      17.075   5.129  11.725  0.00  0.00     0.001 A 
ATOM      6  C8  <0> d   1      17.303   4.600  10.490  0.00  0.00     0.014 A 
ATOM      7  C9  <0> d   1      18.201   3.534  10.354  0.00  0.00    -0.003 A 
ATOM      8  C10 <0> d   1      18.491   2.934   9.114  0.00  0.00     0.151 A 
ATOM      9  N11 <0> d   1      19.346   1.940   9.069  0.00  0.00    -0.185 NA
ATOM     10  N12 <0> d   1      19.945   1.475  10.102  0.00  0.00    -0.261 N 
ATOM     11  H13 <0> d   1      20.564   0.737   9.983  0.00  0.00     0.191 HD
ENDROOT
BRANCH   1  12
ATOM     12  N2  <0> d   1      20.430   1.400  12.402  0.00  0.00    -0.308 N 
ATOM     13  H16 <0> d   1      20.115   1.565  13.304  0.00  0.00     0.182 HD
BRANCH  12  14
ATOM     14  N1  <0> d   1      21.540   0.630  12.196  0.00  0.00    -0.248 NA
ATOM     15  H14 <0> d   1      21.709   0.022  12.982  0.00  0.00     0.143 HD
ATOM     16  H15 <0> d   1      21.459   0.102  11.340  0.00  0.00     0.143 HD
ENDBRANCH  12  14
ENDBRANCH   1  12
TORSDOF 2
ENDMDL
MODEL 7
REMARK VINA RESULT:      -5.7      3.116      3.615
REMARK  2 active torsions:
REMARK  status: ('A' for Active; 'I' for Inactive)
REMARK    1  A    between atoms: N1_1  and  N2_2 
REMARK    2  A    between atoms: N2_2  and  C3_3 
ROOT
ATOM      1  C3  <0> d   1      19.838  -0.512  11.299  0.00  0.00     0.143 A 
ATOM      2  C4  <0> d   1      19.340  -1.832  11.374  0.00  0.00     0.022 A 
ATOM      3  C5  <0> d   1      20.174  -2.954  11.439  0.00  0.00     0.016 A 
ATOM      4  C6  <0> d   1      19.619  -4.197  11.509  0.00  0.00     0.001 A 
ATOM      5  C7  <0> d   1      18.237  -4.368  11.516  0.00  0.00     0.001 A 
ATOM      6  C8  <0> d   1      17.395  -3.297  11.453  0.00  0.00     0.014 A 
ATOM      7  C9  <0> d   1      17.931  -2.005  11.381  0.00  0.00    -0.003 A 
ATOM      8  C10 <0> d   1      17.130  -0.850  11.314  0.00  0.00     0.151 A 
ATOM      9  N11 <0> d   1      17.708   0.326  11.250  0.00  0.00    -0.185 NA
ATOM     10  N12 <0> d   1      18.979   0.490  11.245  0.00  0.00    -0.261 N 
ATOM     11  H13 <0> d   1      19.327   1.395  11.196  0.00  0.00     0.191 HD
ENDROOT
BRANCH   1  12
ATOM     12  N2  <0> d   1      21.203  -0.272  11.287  0.00  0.00    -0.308 N 
ATOM     13  H16 <0> d   1      21.774  -0.752  10.667  0.00  0.00     0.182 HD
BRANCH  12  14
ATOM     14  N1  <0> d   1      21.744   0.639  12.149  0.00  0.00    -0.248 NA
ATOM     15  H14 <0> d   1      21.258   1.520  12.096  0.00  0.00     0.143 HD
ATOM     16  H15 <0> d   1      21.749   0.284  13.094  0.00  0.00     0.143 HD
ENDBRANCH  12  14
ENDBRANCH   1  12
TORSDOF 2
ENDMDL
MODEL 8
REMARK VINA RESULT:      -5.6      2.614      4.181
REMARK  2 active torsions:
REMARK  status: ('A' for Active; 'I' for Inactive)
REMARK    1  A    between atoms: N1_1  and  N2_2 
REMARK    2  A    between atoms: N2_2  and  C3_3 
ROOT
ATOM      1  C3  <0> d   1      20.381   0.378  11.677  0.00  0.00     0.143 A 
ATOM      2  C4  <0> d   1      19.630   1.491  11.235  0.00  0.00     0.022 A 
ATOM      3  C5  <0> d   1      19.249   2.533  12.087  0.00  0.00     0.016 A 
ATOM      4  C6  <0> d   1      18.524   3.575  11.587  0.00  0.00     0.001 A 
ATOM      5  C7  <0> d   1      18.157   3.616  10.245  0.00  0.00     0.001 A 
ATOM      6  C8  <0> d   1      18.511   2.617   9.387  0.00  0.00     0.014 A 
ATOM      7  C9  <0> d   1      19.256   1.532   9.867  0.00  0.00    -0.003 A 
ATOM      8  C10 <0> d   1      19.660   0.463   9.046  0.00  0.00     0.151 A 
ATOM      9  N11 <0> d   1      20.358  -0.517   9.570  0.00  0.00    -0.185 NA
ATOM     10  N12 <0> d   1      20.702  -0.560  10.803  0.00  0.00    -0.261 N 
ATOM     11  H13 <0> d   1      21.219  -1.320  11.112  0.00  0.00     0.191 HD
ENDROOT
BRANCH   1  12
ATOM     12  N2  <0> d   1      20.778   0.275  13.000  0.00  0.00    -0.308 N 
ATOM     13  H16 <0> d   1      21.533   0.793  13.321  0.00  0.00     0.182 HD
BRANCH  12  14
ATOM     14  N1  <0> d   1      20.107  -0.555  13.852  0.00  0.00    -0.248 NA
ATOM     15  H14 <0> d   1      20.379  -1.515  13.711  0.00  0.00     0.143 HD
ATOM     16  H15 <0> d   1      20.245  -0.277  14.812  0.00  0.00     0.143 HD
ENDBRANCH  12  14
ENDBRANCH   1  12
TORSDOF 2
ENDMDL
MODEL 9
REMARK VINA RESULT:      -5.6      4.676      5.822
REMARK  2 active torsions:
REMARK  status: ('A' for Active; 'I' for Inactive)
REMARK    1  A    between atoms: N1_1  and  N2_2 
REMARK    2  A    between atoms: N2_2  and  C3_3 
ROOT
ATOM      1  C3  <0> d   1      19.706  -0.137   9.513  0.00  0.00     0.143 A 
ATOM      2  C4  <0> d   1      19.272  -0.200   8.170  0.00  0.00     0.022 A 
ATOM      3  C5  <0> d   1      19.252  -1.390   7.436  0.00  0.00     0.016 A 
ATOM      4  C6  <0> d   1      18.820  -1.373   6.143  0.00  0.00     0.001 A 
ATOM      5  C7  <0> d   1      18.399  -0.189   5.542  0.00  0.00     0.001 A 
ATOM      6  C8  <0> d   1      18.406   0.989   6.228  0.00  0.00     0.014 A 
ATOM      7  C9  <0> d   1      18.843   1.007   7.558  0.00  0.00    -0.003 A 
ATOM      8  C10 <0> d   1      18.879   2.182   8.333  0.00  0.00     0.151 A 
ATOM      9  N11 <0> d   1      19.301   2.116   9.574  0.00  0.00    -0.185 NA
ATOM     10  N12 <0> d   1      19.687   1.030  10.133  0.00  0.00    -0.261 N 
ATOM     11  H13 <0> d   1      19.984   1.067  11.056  0.00  0.00     0.191 HD
ENDROOT
BRANCH   1  12
ATOM     12  N2  <0> d   1      20.137  -1.278  10.170  0.00  0.00    -0.308 N 
ATOM     13  H16 <0> d   1      19.736  -2.137   9.964  0.00  0.00     0.182 HD
BRANCH  12  14
ATOM     14  N1  <0> d   1      21.127  -1.193  11.108  0.00  0.00    -0.248 NA
ATOM     15  H14 <0> d   1      20.848  -0.602  11.875  0.00  0.00     0.143 HD
ATOM     16  H15 <0> d   1      21.395  -2.109  11.434  0.00  0.00     0.143 HD
ENDBRANCH  12  14
ENDBRANCH   1  12
TORSDOF 2
ENDMDL
