MODEL 1
REMARK VINA RESULT:      -6.0      0.000      0.000
REMARK  5 active torsions:
REMARK  status: ('A' for Active; 'I' for Inactive)
REMARK    1  A    between atoms: C2_2  and  C3_3 
REMARK    2  A    between atoms: C3_3  and  C4_4 
REMARK    3  A    between atoms: C4_4  and  C5_5 
REMARK    4  A    between atoms: C5_5  and  C8_7 
REMARK    5  A    between atoms: C8_7  and  C9_8 
ROOT
ATOM      1  C4  ZIN A   1      18.290   0.126  10.411  0.00  0.00     0.130 A 
ATOM      2  C11 ZIN A   1      17.157  -0.569  11.139  0.00  0.00     0.266 A 
ATOM      3  O12 ZIN A   1      16.164   0.038  11.483  0.00  0.00    -0.270 OA
ATOM      4  N13 ZIN A   1      17.292  -1.889  11.391  0.00  0.00    -0.157 NA
ATOM      5  C14 ZIN A   1      18.379  -2.572  11.019  0.00  0.00     0.351 A 
ATOM      6  O15 ZIN A   1      18.418  -3.757  11.286  0.00  0.00    -0.244 OA
ATOM      7  N16 ZIN A   1      19.428  -2.047  10.374  0.00  0.00    -0.276 N 
ATOM      8  C17 ZIN A   1      19.477  -0.742  10.033  0.00  0.00     0.244 A 
ATOM      9  O18 ZIN A   1      20.433  -0.281   9.450  0.00  0.00    -0.272 OA
ATOM     10  H34 ZIN A   1      20.174  -2.622  10.144  0.00  0.00     0.173 HD
ENDROOT
BRANCH   1  11
ATOM     11  C3  ZIN A   1      17.726   0.743   9.130  0.00  0.00     0.056 C 
BRANCH  11  12
ATOM     12  C2  ZIN A   1      17.311  -0.355   8.184  0.00  0.00    -0.035 C 
ATOM     13  C1  ZIN A   1      17.328  -0.147   6.891  0.00  0.00     0.007 C 
ENDBRANCH  11  12
ENDBRANCH   1  11
BRANCH   1  14
ATOM     14  C5  ZIN A   1      18.797   1.263  11.299  0.00  0.00     0.009 C 
ATOM     15  C7  ZIN A   1      20.003   0.780  12.108  0.00  0.00     0.011 C 
BRANCH  14  16
ATOM     16  C8  ZIN A   1      19.211   2.449  10.426  0.00  0.00     0.005 C 
BRANCH  16  17
ATOM     17  C9  ZIN A   1      18.805   3.755  11.111  0.00  0.00    -0.004 C 
ATOM     18  C10 ZIN A   1      17.344   4.069  10.786  0.00  0.00     0.005 C 
ENDBRANCH  16  17
ENDBRANCH  14  16
ENDBRANCH   1  14
TORSDOF 5
ENDMDL
MODEL 2
REMARK VINA RESULT:      -6.0      2.396      4.507
REMARK  5 active torsions:
REMARK  status: ('A' for Active; 'I' for Inactive)
REMARK    1  A    between atoms: C2_2  and  C3_3 
REMARK    2  A    between atoms: C3_3  and  C4_4 
REMARK    3  A    between atoms: C4_4  and  C5_5 
REMARK    4  A    between atoms: C5_5  and  C8_7 
REMARK    5  A    between atoms: C8_7  and  C9_8 
ROOT
ATOM      1  C4  ZIN A   1      19.016  -0.775  12.183  0.00  0.00     0.130 A 
ATOM      2  C11 ZIN A   1      17.529  -0.702  11.894  0.00  0.00     0.266 A 
ATOM      3  O12 ZIN A   1      16.854  -1.706  11.808  0.00  0.00    -0.270 OA
ATOM      4  N13 ZIN A   1      16.983   0.524  11.739  0.00  0.00    -0.157 NA
ATOM      5  C14 ZIN A   1      17.713   1.641  11.832  0.00  0.00     0.351 A 
ATOM      6  O15 ZIN A   1      17.140   2.701  11.678  0.00  0.00    -0.244 OA
ATOM      7  N16 ZIN A   1      19.026   1.676  12.082  0.00  0.00    -0.276 N 
ATOM      8  C17 ZIN A   1      19.749   0.551  12.268  0.00  0.00     0.244 A 
ATOM      9  O18 ZIN A   1      20.939   0.598  12.493  0.00  0.00    -0.272 OA
ATOM     10  H34 ZIN A   1      19.473   2.535  12.131  0.00  0.00     0.173 HD
ENDROOT
BRANCH   1  11
ATOM     11  C3  ZIN A   1      19.208  -1.511  13.510  0.00  0.00     0.056 C 
BRANCH  11  12
ATOM     12  C2  ZIN A   1      18.508  -0.754  14.610  0.00  0.00    -0.035 C 
ATOM     13  C1  ZIN A   1      18.341  -1.311  15.784  0.00  0.00     0.007 C 
ENDBRANCH  11  12
ENDBRANCH   1  11
BRANCH   1  14
ATOM     14  C5  ZIN A   1      19.670  -1.610  11.081  0.00  0.00     0.009 C 
ATOM     15  C7  ZIN A   1      19.627  -3.090  11.469  0.00  0.00     0.011 C 
BRANCH  14  16
ATOM     16  C8  ZIN A   1      18.912  -1.406   9.767  0.00  0.00     0.005 C 
BRANCH  16  17
ATOM     17  C9  ZIN A   1      19.737  -0.516   8.836  0.00  0.00    -0.004 C 
ATOM     18  C10 ZIN A   1      18.928   0.731   8.474  0.00  0.00     0.005 C 
ENDBRANCH  16  17
ENDBRANCH  14  16
ENDBRANCH   1  14
TORSDOF 5
ENDMDL
MODEL 3
REMARK VINA RESULT:      -5.9      2.033      3.801
REMARK  5 active torsions:
REMARK  status: ('A' for Active; 'I' for Inactive)
REMARK    1  A    between atoms: C2_2  and  C3_3 
REMARK    2  A    between atoms: C3_3  and  C4_4 
REMARK    3  A    between atoms: C4_4  and  C5_5 
REMARK    4  A    between atoms: C5_5  and  C8_7 
REMARK    5  A    between atoms: C8_7  and  C9_8 
ROOT
ATOM      1  C4  ZIN A   1      18.259   0.558  12.299  0.00  0.00     0.130 A 
ATOM      2  C11 ZIN A   1      19.691   0.118  12.066  0.00  0.00     0.266 A 
ATOM      3  O12 ZIN A   1      20.613   0.633  12.662  0.00  0.00    -0.270 OA
ATOM      4  N13 ZIN A   1      19.903  -0.871  11.171  0.00  0.00    -0.157 NA
ATOM      5  C14 ZIN A   1      18.898  -1.451  10.506  0.00  0.00     0.351 A 
ATOM      6  O15 ZIN A   1      19.179  -2.333   9.720  0.00  0.00    -0.244 OA
ATOM      7  N16 ZIN A   1      17.606  -1.130  10.644  0.00  0.00    -0.276 N 
ATOM      8  C17 ZIN A   1      17.196  -0.165  11.493  0.00  0.00     0.244 A 
ATOM      9  O18 ZIN A   1      16.022   0.115  11.607  0.00  0.00    -0.272 OA
ATOM     10  H34 ZIN A   1      16.945  -1.606  10.118  0.00  0.00     0.173 HD
ENDROOT
BRANCH   1  11
ATOM     11  C3  ZIN A   1      17.939   0.373  13.783  0.00  0.00     0.056 C 
BRANCH  11  12
ATOM     12  C2  ZIN A   1      18.205  -1.056  14.181  0.00  0.00    -0.035 C 
ATOM     13  C1  ZIN A   1      18.692  -1.326  15.366  0.00  0.00     0.007 C 
ENDBRANCH  11  12
ENDBRANCH   1  11
BRANCH   1  14
ATOM     14  C5  ZIN A   1      18.166   2.051  11.978  0.00  0.00     0.009 C 
ATOM     15  C7  ZIN A   1      18.396   2.862  13.255  0.00  0.00     0.011 C 
BRANCH  14  16
ATOM     16  C8  ZIN A   1      19.230   2.418  10.942  0.00  0.00     0.005 C 
BRANCH  16  17
ATOM     17  C9  ZIN A   1      18.562   2.664   9.588  0.00  0.00    -0.004 C 
ATOM     18  C10 ZIN A   1      19.241   1.805   8.520  0.00  0.00     0.005 C 
ENDBRANCH  16  17
ENDBRANCH  14  16
ENDBRANCH   1  14
TORSDOF 5
ENDMDL
MODEL 4
REMARK VINA RESULT:      -5.9      2.888      5.334
REMARK  5 active torsions:
REMARK  status: ('A' for Active; 'I' for Inactive)
REMARK    1  A    between atoms: C2_2  and  C3_3 
REMARK    2  A    between atoms: C3_3  and  C4_4 
REMARK    3  A    between atoms: C4_4  and  C5_5 
REMARK    4  A    between atoms: C5_5  and  C8_7 
REMARK    5  A    between atoms: C8_7  and  C9_8 
ROOT
ATOM      1  C4  ZIN A   1      18.374  -0.066  12.636  0.00  0.00     0.130 A 
ATOM      2  C11 ZIN A   1      17.210   0.654  11.984  0.00  0.00     0.266 A 
ATOM      3  O12 ZIN A   1      16.184   0.071  11.708  0.00  0.00    -0.270 OA
ATOM      4  N13 ZIN A   1      17.358   1.971  11.723  0.00  0.00    -0.157 NA
ATOM      5  C14 ZIN A   1      18.483   2.630  12.022  0.00  0.00     0.351 A 
ATOM      6  O15 ZIN A   1      18.530   3.813  11.753  0.00  0.00    -0.244 OA
ATOM      7  N16 ZIN A   1      19.560   2.081  12.596  0.00  0.00    -0.276 N 
ATOM      8  C17 ZIN A   1      19.602   0.775  12.933  0.00  0.00     0.244 A 
ATOM      9  O18 ZIN A   1      20.584   0.291  13.453  0.00  0.00    -0.272 OA
ATOM     10  H34 ZIN A   1      20.332   2.638  12.776  0.00  0.00     0.173 HD
ENDROOT
BRANCH   1  11
ATOM     11  C3  ZIN A   1      17.882  -0.671  13.952  0.00  0.00     0.056 C 
BRANCH  11  12
ATOM     12  C2  ZIN A   1      17.548   0.434  14.920  0.00  0.00    -0.035 C 
ATOM     13  C1  ZIN A   1      17.706   0.248  16.207  0.00  0.00     0.007 C 
ENDBRANCH  11  12
ENDBRANCH   1  11
BRANCH   1  14
ATOM     14  C5  ZIN A   1      18.794  -1.214  11.716  0.00  0.00     0.009 C 
ATOM     15  C7  ZIN A   1      19.858  -0.717  10.735  0.00  0.00     0.011 C 
BRANCH  14  16
ATOM     16  C8  ZIN A   1      19.369  -2.357  12.555  0.00  0.00     0.005 C 
BRANCH  16  17
ATOM     17  C9  ZIN A   1      20.009  -3.396  11.633  0.00  0.00    -0.004 C 
ATOM     18  C10 ZIN A   1      19.025  -4.541  11.394  0.00  0.00     0.005 C 
ENDBRANCH  16  17
ENDBRANCH  14  16
ENDBRANCH   1  14
TORSDOF 5
ENDMDL
MODEL 5
REMARK VINA RESULT:      -5.9      1.856      3.168
REMARK  5 active torsions:
REMARK  status: ('A' for Active; 'I' for Inactive)
REMARK    1  A    between atoms: C2_2  and  C3_3 
REMARK    2  A    between atoms: C3_3  and  C4_4 
REMARK    3  A    between atoms: C4_4  and  C5_5 
REMARK    4  A    between atoms: C5_5  and  C8_7 
REMARK    5  A    between atoms: C8_7  and  C9_8 
ROOT
ATOM      1  C4  ZIN A   1      18.332  -0.489  11.068  0.00  0.00     0.130 A 
ATOM      2  C11 ZIN A   1      17.285  -0.032  12.064  0.00  0.00     0.266 A 
ATOM      3  O12 ZIN A   1      16.116   0.052  11.754  0.00  0.00    -0.270 OA
ATOM      4  N13 ZIN A   1      17.702   0.278  13.311  0.00  0.00    -0.157 NA
ATOM      5  C14 ZIN A   1      18.988   0.190  13.669  0.00  0.00     0.351 A 
ATOM      6  O15 ZIN A   1      19.275   0.489  14.811  0.00  0.00    -0.244 OA
ATOM      7  N16 ZIN A   1      19.980  -0.201  12.862  0.00  0.00    -0.276 N 
ATOM      8  C17 ZIN A   1      19.760  -0.554  11.578  0.00  0.00     0.244 A 
ATOM      9  O18 ZIN A   1      20.669  -0.907  10.858  0.00  0.00    -0.272 OA
ATOM     10  H34 ZIN A   1      20.885  -0.235  13.210  0.00  0.00     0.173 HD
ENDROOT
BRANCH   1  11
ATOM     11  C3  ZIN A   1      17.941  -1.883  10.572  0.00  0.00     0.056 C 
BRANCH  11  12
ATOM     12  C2  ZIN A   1      17.891  -2.836  11.738  0.00  0.00    -0.035 C 
ATOM     13  C1  ZIN A   1      18.418  -4.031  11.631  0.00  0.00     0.007 C 
ENDBRANCH  11  12
ENDBRANCH   1  11
BRANCH   1  14
ATOM     14  C5  ZIN A   1      18.296   0.465   9.873  0.00  0.00     0.009 C 
ATOM     15  C7  ZIN A   1      17.346  -0.087   8.808  0.00  0.00     0.011 C 
BRANCH  14  16
ATOM     16  C8  ZIN A   1      17.805   1.839  10.331  0.00  0.00     0.005 C 
BRANCH  16  17
ATOM     17  C9  ZIN A   1      18.902   2.879  10.096  0.00  0.00    -0.004 C 
ATOM     18  C10 ZIN A   1      19.609   3.184  11.417  0.00  0.00     0.005 C 
ENDBRANCH  16  17
ENDBRANCH  14  16
ENDBRANCH   1  14
TORSDOF 5
ENDMDL
MODEL 6
REMARK VINA RESULT:      -5.9      2.533      4.235
REMARK  5 active torsions:
REMARK  status: ('A' for Active; 'I' for Inactive)
REMARK    1  A    between atoms: C2_2  and  C3_3 
REMARK    2  A    between atoms: C3_3  and  C4_4 
REMARK    3  A    between atoms: C4_4  and  C5_5 
REMARK    4  A    between atoms: C5_5  and  C8_7 
REMARK    5  A    between atoms: C8_7  and  C9_8 
ROOT
ATOM      1  C4  ZIN A   1      18.267   0.363  12.366  0.00  0.00     0.130 A 
ATOM      2  C11 ZIN A   1      17.295   0.119  11.228  0.00  0.00     0.266 A 
ATOM      3  O12 ZIN A   1      16.098   0.083  11.419  0.00  0.00    -0.270 OA
ATOM      4  N13 ZIN A   1      17.812  -0.057   9.993  0.00  0.00    -0.157 NA
ATOM      5  C14 ZIN A   1      19.129  -0.020   9.765  0.00  0.00     0.351 A 
ATOM      6  O15 ZIN A   1      19.507  -0.188   8.623  0.00  0.00    -0.244 OA
ATOM      7  N16 ZIN A   1      20.061   0.188  10.702  0.00  0.00    -0.276 N 
ATOM      8  C17 ZIN A   1      19.739   0.386  11.998  0.00  0.00     0.244 A 
ATOM      9  O18 ZIN A   1      20.594   0.573  12.837  0.00  0.00    -0.272 OA
ATOM     10  H34 ZIN A   1      20.995   0.198  10.443  0.00  0.00     0.173 HD
ENDROOT
BRANCH   1  11
ATOM     11  C3  ZIN A   1      17.917   1.705  13.011  0.00  0.00     0.056 C 
BRANCH  11  12
ATOM     12  C2  ZIN A   1      18.052   2.805  11.989  0.00  0.00    -0.035 C 
ATOM     13  C1  ZIN A   1      18.702   3.902  12.289  0.00  0.00     0.007 C 
ENDBRANCH  11  12
ENDBRANCH   1  11
BRANCH   1  14
ATOM     14  C5  ZIN A   1      18.055  -0.733  13.412  0.00  0.00     0.009 C 
ATOM     15  C7  ZIN A   1      18.795  -2.001  12.979  0.00  0.00     0.011 C 
BRANCH  14  16
ATOM     16  C8  ZIN A   1      18.597  -0.262  14.763  0.00  0.00     0.005 C 
BRANCH  16  17
ATOM     17  C9  ZIN A   1      18.338  -1.337  15.820  0.00  0.00    -0.004 C 
ATOM     18  C10 ZIN A   1      17.207  -0.882  16.744  0.00  0.00     0.005 C 
ENDBRANCH  16  17
ENDBRANCH  14  16
ENDBRANCH   1  14
TORSDOF 5
ENDMDL
MODEL 7
REMARK VINA RESULT:      -5.9      1.827      3.384
REMARK  5 active torsions:
REMARK  status: ('A' for Active; 'I' for Inactive)
REMARK    1  A    between atoms: C2_2  and  C3_3 
REMARK    2  A    between atoms: C3_3  and  C4_4 
REMARK    3  A    between atoms: C4_4  and  C5_5 
REMARK    4  A    between atoms: C5_5  and  C8_7 
REMARK    5  A    between atoms: C8_7  and  C9_8 
ROOT
ATOM      1  C4  ZIN A   1      18.261  -0.204  10.568  0.00  0.00     0.130 A 
ATOM      2  C11 ZIN A   1      17.435   0.090  11.805  0.00  0.00     0.266 A 
ATOM      3  O12 ZIN A   1      16.224   0.133  11.757  0.00  0.00    -0.270 OA
ATOM      4  N13 ZIN A   1      18.097   0.301  12.962  0.00  0.00    -0.157 NA
ATOM      5  C14 ZIN A   1      19.432   0.255  13.032  0.00  0.00     0.351 A 
ATOM      6  O15 ZIN A   1      19.946   0.457  14.114  0.00  0.00    -0.244 OA
ATOM      7  N16 ZIN A   1      20.243   0.005  11.998  0.00  0.00    -0.276 N 
ATOM      8  C17 ZIN A   1      19.766  -0.233  10.758  0.00  0.00     0.244 A 
ATOM      9  O18 ZIN A   1      20.513  -0.458   9.830  0.00  0.00    -0.272 OA
ATOM     10  H34 ZIN A   1      21.201  -0.008  12.144  0.00  0.00     0.173 HD
ENDROOT
BRANCH   1  11
ATOM     11  C3  ZIN A   1      17.825  -1.563  10.016  0.00  0.00     0.056 C 
BRANCH  11  12
ATOM     12  C2  ZIN A   1      18.096  -2.632  11.043  0.00  0.00    -0.035 C 
ATOM     13  C1  ZIN A   1      17.298  -3.668  11.137  0.00  0.00     0.007 C 
ENDBRANCH  11  12
ENDBRANCH   1  11
BRANCH   1  14
ATOM     14  C5  ZIN A   1      17.933   0.859   9.518  0.00  0.00     0.009 C 
ATOM     15  C7  ZIN A   1      18.910   2.029   9.654  0.00  0.00     0.011 C 
BRANCH  14  16
ATOM     16  C8  ZIN A   1      18.059   0.251   8.119  0.00  0.00     0.005 C 
BRANCH  16  17
ATOM     17  C9  ZIN A   1      18.892   1.177   7.232  0.00  0.00    -0.004 C 
ATOM     18  C10 ZIN A   1      18.952   0.609   5.814  0.00  0.00     0.005 C 
ENDBRANCH  16  17
ENDBRANCH  14  16
ENDBRANCH   1  14
TORSDOF 5
ENDMDL
MODEL 8
REMARK VINA RESULT:      -5.7      1.949      2.910
REMARK  5 active torsions:
REMARK  status: ('A' for Active; 'I' for Inactive)
REMARK    1  A    between atoms: C2_2  and  C3_3 
REMARK    2  A    between atoms: C3_3  and  C4_4 
REMARK    3  A    between atoms: C4_4  and  C5_5 
REMARK    4  A    between atoms: C5_5  and  C8_7 
REMARK    5  A    between atoms: C8_7  and  C9_8 
ROOT
ATOM      1  C4  ZIN A   1      18.593   0.572  11.736  0.00  0.00     0.130 A 
ATOM      2  C11 ZIN A   1      17.384  -0.327  11.569  0.00  0.00     0.266 A 
ATOM      3  O12 ZIN A   1      16.266   0.132  11.471  0.00  0.00    -0.270 OA
ATOM      4  N13 ZIN A   1      17.597  -1.661  11.532  0.00  0.00    -0.157 NA
ATOM      5  C14 ZIN A   1      18.824  -2.184  11.638  0.00  0.00     0.351 A 
ATOM      6  O15 ZIN A   1      18.924  -3.394  11.595  0.00  0.00    -0.244 OA
ATOM      7  N16 ZIN A   1      19.947  -1.473  11.789  0.00  0.00    -0.276 N 
ATOM      8  C17 ZIN A   1      19.937  -0.125  11.846  0.00  0.00     0.244 A 
ATOM      9  O18 ZIN A   1      20.963   0.506  11.983  0.00  0.00    -0.272 OA
ATOM     10  H34 ZIN A   1      20.794  -1.940  11.857  0.00  0.00     0.173 HD
ENDROOT
BRANCH   1  11
ATOM     11  C3  ZIN A   1      18.647   1.524  10.540  0.00  0.00     0.056 C 
BRANCH  11  12
ATOM     12  C2  ZIN A   1      18.889   0.734   9.279  0.00  0.00    -0.035 C 
ATOM     13  C1  ZIN A   1      19.190   1.353   8.165  0.00  0.00     0.007 C 
ENDBRANCH  11  12
ENDBRANCH   1  11
BRANCH   1  14
ATOM     14  C5  ZIN A   1      18.387   1.411  12.998  0.00  0.00     0.009 C 
ATOM     15  C7  ZIN A   1      17.677   2.716  12.632  0.00  0.00     0.011 C 
BRANCH  14  16
ATOM     16  C8  ZIN A   1      17.532   0.629  13.998  0.00  0.00     0.005 C 
BRANCH  16  17
ATOM     17  C9  ZIN A   1      18.389   0.230  15.200  0.00  0.00    -0.004 C 
ATOM     18  C10 ZIN A   1      18.517  -1.293  15.253  0.00  0.00     0.005 C 
ENDBRANCH  16  17
ENDBRANCH  14  16
ENDBRANCH   1  14
TORSDOF 5
ENDMDL
MODEL 9
REMARK VINA RESULT:      -5.4      1.410      4.259
REMARK  5 active torsions:
REMARK  status: ('A' for Active; 'I' for Inactive)
REMARK    1  A    between atoms: C2_2  and  C3_3 
REMARK    2  A    between atoms: C3_3  and  C4_4 
REMARK    3  A    between atoms: C4_4  and  C5_5 
REMARK    4  A    between atoms: C5_5  and  C8_7 
REMARK    5  A    between atoms: C8_7  and  C9_8 
ROOT
ATOM      1  C4  ZIN A   1      18.085   0.210  10.116  0.00  0.00     0.130 A 
ATOM      2  C11 ZIN A   1      19.468  -0.406  10.211  0.00  0.00     0.266 A 
ATOM      3  O12 ZIN A   1      20.333  -0.136   9.406  0.00  0.00    -0.270 OA
ATOM      4  N13 ZIN A   1      19.701  -1.265  11.227  0.00  0.00    -0.157 NA
ATOM      5  C14 ZIN A   1      18.758  -1.572  12.124  0.00  0.00     0.351 A 
ATOM      6  O15 ZIN A   1      19.054  -2.353  13.005  0.00  0.00    -0.244 OA
ATOM      7  N16 ZIN A   1      17.513  -1.081  12.122  0.00  0.00    -0.276 N 
ATOM      8  C17 ZIN A   1      17.091  -0.206  11.185  0.00  0.00     0.244 A 
ATOM      9  O18 ZIN A   1      15.960   0.229  11.195  0.00  0.00    -0.272 OA
ATOM     10  H34 ZIN A   1      16.895  -1.362  12.815  0.00  0.00     0.173 HD
ENDROOT
BRANCH   1  11
ATOM     11  C3  ZIN A   1      18.236   1.731  10.173  0.00  0.00     0.056 C 
BRANCH  11  12
ATOM     12  C2  ZIN A   1      18.967   2.117  11.433  0.00  0.00    -0.035 C 
ATOM     13  C1  ZIN A   1      19.705   3.199  11.458  0.00  0.00     0.007 C 
ENDBRANCH  11  12
ENDBRANCH   1  11
BRANCH   1  14
ATOM     14  C5  ZIN A   1      17.498  -0.156   8.752  0.00  0.00     0.009 C 
ATOM     15  C7  ZIN A   1      18.162   0.695   7.667  0.00  0.00     0.011 C 
BRANCH  14  16
ATOM     16  C8  ZIN A   1      17.754  -1.637   8.466  0.00  0.00     0.005 C 
BRANCH  16  17
ATOM     17  C9  ZIN A   1      18.266  -1.800   7.034  0.00  0.00    -0.004 C 
ATOM     18  C10 ZIN A   1      19.484  -2.726   7.030  0.00  0.00     0.005 C 
ENDBRANCH  16  17
ENDBRANCH  14  16
ENDBRANCH   1  14
TORSDOF 5
ENDMDL
