MODEL 1
REMARK VINA RESULT:      -6.2      0.000      0.000
REMARK  5 active torsions:
REMARK  status: ('A' for Active; 'I' for Inactive)
REMARK    1  A    between atoms: C2_2  and  O4_3 
REMARK    2  A    between atoms: C2_2  and  C5_4 
REMARK    3  A    between atoms: C5_4  and  O7_5 
REMARK    4  A    between atoms: C5_4  and  C8_6 
REMARK    5  A    between atoms: C18_15  and  N19_16 
ROOT
ATOM      1  C8  <0> d   1      18.007  -1.299   6.199  0.00  0.00     0.131 C 
ATOM      2  C10 <0> d   1      18.120   0.219   6.405  0.00  0.00     0.149 C 
ATOM      3  N11 <0> d   1      19.276   0.483   7.272  0.00  0.00    -0.370 N 
ATOM      4  C12 <0> d   1      19.451  -0.283   8.414  0.00  0.00     0.175 A 
ATOM      5  C13 <0> d   1      18.776  -1.488   8.547  0.00  0.00     0.146 A 
ATOM      6  N14 <0> d   1      17.910  -1.933   7.524  0.00  0.00    -0.373 N 
ATOM      7  C15 <0> d   1      18.968  -2.249   9.705  0.00  0.00     0.313 A 
ATOM      8  O16 <0> d   1      18.390  -3.316   9.854  0.00  0.00    -0.263 OA
ATOM      9  N17 <0> d   1      19.805  -1.779  10.655  0.00  0.00    -0.020 NA
ATOM     10  C18 <0> d   1      20.442  -0.591  10.477  0.00  0.00     0.725 A 
ATOM     11  N20 <0> d   1      20.267   0.131   9.391  0.00  0.00    -0.043 NA
ATOM     12  H28 <0> d   1      19.908   1.185   7.048  0.00  0.00     0.161 HD
ATOM     13  H29 <0> d   1      17.267  -2.639   7.691  0.00  0.00     0.160 HD
ENDROOT
BRANCH   1  14
ATOM     14  C5  <0> d   1      19.249  -1.816   5.468  0.00  0.00     0.170 C 
BRANCH  14  15
ATOM     15  C2  <0> d   1      18.863  -3.006   4.588  0.00  0.00     0.145 C 
ATOM     16  C1  <0> d   1      17.420  -2.838   4.107  0.00  0.00     0.042 C 
BRANCH  15  17
ATOM     17  O4  <0> d   1      18.976  -4.214   5.343  0.00  0.00    -0.393 OA
ATOM     18  H24 <0> d   1      18.451  -4.947   4.994  0.00  0.00     0.210 HD
ENDBRANCH  15  17
ENDBRANCH  14  15
BRANCH  14  19
ATOM     19  O7  <0> d   1      19.787  -0.774   4.651  0.00  0.00    -0.391 OA
ATOM     20  H25 <0> d   1      19.141  -0.361   4.063  0.00  0.00     0.210 HD
ENDBRANCH  14  19
ENDBRANCH   1  14
BRANCH  10  21
ATOM     21  N19 <0> d   1      21.288  -0.132  11.456  0.00  0.00    -0.231 N 
ATOM     22  H30 <0> d   1      21.928  -0.735  11.865  0.00  0.00     0.174 HD
ATOM     23  H31 <0> d   1      21.244   0.795  11.738  0.00  0.00     0.174 HD
ENDBRANCH  10  21
TORSDOF 5
ENDMDL
MODEL 2
REMARK VINA RESULT:      -6.1      6.145      9.468
REMARK  5 active torsions:
REMARK  status: ('A' for Active; 'I' for Inactive)
REMARK    1  A    between atoms: C2_2  and  O4_3 
REMARK    2  A    between atoms: C2_2  and  C5_4 
REMARK    3  A    between atoms: C5_4  and  O7_5 
REMARK    4  A    between atoms: C5_4  and  C8_6 
REMARK    5  A    between atoms: C18_15  and  N19_16 
ROOT
ATOM      1  C8  <0> d   1      17.816   0.427  16.804  0.00  0.00     0.131 C 
ATOM      2  C10 <0> d   1      17.864  -1.108  16.831  0.00  0.00     0.149 C 
ATOM      3  N11 <0> d   1      18.876  -1.556  15.864  0.00  0.00    -0.370 N 
ATOM      4  C12 <0> d   1      18.901  -0.986  14.601  0.00  0.00     0.175 A 
ATOM      5  C13 <0> d   1      18.242   0.213  14.372  0.00  0.00     0.146 A 
ATOM      6  N14 <0> d   1      17.543   0.851  15.421  0.00  0.00    -0.373 N 
ATOM      7  C15 <0> d   1      18.281   0.776  13.092  0.00  0.00     0.313 A 
ATOM      8  O16 <0> d   1      17.711   1.832  12.856  0.00  0.00    -0.263 OA
ATOM      9  N17 <0> d   1      18.960   0.127  12.122  0.00  0.00    -0.020 NA
ATOM     10  C18 <0> d   1      19.590  -1.048  12.397  0.00  0.00     0.725 A 
ATOM     11  N20 <0> d   1      19.557  -1.583  13.599  0.00  0.00    -0.043 NA
ATOM     12  H28 <0> d   1      19.518  -2.242  16.107  0.00  0.00     0.161 HD
ATOM     13  H29 <0> d   1      16.898   1.551  15.234  0.00  0.00     0.160 HD
ENDROOT
BRANCH   1  14
ATOM     14  C5  <0> d   1      19.162   0.994  17.262  0.00  0.00     0.170 C 
BRANCH  14  15
ATOM     15  C2  <0> d   1      18.955   2.398  17.834  0.00  0.00     0.145 C 
ATOM     16  C1  <0> d   1      19.588   3.428  16.896  0.00  0.00     0.042 C 
BRANCH  15  17
ATOM     17  O4  <0> d   1      19.570   2.484  19.121  0.00  0.00    -0.393 OA
ATOM     18  H24 <0> d   1      20.286   1.849  19.258  0.00  0.00     0.210 HD
ENDBRANCH  15  17
ENDBRANCH  14  15
BRANCH  14  19
ATOM     19  O7  <0> d   1      19.717   0.146  18.270  0.00  0.00    -0.391 OA
ATOM     20  H25 <0> d   1      19.440  -0.778  18.203  0.00  0.00     0.210 HD
ENDBRANCH  14  19
ENDBRANCH   1  14
BRANCH  10  21
ATOM     21  N19 <0> d   1      20.274  -1.691  11.397  0.00  0.00    -0.231 N 
ATOM     22  H30 <0> d   1      19.787  -2.169  10.707  0.00  0.00     0.174 HD
ATOM     23  H31 <0> d   1      21.243  -1.669  11.381  0.00  0.00     0.174 HD
ENDBRANCH  10  21
TORSDOF 5
ENDMDL
MODEL 3
REMARK VINA RESULT:      -6.0      5.894      8.122
REMARK  5 active torsions:
REMARK  status: ('A' for Active; 'I' for Inactive)
REMARK    1  A    between atoms: C2_2  and  O4_3 
REMARK    2  A    between atoms: C2_2  and  C5_4 
REMARK    3  A    between atoms: C5_4  and  O7_5 
REMARK    4  A    between atoms: C5_4  and  C8_6 
REMARK    5  A    between atoms: C18_15  and  N19_16 
ROOT
ATOM      1  C8  <0> d   1      19.237   1.239  14.684  0.00  0.00     0.131 C 
ATOM      2  C10 <0> d   1      18.859   2.556  15.378  0.00  0.00     0.149 C 
ATOM      3  N11 <0> d   1      17.828   3.224  14.572  0.00  0.00    -0.370 N 
ATOM      4  C12 <0> d   1      17.994   3.305  13.198  0.00  0.00     0.175 A 
ATOM      5  C13 <0> d   1      18.908   2.477  12.563  0.00  0.00     0.146 A 
ATOM      6  N14 <0> d   1      19.670   1.554  13.313  0.00  0.00    -0.373 N 
ATOM      7  C15 <0> d   1      19.060   2.571  11.175  0.00  0.00     0.313 A 
ATOM      8  O16 <0> d   1      19.855   1.856  10.584  0.00  0.00    -0.263 OA
ATOM      9  N17 <0> d   1      18.310   3.471  10.504  0.00  0.00    -0.020 NA
ATOM     10  C18 <0> d   1      17.428   4.263  11.173  0.00  0.00     0.725 A 
ATOM     11  N20 <0> d   1      17.280   4.179  12.478  0.00  0.00    -0.043 NA
ATOM     12  H28 <0> d   1      17.041   3.602  14.996  0.00  0.00     0.161 HD
ATOM     13  H29 <0> d   1      20.459   1.137  12.933  0.00  0.00     0.160 HD
ENDROOT
BRANCH   1  14
ATOM     14  C5  <0> d   1      18.022   0.309  14.642  0.00  0.00     0.170 C 
BRANCH  14  15
ATOM     15  C2  <0> d   1      18.484  -1.140  14.811  0.00  0.00     0.145 C 
ATOM     16  C1  <0> d   1      18.467  -1.511  16.296  0.00  0.00     0.042 C 
BRANCH  15  17
ATOM     17  O4  <0> d   1      19.811  -1.280  14.300  0.00  0.00    -0.393 OA
ATOM     18  H24 <0> d   1      20.128  -2.193  14.272  0.00  0.00     0.210 HD
ENDBRANCH  15  17
ENDBRANCH  14  15
BRANCH  14  19
ATOM     19  O7  <0> d   1      17.126   0.650  15.702  0.00  0.00    -0.391 OA
ATOM     20  H25 <0> d   1      16.209   0.393  15.539  0.00  0.00     0.210 HD
ENDBRANCH  14  19
ENDBRANCH   1  14
BRANCH  10  21
ATOM     21  N19 <0> d   1      16.677   5.171  10.471  0.00  0.00    -0.231 N 
ATOM     22  H30 <0> d   1      15.738   5.290  10.684  0.00  0.00     0.174 HD
ATOM     23  H31 <0> d   1      17.084   5.692   9.762  0.00  0.00     0.174 HD
ENDBRANCH  10  21
TORSDOF 5
ENDMDL
MODEL 4
REMARK VINA RESULT:      -6.0      5.434      7.273
REMARK  5 active torsions:
REMARK  status: ('A' for Active; 'I' for Inactive)
REMARK    1  A    between atoms: C2_2  and  O4_3 
REMARK    2  A    between atoms: C2_2  and  C5_4 
REMARK    3  A    between atoms: C5_4  and  O7_5 
REMARK    4  A    between atoms: C5_4  and  C8_6 
REMARK    5  A    between atoms: C18_15  and  N19_16 
ROOT
ATOM      1  C8  <0> d   1      18.700   1.096  12.545  0.00  0.00     0.131 C 
ATOM      2  C10 <0> d   1      18.695   2.615  12.771  0.00  0.00     0.149 C 
ATOM      3  N11 <0> d   1      19.336   2.892  14.064  0.00  0.00    -0.370 N 
ATOM      4  C12 <0> d   1      18.986   2.129  15.167  0.00  0.00     0.175 A 
ATOM      5  C13 <0> d   1      18.334   0.917  14.989  0.00  0.00     0.146 A 
ATOM      6  N14 <0> d   1      18.023   0.462  13.688  0.00  0.00    -0.373 N 
ATOM      7  C15 <0> d   1      17.991   0.159  16.114  0.00  0.00     0.313 A 
ATOM      8  O16 <0> d   1      17.417  -0.914  15.993  0.00  0.00    -0.263 OA
ATOM      9  N17 <0> d   1      18.308   0.638  17.336  0.00  0.00    -0.020 NA
ATOM     10  C18 <0> d   1      18.947   1.833  17.457  0.00  0.00     0.725 A 
ATOM     11  N20 <0> d   1      19.272   2.552  16.404  0.00  0.00    -0.043 NA
ATOM     12  H28 <0> d   1      19.995   3.600  14.144  0.00  0.00     0.161 HD
ATOM     13  H29 <0> d   1      17.380  -0.251  13.552  0.00  0.00     0.160 HD
ENDROOT
BRANCH   1  14
ATOM     14  C5  <0> d   1      20.142   0.591  12.452  0.00  0.00     0.170 C 
BRANCH  14  15
ATOM     15  C2  <0> d   1      20.247  -0.449  11.336  0.00  0.00     0.145 C 
ATOM     16  C1  <0> d   1      19.717  -1.793  11.840  0.00  0.00     0.042 C 
BRANCH  15  17
ATOM     17  O4  <0> d   1      21.614  -0.593  10.945  0.00  0.00    -0.393 OA
ATOM     18  H24 <0> d   1      22.246  -0.444  11.661  0.00  0.00     0.210 HD
ENDBRANCH  15  17
ENDBRANCH  14  15
BRANCH  14  19
ATOM     19  O7  <0> d   1      21.012   1.688  12.165  0.00  0.00    -0.391 OA
ATOM     20  H25 <0> d   1      21.926   1.549  12.445  0.00  0.00     0.210 HD
ENDBRANCH  14  19
ENDBRANCH   1  14
BRANCH  10  21
ATOM     21  N19 <0> d   1      19.258   2.302  18.709  0.00  0.00    -0.231 N 
ATOM     22  H30 <0> d   1      19.055   3.220  18.947  0.00  0.00     0.174 HD
ATOM     23  H31 <0> d   1      19.682   1.716  19.354  0.00  0.00     0.174 HD
ENDBRANCH  10  21
TORSDOF 5
ENDMDL
MODEL 5
REMARK VINA RESULT:      -5.8      3.207      4.674
REMARK  5 active torsions:
REMARK  status: ('A' for Active; 'I' for Inactive)
REMARK    1  A    between atoms: C2_2  and  O4_3 
REMARK    2  A    between atoms: C2_2  and  C5_4 
REMARK    3  A    between atoms: C5_4  and  O7_5 
REMARK    4  A    between atoms: C5_4  and  C8_6 
REMARK    5  A    between atoms: C18_15  and  N19_16 
ROOT
ATOM      1  C8  <0> d   1      19.141  -3.899  10.256  0.00  0.00     0.131 C 
ATOM      2  C10 <0> d   1      20.112  -3.904  11.446  0.00  0.00     0.149 C 
ATOM      3  N11 <0> d   1      19.909  -2.668  12.214  0.00  0.00    -0.370 N 
ATOM      4  C12 <0> d   1      19.810  -1.463  11.536  0.00  0.00     0.175 A 
ATOM      5  C13 <0> d   1      19.545  -1.456  10.174  0.00  0.00     0.146 A 
ATOM      6  N14 <0> d   1      19.380  -2.674   9.477  0.00  0.00    -0.373 N 
ATOM      7  C15 <0> d   1      19.445  -0.230   9.508  0.00  0.00     0.313 A 
ATOM      8  O16 <0> d   1      19.211  -0.189   8.308  0.00  0.00    -0.263 OA
ATOM      9  N17 <0> d   1      19.613   0.906  10.218  0.00  0.00    -0.020 NA
ATOM     10  C18 <0> d   1      19.872   0.847  11.552  0.00  0.00     0.725 A 
ATOM     11  N20 <0> d   1      19.968  -0.303  12.185  0.00  0.00    -0.043 NA
ATOM     12  H28 <0> d   1      19.845  -2.695  13.182  0.00  0.00     0.161 HD
ATOM     13  H29 <0> d   1      19.423  -2.701   8.509  0.00  0.00     0.160 HD
ENDROOT
BRANCH   1  14
ATOM     14  C5  <0> d   1      17.698  -3.915  10.767  0.00  0.00     0.170 C 
BRANCH  14  15
ATOM     15  C2  <0> d   1      16.832  -4.749   9.820  0.00  0.00     0.145 C 
ATOM     16  C1  <0> d   1      17.246  -6.219   9.913  0.00  0.00     0.042 C 
BRANCH  15  17
ATOM     17  O4  <0> d   1      17.010  -4.287   8.479  0.00  0.00    -0.393 OA
ATOM     18  H24 <0> d   1      17.815  -4.613   8.055  0.00  0.00     0.210 HD
ENDBRANCH  15  17
ENDBRANCH  14  15
BRANCH  14  19
ATOM     19  O7  <0> d   1      17.663  -4.490  12.075  0.00  0.00    -0.391 OA
ATOM     20  H25 <0> d   1      17.426  -5.427  12.087  0.00  0.00     0.210 HD
ENDBRANCH  14  19
ENDBRANCH   1  14
BRANCH  10  21
ATOM     21  N19 <0> d   1      20.040   2.013  12.254  0.00  0.00    -0.231 N 
ATOM     22  H30 <0> d   1      19.580   2.819  11.972  0.00  0.00     0.174 HD
ATOM     23  H31 <0> d   1      20.621   2.032  13.031  0.00  0.00     0.174 HD
ENDBRANCH  10  21
TORSDOF 5
ENDMDL
MODEL 6
REMARK VINA RESULT:      -5.8      4.664      7.218
REMARK  5 active torsions:
REMARK  status: ('A' for Active; 'I' for Inactive)
REMARK    1  A    between atoms: C2_2  and  O4_3 
REMARK    2  A    between atoms: C2_2  and  C5_4 
REMARK    3  A    between atoms: C5_4  and  O7_5 
REMARK    4  A    between atoms: C5_4  and  C8_6 
REMARK    5  A    between atoms: C18_15  and  N19_16 
ROOT
ATOM      1  C8  <0> d   1      17.810  -0.640  13.556  0.00  0.00     0.131 C 
ATOM      2  C10 <0> d   1      18.071  -1.790  12.572  0.00  0.00     0.149 C 
ATOM      3  N11 <0> d   1      19.010  -1.315  11.545  0.00  0.00    -0.370 N 
ATOM      4  C12 <0> d   1      18.802  -0.074  10.964  0.00  0.00     0.175 A 
ATOM      5  C13 <0> d   1      17.960   0.843  11.577  0.00  0.00     0.146 A 
ATOM      6  N14 <0> d   1      17.313   0.514  12.788  0.00  0.00    -0.373 N 
ATOM      7  C15 <0> d   1      17.765   2.091  10.977  0.00  0.00     0.313 A 
ATOM      8  O16 <0> d   1      17.031   2.923  11.491  0.00  0.00    -0.263 OA
ATOM      9  N17 <0> d   1      18.404   2.358   9.817  0.00  0.00    -0.020 NA
ATOM     10  C18 <0> d   1      19.218   1.424   9.255  0.00  0.00     0.725 A 
ATOM     11  N20 <0> d   1      19.407   0.247   9.814  0.00  0.00    -0.043 NA
ATOM     12  H28 <0> d   1      19.765  -1.863  11.279  0.00  0.00     0.161 HD
ATOM     13  H29 <0> d   1      16.561   1.036  13.107  0.00  0.00     0.160 HD
ENDROOT
BRANCH   1  14
ATOM     14  C5  <0> d   1      19.110  -0.266  14.271  0.00  0.00     0.170 C 
BRANCH  14  15
ATOM     15  C2  <0> d   1      18.806   0.094  15.726  0.00  0.00     0.145 C 
ATOM     16  C1  <0> d   1      18.534  -1.184  16.521  0.00  0.00     0.042 C 
BRANCH  15  17
ATOM     17  O4  <0> d   1      17.655   0.941  15.778  0.00  0.00    -0.393 OA
ATOM     18  H24 <0> d   1      17.652   1.555  16.524  0.00  0.00     0.210 HD
ENDBRANCH  15  17
ENDBRANCH  14  15
BRANCH  14  19
ATOM     19  O7  <0> d   1      20.010  -1.375  14.232  0.00  0.00    -0.391 OA
ATOM     20  H25 <0> d   1      20.502  -1.511  15.053  0.00  0.00     0.210 HD
ENDBRANCH  14  19
ENDBRANCH   1  14
BRANCH  10  21
ATOM     21  N19 <0> d   1      19.857   1.715   8.076  0.00  0.00    -0.231 N 
ATOM     22  H30 <0> d   1      19.548   1.318   7.247  0.00  0.00     0.174 HD
ATOM     23  H31 <0> d   1      20.619   2.316   8.073  0.00  0.00     0.174 HD
ENDBRANCH  10  21
TORSDOF 5
ENDMDL
MODEL 7
REMARK VINA RESULT:      -5.8      4.314      6.106
REMARK  5 active torsions:
REMARK  status: ('A' for Active; 'I' for Inactive)
REMARK    1  A    between atoms: C2_2  and  O4_3 
REMARK    2  A    between atoms: C2_2  and  C5_4 
REMARK    3  A    between atoms: C5_4  and  O7_5 
REMARK    4  A    between atoms: C5_4  and  C8_6 
REMARK    5  A    between atoms: C18_15  and  N19_16 
ROOT
ATOM      1  C8  <0> d   1      20.128  -0.313  12.112  0.00  0.00     0.131 C 
ATOM      2  C10 <0> d   1      20.016   0.530  13.391  0.00  0.00     0.149 C 
ATOM      3  N11 <0> d   1      18.826   1.385  13.279  0.00  0.00    -0.370 N 
ATOM      4  C12 <0> d   1      18.598   2.071  12.096  0.00  0.00     0.175 A 
ATOM      5  C13 <0> d   1      19.259   1.689  10.937  0.00  0.00     0.146 A 
ATOM      6  N14 <0> d   1      20.165   0.605  10.962  0.00  0.00    -0.373 N 
ATOM      7  C15 <0> d   1      19.014   2.391   9.753  0.00  0.00     0.313 A 
ATOM      8  O16 <0> d   1      19.579   2.080   8.714  0.00  0.00    -0.263 OA
ATOM      9  N17 <0> d   1      18.141   3.421   9.782  0.00  0.00    -0.020 NA
ATOM     10  C18 <0> d   1      17.519   3.757  10.944  0.00  0.00     0.725 A 
ATOM     11  N20 <0> d   1      17.745   3.102  12.062  0.00  0.00    -0.043 NA
ATOM     12  H28 <0> d   1      18.208   1.468  14.022  0.00  0.00     0.161 HD
ATOM     13  H29 <0> d   1      20.796   0.470  10.238  0.00  0.00     0.160 HD
ENDROOT
BRANCH   1  14
ATOM     14  C5  <0> d   1      18.915  -1.239  11.996  0.00  0.00     0.170 C 
BRANCH  14  15
ATOM     15  C2  <0> d   1      19.290  -2.467  11.163  0.00  0.00     0.145 C 
ATOM     16  C1  <0> d   1      18.634  -3.711  11.766  0.00  0.00     0.042 C 
BRANCH  15  17
ATOM     17  O4  <0> d   1      20.710  -2.629  11.164  0.00  0.00    -0.393 OA
ATOM     18  H24 <0> d   1      21.000  -3.551  11.149  0.00  0.00     0.210 HD
ENDBRANCH  15  17
ENDBRANCH  14  15
BRANCH  14  19
ATOM     19  O7  <0> d   1      18.507  -1.654  13.301  0.00  0.00    -0.391 OA
ATOM     20  H25 <0> d   1      19.099  -1.365  14.009  0.00  0.00     0.210 HD
ENDBRANCH  14  19
ENDBRANCH   1  14
BRANCH  10  21
ATOM     21  N19 <0> d   1      16.636   4.808  10.951  0.00  0.00    -0.231 N 
ATOM     22  H30 <0> d   1      16.913   5.671  11.296  0.00  0.00     0.174 HD
ATOM     23  H31 <0> d   1      15.735   4.686  10.612  0.00  0.00     0.174 HD
ENDBRANCH  10  21
TORSDOF 5
ENDMDL
MODEL 8
REMARK VINA RESULT:      -5.7      4.793      6.760
REMARK  5 active torsions:
REMARK  status: ('A' for Active; 'I' for Inactive)
REMARK    1  A    between atoms: C2_2  and  O4_3 
REMARK    2  A    between atoms: C2_2  and  C5_4 
REMARK    3  A    between atoms: C5_4  and  O7_5 
REMARK    4  A    between atoms: C5_4  and  C8_6 
REMARK    5  A    between atoms: C18_15  and  N19_16 
ROOT
ATOM      1  C8  <0> d   1      19.758   1.316  11.581  0.00  0.00     0.131 C 
ATOM      2  C10 <0> d   1      20.637   0.094  11.883  0.00  0.00     0.149 C 
ATOM      3  N11 <0> d   1      20.002  -0.677  12.962  0.00  0.00    -0.370 N 
ATOM      4  C12 <0> d   1      19.518  -0.006  14.074  0.00  0.00     0.175 A 
ATOM      5  C13 <0> d   1      19.307   1.364  14.017  0.00  0.00     0.146 A 
ATOM      6  N14 <0> d   1      19.588   2.076  12.830  0.00  0.00    -0.373 N 
ATOM      7  C15 <0> d   1      18.816   2.023  15.149  0.00  0.00     0.313 A 
ATOM      8  O16 <0> d   1      18.618   3.229  15.132  0.00  0.00    -0.263 OA
ATOM      9  N17 <0> d   1      18.565   1.298  16.260  0.00  0.00    -0.020 NA
ATOM     10  C18 <0> d   1      18.790  -0.044  16.266  0.00  0.00     0.725 A 
ATOM     11  N20 <0> d   1      19.252  -0.671  15.206  0.00  0.00    -0.043 NA
ATOM     12  H28 <0> d   1      19.922  -1.642  12.896  0.00  0.00     0.161 HD
ATOM     13  H29 <0> d   1      19.667   3.043  12.838  0.00  0.00     0.160 HD
ENDROOT
BRANCH   1  14
ATOM     14  C5  <0> d   1      18.392   0.857  11.065  0.00  0.00     0.170 C 
BRANCH  14  15
ATOM     15  C2  <0> d   1      17.794   1.944  10.170  0.00  0.00     0.145 C 
ATOM     16  C1  <0> d   1      18.877   2.490   9.238  0.00  0.00     0.042 C 
BRANCH  15  17
ATOM     17  O4  <0> d   1      17.285   3.004  10.982  0.00  0.00    -0.393 OA
ATOM     18  H24 <0> d   1      17.830   3.202  11.756  0.00  0.00     0.210 HD
ENDBRANCH  15  17
ENDBRANCH  14  15
BRANCH  14  19
ATOM     19  O7  <0> d   1      18.549  -0.348  10.312  0.00  0.00    -0.391 OA
ATOM     20  H25 <0> d   1      19.071  -0.242   9.505  0.00  0.00     0.210 HD
ENDBRANCH  14  19
ENDBRANCH   1  14
BRANCH  10  21
ATOM     21  N19 <0> d   1      18.529  -0.762  17.406  0.00  0.00    -0.231 N 
ATOM     22  H30 <0> d   1      19.074  -0.629  18.198  0.00  0.00     0.174 HD
ATOM     23  H31 <0> d   1      17.801  -1.402  17.420  0.00  0.00     0.174 HD
ENDBRANCH  10  21
TORSDOF 5
ENDMDL
MODEL 9
REMARK VINA RESULT:      -5.7      3.455      5.796
REMARK  5 active torsions:
REMARK  status: ('A' for Active; 'I' for Inactive)
REMARK    1  A    between atoms: C2_2  and  O4_3 
REMARK    2  A    between atoms: C2_2  and  C5_4 
REMARK    3  A    between atoms: C5_4  and  O7_5 
REMARK    4  A    between atoms: C5_4  and  C8_6 
REMARK    5  A    between atoms: C18_15  and  N19_16 
ROOT
ATOM      1  C8  <0> d   1      20.342  -0.500  10.908  0.00  0.00     0.131 C 
ATOM      2  C10 <0> d   1      20.102  -0.175   9.426  0.00  0.00     0.149 C 
ATOM      3  N11 <0> d   1      18.871  -0.852   8.997  0.00  0.00    -0.370 N 
ATOM      4  C12 <0> d   1      18.673  -2.178   9.352  0.00  0.00     0.175 A 
ATOM      5  C13 <0> d   1      19.424  -2.739  10.374  0.00  0.00     0.146 A 
ATOM      6  N14 <0> d   1      20.392  -1.964  11.051  0.00  0.00    -0.373 N 
ATOM      7  C15 <0> d   1      19.208  -4.077  10.720  0.00  0.00     0.313 A 
ATOM      8  O16 <0> d   1      19.852  -4.602  11.617  0.00  0.00    -0.263 OA
ATOM      9  N17 <0> d   1      18.273  -4.776  10.041  0.00  0.00    -0.020 NA
ATOM     10  C18 <0> d   1      17.563  -4.181   9.045  0.00  0.00     0.725 A 
ATOM     11  N20 <0> d   1      17.761  -2.923   8.714  0.00  0.00    -0.043 NA
ATOM     12  H28 <0> d   1      18.206  -0.378   8.473  0.00  0.00     0.161 HD
ATOM     13  H29 <0> d   1      21.072  -2.387  11.598  0.00  0.00     0.160 HD
ENDROOT
BRANCH   1  14
ATOM     14  C5  <0> d   1      19.197   0.064  11.753  0.00  0.00     0.170 C 
BRANCH  14  15
ATOM     15  C2  <0> d   1      19.675   0.260  13.193  0.00  0.00     0.145 C 
ATOM     16  C1  <0> d   1      19.085   1.555  13.754  0.00  0.00     0.042 C 
BRANCH  15  17
ATOM     17  O4  <0> d   1      21.102   0.338  13.215  0.00  0.00    -0.393 OA
ATOM     18  H24 <0> d   1      21.534  -0.451  13.571  0.00  0.00     0.210 HD
ENDBRANCH  15  17
ENDBRANCH  14  15
BRANCH  14  19
ATOM     19  O7  <0> d   1      18.783   1.321  11.213  0.00  0.00    -0.391 OA
ATOM     20  H25 <0> d   1      19.299   1.610  10.449  0.00  0.00     0.210 HD
ENDBRANCH  14  19
ENDBRANCH   1  14
BRANCH  10  21
ATOM     21  N19 <0> d   1      16.618  -4.910   8.367  0.00  0.00    -0.231 N 
ATOM     22  H30 <0> d   1      16.867  -5.741   7.933  0.00  0.00     0.174 HD
ATOM     23  H31 <0> d   1      15.703  -4.593   8.321  0.00  0.00     0.174 HD
ENDBRANCH  10  21
TORSDOF 5
ENDMDL
