MODEL 1
REMARK VINA RESULT:      -6.8      0.000      0.000
REMARK  15 active torsions:
REMARK  status: ('A' for Active; 'I' for Inactive)
REMARK    1  A    between atoms: C2_2  and  C3_3 
REMARK    2  A    between atoms: C3_3  and  C4_4 
REMARK    3  A    between atoms: C4_4  and  C5_5 
REMARK    4  A    between atoms: C5_5  and  C6_6 
REMARK    5  A    between atoms: C6_6  and  C7_7 
REMARK    6  A    between atoms: C7_7  and  N8_8 
REMARK    7  A    between atoms: N8_8  and  C10_10 
REMARK    8  A    between atoms: N8_8  and  C12_12 
REMARK    9  A    between atoms: C12_12  and  C13_13 
REMARK   10  A    between atoms: C13_13  and  C14_14 
REMARK   11  A    between atoms: C14_14  and  C15_15 
REMARK   12  A    between atoms: C15_15  and  O17_16 
REMARK   13  A    between atoms: C15_15  and  C18_17 
REMARK   14  A    between atoms: C21_20  and  N22_21 
REMARK   15  A    between atoms: N22_21  and  S23_22 
ROOT
ATOM      1  C15 ZIN A   1      18.683  -1.955  12.624  0.00  0.00     0.151 C 
ENDROOT
BRANCH   1   2
ATOM      2  C14 ZIN A   1      18.411  -1.177  11.335  0.00  0.00     0.038 C 
BRANCH   2   3
ATOM      3  C13 ZIN A   1      19.723  -0.976  10.575  0.00  0.00     0.030 C 
BRANCH   3   4
ATOM      4  C12 ZIN A   1      19.431  -0.849   9.078  0.00  0.00     0.235 C 
BRANCH   4   5
ATOM      5  N8  ZIN A   1      18.398   0.174   8.866  0.00  0.00    -0.071 N 
ATOM      6  H9  ZIN A   1      17.930   0.365   9.739  0.00  0.00     0.279 HD
BRANCH   5   7
ATOM      7  C7  ZIN A   1      19.023   1.406   8.366  0.00  0.00     0.234 C 
BRANCH   7   8
ATOM      8  C6  ZIN A   1      19.082   2.440   9.492  0.00  0.00     0.028 C 
BRANCH   8   9
ATOM      9  C5  ZIN A   1      17.814   2.339  10.343  0.00  0.00     0.002 C 
BRANCH   9  10
ATOM     10  C4  ZIN A   1      17.716   3.562  11.258  0.00  0.00     0.000 C 
BRANCH  10  11
ATOM     11  C3  ZIN A   1      19.074   3.817  11.915  0.00  0.00    -0.000 C 
BRANCH  11  12
ATOM     12  C2  ZIN A   1      18.863   4.268  13.362  0.00  0.00    -0.005 C 
ATOM     13  C1  ZIN A   1      19.859   5.379  13.700  0.00  0.00     0.005 C 
ENDBRANCH  11  12
ENDBRANCH  10  11
ENDBRANCH   9  10
ENDBRANCH   8   9
ENDBRANCH   7   8
ENDBRANCH   5   7
BRANCH   5  14
ATOM     14  C10 ZIN A   1      17.422  -0.313   7.882  0.00  0.00     0.230 C 
ATOM     15  C11 ZIN A   1      17.810   0.183   6.488  0.00  0.00     0.034 C 
ENDBRANCH   5  14
ENDBRANCH   4   5
ENDBRANCH   3   4
ENDBRANCH   2   3
ENDBRANCH   1   2
BRANCH   1  16
ATOM     16  O17 ZIN A   1      20.035  -2.418  12.625  0.00  0.00    -0.391 OA
ATOM     17  H55 ZIN A   1      20.298  -2.869  11.811  0.00  0.00     0.210 HD
ENDBRANCH   1  16
BRANCH   1  18
ATOM     18  C18 ZIN A   1      18.460  -1.055  13.811  0.00  0.00    -0.029 A 
ATOM     19  C28 ZIN A   1      18.866  -1.460  15.069  0.00  0.00     0.012 A 
ATOM     20  C27 ZIN A   1      18.668  -0.636  16.160  0.00  0.00     0.031 A 
ATOM     21  C21 ZIN A   1      18.049   0.596  15.993  0.00  0.00     0.042 A 
ATOM     22  C20 ZIN A   1      17.636   0.997  14.728  0.00  0.00     0.031 A 
ATOM     23  C19 ZIN A   1      17.843   0.170  13.642  0.00  0.00     0.012 A 
BRANCH  21  24
ATOM     24  N22 ZIN A   1      17.841   1.430  17.094  0.00  0.00    -0.285 N 
ATOM     25  H58 ZIN A   1      16.953   1.516  17.477  0.00  0.00     0.178 HD
BRANCH  24  26
ATOM     26  S23 ZIN A   1      19.108   2.274  17.745  0.00  0.00     0.227 S 
ATOM     27  C24 ZIN A   1      18.324   3.554  18.763  0.00  0.00     0.186 C 
ATOM     28  O25 ZIN A   1      19.776   1.324  18.565  0.00  0.00    -0.206 OA
ATOM     29  O26 ZIN A   1      19.755   2.857  16.623  0.00  0.00    -0.206 OA
ENDBRANCH  24  26
ENDBRANCH  21  24
ENDBRANCH   1  18
TORSDOF 15
ENDMDL
MODEL 2
REMARK VINA RESULT:      -6.7      3.833      8.481
REMARK  15 active torsions:
REMARK  status: ('A' for Active; 'I' for Inactive)
REMARK    1  A    between atoms: C2_2  and  C3_3 
REMARK    2  A    between atoms: C3_3  and  C4_4 
REMARK    3  A    between atoms: C4_4  and  C5_5 
REMARK    4  A    between atoms: C5_5  and  C6_6 
REMARK    5  A    between atoms: C6_6  and  C7_7 
REMARK    6  A    between atoms: C7_7  and  N8_8 
REMARK    7  A    between atoms: N8_8  and  C10_10 
REMARK    8  A    between atoms: N8_8  and  C12_12 
REMARK    9  A    between atoms: C12_12  and  C13_13 
REMARK   10  A    between atoms: C13_13  and  C14_14 
REMARK   11  A    between atoms: C14_14  and  C15_15 
REMARK   12  A    between atoms: C15_15  and  O17_16 
REMARK   13  A    between atoms: C15_15  and  C18_17 
REMARK   14  A    between atoms: C21_20  and  N22_21 
REMARK   15  A    between atoms: N22_21  and  S23_22 
ROOT
ATOM      1  C15 ZIN A   1      18.758   2.498  10.726  0.00  0.00     0.151 C 
ENDROOT
BRANCH   1   2
ATOM      2  C14 ZIN A   1      17.871   1.953  11.846  0.00  0.00     0.038 C 
BRANCH   2   3
ATOM      3  C13 ZIN A   1      18.745   1.535  13.030  0.00  0.00     0.030 C 
BRANCH   3   4
ATOM      4  C12 ZIN A   1      17.853   1.130  14.206  0.00  0.00     0.235 C 
BRANCH   4   5
ATOM      5  N8  ZIN A   1      17.867  -0.332  14.351  0.00  0.00    -0.071 N 
ATOM      6  H9  ZIN A   1      17.096  -0.728  13.834  0.00  0.00     0.279 HD
BRANCH   5   7
ATOM      7  C7  ZIN A   1      19.132  -0.864  13.827  0.00  0.00     0.234 C 
BRANCH   7   8
ATOM      8  C6  ZIN A   1      18.850  -2.098  12.968  0.00  0.00     0.028 C 
BRANCH   8   9
ATOM      9  C5  ZIN A   1      17.613  -1.844  12.103  0.00  0.00     0.002 C 
BRANCH   9  10
ATOM     10  C4  ZIN A   1      17.607  -2.818  10.923  0.00  0.00     0.000 C 
BRANCH  10  11
ATOM     11  C3  ZIN A   1      17.193  -4.208  11.412  0.00  0.00    -0.000 C 
BRANCH  11  12
ATOM     12  C2  ZIN A   1      17.974  -5.274  10.639  0.00  0.00    -0.005 C 
ATOM     13  C1  ZIN A   1      19.442  -4.857  10.539  0.00  0.00     0.005 C 
ENDBRANCH  11  12
ENDBRANCH  10  11
ENDBRANCH   9  10
ENDBRANCH   8   9
ENDBRANCH   7   8
ENDBRANCH   5   7
BRANCH   5  14
ATOM     14  C10 ZIN A   1      17.738  -0.684  15.771  0.00  0.00     0.230 C 
ATOM     15  C11 ZIN A   1      19.041  -1.322  16.259  0.00  0.00     0.034 C 
ENDBRANCH   5  14
ENDBRANCH   4   5
ENDBRANCH   3   4
ENDBRANCH   2   3
ENDBRANCH   1   2
BRANCH   1  16
ATOM     16  O17 ZIN A   1      20.129   2.409  11.117  0.00  0.00    -0.391 OA
ATOM     17  H55 ZIN A   1      20.364   1.572  11.541  0.00  0.00     0.210 HD
ENDBRANCH   1  16
BRANCH   1  18
ATOM     18  C18 ZIN A   1      18.540   1.689   9.473  0.00  0.00    -0.029 A 
ATOM     19  C28 ZIN A   1      19.240   1.999   8.322  0.00  0.00     0.012 A 
ATOM     20  C27 ZIN A   1      19.047   1.256   7.173  0.00  0.00     0.031 A 
ATOM     21  C21 ZIN A   1      18.140   0.205   7.173  0.00  0.00     0.042 A 
ATOM     22  C20 ZIN A   1      17.433  -0.100   8.330  0.00  0.00     0.031 A 
ATOM     23  C19 ZIN A   1      17.636   0.644   9.476  0.00  0.00     0.012 A 
BRANCH  21  24
ATOM     24  N22 ZIN A   1      17.936  -0.544   6.012  0.00  0.00    -0.285 N 
ATOM     25  H58 ZIN A   1      17.133  -0.414   5.484  0.00  0.00     0.178 HD
BRANCH  24  26
ATOM     26  S23 ZIN A   1      19.067  -1.657   5.535  0.00  0.00     0.227 S 
ATOM     27  C24 ZIN A   1      18.116  -2.913   4.639  0.00  0.00     0.186 C 
ATOM     28  O25 ZIN A   1      19.910  -0.939   4.644  0.00  0.00    -0.206 OA
ATOM     29  O26 ZIN A   1      19.572  -2.187   6.753  0.00  0.00    -0.206 OA
ENDBRANCH  24  26
ENDBRANCH  21  24
ENDBRANCH   1  18
TORSDOF 15
ENDMDL
MODEL 3
REMARK VINA RESULT:      -6.7      3.663      8.400
REMARK  15 active torsions:
REMARK  status: ('A' for Active; 'I' for Inactive)
REMARK    1  A    between atoms: C2_2  and  C3_3 
REMARK    2  A    between atoms: C3_3  and  C4_4 
REMARK    3  A    between atoms: C4_4  and  C5_5 
REMARK    4  A    between atoms: C5_5  and  C6_6 
REMARK    5  A    between atoms: C6_6  and  C7_7 
REMARK    6  A    between atoms: C7_7  and  N8_8 
REMARK    7  A    between atoms: N8_8  and  C10_10 
REMARK    8  A    between atoms: N8_8  and  C12_12 
REMARK    9  A    between atoms: C12_12  and  C13_13 
REMARK   10  A    between atoms: C13_13  and  C14_14 
REMARK   11  A    between atoms: C14_14  and  C15_15 
REMARK   12  A    between atoms: C15_15  and  O17_16 
REMARK   13  A    between atoms: C15_15  and  C18_17 
REMARK   14  A    between atoms: C21_20  and  N22_21 
REMARK   15  A    between atoms: N22_21  and  S23_22 
ROOT
ATOM      1  C15 ZIN A   1      18.773   2.670  10.454  0.00  0.00     0.151 C 
ENDROOT
BRANCH   1   2
ATOM      2  C14 ZIN A   1      17.782   2.404  11.589  0.00  0.00     0.038 C 
BRANCH   2   3
ATOM      3  C13 ZIN A   1      18.549   2.049  12.863  0.00  0.00     0.030 C 
BRANCH   3   4
ATOM      4  C12 ZIN A   1      18.155   3.016  13.982  0.00  0.00     0.235 C 
BRANCH   4   5
ATOM      5  N8  ZIN A   1      18.038   2.279  15.248  0.00  0.00    -0.071 N 
ATOM      6  H9  ZIN A   1      17.257   2.641  15.776  0.00  0.00     0.279 HD
BRANCH   5   7
ATOM      7  C7  ZIN A   1      17.822   0.854  14.967  0.00  0.00     0.234 C 
BRANCH   7   8
ATOM      8  C6  ZIN A   1      18.685   0.012  15.909  0.00  0.00     0.028 C 
BRANCH   8   9
ATOM      9  C5  ZIN A   1      19.077  -1.293  15.212  0.00  0.00     0.002 C 
BRANCH   9  10
ATOM     10  C4  ZIN A   1      18.353  -1.389  13.868  0.00  0.00     0.000 C 
BRANCH  10  11
ATOM     11  C3  ZIN A   1      19.369  -1.682  12.762  0.00  0.00    -0.000 C 
BRANCH  11  12
ATOM     12  C2  ZIN A   1      18.914  -2.905  11.962  0.00  0.00    -0.005 C 
ATOM     13  C1  ZIN A   1      17.494  -2.673  11.441  0.00  0.00     0.005 C 
ENDBRANCH  11  12
ENDBRANCH  10  11
ENDBRANCH   9  10
ENDBRANCH   8   9
ENDBRANCH   7   8
ENDBRANCH   5   7
BRANCH   5  14
ATOM     14  C10 ZIN A   1      19.274   2.443  16.026  0.00  0.00     0.230 C 
ATOM     15  C11 ZIN A   1      19.503   3.929  16.311  0.00  0.00     0.034 C 
ENDBRANCH   5  14
ENDBRANCH   4   5
ENDBRANCH   3   4
ENDBRANCH   2   3
ENDBRANCH   1   2
BRANCH   1  16
ATOM     16  O17 ZIN A   1      20.107   2.506  10.940  0.00  0.00    -0.391 OA
ATOM     17  H55 ZIN A   1      20.162   2.321  11.887  0.00  0.00     0.210 HD
ENDBRANCH   1  16
BRANCH   1  18
ATOM     18  C18 ZIN A   1      18.525   1.697   9.331  0.00  0.00    -0.029 A 
ATOM     19  C28 ZIN A   1      19.127   1.894   8.102  0.00  0.00     0.012 A 
ATOM     20  C27 ZIN A   1      18.907   1.002   7.071  0.00  0.00     0.031 A 
ATOM     21  C21 ZIN A   1      18.069  -0.089   7.267  0.00  0.00     0.042 A 
ATOM     22  C20 ZIN A   1      17.460  -0.280   8.502  0.00  0.00     0.031 A 
ATOM     23  C19 ZIN A   1      17.691   0.613   9.529  0.00  0.00     0.012 A 
BRANCH  21  24
ATOM     24  N22 ZIN A   1      17.838  -0.990   6.226  0.00  0.00    -0.285 N 
ATOM     25  H58 ZIN A   1      16.968  -1.023   5.797  0.00  0.00     0.178 HD
BRANCH  24  26
ATOM     26  S23 ZIN A   1      19.048  -2.004   5.724  0.00  0.00     0.227 S 
ATOM     27  C24 ZIN A   1      18.183  -3.362   4.890  0.00  0.00     0.186 C 
ATOM     28  O25 ZIN A   1      19.785  -1.231   4.786  0.00  0.00    -0.206 OA
ATOM     29  O26 ZIN A   1      19.646  -2.459   6.930  0.00  0.00    -0.206 OA
ENDBRANCH  24  26
ENDBRANCH  21  24
ENDBRANCH   1  18
TORSDOF 15
ENDMDL
MODEL 4
REMARK VINA RESULT:      -6.6      1.004      1.398
REMARK  15 active torsions:
REMARK  status: ('A' for Active; 'I' for Inactive)
REMARK    1  A    between atoms: C2_2  and  C3_3 
REMARK    2  A    between atoms: C3_3  and  C4_4 
REMARK    3  A    between atoms: C4_4  and  C5_5 
REMARK    4  A    between atoms: C5_5  and  C6_6 
REMARK    5  A    between atoms: C6_6  and  C7_7 
REMARK    6  A    between atoms: C7_7  and  N8_8 
REMARK    7  A    between atoms: N8_8  and  C10_10 
REMARK    8  A    between atoms: N8_8  and  C12_12 
REMARK    9  A    between atoms: C12_12  and  C13_13 
REMARK   10  A    between atoms: C13_13  and  C14_14 
REMARK   11  A    between atoms: C14_14  and  C15_15 
REMARK   12  A    between atoms: C15_15  and  O17_16 
REMARK   13  A    between atoms: C15_15  and  C18_17 
REMARK   14  A    between atoms: C21_20  and  N22_21 
REMARK   15  A    between atoms: N22_21  and  S23_22 
ROOT
ATOM      1  C15 ZIN A   1      18.914  -2.054  12.691  0.00  0.00     0.151 C 
ENDROOT
BRANCH   1   2
ATOM      2  C14 ZIN A   1      17.888  -1.843  11.577  0.00  0.00     0.038 C 
BRANCH   2   3
ATOM      3  C13 ZIN A   1      18.614  -1.509  10.272  0.00  0.00     0.030 C 
BRANCH   3   4
ATOM      4  C12 ZIN A   1      17.928  -2.227   9.108  0.00  0.00     0.235 C 
BRANCH   4   5
ATOM      5  N8  ZIN A   1      17.764  -1.294   7.985  0.00  0.00    -0.071 N 
ATOM      6  H9  ZIN A   1      16.976  -1.581   7.423  0.00  0.00     0.279 HD
BRANCH   5   7
ATOM      7  C7  ZIN A   1      17.530   0.060   8.503  0.00  0.00     0.234 C 
BRANCH   7   8
ATOM      8  C6  ZIN A   1      18.589   1.011   7.940  0.00  0.00     0.028 C 
BRANCH   8   9
ATOM      9  C5  ZIN A   1      18.959   2.047   9.003  0.00  0.00     0.002 C 
BRANCH   9  10
ATOM     10  C4  ZIN A   1      17.894   2.054  10.102  0.00  0.00     0.000 C 
BRANCH  10  11
ATOM     11  C3  ZIN A   1      18.042   3.321  10.947  0.00  0.00    -0.000 C 
BRANCH  11  12
ATOM     12  C2  ZIN A   1      19.478   3.423  11.465  0.00  0.00    -0.005 C 
ATOM     13  C1  ZIN A   1      19.534   4.428  12.617  0.00  0.00     0.005 C 
ENDBRANCH  11  12
ENDBRANCH  10  11
ENDBRANCH   9  10
ENDBRANCH   8   9
ENDBRANCH   7   8
ENDBRANCH   5   7
BRANCH   5  14
ATOM     14  C10 ZIN A   1      18.981  -1.301   7.162  0.00  0.00     0.230 C 
ATOM     15  C11 ZIN A   1      19.417  -2.745   6.908  0.00  0.00     0.034 C 
ENDBRANCH   5  14
ENDBRANCH   4   5
ENDBRANCH   3   4
ENDBRANCH   2   3
ENDBRANCH   1   2
BRANCH   1  16
ATOM     16  O17 ZIN A   1      20.227  -1.807  12.183  0.00  0.00    -0.391 OA
ATOM     17  H55 ZIN A   1      20.558  -0.917  12.364  0.00  0.00     0.210 HD
ENDBRANCH   1  16
BRANCH   1  18
ATOM     18  C18 ZIN A   1      18.629  -1.103  13.824  0.00  0.00    -0.029 A 
ATOM     19  C28 ZIN A   1      18.970  -1.450  15.119  0.00  0.00     0.012 A 
ATOM     20  C27 ZIN A   1      18.715  -0.579  16.160  0.00  0.00     0.031 A 
ATOM     21  C21 ZIN A   1      18.103   0.642  15.906  0.00  0.00     0.042 A 
ATOM     22  C20 ZIN A   1      17.755   0.985  14.605  0.00  0.00     0.031 A 
ATOM     23  C19 ZIN A   1      18.019   0.111  13.569  0.00  0.00     0.012 A 
BRANCH  21  24
ATOM     24  N22 ZIN A   1      17.837   1.523  16.956  0.00  0.00    -0.285 N 
ATOM     25  H58 ZIN A   1      16.928   1.636  17.277  0.00  0.00     0.178 HD
BRANCH  24  26
ATOM     26  S23 ZIN A   1      19.072   2.378  17.655  0.00  0.00     0.227 S 
ATOM     27  C24 ZIN A   1      18.246   3.735  18.529  0.00  0.00     0.186 C 
ATOM     28  O25 ZIN A   1      19.648   1.466  18.580  0.00  0.00    -0.206 OA
ATOM     29  O26 ZIN A   1      19.820   2.875  16.554  0.00  0.00    -0.206 OA
ENDBRANCH  24  26
ENDBRANCH  21  24
ENDBRANCH   1  18
TORSDOF 15
ENDMDL
MODEL 5
REMARK VINA RESULT:      -6.6      4.108      7.942
REMARK  15 active torsions:
REMARK  status: ('A' for Active; 'I' for Inactive)
REMARK    1  A    between atoms: C2_2  and  C3_3 
REMARK    2  A    between atoms: C3_3  and  C4_4 
REMARK    3  A    between atoms: C4_4  and  C5_5 
REMARK    4  A    between atoms: C5_5  and  C6_6 
REMARK    5  A    between atoms: C6_6  and  C7_7 
REMARK    6  A    between atoms: C7_7  and  N8_8 
REMARK    7  A    between atoms: N8_8  and  C10_10 
REMARK    8  A    between atoms: N8_8  and  C12_12 
REMARK    9  A    between atoms: C12_12  and  C13_13 
REMARK   10  A    between atoms: C13_13  and  C14_14 
REMARK   11  A    between atoms: C14_14  and  C15_15 
REMARK   12  A    between atoms: C15_15  and  O17_16 
REMARK   13  A    between atoms: C15_15  and  C18_17 
REMARK   14  A    between atoms: C21_20  and  N22_21 
REMARK   15  A    between atoms: N22_21  and  S23_22 
ROOT
ATOM      1  C15 ZIN A   1      18.342   2.322  10.470  0.00  0.00     0.151 C 
ENDROOT
BRANCH   1   2
ATOM      2  C14 ZIN A   1      19.772   2.260  11.011  0.00  0.00     0.038 C 
BRANCH   2   3
ATOM      3  C13 ZIN A   1      19.858   1.191  12.102  0.00  0.00     0.030 C 
BRANCH   3   4
ATOM      4  C12 ZIN A   1      20.579  -0.042  11.554  0.00  0.00     0.235 C 
BRANCH   4   5
ATOM      5  N8  ZIN A   1      20.023  -1.252  12.174  0.00  0.00    -0.071 N 
ATOM      6  H9  ZIN A   1      20.736  -1.704  12.727  0.00  0.00     0.279 HD
BRANCH   5   7
ATOM      7  C7  ZIN A   1      18.892  -0.884  13.036  0.00  0.00     0.234 C 
BRANCH   7   8
ATOM      8  C6  ZIN A   1      19.192  -1.305  14.477  0.00  0.00     0.028 C 
BRANCH   8   9
ATOM      9  C5  ZIN A   1      19.031  -0.099  15.404  0.00  0.00     0.002 C 
BRANCH   9  10
ATOM     10  C4  ZIN A   1      17.547   0.115  15.708  0.00  0.00     0.000 C 
BRANCH  10  11
ATOM     11  C3  ZIN A   1      17.206  -0.520  17.059  0.00  0.00    -0.000 C 
BRANCH  11  12
ATOM     12  C2  ZIN A   1      18.157   0.021  18.129  0.00  0.00    -0.005 C 
ATOM     13  C1  ZIN A   1      17.584   1.314  18.713  0.00  0.00     0.005 C 
ENDBRANCH  11  12
ENDBRANCH  10  11
ENDBRANCH   9  10
ENDBRANCH   8   9
ENDBRANCH   7   8
ENDBRANCH   5   7
BRANCH   5  14
ATOM     14  C10 ZIN A   1      19.561  -2.171  11.125  0.00  0.00     0.230 C 
ATOM     15  C11 ZIN A   1      18.114  -2.582  11.408  0.00  0.00     0.034 C 
ENDBRANCH   5  14
ENDBRANCH   4   5
ENDBRANCH   3   4
ENDBRANCH   2   3
ENDBRANCH   1   2
BRANCH   1  16
ATOM     16  O17 ZIN A   1      18.016   3.673  10.140  0.00  0.00    -0.391 OA
ATOM     17  H55 ZIN A   1      17.822   4.230  10.906  0.00  0.00     0.210 HD
ENDBRANCH   1  16
BRANCH   1  18
ATOM     18  C18 ZIN A   1      18.234   1.464   9.236  0.00  0.00    -0.029 A 
ATOM     19  C28 ZIN A   1      18.948   1.798   8.099  0.00  0.00     0.012 A 
ATOM     20  C27 ZIN A   1      18.855   1.011   6.968  0.00  0.00     0.031 A 
ATOM     21  C21 ZIN A   1      18.035  -0.109   6.968  0.00  0.00     0.042 A 
ATOM     22  C20 ZIN A   1      17.314  -0.438   8.110  0.00  0.00     0.031 A 
ATOM     23  C19 ZIN A   1      17.416   0.350   9.239  0.00  0.00     0.012 A 
BRANCH  21  24
ATOM     24  N22 ZIN A   1      17.933  -0.903   5.824  0.00  0.00    -0.285 N 
ATOM     25  H58 ZIN A   1      17.114  -0.903   5.304  0.00  0.00     0.178 HD
BRANCH  24  26
ATOM     26  S23 ZIN A   1      19.210  -1.848   5.355  0.00  0.00     0.227 S 
ATOM     27  C24 ZIN A   1      18.450  -3.211   4.432  0.00  0.00     0.186 C 
ATOM     28  O25 ZIN A   1      19.962  -1.014   4.484  0.00  0.00    -0.206 OA
ATOM     29  O26 ZIN A   1      19.764  -2.320   6.576  0.00  0.00    -0.206 OA
ENDBRANCH  24  26
ENDBRANCH  21  24
ENDBRANCH   1  18
TORSDOF 15
ENDMDL
MODEL 6
REMARK VINA RESULT:      -6.6      3.895      8.378
REMARK  15 active torsions:
REMARK  status: ('A' for Active; 'I' for Inactive)
REMARK    1  A    between atoms: C2_2  and  C3_3 
REMARK    2  A    between atoms: C3_3  and  C4_4 
REMARK    3  A    between atoms: C4_4  and  C5_5 
REMARK    4  A    between atoms: C5_5  and  C6_6 
REMARK    5  A    between atoms: C6_6  and  C7_7 
REMARK    6  A    between atoms: C7_7  and  N8_8 
REMARK    7  A    between atoms: N8_8  and  C10_10 
REMARK    8  A    between atoms: N8_8  and  C12_12 
REMARK    9  A    between atoms: C12_12  and  C13_13 
REMARK   10  A    between atoms: C13_13  and  C14_14 
REMARK   11  A    between atoms: C14_14  and  C15_15 
REMARK   12  A    between atoms: C15_15  and  O17_16 
REMARK   13  A    between atoms: C15_15  and  C18_17 
REMARK   14  A    between atoms: C21_20  and  N22_21 
REMARK   15  A    between atoms: N22_21  and  S23_22 
ROOT
ATOM      1  C15 ZIN A   1      18.881   2.431   9.941  0.00  0.00     0.151 C 
ENDROOT
BRANCH   1   2
ATOM      2  C14 ZIN A   1      17.598   2.711  10.723  0.00  0.00     0.038 C 
BRANCH   2   3
ATOM      3  C13 ZIN A   1      17.415   4.222  10.879  0.00  0.00     0.030 C 
BRANCH   3   4
ATOM      4  C12 ZIN A   1      18.332   4.735  11.992  0.00  0.00     0.235 C 
BRANCH   4   5
ATOM      5  N8  ZIN A   1      17.780   4.350  13.298  0.00  0.00    -0.071 N 
ATOM      6  H9  ZIN A   1      16.933   3.818  13.161  0.00  0.00     0.279 HD
BRANCH   5   7
ATOM      7  C7  ZIN A   1      18.761   3.532  14.022  0.00  0.00     0.234 C 
BRANCH   7   8
ATOM      8  C6  ZIN A   1      18.120   2.200  14.418  0.00  0.00     0.028 C 
BRANCH   8   9
ATOM      9  C5  ZIN A   1      19.184   1.100  14.409  0.00  0.00     0.002 C 
BRANCH   9  10
ATOM     10  C4  ZIN A   1      18.546  -0.223  13.979  0.00  0.00     0.000 C 
BRANCH  10  11
ATOM     11  C3  ZIN A   1      19.114  -1.362  14.829  0.00  0.00    -0.000 C 
BRANCH  11  12
ATOM     12  C2  ZIN A   1      18.909  -1.042  16.312  0.00  0.00    -0.005 C 
ATOM     13  C1  ZIN A   1      17.453  -1.314  16.695  0.00  0.00     0.005 C 
ENDBRANCH  11  12
ENDBRANCH  10  11
ENDBRANCH   9  10
ENDBRANCH   8   9
ENDBRANCH   7   8
ENDBRANCH   5   7
BRANCH   5  14
ATOM     14  C10 ZIN A   1      17.479   5.559  14.077  0.00  0.00     0.230 C 
ATOM     15  C11 ZIN A   1      15.963   5.735  14.180  0.00  0.00     0.034 C 
ENDBRANCH   5  14
ENDBRANCH   4   5
ENDBRANCH   3   4
ENDBRANCH   2   3
ENDBRANCH   1   2
BRANCH   1  16
ATOM     16  O17 ZIN A   1      19.866   1.886  10.821  0.00  0.00    -0.391 OA
ATOM     17  H55 ZIN A   1      20.625   2.466  10.970  0.00  0.00     0.210 HD
ENDBRANCH   1  16
BRANCH   1  18
ATOM     18  C18 ZIN A   1      18.594   1.445   8.839  0.00  0.00    -0.029 A 
ATOM     19  C28 ZIN A   1      17.732   0.387   9.067  0.00  0.00     0.012 A 
ATOM     20  C27 ZIN A   1      17.462  -0.516   8.057  0.00  0.00     0.031 A 
ATOM     21  C21 ZIN A   1      18.066  -0.368   6.815  0.00  0.00     0.042 A 
ATOM     22  C20 ZIN A   1      18.936   0.692   6.591  0.00  0.00     0.031 A 
ATOM     23  C19 ZIN A   1      19.196   1.594   7.604  0.00  0.00     0.012 A 
BRANCH  21  24
ATOM     24  N22 ZIN A   1      17.800  -1.283   5.794  0.00  0.00    -0.285 N 
ATOM     25  H58 ZIN A   1      16.913  -1.330   5.403  0.00  0.00     0.178 HD
BRANCH  24  26
ATOM     26  S23 ZIN A   1      18.999  -2.287   5.250  0.00  0.00     0.227 S 
ATOM     27  C24 ZIN A   1      18.116  -3.707   4.547  0.00  0.00     0.186 C 
ATOM     28  O25 ZIN A   1      19.642  -1.542   4.224  0.00  0.00    -0.206 OA
ATOM     29  O26 ZIN A   1      19.699  -2.668   6.427  0.00  0.00    -0.206 OA
ENDBRANCH  24  26
ENDBRANCH  21  24
ENDBRANCH   1  18
TORSDOF 15
ENDMDL
MODEL 7
REMARK VINA RESULT:      -6.3      3.818      7.195
REMARK  15 active torsions:
REMARK  status: ('A' for Active; 'I' for Inactive)
REMARK    1  A    between atoms: C2_2  and  C3_3 
REMARK    2  A    between atoms: C3_3  and  C4_4 
REMARK    3  A    between atoms: C4_4  and  C5_5 
REMARK    4  A    between atoms: C5_5  and  C6_6 
REMARK    5  A    between atoms: C6_6  and  C7_7 
REMARK    6  A    between atoms: C7_7  and  N8_8 
REMARK    7  A    between atoms: N8_8  and  C10_10 
REMARK    8  A    between atoms: N8_8  and  C12_12 
REMARK    9  A    between atoms: C12_12  and  C13_13 
REMARK   10  A    between atoms: C13_13  and  C14_14 
REMARK   11  A    between atoms: C14_14  and  C15_15 
REMARK   12  A    between atoms: C15_15  and  O17_16 
REMARK   13  A    between atoms: C15_15  and  C18_17 
REMARK   14  A    between atoms: C21_20  and  N22_21 
REMARK   15  A    between atoms: N22_21  and  S23_22 
ROOT
ATOM      1  C15 ZIN A   1      19.298  -1.194  12.968  0.00  0.00     0.151 C 
ENDROOT
BRANCH   1   2
ATOM      2  C14 ZIN A   1      18.014  -0.568  13.515  0.00  0.00     0.038 C 
BRANCH   2   3
ATOM      3  C13 ZIN A   1      18.360   0.688  14.317  0.00  0.00     0.030 C 
BRANCH   3   4
ATOM      4  C12 ZIN A   1      18.055   1.930  13.477  0.00  0.00     0.235 C 
BRANCH   4   5
ATOM      5  N8  ZIN A   1      19.309   2.630  13.163  0.00  0.00    -0.071 N 
ATOM      6  H9  ZIN A   1      20.011   2.381  13.844  0.00  0.00     0.279 HD
BRANCH   5   7
ATOM      7  C7  ZIN A   1      19.765   2.240  11.823  0.00  0.00     0.234 C 
BRANCH   7   8
ATOM      8  C6  ZIN A   1      19.106   3.143  10.778  0.00  0.00     0.028 C 
BRANCH   8   9
ATOM      9  C5  ZIN A   1      18.033   2.354  10.026  0.00  0.00     0.002 C 
BRANCH   9  10
ATOM     10  C4  ZIN A   1      18.449   0.884   9.938  0.00  0.00     0.000 C 
BRANCH  10  11
ATOM     11  C3  ZIN A   1      17.324   0.073   9.291  0.00  0.00    -0.000 C 
BRANCH  11  12
ATOM     12  C2  ZIN A   1      17.927  -1.040   8.432  0.00  0.00    -0.005 C 
ATOM     13  C1  ZIN A   1      19.419  -1.170   8.741  0.00  0.00     0.005 C 
ENDBRANCH  11  12
ENDBRANCH  10  11
ENDBRANCH   9  10
ENDBRANCH   8   9
ENDBRANCH   7   8
ENDBRANCH   5   7
BRANCH   5  14
ATOM     14  C10 ZIN A   1      19.081   4.080  13.202  0.00  0.00     0.230 C 
ATOM     15  C11 ZIN A   1      17.781   4.373  13.954  0.00  0.00     0.034 C 
ENDBRANCH   5  14
ENDBRANCH   4   5
ENDBRANCH   3   4
ENDBRANCH   2   3
ENDBRANCH   1   2
BRANCH   1  16
ATOM     16  O17 ZIN A   1      20.156  -1.547  14.055  0.00  0.00    -0.391 OA
ATOM     17  H55 ZIN A   1      19.824  -1.279  14.922  0.00  0.00     0.210 HD
ENDBRANCH   1  16
BRANCH   1  18
ATOM     18  C18 ZIN A   1      18.958  -2.430  12.177  0.00  0.00    -0.029 A 
ATOM     19  C28 ZIN A   1      19.955  -3.320  11.824  0.00  0.00     0.012 A 
ATOM     20  C27 ZIN A   1      19.647  -4.457  11.103  0.00  0.00     0.031 A 
ATOM     21  C21 ZIN A   1      18.333  -4.699  10.721  0.00  0.00     0.042 A 
ATOM     22  C20 ZIN A   1      17.334  -3.800  11.072  0.00  0.00     0.031 A 
ATOM     23  C19 ZIN A   1      17.650  -2.669  11.798  0.00  0.00     0.012 A 
BRANCH  21  24
ATOM     24  N22 ZIN A   1      18.018  -5.844   9.986  0.00  0.00    -0.285 N 
ATOM     25  H58 ZIN A   1      17.484  -6.548  10.389  0.00  0.00     0.178 HD
BRANCH  24  26
ATOM     26  S23 ZIN A   1      18.555  -6.002   8.427  0.00  0.00     0.227 S 
ATOM     27  C24 ZIN A   1      17.434  -7.218   7.684  0.00  0.00     0.186 C 
ATOM     28  O25 ZIN A   1      18.348  -4.717   7.855  0.00  0.00    -0.206 OA
ATOM     29  O26 ZIN A   1      19.862  -6.542   8.560  0.00  0.00    -0.206 OA
ENDBRANCH  24  26
ENDBRANCH  21  24
ENDBRANCH   1  18
TORSDOF 15
ENDMDL
MODEL 8
REMARK VINA RESULT:      -6.2      3.279      4.854
REMARK  15 active torsions:
REMARK  status: ('A' for Active; 'I' for Inactive)
REMARK    1  A    between atoms: C2_2  and  C3_3 
REMARK    2  A    between atoms: C3_3  and  C4_4 
REMARK    3  A    between atoms: C4_4  and  C5_5 
REMARK    4  A    between atoms: C5_5  and  C6_6 
REMARK    5  A    between atoms: C6_6  and  C7_7 
REMARK    6  A    between atoms: C7_7  and  N8_8 
REMARK    7  A    between atoms: N8_8  and  C10_10 
REMARK    8  A    between atoms: N8_8  and  C12_12 
REMARK    9  A    between atoms: C12_12  and  C13_13 
REMARK   10  A    between atoms: C13_13  and  C14_14 
REMARK   11  A    between atoms: C14_14  and  C15_15 
REMARK   12  A    between atoms: C15_15  and  O17_16 
REMARK   13  A    between atoms: C15_15  and  C18_17 
REMARK   14  A    between atoms: C21_20  and  N22_21 
REMARK   15  A    between atoms: N22_21  and  S23_22 
ROOT
ATOM      1  C15 ZIN A   1      19.500  -2.941  12.204  0.00  0.00     0.151 C 
ENDROOT
BRANCH   1   2
ATOM      2  C14 ZIN A   1      18.422  -3.742  11.472  0.00  0.00     0.038 C 
BRANCH   2   3
ATOM      3  C13 ZIN A   1      18.787  -3.851   9.990  0.00  0.00     0.030 C 
BRANCH   3   4
ATOM      4  C12 ZIN A   1      17.621  -3.342   9.139  0.00  0.00     0.235 C 
BRANCH   4   5
ATOM      5  N8  ZIN A   1      18.144  -2.575   8.000  0.00  0.00    -0.071 N 
ATOM      6  H9  ZIN A   1      17.533  -1.794   7.813  0.00  0.00     0.279 HD
BRANCH   5   7
ATOM      7  C7  ZIN A   1      19.489  -2.079   8.320  0.00  0.00     0.234 C 
BRANCH   7   8
ATOM      8  C6  ZIN A   1      19.382  -0.698   8.971  0.00  0.00     0.028 C 
BRANCH   8   9
ATOM      9  C5  ZIN A   1      18.238   0.083   8.321  0.00  0.00     0.002 C 
BRANCH   9  10
ATOM     10  C4  ZIN A   1      18.790   1.364   7.691  0.00  0.00     0.000 C 
BRANCH  10  11
ATOM     11  C3  ZIN A   1      19.035   1.132   6.198  0.00  0.00    -0.000 C 
BRANCH  11  12
ATOM     12  C2  ZIN A   1      17.976   0.172   5.651  0.00  0.00    -0.005 C 
ATOM     13  C1  ZIN A   1      18.474  -0.446   4.343  0.00  0.00     0.005 C 
ENDBRANCH  11  12
ENDBRANCH  10  11
ENDBRANCH   9  10
ENDBRANCH   8   9
ENDBRANCH   7   8
ENDBRANCH   5   7
BRANCH   5  14
ATOM     14  C10 ZIN A   1      18.210  -3.441   6.815  0.00  0.00     0.230 C 
ATOM     15  C11 ZIN A   1      19.635  -3.434   6.257  0.00  0.00     0.034 C 
ENDBRANCH   5  14
ENDBRANCH   4   5
ENDBRANCH   3   4
ENDBRANCH   2   3
ENDBRANCH   1   2
BRANCH   1  16
ATOM     16  O17 ZIN A   1      20.703  -2.946  11.433  0.00  0.00    -0.391 OA
ATOM     17  H55 ZIN A   1      21.268  -3.715  11.589  0.00  0.00     0.210 HD
ENDBRANCH   1  16
BRANCH   1  18
ATOM     18  C18 ZIN A   1      19.031  -1.522  12.394  0.00  0.00    -0.029 A 
ATOM     19  C28 ZIN A   1      17.686  -1.220  12.284  0.00  0.00     0.012 A 
ATOM     20  C27 ZIN A   1      17.252   0.079  12.463  0.00  0.00     0.031 A 
ATOM     21  C21 ZIN A   1      18.169   1.085  12.741  0.00  0.00     0.042 A 
ATOM     22  C20 ZIN A   1      19.521   0.778  12.844  0.00  0.00     0.031 A 
ATOM     23  C19 ZIN A   1      19.947  -0.524  12.670  0.00  0.00     0.012 A 
BRANCH  21  24
ATOM     24  N22 ZIN A   1      17.735   2.400  12.915  0.00  0.00    -0.285 N 
ATOM     25  H58 ZIN A   1      17.377   2.684  13.771  0.00  0.00     0.178 HD
BRANCH  24  26
ATOM     26  S23 ZIN A   1      17.830   3.477  11.660  0.00  0.00     0.227 S 
ATOM     27  C24 ZIN A   1      16.789   4.868  12.177  0.00  0.00     0.186 C 
ATOM     28  O25 ZIN A   1      19.199   3.861  11.631  0.00  0.00    -0.206 OA
ATOM     29  O26 ZIN A   1      17.239   2.792  10.565  0.00  0.00    -0.206 OA
ENDBRANCH  24  26
ENDBRANCH  21  24
ENDBRANCH   1  18
TORSDOF 15
ENDMDL
MODEL 9
REMARK VINA RESULT:      -6.2      3.886      7.314
REMARK  15 active torsions:
REMARK  status: ('A' for Active; 'I' for Inactive)
REMARK    1  A    between atoms: C2_2  and  C3_3 
REMARK    2  A    between atoms: C3_3  and  C4_4 
REMARK    3  A    between atoms: C4_4  and  C5_5 
REMARK    4  A    between atoms: C5_5  and  C6_6 
REMARK    5  A    between atoms: C6_6  and  C7_7 
REMARK    6  A    between atoms: C7_7  and  N8_8 
REMARK    7  A    between atoms: N8_8  and  C10_10 
REMARK    8  A    between atoms: N8_8  and  C12_12 
REMARK    9  A    between atoms: C12_12  and  C13_13 
REMARK   10  A    between atoms: C13_13  and  C14_14 
REMARK   11  A    between atoms: C14_14  and  C15_15 
REMARK   12  A    between atoms: C15_15  and  O17_16 
REMARK   13  A    between atoms: C15_15  and  C18_17 
REMARK   14  A    between atoms: C21_20  and  N22_21 
REMARK   15  A    between atoms: N22_21  and  S23_22 
ROOT
ATOM      1  C15 ZIN A   1      19.446  -1.259  12.960  0.00  0.00     0.151 C 
ENDROOT
BRANCH   1   2
ATOM      2  C14 ZIN A   1      18.208  -0.415  13.267  0.00  0.00     0.038 C 
BRANCH   2   3
ATOM      3  C13 ZIN A   1      18.299   0.916  12.518  0.00  0.00     0.030 C 
BRANCH   3   4
ATOM      4  C12 ZIN A   1      19.667   1.027  11.840  0.00  0.00     0.235 C 
BRANCH   4   5
ATOM      5  N8  ZIN A   1      19.485   1.373  10.423  0.00  0.00    -0.071 N 
ATOM      6  H9  ZIN A   1      20.196   2.034  10.145  0.00  0.00     0.279 HD
BRANCH   5   7
ATOM      7  C7  ZIN A   1      19.597   0.159   9.605  0.00  0.00     0.234 C 
BRANCH   7   8
ATOM      8  C6  ZIN A   1      18.198  -0.366   9.278  0.00  0.00     0.028 C 
BRANCH   8   9
ATOM      9  C5  ZIN A   1      18.172  -0.887   7.839  0.00  0.00     0.002 C 
BRANCH   9  10
ATOM     10  C4  ZIN A   1      18.918   0.092   6.930  0.00  0.00     0.000 C 
BRANCH  10  11
ATOM     11  C3  ZIN A   1      18.042   0.433   5.721  0.00  0.00    -0.000 C 
BRANCH  11  12
ATOM     12  C2  ZIN A   1      18.510  -0.376   4.510  0.00  0.00    -0.005 C 
ATOM     13  C1  ZIN A   1      17.525  -1.517   4.248  0.00  0.00     0.005 C 
ENDBRANCH  11  12
ENDBRANCH  10  11
ENDBRANCH   9  10
ENDBRANCH   8   9
ENDBRANCH   7   8
ENDBRANCH   5   7
BRANCH   5  14
ATOM     14  C10 ZIN A   1      18.158   1.972  10.233  0.00  0.00     0.230 C 
ATOM     15  C11 ZIN A   1      18.312   3.454   9.882  0.00  0.00     0.034 C 
ENDBRANCH   5  14
ENDBRANCH   4   5
ENDBRANCH   3   4
ENDBRANCH   2   3
ENDBRANCH   1   2
BRANCH   1  16
ATOM     16  O17 ZIN A   1      20.083  -1.633  14.184  0.00  0.00    -0.391 OA
ATOM     17  H55 ZIN A   1      20.240  -0.894  14.788  0.00  0.00     0.210 HD
ENDBRANCH   1  16
BRANCH   1  18
ATOM     18  C18 ZIN A   1      19.037  -2.498  12.209  0.00  0.00    -0.029 A 
ATOM     19  C28 ZIN A   1      20.002  -3.357  11.716  0.00  0.00     0.012 A 
ATOM     20  C27 ZIN A   1      19.631  -4.497  11.031  0.00  0.00     0.031 A 
ATOM     21  C21 ZIN A   1      18.285  -4.775  10.827  0.00  0.00     0.042 A 
ATOM     22  C20 ZIN A   1      17.317  -3.907  11.318  0.00  0.00     0.031 A 
ATOM     23  C19 ZIN A   1      17.697  -2.772  12.007  0.00  0.00     0.012 A 
BRANCH  21  24
ATOM     24  N22 ZIN A   1      17.905  -5.923  10.129  0.00  0.00    -0.285 N 
ATOM     25  H58 ZIN A   1      17.466  -6.652  10.596  0.00  0.00     0.178 HD
BRANCH  24  26
ATOM     26  S23 ZIN A   1      18.204  -6.042   8.505  0.00  0.00     0.227 S 
ATOM     27  C24 ZIN A   1      16.984  -7.243   7.907  0.00  0.00     0.186 C 
ATOM     28  O25 ZIN A   1      17.916  -4.745   8.000  0.00  0.00    -0.206 OA
ATOM     29  O26 ZIN A   1      19.515  -6.584   8.429  0.00  0.00    -0.206 OA
ENDBRANCH  24  26
ENDBRANCH  21  24
ENDBRANCH   1  18
TORSDOF 15
ENDMDL
