MODEL 1
REMARK VINA RESULT:      -5.7      0.000      0.000
REMARK  3 active torsions:
REMARK  status: ('A' for Active; 'I' for Inactive)
REMARK    1  A    between atoms: N1_1  and  C2_2 
REMARK    2  A    between atoms: C6_6  and  N7_7 
REMARK    3  A    between atoms: N7_7  and  C8_8 
ROOT
ATOM      1  C2  ZIN A   1      18.321  -2.306   8.166  0.00  0.00     0.029 A 
ATOM      2  C3  ZIN A   1      18.258  -1.251   7.266  0.00  0.00     0.055 A 
ATOM      3  C4  ZIN A   1      18.823  -0.031   7.588  0.00  0.00     0.065 A 
ATOM      4 Cl5  ZIN A   1      18.742   1.288   6.462  0.00  0.00    -0.082 Cl
ATOM      5  C6  ZIN A   1      19.452   0.139   8.814  0.00  0.00     0.092 A 
ATOM      6  C13 ZIN A   1      19.515  -0.915   9.715  0.00  0.00     0.065 A 
ATOM      7 Cl14 ZIN A   1      20.303  -0.702  11.249  0.00  0.00    -0.082 Cl
ATOM      8  C15 ZIN A   1      18.946  -2.133   9.394  0.00  0.00     0.055 A 
ENDROOT
BRANCH   5   9
ATOM      9  N7  ZIN A   1      20.024   1.378   9.143  0.00  0.00    -0.187 N 
ATOM     10  H19 ZIN A   1      20.891   1.622   8.782  0.00  0.00     0.184 HD
BRANCH   9  11
ATOM     11  C8  ZIN A   1      19.356   2.245   9.975  0.00  0.00     0.696 A 
ATOM     12  N12 ZIN A   1      19.963   2.892  11.017  0.00  0.00    -0.223 N 
ATOM     13  C11 ZIN A   1      18.960   3.735  11.688  0.00  0.00     0.160 A 
ATOM     14  H24 ZIN A   1      20.897   2.811  11.268  0.00  0.00     0.177 HD
ATOM     15  C10 ZIN A   1      17.676   3.471  10.878  0.00  0.00     0.189 A 
ATOM     16  N9  ZIN A   1      18.098   2.515   9.844  0.00  0.00    -0.106 NA
ENDBRANCH   9  11
ENDBRANCH   5   9
BRANCH   1  17
ATOM     17  N1  ZIN A   1      17.750  -3.540   7.839  0.00  0.00    -0.399 N 
ATOM     18  H16 ZIN A   1      16.786  -3.648   7.856  0.00  0.00     0.156 HD
ATOM     19  H17 ZIN A   1      18.317  -4.286   7.589  0.00  0.00     0.156 HD
ENDBRANCH   1  17
TORSDOF 3
ENDMDL
MODEL 2
REMARK VINA RESULT:      -5.7      2.250      5.481
REMARK  3 active torsions:
REMARK  status: ('A' for Active; 'I' for Inactive)
REMARK    1  A    between atoms: N1_1  and  C2_2 
REMARK    2  A    between atoms: C6_6  and  N7_7 
REMARK    3  A    between atoms: N7_7  and  C8_8 
ROOT
ATOM      1  C2  ZIN A   1      17.819   3.404  11.489  0.00  0.00     0.029 A 
ATOM      2  C3  ZIN A   1      18.346   2.641  12.523  0.00  0.00     0.055 A 
ATOM      3  C4  ZIN A   1      19.203   1.594  12.244  0.00  0.00     0.065 A 
ATOM      4 Cl5  ZIN A   1      19.860   0.641  13.537  0.00  0.00    -0.082 Cl
ATOM      5  C6  ZIN A   1      19.536   1.303  10.928  0.00  0.00     0.092 A 
ATOM      6  C13 ZIN A   1      19.009   2.065   9.893  0.00  0.00     0.065 A 
ATOM      7 Cl14 ZIN A   1      19.427   1.701   8.247  0.00  0.00    -0.082 Cl
ATOM      8  C15 ZIN A   1      18.148   3.109  10.173  0.00  0.00     0.055 A 
ENDROOT
BRANCH   5   9
ATOM      9  N7  ZIN A   1      20.405   0.239  10.643  0.00  0.00    -0.187 N 
ATOM     10  H19 ZIN A   1      21.340   0.414  10.450  0.00  0.00     0.184 HD
BRANCH   9  11
ATOM     11  C8  ZIN A   1      19.933  -1.053  10.639  0.00  0.00     0.696 A 
ATOM     12  N12 ZIN A   1      20.544  -2.071  11.320  0.00  0.00    -0.223 N 
ATOM     13  C11 ZIN A   1      19.774  -3.306  11.097  0.00  0.00     0.160 A 
ATOM     14  H24 ZIN A   1      21.345  -1.990  11.861  0.00  0.00     0.177 HD
ATOM     15  C10 ZIN A   1      18.628  -2.848  10.174  0.00  0.00     0.189 A 
ATOM     16  N9  ZIN A   1      18.876  -1.412   9.985  0.00  0.00    -0.106 NA
ENDBRANCH   9  11
ENDBRANCH   5   9
BRANCH   1  17
ATOM     17  N1  ZIN A   1      16.952   4.464  11.773  0.00  0.00    -0.399 N 
ATOM     18  H16 ZIN A   1      17.311   5.325  12.039  0.00  0.00     0.156 HD
ATOM     19  H17 ZIN A   1      15.993   4.340  11.698  0.00  0.00     0.156 HD
ENDBRANCH   1  17
TORSDOF 3
ENDMDL
MODEL 3
REMARK VINA RESULT:      -5.7      0.049      2.335
REMARK  3 active torsions:
REMARK  status: ('A' for Active; 'I' for Inactive)
REMARK    1  A    between atoms: N1_1  and  C2_2 
REMARK    2  A    between atoms: C6_6  and  N7_7 
REMARK    3  A    between atoms: N7_7  and  C8_8 
ROOT
ATOM      1  C2  ZIN A   1      18.335  -2.298   8.096  0.00  0.00     0.029 A 
ATOM      2  C3  ZIN A   1      18.951  -2.139   9.330  0.00  0.00     0.055 A 
ATOM      3  C4  ZIN A   1      19.509  -0.922   9.673  0.00  0.00     0.065 A 
ATOM      4 Cl5  ZIN A   1      20.280  -0.725  11.215  0.00  0.00    -0.082 Cl
ATOM      5  C6  ZIN A   1      19.455   0.142   8.782  0.00  0.00     0.092 A 
ATOM      6  C13 ZIN A   1      18.840  -0.018   7.547  0.00  0.00     0.065 A 
ATOM      7 Cl14 ZIN A   1      18.773   1.313   6.432  0.00  0.00    -0.082 Cl
ATOM      8  C15 ZIN A   1      18.286  -1.236   7.203  0.00  0.00     0.055 A 
ENDROOT
BRANCH   5   9
ATOM      9  N7  ZIN A   1      20.024   1.376   9.128  0.00  0.00    -0.187 N 
ATOM     10  H19 ZIN A   1      20.892   1.627   8.773  0.00  0.00     0.184 HD
BRANCH   9  11
ATOM     11  C8  ZIN A   1      19.353   2.231   9.971  0.00  0.00     0.696 A 
ATOM     12  N12 ZIN A   1      19.960   2.875  11.015  0.00  0.00    -0.223 N 
ATOM     13  C11 ZIN A   1      18.953   3.705  11.698  0.00  0.00     0.160 A 
ATOM     14  H24 ZIN A   1      20.896   2.801  11.259  0.00  0.00     0.177 HD
ATOM     15  C10 ZIN A   1      17.667   3.434  10.893  0.00  0.00     0.189 A 
ATOM     16  N9  ZIN A   1      18.092   2.491   9.849  0.00  0.00    -0.106 NA
ENDBRANCH   9  11
ENDBRANCH   5   9
BRANCH   1  17
ATOM     17  N1  ZIN A   1      17.769  -3.529   7.750  0.00  0.00    -0.399 N 
ATOM     18  H16 ZIN A   1      17.575  -4.184   8.439  0.00  0.00     0.156 HD
ATOM     19  H17 ZIN A   1      17.565  -3.727   6.823  0.00  0.00     0.156 HD
ENDBRANCH   1  17
TORSDOF 3
ENDMDL
MODEL 4
REMARK VINA RESULT:      -5.7      2.294      4.989
REMARK  3 active torsions:
REMARK  status: ('A' for Active; 'I' for Inactive)
REMARK    1  A    between atoms: N1_1  and  C2_2 
REMARK    2  A    between atoms: C6_6  and  N7_7 
REMARK    3  A    between atoms: N7_7  and  C8_8 
ROOT
ATOM      1  C2  ZIN A   1      17.844   3.408  11.515  0.00  0.00     0.029 A 
ATOM      2  C3  ZIN A   1      18.162   3.122  10.194  0.00  0.00     0.055 A 
ATOM      3  C4  ZIN A   1      19.009   2.071   9.899  0.00  0.00     0.065 A 
ATOM      4 Cl5  ZIN A   1      19.408   1.715   8.247  0.00  0.00    -0.082 Cl
ATOM      5  C6  ZIN A   1      19.542   1.300  10.924  0.00  0.00     0.092 A 
ATOM      6  C13 ZIN A   1      19.224   1.587  12.245  0.00  0.00     0.065 A 
ATOM      7 Cl14 ZIN A   1      19.891   0.623  13.527  0.00  0.00    -0.082 Cl
ATOM      8  C15 ZIN A   1      18.381   2.641  12.540  0.00  0.00     0.055 A 
ENDROOT
BRANCH   5   9
ATOM      9  N7  ZIN A   1      20.403   0.234  10.624  0.00  0.00    -0.187 N 
ATOM     10  H19 ZIN A   1      21.325   0.410  10.377  0.00  0.00     0.184 HD
BRANCH   9  11
ATOM     11  C8  ZIN A   1      19.943  -1.060  10.682  0.00  0.00     0.696 A 
ATOM     12  N12 ZIN A   1      20.618  -2.063  11.324  0.00  0.00    -0.223 N 
ATOM     13  C11 ZIN A   1      19.842  -3.307  11.188  0.00  0.00     0.160 A 
ATOM     14  H24 ZIN A   1      21.462  -1.968  11.792  0.00  0.00     0.177 HD
ATOM     15  C10 ZIN A   1      18.617  -2.871  10.361  0.00  0.00     0.189 A 
ATOM     16  N9  ZIN A   1      18.836  -1.437  10.127  0.00  0.00    -0.106 NA
ENDBRANCH   9  11
ENDBRANCH   5   9
BRANCH   1  17
ATOM     17  N1  ZIN A   1      16.986   4.472  11.813  0.00  0.00    -0.399 N 
ATOM     18  H16 ZIN A   1      17.102   5.327  11.370  0.00  0.00     0.156 HD
ATOM     19  H17 ZIN A   1      16.272   4.353  12.458  0.00  0.00     0.156 HD
ENDBRANCH   1  17
TORSDOF 3
ENDMDL
MODEL 5
REMARK VINA RESULT:      -5.5      1.698      5.702
REMARK  3 active torsions:
REMARK  status: ('A' for Active; 'I' for Inactive)
REMARK    1  A    between atoms: N1_1  and  C2_2 
REMARK    2  A    between atoms: C6_6  and  N7_7 
REMARK    3  A    between atoms: N7_7  and  C8_8 
ROOT
ATOM      1  C2  ZIN A   1      19.350   1.651  10.028  0.00  0.00     0.029 A 
ATOM      2  C3  ZIN A   1      18.859   0.517  10.662  0.00  0.00     0.055 A 
ATOM      3  C4  ZIN A   1      18.265  -0.487   9.921  0.00  0.00     0.065 A 
ATOM      4 Cl5  ZIN A   1      17.650  -1.903  10.714  0.00  0.00    -0.082 Cl
ATOM      5  C6  ZIN A   1      18.157  -0.361   8.543  0.00  0.00     0.092 A 
ATOM      6  C13 ZIN A   1      18.647   0.774   7.909  0.00  0.00     0.065 A 
ATOM      7 Cl14 ZIN A   1      18.513   0.931   6.184  0.00  0.00    -0.082 Cl
ATOM      8  C15 ZIN A   1      19.238   1.779   8.651  0.00  0.00     0.055 A 
ENDROOT
BRANCH   5   9
ATOM      9  N7  ZIN A   1      17.552  -1.378   7.790  0.00  0.00    -0.187 N 
ATOM     10  H19 ZIN A   1      16.629  -1.285   7.502  0.00  0.00     0.184 HD
BRANCH   9  11
ATOM     11  C8  ZIN A   1      18.264  -2.507   7.461  0.00  0.00     0.696 A 
ATOM     12  N12 ZIN A   1      17.801  -3.774   7.696  0.00  0.00    -0.223 N 
ATOM     13  C11 ZIN A   1      18.811  -4.734   7.220  0.00  0.00     0.160 A 
ATOM     14  H24 ZIN A   1      16.950  -4.000   8.104  0.00  0.00     0.177 HD
ATOM     15  C10 ZIN A   1      19.933  -3.827   6.679  0.00  0.00     0.189 A 
ATOM     16  N9  ZIN A   1      19.432  -2.464   6.906  0.00  0.00    -0.106 NA
ENDBRANCH   9  11
ENDBRANCH   5   9
BRANCH   1  17
ATOM     17  N1  ZIN A   1      19.953   2.665  10.779  0.00  0.00    -0.399 N 
ATOM     18  H16 ZIN A   1      20.698   3.164  10.409  0.00  0.00     0.156 HD
ATOM     19  H17 ZIN A   1      19.623   2.874  11.667  0.00  0.00     0.156 HD
ENDBRANCH   1  17
TORSDOF 3
ENDMDL
MODEL 6
REMARK VINA RESULT:      -5.5      1.711      5.410
REMARK  3 active torsions:
REMARK  status: ('A' for Active; 'I' for Inactive)
REMARK    1  A    between atoms: N1_1  and  C2_2 
REMARK    2  A    between atoms: C6_6  and  N7_7 
REMARK    3  A    between atoms: N7_7  and  C8_8 
ROOT
ATOM      1  C2  ZIN A   1      18.473   3.481  10.990  0.00  0.00     0.029 A 
ATOM      2  C3  ZIN A   1      19.092   2.637  11.903  0.00  0.00     0.055 A 
ATOM      3  C4  ZIN A   1      19.695   1.472  11.470  0.00  0.00     0.065 A 
ATOM      4 Cl5  ZIN A   1      20.467   0.417  12.613  0.00  0.00    -0.082 Cl
ATOM      5  C6  ZIN A   1      19.682   1.144  10.121  0.00  0.00     0.092 A 
ATOM      6  C13 ZIN A   1      19.063   1.987   9.207  0.00  0.00     0.065 A 
ATOM      7 Cl14 ZIN A   1      19.047   1.577   7.520  0.00  0.00    -0.082 Cl
ATOM      8  C15 ZIN A   1      18.456   3.150   9.642  0.00  0.00     0.055 A 
ENDROOT
BRANCH   5   9
ATOM      9  N7  ZIN A   1      20.293  -0.040   9.681  0.00  0.00    -0.187 N 
ATOM     10  H19 ZIN A   1      21.254  -0.070   9.552  0.00  0.00     0.184 HD
BRANCH   9  11
ATOM     11  C8  ZIN A   1      19.530  -1.157   9.432  0.00  0.00     0.696 A 
ATOM     12  N12 ZIN A   1      19.604  -1.862   8.261  0.00  0.00    -0.223 N 
ATOM     13  C11 ZIN A   1      18.659  -2.989   8.338  0.00  0.00     0.160 A 
ATOM     14  H24 ZIN A   1      20.184  -1.656   7.511  0.00  0.00     0.177 HD
ATOM     15  C10 ZIN A   1      18.021  -2.821   9.730  0.00  0.00     0.189 A 
ATOM     16  N9  ZIN A   1      18.677  -1.628  10.282  0.00  0.00    -0.106 NA
ENDBRANCH   9  11
ENDBRANCH   5   9
BRANCH   1  17
ATOM     17  N1  ZIN A   1      17.863   4.660  11.430  0.00  0.00    -0.399 N 
ATOM     18  H16 ZIN A   1      17.385   5.222  10.800  0.00  0.00     0.156 HD
ATOM     19  H17 ZIN A   1      17.914   4.913  12.364  0.00  0.00     0.156 HD
ENDBRANCH   1  17
TORSDOF 3
ENDMDL
MODEL 7
REMARK VINA RESULT:      -5.5      1.704      5.259
REMARK  3 active torsions:
REMARK  status: ('A' for Active; 'I' for Inactive)
REMARK    1  A    between atoms: N1_1  and  C2_2 
REMARK    2  A    between atoms: C6_6  and  N7_7 
REMARK    3  A    between atoms: N7_7  and  C8_8 
ROOT
ATOM      1  C2  ZIN A   1      19.317   1.669  10.022  0.00  0.00     0.029 A 
ATOM      2  C3  ZIN A   1      19.225   1.777   8.641  0.00  0.00     0.055 A 
ATOM      3  C4  ZIN A   1      18.635   0.767   7.905  0.00  0.00     0.065 A 
ATOM      4 Cl5  ZIN A   1      18.522   0.902   6.178  0.00  0.00    -0.082 Cl
ATOM      5  C6  ZIN A   1      18.134  -0.358   8.548  0.00  0.00     0.092 A 
ATOM      6  C13 ZIN A   1      18.226  -0.466   9.930  0.00  0.00     0.065 A 
ATOM      7 Cl14 ZIN A   1      17.599  -1.872  10.734  0.00  0.00    -0.082 Cl
ATOM      8  C15 ZIN A   1      18.821   0.542  10.664  0.00  0.00     0.055 A 
ENDROOT
BRANCH   5   9
ATOM      9  N7  ZIN A   1      17.537  -1.384   7.802  0.00  0.00    -0.187 N 
ATOM     10  H19 ZIN A   1      16.613  -1.301   7.516  0.00  0.00     0.184 HD
BRANCH   9  11
ATOM     11  C8  ZIN A   1      18.259  -2.508   7.475  0.00  0.00     0.696 A 
ATOM     12  N12 ZIN A   1      17.810  -3.778   7.720  0.00  0.00    -0.223 N 
ATOM     13  C11 ZIN A   1      18.828  -4.730   7.244  0.00  0.00     0.160 A 
ATOM     14  H24 ZIN A   1      16.964  -4.010   8.133  0.00  0.00     0.177 HD
ATOM     15  C10 ZIN A   1      19.938  -3.814   6.693  0.00  0.00     0.189 A 
ATOM     16  N9  ZIN A   1      19.424  -2.456   6.916  0.00  0.00    -0.106 NA
ENDBRANCH   9  11
ENDBRANCH   5   9
BRANCH   1  17
ATOM     17  N1  ZIN A   1      19.914   2.692  10.766  0.00  0.00    -0.399 N 
ATOM     18  H16 ZIN A   1      20.864   2.660  10.958  0.00  0.00     0.156 HD
ATOM     19  H17 ZIN A   1      19.379   3.436  11.084  0.00  0.00     0.156 HD
ENDBRANCH   1  17
TORSDOF 3
ENDMDL
MODEL 8
REMARK VINA RESULT:      -5.5      2.891      5.001
REMARK  3 active torsions:
REMARK  status: ('A' for Active; 'I' for Inactive)
REMARK    1  A    between atoms: N1_1  and  C2_2 
REMARK    2  A    between atoms: C6_6  and  N7_7 
REMARK    3  A    between atoms: N7_7  and  C8_8 
ROOT
ATOM      1  C2  ZIN A   1      18.134   0.764  14.240  0.00  0.00     0.029 A 
ATOM      2  C3  ZIN A   1      18.672   1.836  13.541  0.00  0.00     0.055 A 
ATOM      3  C4  ZIN A   1      19.468   1.610  12.434  0.00  0.00     0.065 A 
ATOM      4 Cl5  ZIN A   1      20.141   2.951  11.561  0.00  0.00    -0.082 Cl
ATOM      5  C6  ZIN A   1      19.730   0.311  12.022  0.00  0.00     0.092 A 
ATOM      6  C13 ZIN A   1      19.192  -0.762  12.722  0.00  0.00     0.065 A 
ATOM      7 Cl14 ZIN A   1      19.520  -2.388  12.206  0.00  0.00    -0.082 Cl
ATOM      8  C15 ZIN A   1      18.400  -0.535  13.831  0.00  0.00     0.055 A 
ENDROOT
BRANCH   5   9
ATOM      9  N7  ZIN A   1      20.539   0.081  10.899  0.00  0.00    -0.187 N 
ATOM     10  H19 ZIN A   1      21.505   0.053  10.995  0.00  0.00     0.184 HD
BRANCH   9  11
ATOM     11  C8  ZIN A   1      19.966  -0.105   9.663  0.00  0.00     0.696 A 
ATOM     12  N12 ZIN A   1      19.952  -1.315   9.024  0.00  0.00    -0.223 N 
ATOM     13  C11 ZIN A   1      19.261  -1.151   7.734  0.00  0.00     0.160 A 
ATOM     14  H24 ZIN A   1      20.330  -2.141   9.365  0.00  0.00     0.177 HD
ATOM     15  C10 ZIN A   1      18.884   0.343   7.722  0.00  0.00     0.189 A 
ATOM     16  N9  ZIN A   1      19.399   0.851   9.001  0.00  0.00    -0.106 NA
ENDBRANCH   9  11
ENDBRANCH   5   9
BRANCH   1  17
ATOM     17  N1  ZIN A   1      17.327   0.994  15.360  0.00  0.00    -0.399 N 
ATOM     18  H16 ZIN A   1      17.237   0.308  16.041  0.00  0.00     0.156 HD
ATOM     19  H17 ZIN A   1      16.864   1.840  15.459  0.00  0.00     0.156 HD
ENDBRANCH   1  17
TORSDOF 3
ENDMDL
MODEL 9
REMARK VINA RESULT:      -5.4      2.393      2.879
REMARK  3 active torsions:
REMARK  status: ('A' for Active; 'I' for Inactive)
REMARK    1  A    between atoms: N1_1  and  C2_2 
REMARK    2  A    between atoms: C6_6  and  N7_7 
REMARK    3  A    between atoms: N7_7  and  C8_8 
ROOT
ATOM      1  C2  ZIN A   1      18.056  -2.989  11.253  0.00  0.00     0.029 A 
ATOM      2  C3  ZIN A   1      18.553  -2.206  10.219  0.00  0.00     0.055 A 
ATOM      3  C4  ZIN A   1      19.381  -1.136  10.498  0.00  0.00     0.065 A 
ATOM      4 Cl5  ZIN A   1      20.001  -0.157   9.205  0.00  0.00    -0.082 Cl
ATOM      5  C6  ZIN A   1      19.715  -0.842  11.813  0.00  0.00     0.092 A 
ATOM      6  C13 ZIN A   1      19.218  -1.624  12.848  0.00  0.00     0.065 A 
ATOM      7 Cl14 ZIN A   1      19.637  -1.257  14.493  0.00  0.00    -0.082 Cl
ATOM      8  C15 ZIN A   1      18.386  -2.692  12.568  0.00  0.00     0.055 A 
ENDROOT
BRANCH   5   9
ATOM      9  N7  ZIN A   1      20.555   0.246  12.097  0.00  0.00    -0.187 N 
ATOM     10  H19 ZIN A   1      21.504   0.101  12.240  0.00  0.00     0.184 HD
BRANCH   9  11
ATOM     11  C8  ZIN A   1      20.033   1.516  12.174  0.00  0.00     0.696 A 
ATOM     12  N12 ZIN A   1      20.755   2.636  11.861  0.00  0.00    -0.223 N 
ATOM     13  C11 ZIN A   1      19.891   3.813  12.052  0.00  0.00     0.160 A 
ATOM     14  H24 ZIN A   1      21.677   2.651  11.559  0.00  0.00     0.177 HD
ATOM     15  C10 ZIN A   1      18.561   3.202  12.533  0.00  0.00     0.189 A 
ATOM     16  N9  ZIN A   1      18.821   1.756  12.555  0.00  0.00    -0.106 NA
ENDBRANCH   9  11
ENDBRANCH   5   9
BRANCH   1  17
ATOM     17  N1  ZIN A   1      17.218  -4.072  10.969  0.00  0.00    -0.399 N 
ATOM     18  H16 ZIN A   1      17.407  -4.645  10.210  0.00  0.00     0.156 HD
ATOM     19  H17 ZIN A   1      16.451  -4.254  11.534  0.00  0.00     0.156 HD
ENDBRANCH   1  17
TORSDOF 3
ENDMDL
