MODEL 1
REMARK VINA RESULT:      -6.6      0.000      0.000
REMARK  9 active torsions:
REMARK  status: ('A' for Active; 'I' for Inactive)
REMARK    1  A    between atoms: C2_2  and  O3_3 
REMARK    2  A    between atoms: O3_3  and  C4_4 
REMARK    3  A    between atoms: C4_4  and  C6_6 
REMARK    4  A    between atoms: C8_8  and  O10_9 
REMARK    5  A    between atoms: O10_9  and  C11_10 
REMARK    6  A    between atoms: C11_10  and  C12_11 
REMARK    7  A    between atoms: C11_10  and  C14_13 
REMARK    8  A    between atoms: C16_15  and  N18_16 
REMARK       I    between atoms: N18_16  and  C19_17 
REMARK    9  A    between atoms: C22_20  and  N24_21 
ROOT
ATOM      1  C6  <0> d   1      19.322   2.173  10.802  0.00  0.00     0.018 C 
ATOM      2  C7  <0> d   1      19.867   1.079  11.292  0.00  0.00     0.020 C 
ATOM      3  C8  <0> d   1      20.140  -0.153  10.478  0.00  0.00     0.170 C 
ATOM      4  C16 <0> d   1      19.332  -0.117   9.179  0.00  0.00     0.147 C 
ATOM      5  C22 <0> d   1      19.552   1.245   8.508  0.00  0.00     0.213 C 
ATOM      6  C28 <0> d   1      18.888   2.322   9.373  0.00  0.00     0.079 C 
ENDROOT
BRANCH   3   7
ATOM      7  O10 <0> d   1      19.767  -1.310  11.231  0.00  0.00    -0.375 OA
BRANCH   7   8
ATOM      8  C11 <0> d   1      18.887  -1.033  12.322  0.00  0.00     0.121 C 
BRANCH   8   9
ATOM      9  C12 <0> d   1      17.463  -1.448  11.947  0.00  0.00     0.027 C 
ATOM     10  C13 <0> d   1      16.605  -0.197  11.743  0.00  0.00     0.007 C 
ENDBRANCH   8   9
BRANCH   8  11
ATOM     11  C14 <0> d   1      19.339  -1.821  13.554  0.00  0.00     0.027 C 
ATOM     12  C15 <0> d   1      19.135  -0.969  14.808  0.00  0.00     0.007 C 
ENDBRANCH   8  11
ENDBRANCH   7   8
ENDBRANCH   3   7
BRANCH   4  13
ATOM     13  N18 <0> d   1      19.785  -1.187   8.287  0.00  0.00    -0.352 N 
ATOM     14  C19 <0> d   1      18.963  -2.215   7.999  0.00  0.00     0.214 C 
ATOM     15  C20 <0> d   1      19.428  -3.317   7.081  0.00  0.00     0.117 C 
ATOM     16  O21 <0> d   1      17.848  -2.255   8.478  0.00  0.00    -0.274 OA
ATOM     17  H46 <0> d   1      20.675  -1.156   7.905  0.00  0.00     0.163 HD
ENDBRANCH   4  13
BRANCH   1  18
ATOM     18  C4  <0> d   1      19.120   3.311  11.709  0.00  0.00     0.289 C 
ATOM     19  O5  <0> d   1      20.048   4.050  11.974  0.00  0.00    -0.260 OA
BRANCH  18  20
ATOM     20  O3  <0> d   1      17.905   3.537  12.247  0.00  0.00    -0.318 OA
BRANCH  20  21
ATOM     21  C2  <0> d   1      17.379   4.886  12.144  0.00  0.00     0.174 C 
ATOM     22  C1  <0> d   1      16.916   5.146  10.709  0.00  0.00     0.034 C 
ENDBRANCH  20  21
ENDBRANCH  18  20
ENDBRANCH   1  18
BRANCH   5  23
ATOM     23  N24 <0> d   1      18.944   1.241   7.171  0.00  0.00    -0.073 N 
ATOM     24  H25 <0> d   1      18.625   2.170   6.943  0.00  0.00     0.274 HD
ATOM     25  H26 <0> d   1      19.628   0.944   6.491  0.00  0.00     0.274 HD
ATOM     26  H27 <0> d   1      18.161   0.603   7.160  0.00  0.00     0.274 HD
ENDBRANCH   5  23
TORSDOF 9
ENDMDL
MODEL 2
REMARK VINA RESULT:      -6.6      3.207      5.329
REMARK  9 active torsions:
REMARK  status: ('A' for Active; 'I' for Inactive)
REMARK    1  A    between atoms: C2_2  and  O3_3 
REMARK    2  A    between atoms: O3_3  and  C4_4 
REMARK    3  A    between atoms: C4_4  and  C6_6 
REMARK    4  A    between atoms: C8_8  and  O10_9 
REMARK    5  A    between atoms: O10_9  and  C11_10 
REMARK    6  A    between atoms: C11_10  and  C12_11 
REMARK    7  A    between atoms: C11_10  and  C14_13 
REMARK    8  A    between atoms: C16_15  and  N18_16 
REMARK       I    between atoms: N18_16  and  C19_17 
REMARK    9  A    between atoms: C22_20  and  N24_21 
ROOT
ATOM      1  C6  <0> d   1      18.419  -0.384  15.051  0.00  0.00     0.018 C 
ATOM      2  C7  <0> d   1      18.336  -1.299  14.108  0.00  0.00     0.020 C 
ATOM      3  C8  <0> d   1      18.579  -1.022  12.653  0.00  0.00     0.170 C 
ATOM      4  C16 <0> d   1      18.501   0.482  12.383  0.00  0.00     0.147 C 
ATOM      5  C22 <0> d   1      19.387   1.206  13.405  0.00  0.00     0.213 C 
ATOM      6  C28 <0> d   1      18.747   1.057  14.789  0.00  0.00     0.079 C 
ENDROOT
BRANCH   3   7
ATOM      7  O10 <0> d   1      17.586  -1.692  11.872  0.00  0.00    -0.375 OA
BRANCH   7   8
ATOM      8  C11 <0> d   1      18.081  -2.820  11.147  0.00  0.00     0.121 C 
BRANCH   8   9
ATOM      9  C12 <0> d   1      19.606  -2.738  11.055  0.00  0.00     0.027 C 
ATOM     10  C13 <0> d   1      20.213  -4.089  11.439  0.00  0.00     0.007 C 
ENDBRANCH   8   9
BRANCH   8  11
ATOM     11  C14 <0> d   1      17.682  -4.106  11.873  0.00  0.00     0.027 C 
ATOM     12  C15 <0> d   1      16.631  -4.853  11.049  0.00  0.00     0.007 C 
ENDBRANCH   8  11
ENDBRANCH   7   8
ENDBRANCH   3   7
BRANCH   4  13
ATOM     13  N18 <0> d   1      18.977   0.765  11.027  0.00  0.00    -0.352 N 
ATOM     14  C19 <0> d   1      18.313   1.642  10.250  0.00  0.00     0.214 C 
ATOM     15  C20 <0> d   1      18.803   1.934   8.854  0.00  0.00     0.117 C 
ATOM     16  O21 <0> d   1      17.321   2.199  10.672  0.00  0.00    -0.274 OA
ATOM     17  H46 <0> d   1      19.770   0.320  10.689  0.00  0.00     0.163 HD
ENDBRANCH   4  13
BRANCH   1  18
ATOM     18  C4  <0> d   1      18.166  -0.795  16.439  0.00  0.00     0.289 C 
ATOM     19  O5  <0> d   1      17.051  -1.144  16.776  0.00  0.00    -0.260 OA
BRANCH  18  20
ATOM     20  O3  <0> d   1      19.169  -0.788  17.338  0.00  0.00    -0.318 OA
BRANCH  20  21
ATOM     21  C2  <0> d   1      18.932  -0.087  18.587  0.00  0.00     0.174 C 
ATOM     22  C1  <0> d   1      19.152   1.413  18.380  0.00  0.00     0.034 C 
ENDBRANCH  20  21
ENDBRANCH  18  20
ENDBRANCH   1  18
BRANCH   5  23
ATOM     23  N24 <0> d   1      19.483   2.629  13.055  0.00  0.00    -0.073 N 
ATOM     24  H25 <0> d   1      19.770   3.157  13.866  0.00  0.00     0.274 HD
ATOM     25  H26 <0> d   1      20.162   2.750  12.318  0.00  0.00     0.274 HD
ATOM     26  H27 <0> d   1      18.583   2.959  12.740  0.00  0.00     0.274 HD
ENDBRANCH   5  23
TORSDOF 9
ENDMDL
MODEL 3
REMARK VINA RESULT:      -6.5      2.345      5.762
REMARK  9 active torsions:
REMARK  status: ('A' for Active; 'I' for Inactive)
REMARK    1  A    between atoms: C2_2  and  O3_3 
REMARK    2  A    between atoms: O3_3  and  C4_4 
REMARK    3  A    between atoms: C4_4  and  C6_6 
REMARK    4  A    between atoms: C8_8  and  O10_9 
REMARK    5  A    between atoms: O10_9  and  C11_10 
REMARK    6  A    between atoms: C11_10  and  C12_11 
REMARK    7  A    between atoms: C11_10  and  C14_13 
REMARK    8  A    between atoms: C16_15  and  N18_16 
REMARK       I    between atoms: N18_16  and  C19_17 
REMARK    9  A    between atoms: C22_20  and  N24_21 
ROOT
ATOM      1  C6  <0> d   1      19.142   0.688   8.525  0.00  0.00     0.018 C 
ATOM      2  C7  <0> d   1      18.684   1.693   9.241  0.00  0.00     0.020 C 
ATOM      3  C8  <0> d   1      18.786   1.767  10.737  0.00  0.00     0.170 C 
ATOM      4  C16 <0> d   1      19.082   0.380  11.314  0.00  0.00     0.147 C 
ATOM      5  C22 <0> d   1      20.266  -0.223  10.546  0.00  0.00     0.213 C 
ATOM      6  C28 <0> d   1      19.810  -0.520   9.114  0.00  0.00     0.079 C 
ENDROOT
BRANCH   3   7
ATOM      7  O10 <0> d   1      17.550   2.244  11.273  0.00  0.00    -0.375 OA
BRANCH   7   8
ATOM      8  C11 <0> d   1      17.649   3.519  11.912  0.00  0.00     0.121 C 
BRANCH   8   9
ATOM      9  C12 <0> d   1      19.093   4.016  11.841  0.00  0.00     0.027 C 
ATOM     10  C13 <0> d   1      19.474   4.670  13.171  0.00  0.00     0.007 C 
ENDBRANCH   8   9
BRANCH   8  11
ATOM     11  C14 <0> d   1      16.730   4.517  11.202  0.00  0.00     0.027 C 
ATOM     12  C15 <0> d   1      17.485   5.171  10.044  0.00  0.00     0.007 C 
ENDBRANCH   8  11
ENDBRANCH   7   8
ENDBRANCH   3   7
BRANCH   4  13
ATOM     13  N18 <0> d   1      19.423   0.500  12.734  0.00  0.00    -0.352 N 
ATOM     14  C19 <0> d   1      18.613  -0.037  13.667  0.00  0.00     0.214 C 
ATOM     15  C20 <0> d   1      18.963   0.086  15.128  0.00  0.00     0.117 C 
ATOM     16  O21 <0> d   1      17.602  -0.619  13.332  0.00  0.00    -0.274 OA
ATOM     17  H46 <0> d   1      20.230   0.966  13.001  0.00  0.00     0.163 HD
ENDBRANCH   4  13
BRANCH   1  18
ATOM     18  C4  <0> d   1      18.984   0.749   7.066  0.00  0.00     0.289 C 
ATOM     19  O5  <0> d   1      18.816   1.821   6.517  0.00  0.00    -0.260 OA
BRANCH  18  20
ATOM     20  O3  <0> d   1      19.027  -0.382   6.334  0.00  0.00    -0.318 OA
BRANCH  20  21
ATOM     21  C2  <0> d   1      19.029  -0.234   4.890  0.00  0.00     0.174 C 
ATOM     22  C1  <0> d   1      17.954  -1.137   4.283  0.00  0.00     0.034 C 
ENDBRANCH  20  21
ENDBRANCH  18  20
ENDBRANCH   1  18
BRANCH   5  23
ATOM     23  N24 <0> d   1      20.694  -1.468  11.198  0.00  0.00    -0.073 N 
ATOM     24  H25 <0> d   1      20.977  -1.271  12.146  0.00  0.00     0.274 HD
ATOM     25  H26 <0> d   1      19.928  -2.125  11.205  0.00  0.00     0.274 HD
ATOM     26  H27 <0> d   1      21.472  -1.863  10.689  0.00  0.00     0.274 HD
ENDBRANCH   5  23
TORSDOF 9
ENDMDL
MODEL 4
REMARK VINA RESULT:      -6.5      3.789      6.122
REMARK  9 active torsions:
REMARK  status: ('A' for Active; 'I' for Inactive)
REMARK    1  A    between atoms: C2_2  and  O3_3 
REMARK    2  A    between atoms: O3_3  and  C4_4 
REMARK    3  A    between atoms: C4_4  and  C6_6 
REMARK    4  A    between atoms: C8_8  and  O10_9 
REMARK    5  A    between atoms: O10_9  and  C11_10 
REMARK    6  A    between atoms: C11_10  and  C12_11 
REMARK    7  A    between atoms: C11_10  and  C14_13 
REMARK    8  A    between atoms: C16_15  and  N18_16 
REMARK       I    between atoms: N18_16  and  C19_17 
REMARK    9  A    between atoms: C22_20  and  N24_21 
ROOT
ATOM      1  C6  <0> d   1      18.284   3.145  11.975  0.00  0.00     0.018 C 
ATOM      2  C7  <0> d   1      18.292   1.990  12.608  0.00  0.00     0.020 C 
ATOM      3  C8  <0> d   1      18.163   1.854  14.098  0.00  0.00     0.170 C 
ATOM      4  C16 <0> d   1      18.455   3.195  14.776  0.00  0.00     0.147 C 
ATOM      5  C22 <0> d   1      17.622   4.281  14.084  0.00  0.00     0.213 C 
ATOM      6  C28 <0> d   1      18.164   4.473  12.663  0.00  0.00     0.079 C 
ENDROOT
BRANCH   3   7
ATOM      7  O10 <0> d   1      19.096   0.878  14.566  0.00  0.00    -0.375 OA
BRANCH   7   8
ATOM      8  C11 <0> d   1      18.523  -0.413  14.788  0.00  0.00     0.121 C 
BRANCH   8   9
ATOM      9  C12 <0> d   1      19.360  -1.472  14.070  0.00  0.00     0.027 C 
ATOM     10  C13 <0> d   1      18.615  -1.953  12.824  0.00  0.00     0.007 C 
ENDBRANCH   8   9
BRANCH   8  11
ATOM     11  C14 <0> d   1      18.502  -0.709  16.289  0.00  0.00     0.027 C 
ATOM     12  C15 <0> d   1      17.108  -0.416  16.848  0.00  0.00     0.007 C 
ENDBRANCH   8  11
ENDBRANCH   7   8
ENDBRANCH   3   7
BRANCH   4  13
ATOM     13  N18 <0> d   1      18.091   3.119  16.193  0.00  0.00    -0.352 N 
ATOM     14  C19 <0> d   1      19.035   3.282  17.140  0.00  0.00     0.214 C 
ATOM     15  C20 <0> d   1      18.661   3.204  18.598  0.00  0.00     0.117 C 
ATOM     16  O21 <0> d   1      20.187   3.490  16.820  0.00  0.00    -0.274 OA
ATOM     17  H46 <0> d   1      17.170   2.953  16.449  0.00  0.00     0.163 HD
ENDBRANCH   4  13
BRANCH   1  18
ATOM     18  C4  <0> d   1      18.408   3.132  10.511  0.00  0.00     0.289 C 
ATOM     19  O5  <0> d   1      17.994   4.069   9.858  0.00  0.00    -0.260 OA
BRANCH  18  20
ATOM     20  O3  <0> d   1      18.984   2.083   9.893  0.00  0.00    -0.318 OA
BRANCH  20  21
ATOM     21  C2  <0> d   1      19.113   2.157   8.448  0.00  0.00     0.174 C 
ATOM     22  C1  <0> d   1      18.837   0.781   7.840  0.00  0.00     0.034 C 
ENDBRANCH  20  21
ENDBRANCH  18  20
ENDBRANCH   1  18
BRANCH   5  23
ATOM     23  N24 <0> d   1      17.735   5.541  14.831  0.00  0.00    -0.073 N 
ATOM     24  H25 <0> d   1      18.682   5.885  14.769  0.00  0.00     0.274 HD
ATOM     25  H26 <0> d   1      17.103   6.223  14.439  0.00  0.00     0.274 HD
ATOM     26  H27 <0> d   1      17.498   5.380  15.799  0.00  0.00     0.274 HD
ENDBRANCH   5  23
TORSDOF 9
ENDMDL
MODEL 5
REMARK VINA RESULT:      -6.5      2.922      5.074
REMARK  9 active torsions:
REMARK  status: ('A' for Active; 'I' for Inactive)
REMARK    1  A    between atoms: C2_2  and  O3_3 
REMARK    2  A    between atoms: O3_3  and  C4_4 
REMARK    3  A    between atoms: C4_4  and  C6_6 
REMARK    4  A    between atoms: C8_8  and  O10_9 
REMARK    5  A    between atoms: O10_9  and  C11_10 
REMARK    6  A    between atoms: C11_10  and  C12_11 
REMARK    7  A    between atoms: C11_10  and  C14_13 
REMARK    8  A    between atoms: C16_15  and  N18_16 
REMARK       I    between atoms: N18_16  and  C19_17 
REMARK    9  A    between atoms: C22_20  and  N24_21 
ROOT
ATOM      1  C6  <0> d   1      18.641   1.055  10.191  0.00  0.00     0.018 C 
ATOM      2  C7  <0> d   1      17.643   0.211  10.352  0.00  0.00     0.020 C 
ATOM      3  C8  <0> d   1      17.229  -0.347  11.683  0.00  0.00     0.170 C 
ATOM      4  C16 <0> d   1      18.350  -0.155  12.707  0.00  0.00     0.147 C 
ATOM      5  C22 <0> d   1      18.807   1.309  12.657  0.00  0.00     0.213 C 
ATOM      6  C28 <0> d   1      19.503   1.552  11.314  0.00  0.00     0.079 C 
ENDROOT
BRANCH   3   7
ATOM      7  O10 <0> d   1      16.953  -1.743  11.546  0.00  0.00    -0.375 OA
BRANCH   7   8
ATOM      8  C11 <0> d   1      18.056  -2.508  11.054  0.00  0.00     0.121 C 
BRANCH   8   9
ATOM      9  C12 <0> d   1      18.366  -3.641  12.033  0.00  0.00     0.027 C 
ATOM     10  C13 <0> d   1      17.432  -4.821  11.760  0.00  0.00     0.007 C 
ENDBRANCH   8   9
BRANCH   8  11
ATOM     11  C14 <0> d   1      17.699  -3.096   9.688  0.00  0.00     0.027 C 
ATOM     12  C15 <0> d   1      18.838  -2.827   8.703  0.00  0.00     0.007 C 
ENDBRANCH   8  11
ENDBRANCH   7   8
ENDBRANCH   3   7
BRANCH   4  13
ATOM     13  N18 <0> d   1      17.853  -0.473  14.048  0.00  0.00    -0.352 N 
ATOM     14  C19 <0> d   1      18.626  -1.168  14.904  0.00  0.00     0.214 C 
ATOM     15  C20 <0> d   1      18.115  -1.496  16.284  0.00  0.00     0.117 C 
ATOM     16  O21 <0> d   1      19.734  -1.531  14.566  0.00  0.00    -0.274 OA
ATOM     17  H46 <0> d   1      16.967  -0.184  14.318  0.00  0.00     0.163 HD
ENDBRANCH   4  13
BRANCH   1  18
ATOM     18  C4  <0> d   1      18.932   1.530   8.832  0.00  0.00     0.289 C 
ATOM     19  O5  <0> d   1      18.865   2.717   8.575  0.00  0.00    -0.260 OA
BRANCH  18  20
ATOM     20  O3  <0> d   1      19.275   0.652   7.869  0.00  0.00    -0.318 OA
BRANCH  20  21
ATOM     21  C2  <0> d   1      18.669   0.834   6.563  0.00  0.00     0.174 C 
ATOM     22  C1  <0> d   1      17.413  -0.034   6.458  0.00  0.00     0.034 C 
ENDBRANCH  20  21
ENDBRANCH  18  20
ENDBRANCH   1  18
BRANCH   5  23
ATOM     23  N24 <0> d   1      19.747   1.570  13.756  0.00  0.00    -0.073 N 
ATOM     24  H25 <0> d   1      20.526   2.110  13.411  0.00  0.00     0.274 HD
ATOM     25  H26 <0> d   1      19.277   2.086  14.485  0.00  0.00     0.274 HD
ATOM     26  H27 <0> d   1      20.082   0.693  14.127  0.00  0.00     0.274 HD
ENDBRANCH   5  23
TORSDOF 9
ENDMDL
MODEL 6
REMARK VINA RESULT:      -6.4      2.798      5.314
REMARK  9 active torsions:
REMARK  status: ('A' for Active; 'I' for Inactive)
REMARK    1  A    between atoms: C2_2  and  O3_3 
REMARK    2  A    between atoms: O3_3  and  C4_4 
REMARK    3  A    between atoms: C4_4  and  C6_6 
REMARK    4  A    between atoms: C8_8  and  O10_9 
REMARK    5  A    between atoms: O10_9  and  C11_10 
REMARK    6  A    between atoms: C11_10  and  C12_11 
REMARK    7  A    between atoms: C11_10  and  C14_13 
REMARK    8  A    between atoms: C16_15  and  N18_16 
REMARK       I    between atoms: N18_16  and  C19_17 
REMARK    9  A    between atoms: C22_20  and  N24_21 
ROOT
ATOM      1  C6  <0> d   1      18.386  -2.256  10.988  0.00  0.00     0.018 C 
ATOM      2  C7  <0> d   1      18.290  -1.298  10.090  0.00  0.00     0.020 C 
ATOM      3  C8  <0> d   1      18.089  -1.547   8.623  0.00  0.00     0.170 C 
ATOM      4  C16 <0> d   1      18.440  -2.997   8.281  0.00  0.00     0.147 C 
ATOM      5  C22 <0> d   1      17.711  -3.918   9.269  0.00  0.00     0.213 C 
ATOM      6  C28 <0> d   1      18.326  -3.718  10.658  0.00  0.00     0.079 C 
ENDROOT
BRANCH   3   7
ATOM      7  O10 <0> d   1      18.933  -0.670   7.874  0.00  0.00    -0.375 OA
BRANCH   7   8
ATOM      8  C11 <0> d   1      18.277   0.510   7.406  0.00  0.00     0.121 C 
BRANCH   8   9
ATOM      9  C12 <0> d   1      19.184   1.721   7.628  0.00  0.00     0.027 C 
ATOM     10  C13 <0> d   1      18.960   2.274   9.037  0.00  0.00     0.007 C 
ENDBRANCH   8   9
BRANCH   8  11
ATOM     11  C14 <0> d   1      17.973   0.366   5.913  0.00  0.00     0.027 C 
ATOM     12  C15 <0> d   1      19.283   0.202   5.139  0.00  0.00     0.007 C 
ENDBRANCH   8  11
ENDBRANCH   7   8
ENDBRANCH   3   7
BRANCH   4  13
ATOM     13  N18 <0> d   1      18.010  -3.298   6.914  0.00  0.00    -0.352 N 
ATOM     14  C19 <0> d   1      18.927  -3.436   5.936  0.00  0.00     0.214 C 
ATOM     15  C20 <0> d   1      18.486  -3.746   4.528  0.00  0.00     0.117 C 
ATOM     16  O21 <0> d   1      20.108  -3.310   6.188  0.00  0.00    -0.274 OA
ATOM     17  H46 <0> d   1      17.067  -3.399   6.712  0.00  0.00     0.163 HD
ENDBRANCH   4  13
BRANCH   1  18
ATOM     18  C4  <0> d   1      18.573  -1.870  12.393  0.00  0.00     0.289 C 
ATOM     19  O5  <0> d   1      19.531  -2.284  13.016  0.00  0.00    -0.260 OA
BRANCH  18  20
ATOM     20  O3  <0> d   1      17.682  -1.055  12.992  0.00  0.00    -0.318 OA
BRANCH  20  21
ATOM     21  C2  <0> d   1      18.212  -0.046  13.892  0.00  0.00     0.174 C 
ATOM     22  C1  <0> d   1      17.793  -0.372  15.327  0.00  0.00     0.034 C 
ENDBRANCH  20  21
ENDBRANCH  18  20
ENDBRANCH   1  18
BRANCH   5  23
ATOM     23  N24 <0> d   1      17.876  -5.317   8.851  0.00  0.00    -0.073 N 
ATOM     24  H25 <0> d   1      18.220  -5.862   9.628  0.00  0.00     0.274 HD
ATOM     25  H26 <0> d   1      16.985  -5.685   8.550  0.00  0.00     0.274 HD
ATOM     26  H27 <0> d   1      18.535  -5.365   8.088  0.00  0.00     0.274 HD
ENDBRANCH   5  23
TORSDOF 9
ENDMDL
MODEL 7
REMARK VINA RESULT:      -6.4      2.340      5.036
REMARK  9 active torsions:
REMARK  status: ('A' for Active; 'I' for Inactive)
REMARK    1  A    between atoms: C2_2  and  O3_3 
REMARK    2  A    between atoms: O3_3  and  C4_4 
REMARK    3  A    between atoms: C4_4  and  C6_6 
REMARK    4  A    between atoms: C8_8  and  O10_9 
REMARK    5  A    between atoms: O10_9  and  C11_10 
REMARK    6  A    between atoms: C11_10  and  C12_11 
REMARK    7  A    between atoms: C11_10  and  C14_13 
REMARK    8  A    between atoms: C16_15  and  N18_16 
REMARK       I    between atoms: N18_16  and  C19_17 
REMARK    9  A    between atoms: C22_20  and  N24_21 
ROOT
ATOM      1  C6  <0> d   1      19.011   0.796  13.809  0.00  0.00     0.018 C 
ATOM      2  C7  <0> d   1      17.985   1.347  13.194  0.00  0.00     0.020 C 
ATOM      3  C8  <0> d   1      17.719   1.204  11.724  0.00  0.00     0.170 C 
ATOM      4  C16 <0> d   1      18.981   0.724  11.004  0.00  0.00     0.147 C 
ATOM      5  C22 <0> d   1      19.533  -0.497  11.752  0.00  0.00     0.213 C 
ATOM      6  C28 <0> d   1      20.053  -0.031  13.116  0.00  0.00     0.079 C 
ENDROOT
BRANCH   3   7
ATOM      7  O10 <0> d   1      17.325   2.469  11.189  0.00  0.00    -0.375 OA
BRANCH   7   8
ATOM      8  C11 <0> d   1      17.651   3.581  12.025  0.00  0.00     0.121 C 
BRANCH   8   9
ATOM      9  C12 <0> d   1      19.091   4.018  11.754  0.00  0.00     0.027 C 
ATOM     10  C13 <0> d   1      19.635   4.765  12.973  0.00  0.00     0.007 C 
ENDBRANCH   8   9
BRANCH   8  11
ATOM     11  C14 <0> d   1      16.700   4.741  11.724  0.00  0.00     0.027 C 
ATOM     12  C15 <0> d   1      17.058   5.358  10.371  0.00  0.00     0.007 C 
ENDBRANCH   8  11
ENDBRANCH   7   8
ENDBRANCH   3   7
BRANCH   4  13
ATOM     13  N18 <0> d   1      18.651   0.352   9.626  0.00  0.00    -0.352 N 
ATOM     14  C19 <0> d   1      19.022   1.151   8.607  0.00  0.00     0.214 C 
ATOM     15  C20 <0> d   1      18.683   0.769   7.188  0.00  0.00     0.117 C 
ATOM     16  O21 <0> d   1      19.630   2.178   8.829  0.00  0.00    -0.274 OA
ATOM     17  H46 <0> d   1      18.165  -0.468   9.448  0.00  0.00     0.163 HD
ENDBRANCH   4  13
BRANCH   1  18
ATOM     18  C4  <0> d   1      19.146   1.010  15.257  0.00  0.00     0.289 C 
ATOM     19  O5  <0> d   1      19.233   2.138  15.699  0.00  0.00    -0.260 OA
BRANCH  18  20
ATOM     20  O3  <0> d   1      19.171  -0.045  16.095  0.00  0.00    -0.318 OA
BRANCH  20  21
ATOM     21  C2  <0> d   1      18.022  -0.933  16.074  0.00  0.00     0.174 C 
ATOM     22  C1  <0> d   1      16.886  -0.316  16.893  0.00  0.00     0.034 C 
ENDBRANCH  20  21
ENDBRANCH  18  20
ENDBRANCH   1  18
BRANCH   5  23
ATOM     23  N24 <0> d   1      20.632  -1.093  10.981  0.00  0.00    -0.073 N 
ATOM     24  H25 <0> d   1      21.484  -0.584  11.159  0.00  0.00     0.274 HD
ATOM     25  H26 <0> d   1      20.752  -2.057  11.256  0.00  0.00     0.274 HD
ATOM     26  H27 <0> d   1      20.413  -1.049   9.996  0.00  0.00     0.274 HD
ENDBRANCH   5  23
TORSDOF 9
ENDMDL
MODEL 8
REMARK VINA RESULT:      -6.4      2.001      2.785
REMARK  9 active torsions:
REMARK  status: ('A' for Active; 'I' for Inactive)
REMARK    1  A    between atoms: C2_2  and  O3_3 
REMARK    2  A    between atoms: O3_3  and  C4_4 
REMARK    3  A    between atoms: C4_4  and  C6_6 
REMARK    4  A    between atoms: C8_8  and  O10_9 
REMARK    5  A    between atoms: O10_9  and  C11_10 
REMARK    6  A    between atoms: C11_10  and  C12_11 
REMARK    7  A    between atoms: C11_10  and  C14_13 
REMARK    8  A    between atoms: C16_15  and  N18_16 
REMARK       I    between atoms: N18_16  and  C19_17 
REMARK    9  A    between atoms: C22_20  and  N24_21 
ROOT
ATOM      1  C6  <0> d   1      18.369   2.166  10.654  0.00  0.00     0.018 C 
ATOM      2  C7  <0> d   1      18.530   1.815  11.913  0.00  0.00     0.020 C 
ATOM      3  C8  <0> d   1      19.145   0.516  12.345  0.00  0.00     0.170 C 
ATOM      4  C16 <0> d   1      19.150  -0.478  11.181  0.00  0.00     0.147 C 
ATOM      5  C22 <0> d   1      19.744   0.219   9.950  0.00  0.00     0.213 C 
ATOM      6  C28 <0> d   1      18.764   1.304   9.491  0.00  0.00     0.079 C 
ENDROOT
BRANCH   3   7
ATOM      7  O10 <0> d   1      18.387  -0.031  13.426  0.00  0.00    -0.375 OA
BRANCH   7   8
ATOM      8  C11 <0> d   1      19.033   0.069  14.697  0.00  0.00     0.121 C 
BRANCH   8   9
ATOM      9  C12 <0> d   1      18.227   0.997  15.608  0.00  0.00     0.027 C 
ATOM     10  C13 <0> d   1      19.095   2.188  16.018  0.00  0.00     0.007 C 
ENDBRANCH   8   9
BRANCH   8  11
ATOM     11  C14 <0> d   1      19.122  -1.320  15.334  0.00  0.00     0.027 C 
ATOM     12  C15 <0> d   1      18.038  -1.462  16.404  0.00  0.00     0.007 C 
ENDBRANCH   8  11
ENDBRANCH   7   8
ENDBRANCH   3   7
BRANCH   4  13
ATOM     13  N18 <0> d   1      19.965  -1.643  11.532  0.00  0.00    -0.352 N 
ATOM     14  C19 <0> d   1      19.519  -2.884  11.255  0.00  0.00     0.214 C 
ATOM     15  C20 <0> d   1      20.358  -4.084  11.615  0.00  0.00     0.117 C 
ATOM     16  O21 <0> d   1      18.442  -3.037  10.717  0.00  0.00    -0.274 OA
ATOM     17  H46 <0> d   1      20.826  -1.521  11.963  0.00  0.00     0.163 HD
ENDBRANCH   4  13
BRANCH   1  18
ATOM     18  C4  <0> d   1      17.761   3.473  10.373  0.00  0.00     0.289 C 
ATOM     19  O5  <0> d   1      18.176   4.152   9.453  0.00  0.00    -0.260 OA
BRANCH  18  20
ATOM     20  O3  <0> d   1      16.741   3.920  11.131  0.00  0.00    -0.318 OA
BRANCH  20  21
ATOM     21  C2  <0> d   1      16.756   5.325  11.498  0.00  0.00     0.174 C 
ATOM     22  C1  <0> d   1      16.380   5.471  12.974  0.00  0.00     0.034 C 
ENDBRANCH  20  21
ENDBRANCH  18  20
ENDBRANCH   1  18
BRANCH   5  23
ATOM     23  N24 <0> d   1      19.936  -0.762   8.873  0.00  0.00    -0.073 N 
ATOM     24  H25 <0> d   1      19.795  -1.692   9.236  0.00  0.00     0.274 HD
ATOM     25  H26 <0> d   1      19.273  -0.584   8.134  0.00  0.00     0.274 HD
ATOM     26  H27 <0> d   1      20.875  -0.681   8.509  0.00  0.00     0.274 HD
ENDBRANCH   5  23
TORSDOF 9
ENDMDL
MODEL 9
REMARK VINA RESULT:      -6.2      2.698      5.706
REMARK  9 active torsions:
REMARK  status: ('A' for Active; 'I' for Inactive)
REMARK    1  A    between atoms: C2_2  and  O3_3 
REMARK    2  A    between atoms: O3_3  and  C4_4 
REMARK    3  A    between atoms: C4_4  and  C6_6 
REMARK    4  A    between atoms: C8_8  and  O10_9 
REMARK    5  A    between atoms: O10_9  and  C11_10 
REMARK    6  A    between atoms: C11_10  and  C12_11 
REMARK    7  A    between atoms: C11_10  and  C14_13 
REMARK    8  A    between atoms: C16_15  and  N18_16 
REMARK       I    between atoms: N18_16  and  C19_17 
REMARK    9  A    between atoms: C22_20  and  N24_21 
ROOT
ATOM      1  C6  <0> d   1      19.012  -0.261   7.459  0.00  0.00     0.018 C 
ATOM      2  C7  <0> d   1      18.725  -1.311   8.200  0.00  0.00     0.020 C 
ATOM      3  C8  <0> d   1      18.667  -1.283   9.700  0.00  0.00     0.170 C 
ATOM      4  C16 <0> d   1      19.384  -0.041  10.232  0.00  0.00     0.147 C 
ATOM      5  C22 <0> d   1      18.860   1.186   9.474  0.00  0.00     0.213 C 
ATOM      6  C28 <0> d   1      19.335   1.093   8.020  0.00  0.00     0.079 C 
ENDROOT
BRANCH   3   7
ATOM      7  O10 <0> d   1      19.303  -2.452  10.221  0.00  0.00    -0.375 OA
BRANCH   7   8
ATOM      8  C11 <0> d   1      18.534  -3.647  10.070  0.00  0.00     0.121 C 
BRANCH   8   9
ATOM      9  C12 <0> d   1      19.435  -4.864  10.284  0.00  0.00     0.027 C 
ATOM     10  C13 <0> d   1      19.683  -5.557   8.942  0.00  0.00     0.007 C 
ENDBRANCH   8   9
BRANCH   8  11
ATOM     11  C14 <0> d   1      17.405  -3.661  11.104  0.00  0.00     0.027 C 
ATOM     12  C15 <0> d   1      17.437  -4.979  11.879  0.00  0.00     0.007 C 
ENDBRANCH   8  11
ENDBRANCH   7   8
ENDBRANCH   3   7
BRANCH   4  13
ATOM     13  N18 <0> d   1      19.113   0.110  11.664  0.00  0.00    -0.352 N 
ATOM     14  C19 <0> d   1      20.118   0.405  12.511  0.00  0.00     0.214 C 
ATOM     15  C20 <0> d   1      19.840   0.560  13.985  0.00  0.00     0.117 C 
ATOM     16  O21 <0> d   1      21.247   0.547  12.090  0.00  0.00    -0.274 OA
ATOM     17  H46 <0> d   1      18.211  -0.004  12.001  0.00  0.00     0.163 HD
ENDBRANCH   4  13
BRANCH   1  18
ATOM     18  C4  <0> d   1      19.026  -0.427   6.000  0.00  0.00     0.289 C 
ATOM     19  O5  <0> d   1      18.408   0.346   5.294  0.00  0.00    -0.260 OA
BRANCH  18  20
ATOM     20  O3  <0> d   1      19.724  -1.436   5.442  0.00  0.00    -0.318 OA
BRANCH  20  21
ATOM     21  C2  <0> d   1      18.991  -2.352   4.586  0.00  0.00     0.174 C 
ATOM     22  C1  <0> d   1      18.828  -3.696   5.298  0.00  0.00     0.034 C 
ENDBRANCH  20  21
ENDBRANCH  18  20
ENDBRANCH   1  18
BRANCH   5  23
ATOM     23  N24 <0> d   1      19.389   2.410  10.090  0.00  0.00    -0.073 N 
ATOM     24  H25 <0> d   1      20.128   2.171  10.734  0.00  0.00     0.274 HD
ATOM     25  H26 <0> d   1      19.752   3.019   9.371  0.00  0.00     0.274 HD
ATOM     26  H27 <0> d   1      18.648   2.883  10.588  0.00  0.00     0.274 HD
ENDBRANCH   5  23
TORSDOF 9
ENDMDL
