MODEL 1
REMARK VINA RESULT:      -8.4      0.000      0.000
REMARK  1 active torsions:
REMARK  status: ('A' for Active; 'I' for Inactive)
REMARK    1  A    between atoms: C8_8  and  C9_9 
ROOT
ATOM      1 Cl1  ZIN A   1      17.491   5.495  10.005  0.00  0.00    -0.084 Cl
ATOM      2  C2  ZIN A   1      17.779   3.957  10.754  0.00  0.00     0.035 A 
ATOM      3  C3  ZIN A   1      17.405   3.750  12.072  0.00  0.00     0.026 A 
ATOM      4  C4  ZIN A   1      17.646   2.532  12.675  0.00  0.00     0.032 A 
ATOM      5  C5  ZIN A   1      18.255   1.502  11.965  0.00  0.00     0.054 A 
ATOM      6  C6  ZIN A   1      18.612   1.695  10.628  0.00  0.00     0.022 A 
ATOM      7  C7  ZIN A   1      18.372   2.943  10.036  0.00  0.00     0.040 A 
ATOM      8  C8  ZIN A   1      19.188   0.634   9.793  0.00  0.00     0.074 C 
ATOM      9  N15 ZIN A   1      20.085  -0.230  10.119  0.00  0.00    -0.281 NA
ATOM     10  C16 ZIN A   1      20.701  -0.244  11.451  0.00  0.00     0.230 C 
ATOM     11  C17 ZIN A   1      19.607  -0.484  12.461  0.00  0.00     0.154 A 
ATOM     12  N18 ZIN A   1      19.520  -1.461  13.317  0.00  0.00    -0.133 NA
ATOM     13  N19 ZIN A   1      18.423  -1.356  13.984  0.00  0.00    -0.143 NA
ATOM     14  C20 ZIN A   1      17.764  -0.296  13.592  0.00  0.00     0.240 A 
ATOM     15  N21 ZIN A   1      18.513   0.303  12.630  0.00  0.00    -0.288 N 
ENDROOT
BRANCH   8  16
ATOM     16  C9  ZIN A   1      18.676   0.548   8.407  0.00  0.00    -0.007 A 
ATOM     17  C14 ZIN A   1      19.404   1.105   7.356  0.00  0.00     0.014 A 
ATOM     18  C13 ZIN A   1      18.926   1.016   6.064  0.00  0.00     0.001 A 
ATOM     19  C12 ZIN A   1      17.720   0.387   5.813  0.00  0.00     0.000 A 
ATOM     20  C11 ZIN A   1      16.990  -0.163   6.852  0.00  0.00     0.001 A 
ATOM     21  C10 ZIN A   1      17.461  -0.086   8.146  0.00  0.00     0.014 A 
ENDBRANCH   8  16
TORSDOF 1
ENDMDL
MODEL 2
REMARK VINA RESULT:      -8.2      3.095      4.975
REMARK  1 active torsions:
REMARK  status: ('A' for Active; 'I' for Inactive)
REMARK    1  A    between atoms: C8_8  and  C9_9 
ROOT
ATOM      1 Cl1  ZIN A   1      19.360  -1.664   5.922  0.00  0.00    -0.084 Cl
ATOM      2  C2  ZIN A   1      19.148  -0.670   7.329  0.00  0.00     0.035 A 
ATOM      3  C3  ZIN A   1      18.727   0.642   7.191  0.00  0.00     0.026 A 
ATOM      4  C4  ZIN A   1      18.572   1.439   8.308  0.00  0.00     0.032 A 
ATOM      5  C5  ZIN A   1      18.829   0.930   9.577  0.00  0.00     0.054 A 
ATOM      6  C6  ZIN A   1      19.229  -0.399   9.727  0.00  0.00     0.022 A 
ATOM      7  C7  ZIN A   1      19.394  -1.190   8.581  0.00  0.00     0.040 A 
ATOM      8  C8  ZIN A   1      19.444  -1.028  11.035  0.00  0.00     0.074 C 
ATOM      9  N15 ZIN A   1      20.024  -0.524  12.068  0.00  0.00    -0.281 NA
ATOM     10  C16 ZIN A   1      20.604   0.824  12.054  0.00  0.00     0.230 C 
ATOM     11  C17 ZIN A   1      19.488   1.800  11.775  0.00  0.00     0.154 A 
ATOM     12  N18 ZIN A   1      19.098   2.791  12.522  0.00  0.00    -0.133 NA
ATOM     13  N19 ZIN A   1      18.088   3.375  11.974  0.00  0.00    -0.143 NA
ATOM     14  C20 ZIN A   1      17.796   2.789  10.842  0.00  0.00     0.240 A 
ATOM     15  N21 ZIN A   1      18.697   1.786  10.671  0.00  0.00    -0.288 N 
ENDROOT
BRANCH   8  16
ATOM     16  C9  ZIN A   1      18.933  -2.409  11.185  0.00  0.00    -0.007 A 
ATOM     17  C14 ZIN A   1      17.560  -2.644  11.257  0.00  0.00     0.014 A 
ATOM     18  C13 ZIN A   1      17.089  -3.933  11.391  0.00  0.00     0.001 A 
ATOM     19  C12 ZIN A   1      17.977  -4.992  11.467  0.00  0.00     0.000 A 
ATOM     20  C11 ZIN A   1      19.340  -4.765  11.402  0.00  0.00     0.001 A 
ATOM     21  C10 ZIN A   1      19.823  -3.481  11.262  0.00  0.00     0.014 A 
ENDBRANCH   8  16
TORSDOF 1
ENDMDL
MODEL 3
REMARK VINA RESULT:      -8.1      3.006      4.263
REMARK  1 active torsions:
REMARK  status: ('A' for Active; 'I' for Inactive)
REMARK    1  A    between atoms: C8_8  and  C9_9 
ROOT
ATOM      1 Cl1  ZIN A   1      19.315  -5.038   9.031  0.00  0.00    -0.084 Cl
ATOM      2  C2  ZIN A   1      19.225  -3.690  10.120  0.00  0.00     0.035 A 
ATOM      3  C3  ZIN A   1      19.866  -3.749  11.347  0.00  0.00     0.026 A 
ATOM      4  C4  ZIN A   1      19.783  -2.683  12.220  0.00  0.00     0.032 A 
ATOM      5  C5  ZIN A   1      19.066  -1.542  11.875  0.00  0.00     0.054 A 
ATOM      6  C6  ZIN A   1      18.437  -1.465  10.629  0.00  0.00     0.022 A 
ATOM      7  C7  ZIN A   1      18.521  -2.562   9.760  0.00  0.00     0.040 A 
ATOM      8  C8  ZIN A   1      17.728  -0.269  10.164  0.00  0.00     0.074 C 
ATOM      9  N15 ZIN A   1      16.938   0.494  10.836  0.00  0.00    -0.281 NA
ATOM     10  C16 ZIN A   1      16.609   0.225  12.241  0.00  0.00     0.230 C 
ATOM     11  C17 ZIN A   1      17.892   0.276  13.031  0.00  0.00     0.154 A 
ATOM     12  N18 ZIN A   1      18.176   1.060  14.030  0.00  0.00    -0.133 NA
ATOM     13  N19 ZIN A   1      19.384   0.842  14.422  0.00  0.00    -0.143 NA
ATOM     14  C20 ZIN A   1      19.924  -0.103  13.696  0.00  0.00     0.240 A 
ATOM     15  N21 ZIN A   1      18.978  -0.509  12.807  0.00  0.00    -0.288 N 
ENDROOT
BRANCH   8  16
ATOM     16  C9  ZIN A   1      17.946   0.108   8.749  0.00  0.00    -0.007 A 
ATOM     17  C14 ZIN A   1      19.002   0.951   8.403  0.00  0.00     0.014 A 
ATOM     18  C13 ZIN A   1      19.204   1.294   7.081  0.00  0.00     0.001 A 
ATOM     19  C12 ZIN A   1      18.353   0.812   6.102  0.00  0.00     0.000 A 
ATOM     20  C11 ZIN A   1      17.300  -0.019   6.440  0.00  0.00     0.001 A 
ATOM     21  C10 ZIN A   1      17.092  -0.374   7.756  0.00  0.00     0.014 A 
ENDBRANCH   8  16
TORSDOF 1
ENDMDL
MODEL 4
REMARK VINA RESULT:      -7.8      2.377      5.615
REMARK  1 active torsions:
REMARK  status: ('A' for Active; 'I' for Inactive)
REMARK    1  A    between atoms: C8_8  and  C9_9 
ROOT
ATOM      1 Cl1  ZIN A   1      19.157   4.973  14.333  0.00  0.00    -0.084 Cl
ATOM      2  C2  ZIN A   1      19.098   3.688  13.168  0.00  0.00     0.035 A 
ATOM      3  C3  ZIN A   1      19.726   3.837  11.942  0.00  0.00     0.026 A 
ATOM      4  C4  ZIN A   1      19.668   2.822  11.009  0.00  0.00     0.032 A 
ATOM      5  C5  ZIN A   1      18.989   1.641  11.293  0.00  0.00     0.054 A 
ATOM      6  C6  ZIN A   1      18.376   1.473  12.536  0.00  0.00     0.022 A 
ATOM      7  C7  ZIN A   1      18.433   2.519  13.467  0.00  0.00     0.040 A 
ATOM      8  C8  ZIN A   1      17.708   0.229  12.937  0.00  0.00     0.074 C 
ATOM      9  N15 ZIN A   1      16.935  -0.518  12.227  0.00  0.00    -0.281 NA
ATOM     10  C16 ZIN A   1      16.585  -0.179  10.843  0.00  0.00     0.230 C 
ATOM     11  C17 ZIN A   1      17.862  -0.143  10.041  0.00  0.00     0.154 A 
ATOM     12  N18 ZIN A   1      18.161  -0.859   8.996  0.00  0.00    -0.133 NA
ATOM     13  N19 ZIN A   1      19.358  -0.580   8.609  0.00  0.00    -0.143 NA
ATOM     14  C20 ZIN A   1      19.875   0.338   9.385  0.00  0.00     0.240 A 
ATOM     15  N21 ZIN A   1      18.926   0.661  10.302  0.00  0.00    -0.288 N 
ENDROOT
BRANCH   8  16
ATOM     16  C9  ZIN A   1      17.950  -0.221  14.326  0.00  0.00    -0.007 A 
ATOM     17  C14 ZIN A   1      19.018  -1.072  14.610  0.00  0.00     0.014 A 
ATOM     18  C13 ZIN A   1      19.243  -1.485  15.907  0.00  0.00     0.001 A 
ATOM     19  C12 ZIN A   1      18.404  -1.065  16.924  0.00  0.00     0.000 A 
ATOM     20  C11 ZIN A   1      17.339  -0.226  16.648  0.00  0.00     0.001 A 
ATOM     21  C10 ZIN A   1      17.107   0.198  15.356  0.00  0.00     0.014 A 
ENDBRANCH   8  16
TORSDOF 1
ENDMDL
MODEL 5
REMARK VINA RESULT:      -7.8      3.378      5.601
REMARK  1 active torsions:
REMARK  status: ('A' for Active; 'I' for Inactive)
REMARK    1  A    between atoms: C8_8  and  C9_9 
ROOT
ATOM      1 Cl1  ZIN A   1      19.160   2.521   8.556  0.00  0.00    -0.084 Cl
ATOM      2  C2  ZIN A   1      18.516   3.222  10.007  0.00  0.00     0.035 A 
ATOM      3  C3  ZIN A   1      17.686   4.329   9.930  0.00  0.00     0.026 A 
ATOM      4  C4  ZIN A   1      17.184   4.897  11.084  0.00  0.00     0.032 A 
ATOM      5  C5  ZIN A   1      17.499   4.360  12.329  0.00  0.00     0.054 A 
ATOM      6  C6  ZIN A   1      18.315   3.230  12.413  0.00  0.00     0.022 A 
ATOM      7  C7  ZIN A   1      18.826   2.674  11.232  0.00  0.00     0.040 A 
ATOM      8  C8  ZIN A   1      18.628   2.563  13.682  0.00  0.00     0.074 C 
ATOM      9  N15 ZIN A   1      18.922   3.108  14.811  0.00  0.00    -0.281 NA
ATOM     10  C16 ZIN A   1      19.008   4.565  14.970  0.00  0.00     0.230 C 
ATOM     11  C17 ZIN A   1      17.652   5.143  14.649  0.00  0.00     0.154 A 
ATOM     12  N18 ZIN A   1      16.892   5.858  15.427  0.00  0.00    -0.133 NA
ATOM     13  N19 ZIN A   1      15.789   6.134  14.820  0.00  0.00    -0.143 NA
ATOM     14  C20 ZIN A   1      15.802   5.617  13.618  0.00  0.00     0.240 A 
ATOM     15  N21 ZIN A   1      17.000   4.994  13.467  0.00  0.00    -0.288 N 
ENDROOT
BRANCH   8  16
ATOM     16  C9  ZIN A   1      18.607   1.083  13.662  0.00  0.00    -0.007 A 
ATOM     17  C14 ZIN A   1      17.555   0.406  13.044  0.00  0.00     0.014 A 
ATOM     18  C13 ZIN A   1      17.543  -0.974  13.023  0.00  0.00     0.001 A 
ATOM     19  C12 ZIN A   1      18.566  -1.686  13.624  0.00  0.00     0.000 A 
ATOM     20  C11 ZIN A   1      19.608  -1.020  14.244  0.00  0.00     0.001 A 
ATOM     21  C10 ZIN A   1      19.635   0.359  14.266  0.00  0.00     0.014 A 
ENDBRANCH   8  16
TORSDOF 1
ENDMDL
MODEL 6
REMARK VINA RESULT:      -7.6      3.565      5.396
REMARK  1 active torsions:
REMARK  status: ('A' for Active; 'I' for Inactive)
REMARK    1  A    between atoms: C8_8  and  C9_9 
ROOT
ATOM      1 Cl1  ZIN A   1      18.764  -1.624  16.808  0.00  0.00    -0.084 Cl
ATOM      2  C2  ZIN A   1      18.776  -0.709  15.333  0.00  0.00     0.035 A 
ATOM      3  C3  ZIN A   1      19.252   0.592  15.332  0.00  0.00     0.026 A 
ATOM      4  C4  ZIN A   1      19.249   1.326  14.163  0.00  0.00     0.032 A 
ATOM      5  C5  ZIN A   1      18.778   0.766  12.979  0.00  0.00     0.054 A 
ATOM      6  C6  ZIN A   1      18.320  -0.553  12.968  0.00  0.00     0.022 A 
ATOM      7  C7  ZIN A   1      18.318  -1.280  14.167  0.00  0.00     0.040 A 
ATOM      8  C8  ZIN A   1      17.880  -1.236  11.746  0.00  0.00     0.074 C 
ATOM      9  N15 ZIN A   1      17.157  -0.763  10.792  0.00  0.00    -0.281 NA
ATOM     10  C16 ZIN A   1      16.627   0.605  10.825  0.00  0.00     0.230 C 
ATOM     11  C17 ZIN A   1      17.801   1.551  10.870  0.00  0.00     0.154 A 
ATOM     12  N18 ZIN A   1      18.095   2.490  10.017  0.00  0.00    -0.133 NA
ATOM     13  N19 ZIN A   1      19.196   3.061  10.366  0.00  0.00    -0.143 NA
ATOM     14  C20 ZIN A   1      19.649   2.520  11.467  0.00  0.00     0.240 A 
ATOM     15  N21 ZIN A   1      18.758   1.562  11.834  0.00  0.00    -0.288 N 
ENDROOT
BRANCH   8  16
ATOM     16  C9  ZIN A   1      18.320  -2.642  11.592  0.00  0.00    -0.007 A 
ATOM     17  C14 ZIN A   1      17.377  -3.667  11.525  0.00  0.00     0.014 A 
ATOM     18  C13 ZIN A   1      17.792  -4.974  11.375  0.00  0.00     0.001 A 
ATOM     19  C12 ZIN A   1      19.142  -5.270  11.304  0.00  0.00     0.000 A 
ATOM     20  C11 ZIN A   1      20.082  -4.258  11.377  0.00  0.00     0.001 A 
ATOM     21  C10 ZIN A   1      19.680  -2.946  11.520  0.00  0.00     0.014 A 
ENDBRANCH   8  16
TORSDOF 1
ENDMDL
MODEL 7
REMARK VINA RESULT:      -7.5      3.330      4.722
REMARK  1 active torsions:
REMARK  status: ('A' for Active; 'I' for Inactive)
REMARK    1  A    between atoms: C8_8  and  C9_9 
ROOT
ATOM      1 Cl1  ZIN A   1      19.102   1.415  17.020  0.00  0.00    -0.084 Cl
ATOM      2  C2  ZIN A   1      18.980   0.478  15.565  0.00  0.00     0.035 A 
ATOM      3  C3  ZIN A   1      18.586  -0.849  15.628  0.00  0.00     0.026 A 
ATOM      4  C4  ZIN A   1      18.502  -1.599  14.473  0.00  0.00     0.032 A 
ATOM      5  C5  ZIN A   1      18.802  -1.031  13.239  0.00  0.00     0.054 A 
ATOM      6  C6  ZIN A   1      19.175   0.313  13.164  0.00  0.00     0.022 A 
ATOM      7  C7  ZIN A   1      19.268   1.057  14.349  0.00  0.00     0.040 A 
ATOM      8  C8  ZIN A   1      19.433   1.002  11.895  0.00  0.00     0.074 C 
ATOM      9  N15 ZIN A   1      20.071   0.558  10.869  0.00  0.00    -0.281 NA
ATOM     10  C16 ZIN A   1      20.684  -0.776  10.853  0.00  0.00     0.230 C 
ATOM     11  C17 ZIN A   1      19.582  -1.789  11.039  0.00  0.00     0.154 A 
ATOM     12  N18 ZIN A   1      19.251  -2.756  10.234  0.00  0.00    -0.133 NA
ATOM     13  N19 ZIN A   1      18.233  -3.387  10.709  0.00  0.00    -0.143 NA
ATOM     14  C20 ZIN A   1      17.875  -2.857  11.850  0.00  0.00     0.240 A 
ATOM     15  N21 ZIN A   1      18.741  -1.842  12.105  0.00  0.00    -0.288 N 
ENDROOT
BRANCH   8  16
ATOM     16  C9  ZIN A   1      18.894   2.376  11.779  0.00  0.00    -0.007 A 
ATOM     17  C14 ZIN A   1      17.639   2.591  11.208  0.00  0.00     0.014 A 
ATOM     18  C13 ZIN A   1      17.139   3.873  11.108  0.00  0.00     0.001 A 
ATOM     19  C12 ZIN A   1      17.885   4.946  11.563  0.00  0.00     0.000 A 
ATOM     20  C11 ZIN A   1      19.132   4.740  12.125  0.00  0.00     0.001 A 
ATOM     21  C10 ZIN A   1      19.641   3.463  12.236  0.00  0.00     0.014 A 
ENDBRANCH   8  16
TORSDOF 1
ENDMDL
MODEL 8
REMARK VINA RESULT:      -7.5      3.723      5.457
REMARK  1 active torsions:
REMARK  status: ('A' for Active; 'I' for Inactive)
REMARK    1  A    between atoms: C8_8  and  C9_9 
ROOT
ATOM      1 Cl1  ZIN A   1      18.244  -1.206  15.207  0.00  0.00    -0.084 Cl
ATOM      2  C2  ZIN A   1      18.468   0.511  15.089  0.00  0.00     0.035 A 
ATOM      3  C3  ZIN A   1      19.106   1.196  16.111  0.00  0.00     0.026 A 
ATOM      4  C4  ZIN A   1      19.272   2.564  16.025  0.00  0.00     0.032 A 
ATOM      5  C5  ZIN A   1      18.811   3.263  14.914  0.00  0.00     0.054 A 
ATOM      6  C6  ZIN A   1      18.189   2.576  13.869  0.00  0.00     0.022 A 
ATOM      7  C7  ZIN A   1      18.017   1.188  13.978  0.00  0.00     0.040 A 
ATOM      8  C8  ZIN A   1      17.745   3.231  12.634  0.00  0.00     0.074 C 
ATOM      9  N15 ZIN A   1      17.152   4.367  12.510  0.00  0.00    -0.281 NA
ATOM     10  C16 ZIN A   1      16.800   5.189  13.674  0.00  0.00     0.230 C 
ATOM     11  C17 ZIN A   1      18.080   5.545  14.388  0.00  0.00     0.154 A 
ATOM     12  N18 ZIN A   1      18.546   6.735  14.633  0.00  0.00    -0.133 NA
ATOM     13  N19 ZIN A   1      19.686   6.640  15.225  0.00  0.00    -0.143 NA
ATOM     14  C20 ZIN A   1      19.995   5.381  15.398  0.00  0.00     0.240 A 
ATOM     15  N21 ZIN A   1      18.967   4.649  14.894  0.00  0.00    -0.288 N 
ENDROOT
BRANCH   8  16
ATOM     16  C9  ZIN A   1      18.011   2.497  11.376  0.00  0.00    -0.007 A 
ATOM     17  C14 ZIN A   1      17.316   1.321  11.091  0.00  0.00     0.014 A 
ATOM     18  C13 ZIN A   1      17.563   0.644   9.915  0.00  0.00     0.001 A 
ATOM     19  C12 ZIN A   1      18.508   1.123   9.024  0.00  0.00     0.000 A 
ATOM     20  C11 ZIN A   1      19.204   2.285   9.303  0.00  0.00     0.001 A 
ATOM     21  C10 ZIN A   1      18.962   2.974  10.473  0.00  0.00     0.014 A 
ENDBRANCH   8  16
TORSDOF 1
ENDMDL
MODEL 9
REMARK VINA RESULT:      -7.5      3.734      6.168
REMARK  1 active torsions:
REMARK  status: ('A' for Active; 'I' for Inactive)
REMARK    1  A    between atoms: C8_8  and  C9_9 
ROOT
ATOM      1 Cl1  ZIN A   1      18.658   1.429   8.050  0.00  0.00    -0.084 Cl
ATOM      2  C2  ZIN A   1      18.713  -0.292   8.268  0.00  0.00     0.035 A 
ATOM      3  C3  ZIN A   1      19.252  -1.097   7.277  0.00  0.00     0.026 A 
ATOM      4  C4  ZIN A   1      19.284  -2.467   7.444  0.00  0.00     0.032 A 
ATOM      5  C5  ZIN A   1      18.785  -3.049   8.605  0.00  0.00     0.054 A 
ATOM      6  C6  ZIN A   1      18.264  -2.242   9.619  0.00  0.00     0.022 A 
ATOM      7  C7  ZIN A   1      18.227  -0.853   9.428  0.00  0.00     0.040 A 
ATOM      8  C8  ZIN A   1      17.790  -2.775  10.901  0.00  0.00     0.074 C 
ATOM      9  N15 ZIN A   1      17.090  -3.836  11.107  0.00  0.00    -0.281 NA
ATOM     10  C16 ZIN A   1      16.627  -4.686  10.004  0.00  0.00     0.230 C 
ATOM     11  C17 ZIN A   1      17.845  -5.210   9.286  0.00  0.00     0.154 A 
ATOM     12  N18 ZIN A   1      18.184  -6.454   9.106  0.00  0.00    -0.133 NA
ATOM     13  N19 ZIN A   1      19.312  -6.510   8.485  0.00  0.00    -0.143 NA
ATOM     14  C20 ZIN A   1      19.739  -5.301   8.228  0.00  0.00     0.240 A 
ATOM     15  N21 ZIN A   1      18.803  -4.440   8.708  0.00  0.00    -0.288 N 
ENDROOT
BRANCH   8  16
ATOM     16  C9  ZIN A   1      18.162  -1.998  12.106  0.00  0.00    -0.007 A 
ATOM     17  C14 ZIN A   1      19.282  -2.359  12.854  0.00  0.00     0.014 A 
ATOM     18  C13 ZIN A   1      19.627  -1.627  13.972  0.00  0.00     0.001 A 
ATOM     19  C12 ZIN A   1      18.856  -0.546  14.358  0.00  0.00     0.000 A 
ATOM     20  C11 ZIN A   1      17.740  -0.186  13.624  0.00  0.00     0.001 A 
ATOM     21  C10 ZIN A   1      17.389  -0.906  12.501  0.00  0.00     0.014 A 
ENDBRANCH   8  16
TORSDOF 1
ENDMDL
