MODEL 1
REMARK VINA RESULT:      -8.2      0.000      0.000
REMARK  6 active torsions:
REMARK  status: ('A' for Active; 'I' for Inactive)
REMARK    1  A    between atoms: C3_3  and  O4_4 
REMARK    2  A    between atoms: O4_4  and  C5_5 
REMARK    3  A    between atoms: C5_5  and  C6_6 
REMARK    4  A    between atoms: C13_13  and  C14_14 
REMARK    5  A    between atoms: C14_14  and  S15_15 
REMARK    6  A    between atoms: S15_15  and  C17_17 
ROOT
ATOM      1  C1  ZIN A   1      19.163   2.422   8.626  0.00  0.00     0.053 C 
ATOM      2  C2  ZIN A   1      18.387   1.432   9.456  0.00  0.00    -0.003 A 
ATOM      3  C3  ZIN A   1      18.357   0.086   9.102  0.00  0.00     0.078 A 
ATOM      4  C10 ZIN A   1      17.627  -0.791   9.901  0.00  0.00     0.056 A 
ATOM      5  C11 ZIN A   1      16.963  -0.297  11.006  0.00  0.00     0.119 A 
ATOM      6  N12 ZIN A   1      17.016   0.986  11.308  0.00  0.00    -0.264 NA
ATOM      7  C13 ZIN A   1      17.702   1.846  10.580  0.00  0.00     0.054 A 
ENDROOT
BRANCH   7   8
ATOM      8  C14 ZIN A   1      17.726   3.300  10.972  0.00  0.00     0.177 C 
BRANCH   8   9
ATOM      9  S15 ZIN A   1      19.037   3.576  12.196  0.00  0.00     0.091 S 
ATOM     10  O16 ZIN A   1      20.303   3.345  11.594  0.00  0.00    -0.249 OA
BRANCH   9  11
ATOM     11  C17 ZIN A   1      18.859   2.202  13.285  0.00  0.00     0.198 A 
ATOM     12  N25 ZIN A   1      19.631   1.083  13.259  0.00  0.00    -0.331 N 
ATOM     13  C24 ZIN A   1      19.181   0.250  14.264  0.00  0.00     0.063 A 
ATOM     14  H39 ZIN A   1      20.363   0.903  12.649  0.00  0.00     0.168 HD
ATOM     15  C19 ZIN A   1      18.109   0.923  14.874  0.00  0.00     0.086 A 
ATOM     16  C23 ZIN A   1      19.560  -1.003  14.724  0.00  0.00     0.032 A 
ATOM     17  N18 ZIN A   1      17.966   2.109  14.227  0.00  0.00    -0.221 NA
ATOM     18  C20 ZIN A   1      17.435   0.320  15.938  0.00  0.00     0.034 A 
ATOM     19  C21 ZIN A   1      17.822  -0.915  16.377  0.00  0.00     0.002 A 
ATOM     20  C22 ZIN A   1      18.881  -1.580  15.776  0.00  0.00     0.002 A 
ENDBRANCH   9  11
ENDBRANCH   8   9
ENDBRANCH   7   8
BRANCH   3  21
ATOM     21  O4  ZIN A   1      19.023  -0.361   8.008  0.00  0.00    -0.342 OA
BRANCH  21  22
ATOM     22  C5  ZIN A   1      18.289  -1.171   7.087  0.00  0.00     0.293 C 
BRANCH  22  23
ATOM     23  C6  ZIN A   1      17.654  -0.279   6.018  0.00  0.00     0.408 C 
ATOM     24  F7  ZIN A   1      17.569  -0.984   4.813  0.00  0.00    -0.169 F 
ATOM     25  F8  ZIN A   1      16.372   0.100   6.428  0.00  0.00    -0.169 F 
ATOM     26  F9  ZIN A   1      18.442   0.862   5.836  0.00  0.00    -0.169 F 
ENDBRANCH  22  23
ENDBRANCH  21  22
ENDBRANCH   3  21
TORSDOF 6
ENDMDL
MODEL 2
REMARK VINA RESULT:      -8.1      2.498      3.295
REMARK  6 active torsions:
REMARK  status: ('A' for Active; 'I' for Inactive)
REMARK    1  A    between atoms: C3_3  and  O4_4 
REMARK    2  A    between atoms: O4_4  and  C5_5 
REMARK    3  A    between atoms: C5_5  and  C6_6 
REMARK    4  A    between atoms: C13_13  and  C14_14 
REMARK    5  A    between atoms: C14_14  and  S15_15 
REMARK    6  A    between atoms: S15_15  and  C17_17 
ROOT
ATOM      1  C1  ZIN A   1      16.749   0.218  11.313  0.00  0.00     0.053 C 
ATOM      2  C2  ZIN A   1      17.648   0.713  10.209  0.00  0.00    -0.003 A 
ATOM      3  C3  ZIN A   1      18.094  -0.158   9.219  0.00  0.00     0.078 A 
ATOM      4  C10 ZIN A   1      18.923   0.346   8.220  0.00  0.00     0.056 A 
ATOM      5  C11 ZIN A   1      19.270   1.682   8.247  0.00  0.00     0.119 A 
ATOM      6  N12 ZIN A   1      18.825   2.476   9.202  0.00  0.00    -0.264 NA
ATOM      7  C13 ZIN A   1      18.034   2.037  10.162  0.00  0.00     0.054 A 
ENDROOT
BRANCH   7   8
ATOM      8  C14 ZIN A   1      17.558   2.989  11.228  0.00  0.00     0.177 C 
BRANCH   8   9
ATOM      9  S15 ZIN A   1      18.889   3.268  12.429  0.00  0.00     0.091 S 
ATOM     10  O16 ZIN A   1      20.139   2.948  11.834  0.00  0.00    -0.249 OA
BRANCH   9  11
ATOM     11  C17 ZIN A   1      18.657   1.962  13.589  0.00  0.00     0.198 A 
ATOM     12  N25 ZIN A   1      17.726   1.956  14.580  0.00  0.00    -0.331 N 
ATOM     13  C24 ZIN A   1      17.862   0.765  15.265  0.00  0.00     0.063 A 
ATOM     14  H39 ZIN A   1      17.083   2.658  14.769  0.00  0.00     0.168 HD
ATOM     15  C19 ZIN A   1      18.917   0.078  14.641  0.00  0.00     0.086 A 
ATOM     16  C23 ZIN A   1      17.211   0.194  16.349  0.00  0.00     0.032 A 
ATOM     17  N18 ZIN A   1      19.357   0.866  13.626  0.00  0.00    -0.221 NA
ATOM     18  C20 ZIN A   1      19.300  -1.176  15.122  0.00  0.00     0.034 A 
ATOM     19  C21 ZIN A   1      18.648  -1.723  16.191  0.00  0.00     0.002 A 
ATOM     20  C22 ZIN A   1      17.606  -1.045  16.807  0.00  0.00     0.002 A 
ENDBRANCH   9  11
ENDBRANCH   8   9
ENDBRANCH   7   8
BRANCH   3  21
ATOM     21  O4  ZIN A   1      17.731  -1.466   9.227  0.00  0.00    -0.342 OA
BRANCH  21  22
ATOM     22  C5  ZIN A   1      18.764  -2.425   9.468  0.00  0.00     0.293 C 
BRANCH  22  23
ATOM     23  C6  ZIN A   1      18.666  -2.927  10.910  0.00  0.00     0.408 C 
ATOM     24  F7  ZIN A   1      19.289  -2.013  11.766  0.00  0.00    -0.169 F 
ATOM     25  F8  ZIN A   1      17.320  -3.060  11.268  0.00  0.00    -0.169 F 
ATOM     26  F9  ZIN A   1      19.300  -4.170  11.014  0.00  0.00    -0.169 F 
ENDBRANCH  22  23
ENDBRANCH  21  22
ENDBRANCH   3  21
TORSDOF 6
ENDMDL
MODEL 3
REMARK VINA RESULT:      -8.1      3.205      6.498
REMARK  6 active torsions:
REMARK  status: ('A' for Active; 'I' for Inactive)
REMARK    1  A    between atoms: C3_3  and  O4_4 
REMARK    2  A    between atoms: O4_4  and  C5_5 
REMARK    3  A    between atoms: C5_5  and  C6_6 
REMARK    4  A    between atoms: C13_13  and  C14_14 
REMARK    5  A    between atoms: C14_14  and  S15_15 
REMARK    6  A    between atoms: S15_15  and  C17_17 
ROOT
ATOM      1  C1  ZIN A   1      20.936  -0.483  10.650  0.00  0.00     0.053 C 
ATOM      2  C2  ZIN A   1      19.872  -0.525  11.717  0.00  0.00    -0.003 A 
ATOM      3  C3  ZIN A   1      19.380   0.654  12.270  0.00  0.00     0.078 A 
ATOM      4  C10 ZIN A   1      18.397   0.564  13.252  0.00  0.00     0.056 A 
ATOM      5  C11 ZIN A   1      17.949  -0.682  13.640  0.00  0.00     0.119 A 
ATOM      6  N12 ZIN A   1      18.440  -1.778  13.092  0.00  0.00    -0.264 NA
ATOM      7  C13 ZIN A   1      19.367  -1.733  12.155  0.00  0.00     0.054 A 
ENDROOT
BRANCH   7   8
ATOM      8  C14 ZIN A   1      19.892  -3.016  11.565  0.00  0.00     0.177 C 
BRANCH   8   9
ATOM      9  S15 ZIN A   1      18.608  -3.778  10.535  0.00  0.00     0.091 S 
ATOM     10  O16 ZIN A   1      19.093  -5.004  10.005  0.00  0.00    -0.249 OA
BRANCH   9  11
ATOM     11  C17 ZIN A   1      18.557  -2.728   9.121  0.00  0.00     0.198 A 
ATOM     12  N25 ZIN A   1      19.317  -2.888   8.004  0.00  0.00    -0.331 N 
ATOM     13  C24 ZIN A   1      18.983  -1.871   7.132  0.00  0.00     0.063 A 
ATOM     14  H39 ZIN A   1      19.970  -3.587   7.848  0.00  0.00     0.168 HD
ATOM     15  C19 ZIN A   1      18.004  -1.104   7.787  0.00  0.00     0.086 A 
ATOM     16  C23 ZIN A   1      19.405  -1.510   5.860  0.00  0.00     0.032 A 
ATOM     17  N18 ZIN A   1      17.792  -1.683   8.997  0.00  0.00    -0.221 NA
ATOM     18  C20 ZIN A   1      17.467   0.016   7.147  0.00  0.00     0.034 A 
ATOM     19  C21 ZIN A   1      17.895   0.355   5.895  0.00  0.00     0.002 A 
ATOM     20  C22 ZIN A   1      18.861  -0.401   5.248  0.00  0.00     0.002 A 
ENDBRANCH   9  11
ENDBRANCH   8   9
ENDBRANCH   7   8
BRANCH   3  21
ATOM     21  O4  ZIN A   1      19.846   1.862  11.861  0.00  0.00    -0.342 OA
BRANCH  21  22
ATOM     22  C5  ZIN A   1      18.873   2.854  11.528  0.00  0.00     0.293 C 
BRANCH  22  23
ATOM     23  C6  ZIN A   1      18.510   2.735  10.047  0.00  0.00     0.408 C 
ATOM     24  F7  ZIN A   1      18.132   3.989   9.556  0.00  0.00    -0.169 F 
ATOM     25  F8  ZIN A   1      19.617   2.267   9.332  0.00  0.00    -0.169 F 
ATOM     26  F9  ZIN A   1      17.447   1.837   9.899  0.00  0.00    -0.169 F 
ENDBRANCH  22  23
ENDBRANCH  21  22
ENDBRANCH   3  21
TORSDOF 6
ENDMDL
MODEL 4
REMARK VINA RESULT:      -7.9      3.631      4.822
REMARK  6 active torsions:
REMARK  status: ('A' for Active; 'I' for Inactive)
REMARK    1  A    between atoms: C3_3  and  O4_4 
REMARK    2  A    between atoms: O4_4  and  C5_5 
REMARK    3  A    between atoms: C5_5  and  C6_6 
REMARK    4  A    between atoms: C13_13  and  C14_14 
REMARK    5  A    between atoms: C14_14  and  S15_15 
REMARK    6  A    between atoms: S15_15  and  C17_17 
ROOT
ATOM      1  C1  ZIN A   1      16.693   0.288  11.511  0.00  0.00     0.053 C 
ATOM      2  C2  ZIN A   1      17.722   0.737  10.505  0.00  0.00    -0.003 A 
ATOM      3  C3  ZIN A   1      17.841   2.082  10.170  0.00  0.00     0.078 A 
ATOM      4  C10 ZIN A   1      18.806   2.448   9.235  0.00  0.00     0.056 A 
ATOM      5  C11 ZIN A   1      19.606   1.470   8.679  0.00  0.00     0.119 A 
ATOM      6  N12 ZIN A   1      19.463   0.204   9.023  0.00  0.00    -0.264 NA
ATOM      7  C13 ZIN A   1      18.564  -0.181   9.909  0.00  0.00     0.054 A 
ENDROOT
BRANCH   7   8
ATOM      8  C14 ZIN A   1      18.445  -1.640  10.263  0.00  0.00     0.177 C 
BRANCH   8   9
ATOM      9  S15 ZIN A   1      19.803  -2.107  11.370  0.00  0.00     0.091 S 
ATOM     10  O16 ZIN A   1      19.701  -3.488  11.688  0.00  0.00    -0.249 OA
BRANCH   9  11
ATOM     11  C17 ZIN A   1      19.370  -1.318  12.885  0.00  0.00     0.198 A 
ATOM     12  N25 ZIN A   1      19.792  -0.084  13.269  0.00  0.00    -0.331 N 
ATOM     13  C24 ZIN A   1      19.237   0.174  14.506  0.00  0.00     0.063 A 
ATOM     14  H39 ZIN A   1      20.375   0.507  12.767  0.00  0.00     0.168 HD
ATOM     15  C19 ZIN A   1      18.479  -0.963  14.835  0.00  0.00     0.086 A 
ATOM     16  C23 ZIN A   1      19.295   1.244  15.388  0.00  0.00     0.032 A 
ATOM     17  N18 ZIN A   1      18.605  -1.835  13.802  0.00  0.00    -0.221 NA
ATOM     18  C20 ZIN A   1      17.792  -1.003  16.051  0.00  0.00     0.034 A 
ATOM     19  C21 ZIN A   1      17.861   0.060  16.907  0.00  0.00     0.002 A 
ATOM     20  C22 ZIN A   1      18.608   1.183  16.582  0.00  0.00     0.002 A 
ENDBRANCH   9  11
ENDBRANCH   8   9
ENDBRANCH   7   8
BRANCH   3  21
ATOM     21  O4  ZIN A   1      17.036   3.015  10.739  0.00  0.00    -0.342 OA
BRANCH  21  22
ATOM     22  C5  ZIN A   1      17.575   4.330  10.896  0.00  0.00     0.293 C 
BRANCH  22  23
ATOM     23  C6  ZIN A   1      18.174   4.471  12.296  0.00  0.00     0.408 C 
ATOM     24  F7  ZIN A   1      19.569   4.528  12.204  0.00  0.00    -0.169 F 
ATOM     25  F8  ZIN A   1      17.697   5.644  12.891  0.00  0.00    -0.169 F 
ATOM     26  F9  ZIN A   1      17.803   3.370  13.075  0.00  0.00    -0.169 F 
ENDBRANCH  22  23
ENDBRANCH  21  22
ENDBRANCH   3  21
TORSDOF 6
ENDMDL
MODEL 5
REMARK VINA RESULT:      -7.8      4.489      6.329
REMARK  6 active torsions:
REMARK  status: ('A' for Active; 'I' for Inactive)
REMARK    1  A    between atoms: C3_3  and  O4_4 
REMARK    2  A    between atoms: O4_4  and  C5_5 
REMARK    3  A    between atoms: C5_5  and  C6_6 
REMARK    4  A    between atoms: C13_13  and  C14_14 
REMARK    5  A    between atoms: C14_14  and  S15_15 
REMARK    6  A    between atoms: S15_15  and  C17_17 
ROOT
ATOM      1  C1  ZIN A   1      20.862   0.370  12.283  0.00  0.00     0.053 C 
ATOM      2  C2  ZIN A   1      19.713  -0.575  12.043  0.00  0.00    -0.003 A 
ATOM      3  C3  ZIN A   1      19.132  -1.263  13.105  0.00  0.00     0.078 A 
ATOM      4  C10 ZIN A   1      18.072  -2.125  12.834  0.00  0.00     0.056 A 
ATOM      5  C11 ZIN A   1      17.639  -2.266  11.531  0.00  0.00     0.119 A 
ATOM      6  N12 ZIN A   1      18.216  -1.596  10.551  0.00  0.00    -0.264 NA
ATOM      7  C13 ZIN A   1      19.217  -0.766  10.769  0.00  0.00     0.054 A 
ENDROOT
BRANCH   7   8
ATOM      8  C14 ZIN A   1      19.838  -0.028   9.612  0.00  0.00     0.177 C 
BRANCH   8   9
ATOM      9  S15 ZIN A   1      18.644   1.162   8.942  0.00  0.00     0.091 S 
ATOM     10  O16 ZIN A   1      19.235   1.867   7.860  0.00  0.00    -0.249 OA
BRANCH   9  11
ATOM     11  C17 ZIN A   1      18.549   2.384  10.208  0.00  0.00     0.198 A 
ATOM     12  N25 ZIN A   1      19.619   2.945  10.831  0.00  0.00    -0.331 N 
ATOM     13  C24 ZIN A   1      19.131   3.852  11.750  0.00  0.00     0.063 A 
ATOM     14  H39 ZIN A   1      20.553   2.746  10.660  0.00  0.00     0.168 HD
ATOM     15  C19 ZIN A   1      17.730   3.794  11.646  0.00  0.00     0.086 A 
ATOM     16  C23 ZIN A   1      19.720   4.715  12.663  0.00  0.00     0.032 A 
ATOM     17  N18 ZIN A   1      17.443   2.877  10.685  0.00  0.00    -0.221 NA
ATOM     18  C20 ZIN A   1      16.946   4.607  12.466  0.00  0.00     0.034 A 
ATOM     19  C21 ZIN A   1      17.543   5.450  13.360  0.00  0.00     0.002 A 
ATOM     20  C22 ZIN A   1      18.925   5.508  13.463  0.00  0.00     0.002 A 
ENDBRANCH   9  11
ENDBRANCH   8   9
ENDBRANCH   7   8
BRANCH   3  21
ATOM     21  O4  ZIN A   1      19.586  -1.098  14.373  0.00  0.00    -0.342 OA
BRANCH  21  22
ATOM     22  C5  ZIN A   1      18.794  -0.290  15.247  0.00  0.00     0.293 C 
BRANCH  22  23
ATOM     23  C6  ZIN A   1      18.602  -1.017  16.579  0.00  0.00     0.408 C 
ATOM     24  F7  ZIN A   1      17.307  -1.543  16.641  0.00  0.00    -0.169 F 
ATOM     25  F8  ZIN A   1      19.533  -2.056  16.681  0.00  0.00    -0.169 F 
ATOM     26  F9  ZIN A   1      18.790  -0.117  17.633  0.00  0.00    -0.169 F 
ENDBRANCH  22  23
ENDBRANCH  21  22
ENDBRANCH   3  21
TORSDOF 6
ENDMDL
MODEL 6
REMARK VINA RESULT:      -7.7      4.070      6.096
REMARK  6 active torsions:
REMARK  status: ('A' for Active; 'I' for Inactive)
REMARK    1  A    between atoms: C3_3  and  O4_4 
REMARK    2  A    between atoms: O4_4  and  C5_5 
REMARK    3  A    between atoms: C5_5  and  C6_6 
REMARK    4  A    between atoms: C13_13  and  C14_14 
REMARK    5  A    between atoms: C14_14  and  S15_15 
REMARK    6  A    between atoms: S15_15  and  C17_17 
ROOT
ATOM      1  C1  ZIN A   1      16.851   0.105  11.849  0.00  0.00     0.053 C 
ATOM      2  C2  ZIN A   1      17.676   1.310  12.222  0.00  0.00    -0.003 A 
ATOM      3  C3  ZIN A   1      17.941   1.597  13.558  0.00  0.00     0.078 A 
ATOM      4  C10 ZIN A   1      18.708   2.721  13.853  0.00  0.00     0.056 A 
ATOM      5  C11 ZIN A   1      19.174   3.506  12.817  0.00  0.00     0.119 A 
ATOM      6  N12 ZIN A   1      18.901   3.201  11.563  0.00  0.00    -0.264 NA
ATOM      7  C13 ZIN A   1      18.183   2.141  11.244  0.00  0.00     0.054 A 
ENDROOT
BRANCH   7   8
ATOM      8  C14 ZIN A   1      17.902   1.842   9.794  0.00  0.00     0.177 C 
BRANCH   8   9
ATOM      9  S15 ZIN A   1      19.382   1.127   9.026  0.00  0.00     0.091 S 
ATOM     10  O16 ZIN A   1      19.183   1.022   7.623  0.00  0.00    -0.249 OA
BRANCH   9  11
ATOM     11  C17 ZIN A   1      19.336  -0.551   9.559  0.00  0.00     0.198 A 
ATOM     12  N25 ZIN A   1      20.053  -1.058  10.598  0.00  0.00    -0.331 N 
ATOM     13  C24 ZIN A   1      19.740  -2.399  10.697  0.00  0.00     0.063 A 
ATOM     14  H39 ZIN A   1      20.668  -0.568  11.166  0.00  0.00     0.168 HD
ATOM     15  C19 ZIN A   1      18.818  -2.659   9.669  0.00  0.00     0.086 A 
ATOM     16  C23 ZIN A   1      20.139  -3.425  11.542  0.00  0.00     0.032 A 
ATOM     17  N18 ZIN A   1      18.617  -1.487   9.013  0.00  0.00    -0.221 NA
ATOM     18  C20 ZIN A   1      18.314  -3.952   9.509  0.00  0.00     0.034 A 
ATOM     19  C21 ZIN A   1      18.719  -4.949  10.350  0.00  0.00     0.002 A 
ATOM     20  C22 ZIN A   1      19.629  -4.693  11.365  0.00  0.00     0.002 A 
ENDBRANCH   9  11
ENDBRANCH   8   9
ENDBRANCH   7   8
BRANCH   3  21
ATOM     21  O4  ZIN A   1      17.465   0.801  14.549  0.00  0.00    -0.342 OA
BRANCH  21  22
ATOM     22  C5  ZIN A   1      18.411   0.319  15.506  0.00  0.00     0.293 C 
BRANCH  22  23
ATOM     23  C6  ZIN A   1      19.053  -0.969  14.984  0.00  0.00     0.408 C 
ATOM     24  F7  ZIN A   1      20.140  -0.650  14.164  0.00  0.00    -0.169 F 
ATOM     25  F8  ZIN A   1      19.493  -1.741  16.064  0.00  0.00    -0.169 F 
ATOM     26  F9  ZIN A   1      18.110  -1.694  14.248  0.00  0.00    -0.169 F 
ENDBRANCH  22  23
ENDBRANCH  21  22
ENDBRANCH   3  21
TORSDOF 6
ENDMDL
MODEL 7
REMARK VINA RESULT:      -7.7      4.338      7.483
REMARK  6 active torsions:
REMARK  status: ('A' for Active; 'I' for Inactive)
REMARK    1  A    between atoms: C3_3  and  O4_4 
REMARK    2  A    between atoms: O4_4  and  C5_5 
REMARK    3  A    between atoms: C5_5  and  C6_6 
REMARK    4  A    between atoms: C13_13  and  C14_14 
REMARK    5  A    between atoms: C14_14  and  S15_15 
REMARK    6  A    between atoms: S15_15  and  C17_17 
ROOT
ATOM      1  C1  ZIN A   1      19.137   2.466  14.093  0.00  0.00     0.053 C 
ATOM      2  C2  ZIN A   1      19.357   1.155  13.382  0.00  0.00    -0.003 A 
ATOM      3  C3  ZIN A   1      19.298  -0.046  14.084  0.00  0.00     0.078 A 
ATOM      4  C10 ZIN A   1      19.509  -1.231  13.383  0.00  0.00     0.056 A 
ATOM      5  C11 ZIN A   1      19.767  -1.173  12.029  0.00  0.00     0.119 A 
ATOM      6  N12 ZIN A   1      19.815  -0.014  11.399  0.00  0.00    -0.264 NA
ATOM      7  C13 ZIN A   1      19.615   1.129  12.026  0.00  0.00     0.054 A 
ENDROOT
BRANCH   7   8
ATOM      8  C14 ZIN A   1      19.682   2.422  11.257  0.00  0.00     0.177 C 
BRANCH   8   9
ATOM      9  S15 ZIN A   1      18.150   2.644  10.311  0.00  0.00     0.091 S 
ATOM     10  O16 ZIN A   1      17.076   2.013  10.995  0.00  0.00    -0.249 OA
BRANCH   9  11
ATOM     11  C17 ZIN A   1      18.393   1.605   8.909  0.00  0.00     0.198 A 
ATOM     12  N25 ZIN A   1      18.054   0.290   8.846  0.00  0.00    -0.331 N 
ATOM     13  C24 ZIN A   1      18.401  -0.164   7.589  0.00  0.00     0.063 A 
ATOM     14  H39 ZIN A   1      17.642  -0.233   9.552  0.00  0.00     0.168 HD
ATOM     15  C19 ZIN A   1      18.966   0.937   6.922  0.00  0.00     0.086 A 
ATOM     16  C23 ZIN A   1      18.304  -1.388   6.942  0.00  0.00     0.032 A 
ATOM     17  N18 ZIN A   1      18.930   1.984   7.786  0.00  0.00    -0.221 NA
ATOM     18  C20 ZIN A   1      19.425   0.784   5.612  0.00  0.00     0.034 A 
ATOM     19  C21 ZIN A   1      19.321  -0.429   4.991  0.00  0.00     0.002 A 
ATOM     20  C22 ZIN A   1      18.764  -1.515   5.649  0.00  0.00     0.002 A 
ENDBRANCH   9  11
ENDBRANCH   8   9
ENDBRANCH   7   8
BRANCH   3  21
ATOM     21  O4  ZIN A   1      19.042  -0.062  15.416  0.00  0.00    -0.342 OA
BRANCH  21  22
ATOM     22  C5  ZIN A   1      18.485  -1.263  15.956  0.00  0.00     0.293 C 
BRANCH  22  23
ATOM     23  C6  ZIN A   1      17.360  -0.910  16.930  0.00  0.00     0.408 C 
ATOM     24  F7  ZIN A   1      16.550  -2.032  17.135  0.00  0.00    -0.169 F 
ATOM     25  F8  ZIN A   1      17.911  -0.503  18.150  0.00  0.00    -0.169 F 
ATOM     26  F9  ZIN A   1      16.590   0.129  16.397  0.00  0.00    -0.169 F 
ENDBRANCH  22  23
ENDBRANCH  21  22
ENDBRANCH   3  21
TORSDOF 6
ENDMDL
MODEL 8
REMARK VINA RESULT:      -7.6      2.532      3.653
REMARK  6 active torsions:
REMARK  status: ('A' for Active; 'I' for Inactive)
REMARK    1  A    between atoms: C3_3  and  O4_4 
REMARK    2  A    between atoms: O4_4  and  C5_5 
REMARK    3  A    between atoms: C5_5  and  C6_6 
REMARK    4  A    between atoms: C13_13  and  C14_14 
REMARK    5  A    between atoms: C14_14  and  S15_15 
REMARK    6  A    between atoms: S15_15  and  C17_17 
ROOT
ATOM      1  C1  ZIN A   1      20.374   3.423  11.775  0.00  0.00     0.053 C 
ATOM      2  C2  ZIN A   1      19.020   4.084  11.766  0.00  0.00    -0.003 A 
ATOM      3  C3  ZIN A   1      18.154   3.903  10.691  0.00  0.00     0.078 A 
ATOM      4  C10 ZIN A   1      16.913   4.535  10.728  0.00  0.00     0.056 A 
ATOM      5  C11 ZIN A   1      16.590   5.313  11.821  0.00  0.00     0.119 A 
ATOM      6  N12 ZIN A   1      17.439   5.461  12.821  0.00  0.00    -0.264 NA
ATOM      7  C13 ZIN A   1      18.620   4.874  12.825  0.00  0.00     0.054 A 
ENDROOT
BRANCH   7   8
ATOM      8  C14 ZIN A   1      19.549   5.079  13.993  0.00  0.00     0.177 C 
BRANCH   8   9
ATOM      9  S15 ZIN A   1      18.603   5.005  15.539  0.00  0.00     0.091 S 
ATOM     10  O16 ZIN A   1      19.315   5.687  16.562  0.00  0.00    -0.249 OA
BRANCH   9  11
ATOM     11  C17 ZIN A   1      18.748   3.314  16.013  0.00  0.00     0.198 A 
ATOM     12  N25 ZIN A   1      19.097   2.881  17.254  0.00  0.00    -0.331 N 
ATOM     13  C24 ZIN A   1      19.096   1.501  17.222  0.00  0.00     0.063 A 
ATOM     14  H39 ZIN A   1      19.308   3.438  18.020  0.00  0.00     0.168 HD
ATOM     15  C19 ZIN A   1      18.740   1.144  15.911  0.00  0.00     0.086 A 
ATOM     16  C23 ZIN A   1      19.361   0.512  18.159  0.00  0.00     0.032 A 
ATOM     17  N18 ZIN A   1      18.542   2.300  15.226  0.00  0.00    -0.221 NA
ATOM     18  C20 ZIN A   1      18.658  -0.207  15.565  0.00  0.00     0.034 A 
ATOM     19  C21 ZIN A   1      18.923  -1.167  16.500  0.00  0.00     0.002 A 
ATOM     20  C22 ZIN A   1      19.274  -0.815  17.795  0.00  0.00     0.002 A 
ENDBRANCH   9  11
ENDBRANCH   8   9
ENDBRANCH   7   8
BRANCH   3  21
ATOM     21  O4  ZIN A   1      18.509   3.129   9.634  0.00  0.00    -0.342 OA
BRANCH  21  22
ATOM     22  C5  ZIN A   1      18.093   1.762   9.662  0.00  0.00     0.293 C 
BRANCH  22  23
ATOM     23  C6  ZIN A   1      18.609   1.047   8.411  0.00  0.00     0.408 C 
ATOM     24  F7  ZIN A   1      19.710   0.253   8.748  0.00  0.00    -0.169 F 
ATOM     25  F8  ZIN A   1      17.595   0.240   7.884  0.00  0.00    -0.169 F 
ATOM     26  F9  ZIN A   1      18.993   1.995   7.457  0.00  0.00    -0.169 F 
ENDBRANCH  22  23
ENDBRANCH  21  22
ENDBRANCH   3  21
TORSDOF 6
ENDMDL
MODEL 9
REMARK VINA RESULT:      -7.6      3.192      3.804
REMARK  6 active torsions:
REMARK  status: ('A' for Active; 'I' for Inactive)
REMARK    1  A    between atoms: C3_3  and  O4_4 
REMARK    2  A    between atoms: O4_4  and  C5_5 
REMARK    3  A    between atoms: C5_5  and  C6_6 
REMARK    4  A    between atoms: C13_13  and  C14_14 
REMARK    5  A    between atoms: C14_14  and  S15_15 
REMARK    6  A    between atoms: S15_15  and  C17_17 
ROOT
ATOM      1  C1  ZIN A   1      17.447  -1.836  11.656  0.00  0.00     0.053 C 
ATOM      2  C2  ZIN A   1      17.661  -1.111  10.352  0.00  0.00    -0.003 A 
ATOM      3  C3  ZIN A   1      17.809  -1.823   9.165  0.00  0.00     0.078 A 
ATOM      4  C10 ZIN A   1      18.004  -1.109   7.986  0.00  0.00     0.056 A 
ATOM      5  C11 ZIN A   1      18.045   0.270   8.036  0.00  0.00     0.119 A 
ATOM      6  N12 ZIN A   1      17.900   0.909   9.181  0.00  0.00    -0.264 NA
ATOM      7  C13 ZIN A   1      17.707   0.268  10.318  0.00  0.00     0.054 A 
ENDROOT
BRANCH   7   8
ATOM      8  C14 ZIN A   1      17.550   1.049  11.596  0.00  0.00     0.177 C 
BRANCH   8   9
ATOM      9  S15 ZIN A   1      19.175   1.634  12.152  0.00  0.00     0.091 S 
ATOM     10  O16 ZIN A   1      20.180   0.736  11.702  0.00  0.00    -0.249 OA
BRANCH   9  11
ATOM     11  C17 ZIN A   1      19.129   1.341  13.889  0.00  0.00     0.198 A 
ATOM     12  N25 ZIN A   1      19.252   2.301  14.844  0.00  0.00    -0.331 N 
ATOM     13  C24 ZIN A   1      19.162   1.674  16.071  0.00  0.00     0.063 A 
ATOM     14  H39 ZIN A   1      19.379   3.251  14.693  0.00  0.00     0.168 HD
ATOM     15  C19 ZIN A   1      18.990   0.306  15.795  0.00  0.00     0.086 A 
ATOM     16  C23 ZIN A   1      19.212   2.111  17.387  0.00  0.00     0.032 A 
ATOM     17  N18 ZIN A   1      18.979   0.174  14.443  0.00  0.00    -0.221 NA
ATOM     18  C20 ZIN A   1      18.871  -0.598  16.853  0.00  0.00     0.034 A 
ATOM     19  C21 ZIN A   1      18.923  -0.149  18.142  0.00  0.00     0.002 A 
ATOM     20  C22 ZIN A   1      19.092   1.201  18.415  0.00  0.00     0.002 A 
ENDBRANCH   9  11
ENDBRANCH   8   9
ENDBRANCH   7   8
BRANCH   3  21
ATOM     21  O4  ZIN A   1      17.763  -3.180   9.157  0.00  0.00    -0.342 OA
BRANCH  21  22
ATOM     22  C5  ZIN A   1      18.979  -3.868   8.856  0.00  0.00     0.293 C 
BRANCH  22  23
ATOM     23  C6  ZIN A   1      19.451  -4.632  10.095  0.00  0.00     0.408 C 
ATOM     24  F7  ZIN A   1      18.344  -5.154  10.772  0.00  0.00    -0.169 F 
ATOM     25  F8  ZIN A   1      20.295  -5.678   9.704  0.00  0.00    -0.169 F 
ATOM     26  F9  ZIN A   1      20.148  -3.763  10.941  0.00  0.00    -0.169 F 
ENDBRANCH  22  23
ENDBRANCH  21  22
ENDBRANCH   3  21
TORSDOF 6
ENDMDL
