MODEL 1
REMARK VINA RESULT:      -6.1      0.000      0.000
REMARK  4 active torsions:
REMARK  status: ('A' for Active; 'I' for Inactive)
REMARK    1  A    between atoms: C7_7  and  C8_8 
REMARK    2  A    between atoms: C8_8  and  C9_9 
REMARK    3  A    between atoms: C8_8  and  C15_15 
REMARK    4  A    between atoms: C8_8  and  N21_21 
ROOT
ATOM      1  C8  <0> d   1      18.491   4.866  14.454  0.00  0.00     0.121 C 
ENDROOT
BRANCH   1   2
ATOM      2  C7  <0> d   1      18.367   3.661  15.350  0.00  0.00     0.002 A 
ATOM      3  C2  <0> d   1      18.318   3.822  16.724  0.00  0.00     0.043 A 
ATOM      4 Cl1  <0> d   1      18.391   5.413  17.414  0.00  0.00    -0.084 Cl
ATOM      5  C3  <0> d   1      18.203   2.715  17.546  0.00  0.00     0.024 A 
ATOM      6  C4  <0> d   1      18.145   1.448  16.995  0.00  0.00     0.002 A 
ATOM      7  C5  <0> d   1      18.200   1.288  15.623  0.00  0.00     0.001 A 
ATOM      8  C6  <0> d   1      18.314   2.394  14.801  0.00  0.00     0.012 A 
ENDBRANCH   1   2
BRANCH   1   9
ATOM      9  C9  <0> d   1      18.414   4.432  13.014  0.00  0.00    -0.020 A 
ATOM     10  C14 <0> d   1      19.464   3.734  12.445  0.00  0.00     0.010 A 
ATOM     11  C13 <0> d   1      19.393   3.333  11.125  0.00  0.00     0.001 A 
ATOM     12  C12 <0> d   1      18.274   3.637  10.370  0.00  0.00     0.000 A 
ATOM     13  C11 <0> d   1      17.228   4.338  10.936  0.00  0.00     0.001 A 
ATOM     14  C10 <0> d   1      17.297   4.736  12.259  0.00  0.00     0.010 A 
ENDBRANCH   1   9
BRANCH   1  15
ATOM     15  C15 <0> d   1      17.369   5.829  14.750  0.00  0.00    -0.020 A 
ATOM     16  C20 <0> d   1      16.074   5.362  14.879  0.00  0.00     0.010 A 
ATOM     17  C19 <0> d   1      15.046   6.245  15.154  0.00  0.00     0.001 A 
ATOM     18  C18 <0> d   1      15.312   7.595  15.293  0.00  0.00     0.000 A 
ATOM     19  C17 <0> d   1      16.607   8.061  15.159  0.00  0.00     0.001 A 
ATOM     20  C16 <0> d   1      17.635   7.178  14.887  0.00  0.00     0.010 A 
ENDBRANCH   1  15
BRANCH   1  21
ATOM     21  N21 <0> d   1      19.777   5.525  14.698  0.00  0.00    -0.327 N 
ATOM     22  C25 <0> d   1      20.199   6.685  14.152  0.00  0.00     0.210 A 
ATOM     23  N24 <0> d   1      21.391   6.954  14.610  0.00  0.00    -0.255 NA
ATOM     24  C23 <0> d   1      21.773   5.979  15.448  0.00  0.00     0.135 A 
ATOM     25  C22 <0> d   1      20.778   5.075  15.518  0.00  0.00     0.113 A 
ENDBRANCH   1  21
TORSDOF 4
ENDMDL
MODEL 2
REMARK VINA RESULT:      -5.8     12.461     15.109
REMARK  4 active torsions:
REMARK  status: ('A' for Active; 'I' for Inactive)
REMARK    1  A    between atoms: C7_7  and  C8_8 
REMARK    2  A    between atoms: C8_8  and  C9_9 
REMARK    3  A    between atoms: C8_8  and  C15_15 
REMARK    4  A    between atoms: C8_8  and  N21_21 
ROOT
ATOM      1  C8  <0> d   1      16.026  -7.112   6.950  0.00  0.00     0.121 C 
ENDROOT
BRANCH   1   2
ATOM      2  C7  <0> d   1      16.099  -6.198   5.755  0.00  0.00     0.002 A 
ATOM      3  C2  <0> d   1      15.265  -6.408   4.671  0.00  0.00     0.043 A 
ATOM      4 Cl1  <0> d   1      14.129  -7.721   4.691  0.00  0.00    -0.084 Cl
ATOM      5  C3  <0> d   1      15.331  -5.568   3.574  0.00  0.00     0.024 A 
ATOM      6  C4  <0> d   1      16.236  -4.522   3.559  0.00  0.00     0.002 A 
ATOM      7  C5  <0> d   1      17.073  -4.316   4.639  0.00  0.00     0.001 A 
ATOM      8  C6  <0> d   1      17.006  -5.156   5.736  0.00  0.00     0.012 A 
ENDBRANCH   1   2
BRANCH   1   9
ATOM      9  C9  <0> d   1      16.812  -6.516   8.088  0.00  0.00    -0.020 A 
ATOM     10  C14 <0> d   1      18.192  -6.615   8.102  0.00  0.00     0.010 A 
ATOM     11  C13 <0> d   1      18.914  -6.064   9.145  0.00  0.00     0.001 A 
ATOM     12  C12 <0> d   1      18.255  -5.423  10.178  0.00  0.00     0.000 A 
ATOM     13  C11 <0> d   1      16.877  -5.330  10.167  0.00  0.00     0.001 A 
ATOM     14  C10 <0> d   1      16.155  -5.875   9.122  0.00  0.00     0.010 A 
ENDBRANCH   1   9
BRANCH   1  15
ATOM     15  C15 <0> d   1      14.587  -7.281   7.367  0.00  0.00    -0.020 A 
ATOM     16  C20 <0> d   1      13.780  -6.170   7.529  0.00  0.00     0.010 A 
ATOM     17  C19 <0> d   1      12.459  -6.326   7.906  0.00  0.00     0.001 A 
ATOM     18  C18 <0> d   1      11.948  -7.591   8.129  0.00  0.00     0.000 A 
ATOM     19  C17 <0> d   1      12.757  -8.701   7.972  0.00  0.00     0.001 A 
ATOM     20  C16 <0> d   1      14.077  -8.546   7.591  0.00  0.00     0.010 A 
ENDBRANCH   1  15
BRANCH   1  21
ATOM     21  N21 <0> d   1      16.589  -8.419   6.599  0.00  0.00    -0.327 N 
ATOM     22  C25 <0> d   1      17.092  -8.779   5.399  0.00  0.00     0.210 A 
ATOM     23  N24 <0> d   1      17.502 -10.016   5.470  0.00  0.00    -0.255 NA
ATOM     24  C23 <0> d   1      17.268 -10.488   6.704  0.00  0.00     0.135 A 
ATOM     25  C22 <0> d   1      16.698  -9.505   7.426  0.00  0.00     0.113 A 
ENDBRANCH   1  21
TORSDOF 4
ENDMDL
MODEL 3
REMARK VINA RESULT:      -5.7      9.379     12.312
REMARK  4 active torsions:
REMARK  status: ('A' for Active; 'I' for Inactive)
REMARK    1  A    between atoms: C7_7  and  C8_8 
REMARK    2  A    between atoms: C8_8  and  C9_9 
REMARK    3  A    between atoms: C8_8  and  C15_15 
REMARK    4  A    between atoms: C8_8  and  N21_21 
ROOT
ATOM      1  C8  <0> d   1      18.509  -4.478   8.375  0.00  0.00     0.121 C 
ENDROOT
BRANCH   1   2
ATOM      2  C7  <0> d   1      18.325  -3.418   7.322  0.00  0.00     0.002 A 
ATOM      3  C2  <0> d   1      18.225  -3.776   5.988  0.00  0.00     0.043 A 
ATOM      4 Cl1  <0> d   1      18.304  -5.449   5.532  0.00  0.00    -0.084 Cl
ATOM      5  C3  <0> d   1      18.055  -2.802   5.021  0.00  0.00     0.024 A 
ATOM      6  C4  <0> d   1      17.991  -1.470   5.386  0.00  0.00     0.002 A 
ATOM      7  C5  <0> d   1      18.097  -1.112   6.717  0.00  0.00     0.001 A 
ATOM      8  C6  <0> d   1      18.267  -2.086   7.684  0.00  0.00     0.012 A 
ENDBRANCH   1   2
BRANCH   1   9
ATOM      9  C9  <0> d   1      18.407  -3.853   9.742  0.00  0.00    -0.020 A 
ATOM     10  C14 <0> d   1      19.318  -2.888  10.131  0.00  0.00     0.010 A 
ATOM     11  C13 <0> d   1      19.222  -2.312  11.384  0.00  0.00     0.001 A 
ATOM     12  C12 <0> d   1      18.219  -2.706  12.251  0.00  0.00     0.000 A 
ATOM     13  C11 <0> d   1      17.312  -3.674  11.864  0.00  0.00     0.001 A 
ATOM     14  C10 <0> d   1      17.405  -4.247  10.609  0.00  0.00     0.010 A 
ENDBRANCH   1   9
BRANCH   1  15
ATOM     15  C15 <0> d   1      17.440  -5.530   8.222  0.00  0.00    -0.020 A 
ATOM     16  C20 <0> d   1      16.108  -5.162   8.191  0.00  0.00     0.010 A 
ATOM     17  C19 <0> d   1      15.128  -6.126   8.046  0.00  0.00     0.001 A 
ATOM     18  C18 <0> d   1      15.480  -7.459   7.940  0.00  0.00     0.000 A 
ATOM     19  C17 <0> d   1      16.812  -7.827   7.976  0.00  0.00     0.001 A 
ATOM     20  C16 <0> d   1      17.792  -6.863   8.117  0.00  0.00     0.010 A 
ENDBRANCH   1  15
BRANCH   1  21
ATOM     21  N21 <0> d   1      19.829  -5.097   8.219  0.00  0.00    -0.327 N 
ATOM     22  C25 <0> d   1      20.364  -6.053   9.008  0.00  0.00     0.210 A 
ATOM     23  N24 <0> d   1      21.550  -6.355   8.554  0.00  0.00    -0.255 NA
ATOM     24  C23 <0> d   1      21.815  -5.602   7.476  0.00  0.00     0.135 A 
ATOM     25  C22 <0> d   1      20.752  -4.809   7.250  0.00  0.00     0.113 A 
ENDBRANCH   1  21
TORSDOF 4
ENDMDL
MODEL 4
REMARK VINA RESULT:      -5.7      1.546      4.890
REMARK  4 active torsions:
REMARK  status: ('A' for Active; 'I' for Inactive)
REMARK    1  A    between atoms: C7_7  and  C8_8 
REMARK    2  A    between atoms: C8_8  and  C9_9 
REMARK    3  A    between atoms: C8_8  and  C15_15 
REMARK    4  A    between atoms: C8_8  and  N21_21 
ROOT
ATOM      1  C8  <0> d   1      18.099   4.519  14.290  0.00  0.00     0.121 C 
ENDROOT
BRANCH   1   2
ATOM      2  C7  <0> d   1      17.939   4.535  12.792  0.00  0.00     0.002 A 
ATOM      3  C2  <0> d   1      18.821   3.826  11.994  0.00  0.00     0.043 A 
ATOM      4 Cl1  <0> d   1      20.106   2.912  12.721  0.00  0.00    -0.084 Cl
ATOM      5  C3  <0> d   1      18.674   3.840  10.619  0.00  0.00     0.024 A 
ATOM      6  C4  <0> d   1      17.650   4.568  10.041  0.00  0.00     0.002 A 
ATOM      7  C5  <0> d   1      16.773   5.280  10.838  0.00  0.00     0.001 A 
ATOM      8  C6  <0> d   1      16.920   5.266  12.213  0.00  0.00     0.012 A 
ENDBRANCH   1   2
BRANCH   1   9
ATOM      9  C9  <0> d   1      16.925   5.215  14.928  0.00  0.00    -0.020 A 
ATOM     10  C14 <0> d   1      15.775   5.443  14.195  0.00  0.00     0.010 A 
ATOM     11  C13 <0> d   1      14.696   6.078  14.782  0.00  0.00     0.001 A 
ATOM     12  C12 <0> d   1      14.771   6.492  16.100  0.00  0.00     0.000 A 
ATOM     13  C11 <0> d   1      15.922   6.268  16.830  0.00  0.00     0.001 A 
ATOM     14  C10 <0> d   1      17.000   5.629  16.245  0.00  0.00     0.010 A 
ENDBRANCH   1   9
BRANCH   1  15
ATOM     15  C15 <0> d   1      18.162   3.092  14.773  0.00  0.00    -0.020 A 
ATOM     16  C20 <0> d   1      17.468   2.104  14.101  0.00  0.00     0.010 A 
ATOM     17  C19 <0> d   1      17.530   0.795  14.542  0.00  0.00     0.001 A 
ATOM     18  C18 <0> d   1      18.279   0.476  15.660  0.00  0.00     0.000 A 
ATOM     19  C17 <0> d   1      18.969   1.466  16.334  0.00  0.00     0.001 A 
ATOM     20  C16 <0> d   1      18.910   2.774  15.891  0.00  0.00     0.010 A 
ENDBRANCH   1  15
BRANCH   1  21
ATOM     21  N21 <0> d   1      19.336   5.214  14.656  0.00  0.00    -0.327 N 
ATOM     22  C25 <0> d   1      19.874   6.279  14.025  0.00  0.00     0.210 A 
ATOM     23  N24 <0> d   1      20.973   6.620  14.640  0.00  0.00    -0.255 NA
ATOM     24  C23 <0> d   1      21.179   5.787  15.671  0.00  0.00     0.135 A 
ATOM     25  C22 <0> d   1      20.166   4.900  15.699  0.00  0.00     0.113 A 
ENDBRANCH   1  21
TORSDOF 4
ENDMDL
MODEL 5
REMARK VINA RESULT:      -5.6      9.262     11.587
REMARK  4 active torsions:
REMARK  status: ('A' for Active; 'I' for Inactive)
REMARK    1  A    between atoms: C7_7  and  C8_8 
REMARK    2  A    between atoms: C8_8  and  C9_9 
REMARK    3  A    between atoms: C8_8  and  C15_15 
REMARK    4  A    between atoms: C8_8  and  N21_21 
ROOT
ATOM      1  C8  <0> d   1      18.546  -4.130   8.016  0.00  0.00     0.121 C 
ENDROOT
BRANCH   1   2
ATOM      2  C7  <0> d   1      17.366  -5.065   7.967  0.00  0.00     0.002 A 
ATOM      3  C2  <0> d   1      17.319  -6.071   7.016  0.00  0.00     0.043 A 
ATOM      4 Cl1  <0> d   1      18.622  -6.256   5.884  0.00  0.00    -0.084 Cl
ATOM      5  C3  <0> d   1      16.236  -6.930   6.972  0.00  0.00     0.024 A 
ATOM      6  C4  <0> d   1      15.199  -6.781   7.874  0.00  0.00     0.002 A 
ATOM      7  C5  <0> d   1      15.244  -5.774   8.820  0.00  0.00     0.001 A 
ATOM      8  C6  <0> d   1      16.327  -4.915   8.864  0.00  0.00     0.012 A 
ENDBRANCH   1   2
BRANCH   1   9
ATOM      9  C9  <0> d   1      18.549  -3.260   6.786  0.00  0.00    -0.020 A 
ATOM     10  C14 <0> d   1      19.385  -2.160   6.719  0.00  0.00     0.010 A 
ATOM     11  C13 <0> d   1      19.391  -1.364   5.589  0.00  0.00     0.001 A 
ATOM     12  C12 <0> d   1      18.554  -1.664   4.529  0.00  0.00     0.000 A 
ATOM     13  C11 <0> d   1      17.716  -2.759   4.598  0.00  0.00     0.001 A 
ATOM     14  C10 <0> d   1      17.713  -3.559   5.726  0.00  0.00     0.010 A 
ENDBRANCH   1   9
BRANCH   1  15
ATOM     15  C15 <0> d   1      18.450  -3.262   9.245  0.00  0.00    -0.020 A 
ATOM     16  C20 <0> d   1      17.775  -2.057   9.188  0.00  0.00     0.010 A 
ATOM     17  C19 <0> d   1      17.683  -1.264  10.317  0.00  0.00     0.001 A 
ATOM     18  C18 <0> d   1      18.272  -1.672  11.499  0.00  0.00     0.000 A 
ATOM     19  C17 <0> d   1      18.951  -2.875  11.554  0.00  0.00     0.001 A 
ATOM     20  C16 <0> d   1      19.039  -3.670  10.426  0.00  0.00     0.010 A 
ENDBRANCH   1  15
BRANCH   1  21
ATOM     21  N21 <0> d   1      19.786  -4.910   8.065  0.00  0.00    -0.327 N 
ATOM     22  C25 <0> d   1      20.067  -5.914   8.923  0.00  0.00     0.210 A 
ATOM     23  N24 <0> d   1      21.262  -6.367   8.660  0.00  0.00    -0.255 NA
ATOM     24  C23 <0> d   1      21.785  -5.669   7.640  0.00  0.00     0.135 A 
ATOM     25  C22 <0> d   1      20.877  -4.754   7.253  0.00  0.00     0.113 A 
ENDBRANCH   1  21
TORSDOF 4
ENDMDL
MODEL 6
REMARK VINA RESULT:      -5.4      0.961      4.220
REMARK  4 active torsions:
REMARK  status: ('A' for Active; 'I' for Inactive)
REMARK    1  A    between atoms: C7_7  and  C8_8 
REMARK    2  A    between atoms: C8_8  and  C9_9 
REMARK    3  A    between atoms: C8_8  and  C15_15 
REMARK    4  A    between atoms: C8_8  and  N21_21 
ROOT
ATOM      1  C8  <0> d   1      18.423   4.288  14.349  0.00  0.00     0.121 C 
ENDROOT
BRANCH   1   2
ATOM      2  C7  <0> d   1      17.166   5.035  14.712  0.00  0.00     0.002 A 
ATOM      3  C2  <0> d   1      17.007   5.542  15.991  0.00  0.00     0.043 A 
ATOM      4 Cl1  <0> d   1      18.259   5.321  17.173  0.00  0.00    -0.084 Cl
ATOM      5  C3  <0> d   1      15.854   6.228  16.324  0.00  0.00     0.024 A 
ATOM      6  C4  <0> d   1      14.858   6.404  15.382  0.00  0.00     0.002 A 
ATOM      7  C5  <0> d   1      15.014   5.893  14.107  0.00  0.00     0.001 A 
ATOM      8  C6  <0> d   1      16.167   5.207  13.773  0.00  0.00     0.012 A 
ENDBRANCH   1   2
BRANCH   1   9
ATOM      9  C9  <0> d   1      18.464   2.981  15.097  0.00  0.00    -0.020 A 
ATOM     10  C14 <0> d   1      19.219   2.869  16.251  0.00  0.00     0.010 A 
ATOM     11  C13 <0> d   1      19.254   1.671  16.939  0.00  0.00     0.001 A 
ATOM     12  C12 <0> d   1      18.542   0.582  16.469  0.00  0.00     0.000 A 
ATOM     13  C11 <0> d   1      17.793   0.693  15.314  0.00  0.00     0.001 A 
ATOM     14  C10 <0> d   1      17.753   1.893  14.628  0.00  0.00     0.010 A 
ENDBRANCH   1   9
BRANCH   1  15
ATOM     15  C15 <0> d   1      18.437   4.019  12.865  0.00  0.00    -0.020 A 
ATOM     16  C20 <0> d   1      17.508   4.631  12.043  0.00  0.00     0.010 A 
ATOM     17  C19 <0> d   1      17.524   4.388  10.683  0.00  0.00     0.001 A 
ATOM     18  C18 <0> d   1      18.463   3.527  10.145  0.00  0.00     0.000 A 
ATOM     19  C17 <0> d   1      19.388   2.911  10.968  0.00  0.00     0.001 A 
ATOM     20  C16 <0> d   1      19.374   3.158  12.328  0.00  0.00     0.010 A 
ENDBRANCH   1  15
BRANCH   1  21
ATOM     21  N21 <0> d   1      19.592   5.095  14.709  0.00  0.00    -0.327 N 
ATOM     22  C25 <0> d   1      19.881   6.333  14.256  0.00  0.00     0.210 A 
ATOM     23  N24 <0> d   1      20.999   6.728  14.802  0.00  0.00    -0.255 NA
ATOM     24  C23 <0> d   1      21.463   5.761  15.608  0.00  0.00     0.135 A 
ATOM     25  C22 <0> d   1      20.597   4.731  15.565  0.00  0.00     0.113 A 
ENDBRANCH   1  21
TORSDOF 4
ENDMDL
MODEL 7
REMARK VINA RESULT:      -5.3     12.590     14.967
REMARK  4 active torsions:
REMARK  status: ('A' for Active; 'I' for Inactive)
REMARK    1  A    between atoms: C7_7  and  C8_8 
REMARK    2  A    between atoms: C8_8  and  C9_9 
REMARK    3  A    between atoms: C8_8  and  C15_15 
REMARK    4  A    between atoms: C8_8  and  N21_21 
ROOT
ATOM      1  C8  <0> d   1      15.563  -6.960   6.591  0.00  0.00     0.121 C 
ENDROOT
BRANCH   1   2
ATOM      2  C7  <0> d   1      16.384  -6.130   7.542  0.00  0.00     0.002 A 
ATOM      3  C2  <0> d   1      17.702  -5.831   7.240  0.00  0.00     0.043 A 
ATOM      4 Cl1  <0> d   1      18.404  -6.406   5.760  0.00  0.00    -0.084 Cl
ATOM      5  C3  <0> d   1      18.455  -5.068   8.113  0.00  0.00     0.024 A 
ATOM      6  C4  <0> d   1      17.895  -4.610   9.291  0.00  0.00     0.002 A 
ATOM      7  C5  <0> d   1      16.581  -4.914   9.596  0.00  0.00     0.001 A 
ATOM      8  C6  <0> d   1      15.827  -5.676   8.722  0.00  0.00     0.012 A 
ENDBRANCH   1   2
BRANCH   1   9
ATOM      9  C9  <0> d   1      16.278  -8.255   6.307  0.00  0.00    -0.020 A 
ATOM     10  C14 <0> d   1      16.333  -8.747   5.015  0.00  0.00     0.010 A 
ATOM     11  C13 <0> d   1      16.992  -9.933   4.755  0.00  0.00     0.001 A 
ATOM     12  C12 <0> d   1      17.589 -10.633   5.787  0.00  0.00     0.000 A 
ATOM     13  C11 <0> d   1      17.530 -10.145   7.078  0.00  0.00     0.001 A 
ATOM     14  C10 <0> d   1      16.875  -8.956   7.339  0.00  0.00     0.010 A 
ENDBRANCH   1   9
BRANCH   1  15
ATOM     15  C15 <0> d   1      14.219  -7.252   7.209  0.00  0.00    -0.020 A 
ATOM     16  C20 <0> d   1      13.388  -6.211   7.580  0.00  0.00     0.010 A 
ATOM     17  C19 <0> d   1      12.155  -6.479   8.142  0.00  0.00     0.001 A 
ATOM     18  C18 <0> d   1      11.755  -7.788   8.342  0.00  0.00     0.000 A 
ATOM     19  C17 <0> d   1      12.588  -8.828   7.976  0.00  0.00     0.001 A 
ATOM     20  C16 <0> d   1      13.820  -8.560   7.409  0.00  0.00     0.010 A 
ENDBRANCH   1  15
BRANCH   1  21
ATOM     21  N21 <0> d   1      15.374  -6.223   5.338  0.00  0.00    -0.327 N 
ATOM     22  C25 <0> d   1      15.949  -5.048   5.006  0.00  0.00     0.210 A 
ATOM     23  N24 <0> d   1      15.544  -4.705   3.814  0.00  0.00    -0.255 NA
ATOM     24  C23 <0> d   1      14.695  -5.636   3.351  0.00  0.00     0.135 A 
ATOM     25  C22 <0> d   1      14.576  -6.594   4.289  0.00  0.00     0.113 A 
ENDBRANCH   1  21
TORSDOF 4
ENDMDL
MODEL 8
REMARK VINA RESULT:      -5.3     12.377     14.920
REMARK  4 active torsions:
REMARK  status: ('A' for Active; 'I' for Inactive)
REMARK    1  A    between atoms: C7_7  and  C8_8 
REMARK    2  A    between atoms: C8_8  and  C9_9 
REMARK    3  A    between atoms: C8_8  and  C15_15 
REMARK    4  A    between atoms: C8_8  and  N21_21 
ROOT
ATOM      1  C8  <0> d   1      15.769  -6.981   6.693  0.00  0.00     0.121 C 
ENDROOT
BRANCH   1   2
ATOM      2  C7  <0> d   1      16.532  -6.157   7.697  0.00  0.00     0.002 A 
ATOM      3  C2  <0> d   1      17.864  -5.855   7.474  0.00  0.00     0.043 A 
ATOM      4 Cl1  <0> d   1      18.653  -6.421   6.035  0.00  0.00    -0.084 Cl
ATOM      5  C3  <0> d   1      18.565  -5.097   8.395  0.00  0.00     0.024 A 
ATOM      6  C4  <0> d   1      17.935  -4.646   9.541  0.00  0.00     0.002 A 
ATOM      7  C5  <0> d   1      16.606  -4.953   9.765  0.00  0.00     0.001 A 
ATOM      8  C6  <0> d   1      15.906  -5.710   8.844  0.00  0.00     0.012 A 
ENDBRANCH   1   2
BRANCH   1   9
ATOM      9  C9  <0> d   1      14.397  -7.289   7.234  0.00  0.00    -0.020 A 
ATOM     10  C14 <0> d   1      14.016  -8.602   7.446  0.00  0.00     0.010 A 
ATOM     11  C13 <0> d   1      12.759  -8.885   7.946  0.00  0.00     0.001 A 
ATOM     12  C12 <0> d   1      11.879  -7.855   8.226  0.00  0.00     0.000 A 
ATOM     13  C11 <0> d   1      12.258  -6.544   8.011  0.00  0.00     0.001 A 
ATOM     14  C10 <0> d   1      13.517  -6.260   7.515  0.00  0.00     0.010 A 
ENDBRANCH   1   9
BRANCH   1  15
ATOM     15  C15 <0> d   1      15.639  -6.211   5.404  0.00  0.00    -0.020 A 
ATOM     16  C20 <0> d   1      16.395  -5.070   5.201  0.00  0.00     0.010 A 
ATOM     17  C19 <0> d   1      16.279  -4.367   4.017  0.00  0.00     0.001 A 
ATOM     18  C18 <0> d   1      15.403  -4.798   3.039  0.00  0.00     0.000 A 
ATOM     19  C17 <0> d   1      14.644  -5.935   3.244  0.00  0.00     0.001 A 
ATOM     20  C16 <0> d   1      14.762  -6.641   4.426  0.00  0.00     0.010 A 
ENDBRANCH   1  15
BRANCH   1  21
ATOM     21  N21 <0> d   1      16.488  -8.233   6.443  0.00  0.00    -0.327 N 
ATOM     22  C25 <0> d   1      16.768  -8.769   5.236  0.00  0.00     0.210 A 
ATOM     23  N24 <0> d   1      17.422  -9.884   5.415  0.00  0.00    -0.255 NA
ATOM     24  C23 <0> d   1      17.572 -10.103   6.730  0.00  0.00     0.135 A 
ATOM     25  C22 <0> d   1      16.995  -9.082   7.390  0.00  0.00     0.113 A 
ENDBRANCH   1  21
TORSDOF 4
ENDMDL
MODEL 9
REMARK VINA RESULT:      -5.2     12.753     15.301
REMARK  4 active torsions:
REMARK  status: ('A' for Active; 'I' for Inactive)
REMARK    1  A    between atoms: C7_7  and  C8_8 
REMARK    2  A    between atoms: C8_8  and  C9_9 
REMARK    3  A    between atoms: C8_8  and  C15_15 
REMARK    4  A    between atoms: C8_8  and  N21_21 
ROOT
ATOM      1  C8  <0> d   1      15.885  -7.001   6.227  0.00  0.00     0.121 C 
ENDROOT
BRANCH   1   2
ATOM      2  C7  <0> d   1      16.400  -8.276   5.609  0.00  0.00     0.002 A 
ATOM      3  C2  <0> d   1      16.647  -9.381   6.406  0.00  0.00     0.043 A 
ATOM      4 Cl1  <0> d   1      16.357  -9.299   8.116  0.00  0.00    -0.084 Cl
ATOM      5  C3  <0> d   1      17.118 -10.551   5.839  0.00  0.00     0.024 A 
ATOM      6  C4  <0> d   1      17.348 -10.615   4.477  0.00  0.00     0.002 A 
ATOM      7  C5  <0> d   1      17.107  -9.510   3.683  0.00  0.00     0.001 A 
ATOM      8  C6  <0> d   1      16.636  -8.340   4.249  0.00  0.00     0.012 A 
ENDBRANCH   1   2
BRANCH   1   9
ATOM      9  C9  <0> d   1      14.508  -7.236   6.789  0.00  0.00    -0.020 A 
ATOM     10  C14 <0> d   1      13.834  -8.409   6.502  0.00  0.00     0.010 A 
ATOM     11  C13 <0> d   1      12.571  -8.625   7.021  0.00  0.00     0.001 A 
ATOM     12  C12 <0> d   1      11.979  -7.665   7.821  0.00  0.00     0.000 A 
ATOM     13  C11 <0> d   1      12.650  -6.491   8.103  0.00  0.00     0.001 A 
ATOM     14  C10 <0> d   1      13.915  -6.276   7.588  0.00  0.00     0.010 A 
ENDBRANCH   1   9
BRANCH   1  15
ATOM     15  C15 <0> d   1      16.814  -6.569   7.333  0.00  0.00    -0.020 A 
ATOM     16  C20 <0> d   1      18.179  -6.535   7.116  0.00  0.00     0.010 A 
ATOM     17  C19 <0> d   1      19.029  -6.134   8.129  0.00  0.00     0.001 A 
ATOM     18  C18 <0> d   1      18.516  -5.774   9.361  0.00  0.00     0.000 A 
ATOM     19  C17 <0> d   1      17.151  -5.812   9.579  0.00  0.00     0.001 A 
ATOM     20  C16 <0> d   1      16.300  -6.210   8.565  0.00  0.00     0.010 A 
ENDBRANCH   1  15
BRANCH   1  21
ATOM     21  N21 <0> d   1      15.824  -5.954   5.204  0.00  0.00    -0.327 N 
ATOM     22  C25 <0> d   1      14.827  -5.760   4.314  0.00  0.00     0.210 A 
ATOM     23  N24 <0> d   1      15.124  -4.732   3.569  0.00  0.00    -0.255 NA
ATOM     24  C23 <0> d   1      16.315  -4.243   3.945  0.00  0.00     0.135 A 
ATOM     25  C22 <0> d   1      16.769  -4.992   4.967  0.00  0.00     0.113 A 
ENDBRANCH   1  21
TORSDOF 4
ENDMDL
