MODEL 1
REMARK VINA RESULT:      -7.9      0.000      0.000
REMARK  7 active torsions:
REMARK  status: ('A' for Active; 'I' for Inactive)
REMARK    1  A    between atoms: C5_5  and  C6_6 
REMARK    2  A    between atoms: C6_6  and  C7_7 
REMARK    3  A    between atoms: C7_7  and  C8_8 
REMARK    4  A    between atoms: C8_8  and  C10_9 
REMARK    5  A    between atoms: C8_8  and  S17_16 
REMARK    6  A    between atoms: C10_9  and  N11_10 
REMARK    7  A    between atoms: S17_16  and  C18_17 
ROOT
ATOM      1  C8  ZIN A   1      18.557   0.052  11.243  0.00  0.00     0.071 C 
ENDROOT
BRANCH   1   2
ATOM      2  C7  ZIN A   1      17.642  -0.438  12.368  0.00  0.00     0.022 C 
BRANCH   2   3
ATOM      3  C6  ZIN A   1      18.384  -1.477  13.210  0.00  0.00     0.040 C 
BRANCH   3   4
ATOM      4  C5  ZIN A   1      18.360  -1.059  14.659  0.00  0.00    -0.058 A 
ATOM      5  C4  ZIN A   1      19.267  -1.603  15.549  0.00  0.00     0.009 A 
ATOM      6  C3  ZIN A   1      19.245  -1.219  16.877  0.00  0.00     0.024 A 
ATOM      7  C2  ZIN A   1      18.316  -0.292  17.315  0.00  0.00     0.034 A 
ATOM      8 Cl1  ZIN A   1      18.289   0.190  18.982  0.00  0.00    -0.084 Cl
ATOM      9  C27 ZIN A   1      17.405   0.247  16.423  0.00  0.00     0.024 A 
ATOM     10  C26 ZIN A   1      17.431  -0.133  15.095  0.00  0.00     0.009 A 
ENDBRANCH   3   4
ENDBRANCH   2   3
ENDBRANCH   1   2
BRANCH   1  11
ATOM     11  C10 ZIN A   1      19.448  -1.100  10.773  0.00  0.00     0.144 C 
BRANCH  11  12
ATOM     12  N11 ZIN A   1      18.936  -1.629   9.508  0.00  0.00    -0.351 N 
ATOM     13  C16 ZIN A   1      18.022  -2.614   9.362  0.00  0.00     0.182 A 
ATOM     14  N14 ZIN A   1      17.816  -2.807   8.088  0.00  0.00    -0.361 N 
ATOM     15  C13 ZIN A   1      18.588  -1.968   7.382  0.00  0.00     0.106 A 
ATOM     16  H15 ZIN A   1      17.203  -3.459   7.711  0.00  0.00     0.166 HD
ATOM     17  C12 ZIN A   1      19.296  -1.222   8.251  0.00  0.00     0.108 A 
ENDBRANCH  11  12
ENDBRANCH   1  11
BRANCH   1  18
ATOM     18  S17 ZIN A   1      19.594   1.409  11.854  0.00  0.00    -0.120 SA
BRANCH  18  19
ATOM     19  C18 ZIN A   1      18.627   2.839  11.497  0.00  0.00     0.044 A 
ATOM     20  C24 ZIN A   1      18.027   3.550  12.529  0.00  0.00     0.052 A 
ATOM     21  C23 ZIN A   1      17.275   4.674  12.244  0.00  0.00     0.025 A 
ATOM     22 Cl25 ZIN A   1      18.235   3.036  14.174  0.00  0.00    -0.083 Cl
ATOM     23  C22 ZIN A   1      17.109   5.084  10.933  0.00  0.00     0.003 A 
ATOM     24  C21 ZIN A   1      17.700   4.375   9.903  0.00  0.00     0.025 A 
ATOM     25  C19 ZIN A   1      18.459   3.254  10.181  0.00  0.00     0.052 A 
ATOM     26 Cl20 ZIN A   1      19.200   2.365   8.887  0.00  0.00    -0.083 Cl
ENDBRANCH  18  19
ENDBRANCH   1  18
TORSDOF 7
ENDMDL
MODEL 2
REMARK VINA RESULT:      -7.9      0.072      1.809
REMARK  7 active torsions:
REMARK  status: ('A' for Active; 'I' for Inactive)
REMARK    1  A    between atoms: C5_5  and  C6_6 
REMARK    2  A    between atoms: C6_6  and  C7_7 
REMARK    3  A    between atoms: C7_7  and  C8_8 
REMARK    4  A    between atoms: C8_8  and  C10_9 
REMARK    5  A    between atoms: C8_8  and  S17_16 
REMARK    6  A    between atoms: C10_9  and  N11_10 
REMARK    7  A    between atoms: S17_16  and  C18_17 
ROOT
ATOM      1  C8  ZIN A   1      18.594   0.015  11.227  0.00  0.00     0.071 C 
ENDROOT
BRANCH   1   2
ATOM      2  C7  ZIN A   1      17.674  -0.441  12.362  0.00  0.00     0.022 C 
BRANCH   2   3
ATOM      3  C6  ZIN A   1      18.394  -1.491  13.209  0.00  0.00     0.040 C 
BRANCH   3   4
ATOM      4  C5  ZIN A   1      18.365  -1.074  14.658  0.00  0.00    -0.058 A 
ATOM      5  C4  ZIN A   1      19.252  -1.635  15.557  0.00  0.00     0.009 A 
ATOM      6  C3  ZIN A   1      19.225  -1.252  16.885  0.00  0.00     0.024 A 
ATOM      7  C2  ZIN A   1      18.310  -0.307  17.314  0.00  0.00     0.034 A 
ATOM      8 Cl1  ZIN A   1      18.277   0.174  18.981  0.00  0.00    -0.084 Cl
ATOM      9  C27 ZIN A   1      17.419   0.251  16.414  0.00  0.00     0.024 A 
ATOM     10  C26 ZIN A   1      17.450  -0.129  15.086  0.00  0.00     0.009 A 
ENDBRANCH   3   4
ENDBRANCH   2   3
ENDBRANCH   1   2
BRANCH   1  11
ATOM     11  C10 ZIN A   1      19.458  -1.161  10.768  0.00  0.00     0.144 C 
BRANCH  11  12
ATOM     12  N11 ZIN A   1      18.934  -1.688   9.506  0.00  0.00    -0.351 N 
ATOM     13  C16 ZIN A   1      18.051  -2.700   9.364  0.00  0.00     0.182 A 
ATOM     14  N14 ZIN A   1      17.822  -2.881   8.092  0.00  0.00    -0.361 N 
ATOM     15  C13 ZIN A   1      18.549  -2.006   7.383  0.00  0.00     0.106 A 
ATOM     16  H15 ZIN A   1      17.222  -3.546   7.719  0.00  0.00     0.166 HD
ATOM     17  C12 ZIN A   1      19.252  -1.250   8.248  0.00  0.00     0.108 A 
ENDBRANCH  11  12
ENDBRANCH   1  11
BRANCH   1  18
ATOM     18  S17 ZIN A   1      19.663   1.357  11.818  0.00  0.00    -0.120 SA
BRANCH  18  19
ATOM     19  C18 ZIN A   1      18.701   2.799  11.500  0.00  0.00     0.044 A 
ATOM     20  C24 ZIN A   1      18.509   3.235  10.195  0.00  0.00     0.052 A 
ATOM     21  C23 ZIN A   1      17.748   4.363   9.950  0.00  0.00     0.025 A 
ATOM     22 Cl25 ZIN A   1      19.210   2.355   8.873  0.00  0.00    -0.083 Cl
ATOM     23  C22 ZIN A   1      17.189   5.064  11.003  0.00  0.00     0.003 A 
ATOM     24  C21 ZIN A   1      17.383   4.636  12.304  0.00  0.00     0.025 A 
ATOM     25  C19 ZIN A   1      18.137   3.506  12.556  0.00  0.00     0.052 A 
ATOM     26 Cl20 ZIN A   1      18.380   2.970  14.189  0.00  0.00    -0.083 Cl
ENDBRANCH  18  19
ENDBRANCH   1  18
TORSDOF 7
ENDMDL
MODEL 3
REMARK VINA RESULT:      -7.9      1.921      2.866
REMARK  7 active torsions:
REMARK  status: ('A' for Active; 'I' for Inactive)
REMARK    1  A    between atoms: C5_5  and  C6_6 
REMARK    2  A    between atoms: C6_6  and  C7_7 
REMARK    3  A    between atoms: C7_7  and  C8_8 
REMARK    4  A    between atoms: C8_8  and  C10_9 
REMARK    5  A    between atoms: C8_8  and  S17_16 
REMARK    6  A    between atoms: C10_9  and  N11_10 
REMARK    7  A    between atoms: S17_16  and  C18_17 
ROOT
ATOM      1  C8  ZIN A   1      18.032  -1.911  11.065  0.00  0.00     0.071 C 
ENDROOT
BRANCH   1   2
ATOM      2  C7  ZIN A   1      17.739  -1.285  12.431  0.00  0.00     0.022 C 
BRANCH   2   3
ATOM      3  C6  ZIN A   1      18.703  -1.858  13.471  0.00  0.00     0.040 C 
BRANCH   3   4
ATOM      4  C5  ZIN A   1      18.513  -1.137  14.782  0.00  0.00    -0.058 A 
ATOM      5  C4  ZIN A   1      19.101  -1.629  15.932  0.00  0.00     0.009 A 
ATOM      6  C3  ZIN A   1      18.927  -0.969  17.133  0.00  0.00     0.024 A 
ATOM      7  C2  ZIN A   1      18.165   0.186  17.185  0.00  0.00     0.034 A 
ATOM      8 Cl1  ZIN A   1      17.948   1.015  18.693  0.00  0.00    -0.084 Cl
ATOM      9  C27 ZIN A   1      17.573   0.674  16.033  0.00  0.00     0.024 A 
ATOM     10  C26 ZIN A   1      17.752   0.016  14.831  0.00  0.00     0.009 A 
ENDBRANCH   3   4
ENDBRANCH   2   3
ENDBRANCH   1   2
BRANCH   1  11
ATOM     11  C10 ZIN A   1      18.250  -3.417  11.231  0.00  0.00     0.144 C 
BRANCH  11  12
ATOM     12  N11 ZIN A   1      17.461  -4.137  10.230  0.00  0.00    -0.351 N 
ATOM     13  C16 ZIN A   1      17.537  -3.988   8.890  0.00  0.00     0.182 A 
ATOM     14  N14 ZIN A   1      16.684  -4.800   8.329  0.00  0.00    -0.361 N 
ATOM     15  C13 ZIN A   1      16.033  -5.484   9.282  0.00  0.00     0.106 A 
ATOM     16  H15 ZIN A   1      16.541  -4.893   7.374  0.00  0.00     0.166 HD
ATOM     17  C12 ZIN A   1      16.504  -5.084  10.478  0.00  0.00     0.108 A 
ENDBRANCH  11  12
ENDBRANCH   1  11
BRANCH   1  18
ATOM     18  S17 ZIN A   1      19.526  -1.157  10.362  0.00  0.00    -0.120 SA
BRANCH  18  19
ATOM     19  C18 ZIN A   1      19.207   0.569  10.514  0.00  0.00     0.044 A 
ATOM     20  C24 ZIN A   1      18.305   1.189   9.657  0.00  0.00     0.052 A 
ATOM     21  C23 ZIN A   1      18.053   2.543   9.784  0.00  0.00     0.025 A 
ATOM     22 Cl25 ZIN A   1      17.484   0.262   8.441  0.00  0.00    -0.083 Cl
ATOM     23  C22 ZIN A   1      18.707   3.281  10.754  0.00  0.00     0.003 A 
ATOM     24  C21 ZIN A   1      19.609   2.669  11.604  0.00  0.00     0.025 A 
ATOM     25  C19 ZIN A   1      19.861   1.315  11.488  0.00  0.00     0.052 A 
ATOM     26 Cl20 ZIN A   1      20.995   0.548  12.555  0.00  0.00    -0.083 Cl
ENDBRANCH  18  19
ENDBRANCH   1  18
TORSDOF 7
ENDMDL
MODEL 4
REMARK VINA RESULT:      -7.9      1.920      2.471
REMARK  7 active torsions:
REMARK  status: ('A' for Active; 'I' for Inactive)
REMARK    1  A    between atoms: C5_5  and  C6_6 
REMARK    2  A    between atoms: C6_6  and  C7_7 
REMARK    3  A    between atoms: C7_7  and  C8_8 
REMARK    4  A    between atoms: C8_8  and  C10_9 
REMARK    5  A    between atoms: C8_8  and  S17_16 
REMARK    6  A    between atoms: C10_9  and  N11_10 
REMARK    7  A    between atoms: S17_16  and  C18_17 
ROOT
ATOM      1  C8  ZIN A   1      18.033  -1.897  11.029  0.00  0.00     0.071 C 
ENDROOT
BRANCH   1   2
ATOM      2  C7  ZIN A   1      17.707  -1.283  12.392  0.00  0.00     0.022 C 
BRANCH   2   3
ATOM      3  C6  ZIN A   1      18.639  -1.872  13.452  0.00  0.00     0.040 C 
BRANCH   3   4
ATOM      4  C5  ZIN A   1      18.505  -1.087  14.732  0.00  0.00    -0.058 A 
ATOM      5  C4  ZIN A   1      19.031  -1.587  15.908  0.00  0.00     0.009 A 
ATOM      6  C3  ZIN A   1      18.908  -0.867  17.081  0.00  0.00     0.024 A 
ATOM      7  C2  ZIN A   1      18.257   0.354  17.079  0.00  0.00     0.034 A 
ATOM      8 Cl1  ZIN A   1      18.103   1.258  18.552  0.00  0.00    -0.084 Cl
ATOM      9  C27 ZIN A   1      17.725   0.851  15.902  0.00  0.00     0.024 A 
ATOM     10  C26 ZIN A   1      17.853   0.133  14.728  0.00  0.00     0.009 A 
ENDBRANCH   3   4
ENDBRANCH   2   3
ENDBRANCH   1   2
BRANCH   1  11
ATOM     11  C10 ZIN A   1      18.263  -3.401  11.190  0.00  0.00     0.144 C 
BRANCH  11  12
ATOM     12  N11 ZIN A   1      17.464  -4.126  10.200  0.00  0.00    -0.351 N 
ATOM     13  C16 ZIN A   1      17.532  -3.988   8.858  0.00  0.00     0.182 A 
ATOM     14  N14 ZIN A   1      16.670  -4.801   8.310  0.00  0.00    -0.361 N 
ATOM     15  C13 ZIN A   1      16.022  -5.473   9.272  0.00  0.00     0.106 A 
ATOM     16  H15 ZIN A   1      16.520  -4.900   7.356  0.00  0.00     0.166 HD
ATOM     17  C12 ZIN A   1      16.503  -5.066  10.462  0.00  0.00     0.108 A 
ENDBRANCH  11  12
ENDBRANCH   1  11
BRANCH   1  18
ATOM     18  S17 ZIN A   1      19.531  -1.123  10.360  0.00  0.00    -0.120 SA
BRANCH  18  19
ATOM     19  C18 ZIN A   1      19.202   0.599  10.541  0.00  0.00     0.044 A 
ATOM     20  C24 ZIN A   1      19.844   1.330  11.533  0.00  0.00     0.052 A 
ATOM     21  C23 ZIN A   1      19.588   2.682  11.667  0.00  0.00     0.025 A 
ATOM     22 Cl25 ZIN A   1      20.977   0.550  12.592  0.00  0.00    -0.083 Cl
ATOM     23  C22 ZIN A   1      18.686   3.304  10.823  0.00  0.00     0.003 A 
ATOM     24  C21 ZIN A   1      18.042   2.578   9.838  0.00  0.00     0.025 A 
ATOM     25  C19 ZIN A   1      18.297   1.227   9.694  0.00  0.00     0.052 A 
ATOM     26 Cl20 ZIN A   1      17.487   0.317   8.457  0.00  0.00    -0.083 Cl
ENDBRANCH  18  19
ENDBRANCH   1  18
TORSDOF 7
ENDMDL
MODEL 5
REMARK VINA RESULT:      -7.8      2.583      5.358
REMARK  7 active torsions:
REMARK  status: ('A' for Active; 'I' for Inactive)
REMARK    1  A    between atoms: C5_5  and  C6_6 
REMARK    2  A    between atoms: C6_6  and  C7_7 
REMARK    3  A    between atoms: C7_7  and  C8_8 
REMARK    4  A    between atoms: C8_8  and  C10_9 
REMARK    5  A    between atoms: C8_8  and  S17_16 
REMARK    6  A    between atoms: C10_9  and  N11_10 
REMARK    7  A    between atoms: S17_16  and  C18_17 
ROOT
ATOM      1  C8  ZIN A   1      19.033  -0.799   8.976  0.00  0.00     0.071 C 
ENDROOT
BRANCH   1   2
ATOM      2  C7  ZIN A   1      19.612   0.241   9.937  0.00  0.00     0.022 C 
BRANCH   2   3
ATOM      3  C6  ZIN A   1      19.419   1.640   9.350  0.00  0.00     0.040 C 
BRANCH   3   4
ATOM      4  C5  ZIN A   1      18.952   2.579  10.433  0.00  0.00    -0.058 A 
ATOM      5  C4  ZIN A   1      17.869   3.408  10.209  0.00  0.00     0.009 A 
ATOM      6  C3  ZIN A   1      17.441   4.269  11.202  0.00  0.00     0.024 A 
ATOM      7  C2  ZIN A   1      18.097   4.301  12.420  0.00  0.00     0.034 A 
ATOM      8 Cl1  ZIN A   1      17.560   5.382  13.667  0.00  0.00    -0.084 Cl
ATOM      9  C27 ZIN A   1      19.185   3.475  12.641  0.00  0.00     0.024 A 
ATOM     10  C26 ZIN A   1      19.609   2.611  11.649  0.00  0.00     0.009 A 
ENDBRANCH   3   4
ENDBRANCH   2   3
ENDBRANCH   1   2
BRANCH   1  11
ATOM     11  C10 ZIN A   1      18.110  -0.107   7.971  0.00  0.00     0.144 C 
BRANCH  11  12
ATOM     12  N11 ZIN A   1      18.638  -0.290   6.617  0.00  0.00    -0.351 N 
ATOM     13  C16 ZIN A   1      19.068   0.684   5.786  0.00  0.00     0.182 A 
ATOM     14  N14 ZIN A   1      19.467   0.136   4.671  0.00  0.00    -0.361 N 
ATOM     15  C13 ZIN A   1      19.299  -1.192   4.746  0.00  0.00     0.106 A 
ATOM     16  H15 ZIN A   1      19.826   0.616   3.907  0.00  0.00     0.166 HD
ATOM     17  C12 ZIN A   1      18.782  -1.479   5.955  0.00  0.00     0.108 A 
ENDBRANCH  11  12
ENDBRANCH   1  11
BRANCH   1  18
ATOM     18  S17 ZIN A   1      18.089  -2.031   9.916  0.00  0.00    -0.120 SA
BRANCH  18  19
ATOM     19  C18 ZIN A   1      18.333  -1.527  11.587  0.00  0.00     0.044 A 
ATOM     20  C24 ZIN A   1      19.314  -2.134  12.361  0.00  0.00     0.052 A 
ATOM     21  C23 ZIN A   1      19.507  -1.732  13.670  0.00  0.00     0.025 A 
ATOM     22 Cl25 ZIN A   1      20.307  -3.386  11.681  0.00  0.00    -0.083 Cl
ATOM     23  C22 ZIN A   1      18.716  -0.734  14.211  0.00  0.00     0.003 A 
ATOM     24  C21 ZIN A   1      17.735  -0.131  13.445  0.00  0.00     0.025 A 
ATOM     25  C19 ZIN A   1      17.541  -0.524  12.134  0.00  0.00     0.052 A 
ATOM     26 Cl20 ZIN A   1      16.309   0.232  11.174  0.00  0.00    -0.083 Cl
ENDBRANCH  18  19
ENDBRANCH   1  18
TORSDOF 7
ENDMDL
MODEL 6
REMARK VINA RESULT:      -7.8      2.594      5.336
REMARK  7 active torsions:
REMARK  status: ('A' for Active; 'I' for Inactive)
REMARK    1  A    between atoms: C5_5  and  C6_6 
REMARK    2  A    between atoms: C6_6  and  C7_7 
REMARK    3  A    between atoms: C7_7  and  C8_8 
REMARK    4  A    between atoms: C8_8  and  C10_9 
REMARK    5  A    between atoms: C8_8  and  S17_16 
REMARK    6  A    between atoms: C10_9  and  N11_10 
REMARK    7  A    between atoms: S17_16  and  C18_17 
ROOT
ATOM      1  C8  ZIN A   1      19.017  -0.762   8.970  0.00  0.00     0.071 C 
ENDROOT
BRANCH   1   2
ATOM      2  C7  ZIN A   1      19.582   0.288   9.929  0.00  0.00     0.022 C 
BRANCH   2   3
ATOM      3  C6  ZIN A   1      19.382   1.682   9.332  0.00  0.00     0.040 C 
BRANCH   3   4
ATOM      4  C5  ZIN A   1      18.935   2.632  10.414  0.00  0.00    -0.058 A 
ATOM      5  C4  ZIN A   1      17.870   3.484  10.188  0.00  0.00     0.009 A 
ATOM      6  C3  ZIN A   1      17.460   4.355  11.180  0.00  0.00     0.024 A 
ATOM      7  C2  ZIN A   1      18.116   4.374  12.399  0.00  0.00     0.034 A 
ATOM      8 Cl1  ZIN A   1      17.600   5.467  13.644  0.00  0.00    -0.084 Cl
ATOM      9  C27 ZIN A   1      19.185   3.525  12.621  0.00  0.00     0.024 A 
ATOM     10  C26 ZIN A   1      19.591   2.651  11.631  0.00  0.00     0.009 A 
ENDBRANCH   3   4
ENDBRANCH   2   3
ENDBRANCH   1   2
BRANCH   1  11
ATOM     11  C10 ZIN A   1      18.097  -0.081   7.953  0.00  0.00     0.144 C 
BRANCH  11  12
ATOM     12  N11 ZIN A   1      18.636  -0.271   6.605  0.00  0.00    -0.351 N 
ATOM     13  C16 ZIN A   1      19.138   0.690   5.799  0.00  0.00     0.182 A 
ATOM     14  N14 ZIN A   1      19.522   0.140   4.680  0.00  0.00    -0.361 N 
ATOM     15  C13 ZIN A   1      19.275  -1.178   4.727  0.00  0.00     0.106 A 
ATOM     16  H15 ZIN A   1      19.921   0.610   3.931  0.00  0.00     0.166 HD
ATOM     17  C12 ZIN A   1      18.721  -1.455   5.923  0.00  0.00     0.108 A 
ENDBRANCH  11  12
ENDBRANCH   1  11
BRANCH   1  18
ATOM     18  S17 ZIN A   1      18.072  -1.993   9.911  0.00  0.00    -0.120 SA
BRANCH  18  19
ATOM     19  C18 ZIN A   1      18.330  -1.498  11.582  0.00  0.00     0.044 A 
ATOM     20  C24 ZIN A   1      17.548  -0.493  12.140  0.00  0.00     0.052 A 
ATOM     21  C23 ZIN A   1      17.750  -0.112  13.453  0.00  0.00     0.025 A 
ATOM     22 Cl25 ZIN A   1      16.310   0.271  11.193  0.00  0.00    -0.083 Cl
ATOM     23  C22 ZIN A   1      18.736  -0.721  14.208  0.00  0.00     0.003 A 
ATOM     24  C21 ZIN A   1      19.519  -1.718  13.655  0.00  0.00     0.025 A 
ATOM     25  C19 ZIN A   1      19.319  -2.108  12.344  0.00  0.00     0.052 A 
ATOM     26 Cl20 ZIN A   1      20.304  -3.358  11.651  0.00  0.00    -0.083 Cl
ENDBRANCH  18  19
ENDBRANCH   1  18
TORSDOF 7
ENDMDL
MODEL 7
REMARK VINA RESULT:      -7.8      3.512      6.141
REMARK  7 active torsions:
REMARK  status: ('A' for Active; 'I' for Inactive)
REMARK    1  A    between atoms: C5_5  and  C6_6 
REMARK    2  A    between atoms: C6_6  and  C7_7 
REMARK    3  A    between atoms: C7_7  and  C8_8 
REMARK    4  A    between atoms: C8_8  and  C10_9 
REMARK    5  A    between atoms: C8_8  and  S17_16 
REMARK    6  A    between atoms: C10_9  and  N11_10 
REMARK    7  A    between atoms: S17_16  and  C18_17 
ROOT
ATOM      1  C8  ZIN A   1      18.852  -0.668  12.130  0.00  0.00     0.071 C 
ENDROOT
BRANCH   1   2
ATOM      2  C7  ZIN A   1      19.751  -1.737  11.506  0.00  0.00     0.022 C 
BRANCH   2   3
ATOM      3  C6  ZIN A   1      19.587  -3.051  12.272  0.00  0.00     0.040 C 
BRANCH   3   4
ATOM      4  C5  ZIN A   1      18.900  -4.063  11.390  0.00  0.00    -0.058 A 
ATOM      5  C4  ZIN A   1      17.572  -4.380  11.608  0.00  0.00     0.009 A 
ATOM      6  C3  ZIN A   1      16.943  -5.308  10.800  0.00  0.00     0.024 A 
ATOM      7  C2  ZIN A   1      17.641  -5.920   9.773  0.00  0.00     0.034 A 
ATOM      8 Cl1  ZIN A   1      16.850  -7.084   8.759  0.00  0.00    -0.084 Cl
ATOM      9  C27 ZIN A   1      18.972  -5.605   9.560  0.00  0.00     0.024 A 
ATOM     10  C26 ZIN A   1      19.599  -4.674  10.366  0.00  0.00     0.009 A 
ENDBRANCH   3   4
ENDBRANCH   2   3
ENDBRANCH   1   2
BRANCH   1  11
ATOM     11  C10 ZIN A   1      18.414  -1.121  13.525  0.00  0.00     0.144 C 
BRANCH  11  12
ATOM     12  N11 ZIN A   1      18.424   0.025  14.435  0.00  0.00    -0.351 N 
ATOM     13  C16 ZIN A   1      17.548   0.263  15.436  0.00  0.00     0.182 A 
ATOM     14  N14 ZIN A   1      17.880   1.378  16.027  0.00  0.00    -0.361 N 
ATOM     15  C13 ZIN A   1      18.963   1.891  15.427  0.00  0.00     0.106 A 
ATOM     16  H15 ZIN A   1      17.414   1.773  16.781  0.00  0.00     0.166 HD
ATOM     17  C12 ZIN A   1      19.319   1.061  14.429  0.00  0.00     0.108 A 
ENDBRANCH  11  12
ENDBRANCH   1  11
BRANCH   1  18
ATOM     18  S17 ZIN A   1      17.388  -0.426  11.086  0.00  0.00    -0.120 SA
BRANCH  18  19
ATOM     19  C18 ZIN A   1      18.057   0.303   9.628  0.00  0.00     0.044 A 
ATOM     20  C24 ZIN A   1      18.392   1.652   9.614  0.00  0.00     0.052 A 
ATOM     21  C23 ZIN A   1      18.923   2.219   8.470  0.00  0.00     0.025 A 
ATOM     22 Cl25 ZIN A   1      18.159   2.620  11.036  0.00  0.00    -0.083 Cl
ATOM     23  C22 ZIN A   1      19.110   1.448   7.337  0.00  0.00     0.003 A 
ATOM     24  C21 ZIN A   1      18.772   0.106   7.346  0.00  0.00     0.025 A 
ATOM     25  C19 ZIN A   1      18.247  -0.468   8.487  0.00  0.00     0.052 A 
ATOM     26 Cl20 ZIN A   1      17.823  -2.152   8.496  0.00  0.00    -0.083 Cl
ENDBRANCH  18  19
ENDBRANCH   1  18
TORSDOF 7
ENDMDL
MODEL 8
REMARK VINA RESULT:      -7.7      3.518      6.250
REMARK  7 active torsions:
REMARK  status: ('A' for Active; 'I' for Inactive)
REMARK    1  A    between atoms: C5_5  and  C6_6 
REMARK    2  A    between atoms: C6_6  and  C7_7 
REMARK    3  A    between atoms: C7_7  and  C8_8 
REMARK    4  A    between atoms: C8_8  and  C10_9 
REMARK    5  A    between atoms: C8_8  and  S17_16 
REMARK    6  A    between atoms: C10_9  and  N11_10 
REMARK    7  A    between atoms: S17_16  and  C18_17 
ROOT
ATOM      1  C8  ZIN A   1      18.921  -0.720  12.171  0.00  0.00     0.071 C 
ENDROOT
BRANCH   1   2
ATOM      2  C7  ZIN A   1      19.766  -1.802  11.496  0.00  0.00     0.022 C 
BRANCH   2   3
ATOM      3  C6  ZIN A   1      19.602  -3.121  12.251  0.00  0.00     0.040 C 
BRANCH   3   4
ATOM      4  C5  ZIN A   1      18.912  -4.126  11.362  0.00  0.00    -0.058 A 
ATOM      5  C4  ZIN A   1      19.607  -4.728  10.330  0.00  0.00     0.009 A 
ATOM      6  C3  ZIN A   1      18.974  -5.648   9.517  0.00  0.00     0.024 A 
ATOM      7  C2  ZIN A   1      17.646  -5.968   9.735  0.00  0.00     0.034 A 
ATOM      8 Cl1  ZIN A   1      16.852  -7.124   8.713  0.00  0.00    -0.084 Cl
ATOM      9  C27 ZIN A   1      16.950  -5.360  10.765  0.00  0.00     0.024 A 
ATOM     10  C26 ZIN A   1      17.585  -4.443  11.581  0.00  0.00     0.009 A 
ENDBRANCH   3   4
ENDBRANCH   2   3
ENDBRANCH   1   2
BRANCH   1  11
ATOM     11  C10 ZIN A   1      18.514  -1.190  13.570  0.00  0.00     0.144 C 
BRANCH  11  12
ATOM     12  N11 ZIN A   1      18.474  -0.043  14.478  0.00  0.00    -0.351 N 
ATOM     13  C16 ZIN A   1      17.575   0.168  15.464  0.00  0.00     0.182 A 
ATOM     14  N14 ZIN A   1      17.862   1.294  16.059  0.00  0.00    -0.361 N 
ATOM     15  C13 ZIN A   1      18.939   1.840  15.475  0.00  0.00     0.106 A 
ATOM     16  H15 ZIN A   1      17.372   1.676  16.804  0.00  0.00     0.166 HD
ATOM     17  C12 ZIN A   1      19.337   1.020  14.484  0.00  0.00     0.108 A 
ENDBRANCH  11  12
ENDBRANCH   1  11
BRANCH   1  18
ATOM     18  S17 ZIN A   1      17.433  -0.409  11.181  0.00  0.00    -0.120 SA
BRANCH  18  19
ATOM     19  C18 ZIN A   1      18.079   0.330   9.717  0.00  0.00     0.044 A 
ATOM     20  C24 ZIN A   1      18.235  -0.430   8.564  0.00  0.00     0.052 A 
ATOM     21  C23 ZIN A   1      18.736   0.155   7.416  0.00  0.00     0.025 A 
ATOM     22 Cl25 ZIN A   1      17.787  -2.107   8.562  0.00  0.00    -0.083 Cl
ATOM     23  C22 ZIN A   1      19.092   1.491   7.418  0.00  0.00     0.003 A 
ATOM     24  C21 ZIN A   1      18.943   2.249   8.565  0.00  0.00     0.025 A 
ATOM     25  C19 ZIN A   1      18.437   1.673   9.714  0.00  0.00     0.052 A 
ATOM     26 Cl20 ZIN A   1      18.251   2.625  11.154  0.00  0.00    -0.083 Cl
ENDBRANCH  18  19
ENDBRANCH   1  18
TORSDOF 7
ENDMDL
MODEL 9
REMARK VINA RESULT:      -7.7      3.219      7.678
REMARK  7 active torsions:
REMARK  status: ('A' for Active; 'I' for Inactive)
REMARK    1  A    between atoms: C5_5  and  C6_6 
REMARK    2  A    between atoms: C6_6  and  C7_7 
REMARK    3  A    between atoms: C7_7  and  C8_8 
REMARK    4  A    between atoms: C8_8  and  C10_9 
REMARK    5  A    between atoms: C8_8  and  S17_16 
REMARK    6  A    between atoms: C10_9  and  N11_10 
REMARK    7  A    between atoms: S17_16  and  C18_17 
ROOT
ATOM      1  C8  ZIN A   1      18.197   2.176  12.874  0.00  0.00     0.071 C 
ENDROOT
BRANCH   1   2
ATOM      2  C7  ZIN A   1      17.812   1.595  11.512  0.00  0.00     0.022 C 
BRANCH   2   3
ATOM      3  C6  ZIN A   1      18.803   2.079  10.453  0.00  0.00     0.040 C 
BRANCH   3   4
ATOM      4  C5  ZIN A   1      18.524   1.378   9.147  0.00  0.00    -0.058 A 
ATOM      5  C4  ZIN A   1      17.623   0.331   9.103  0.00  0.00     0.009 A 
ATOM      6  C3  ZIN A   1      17.368  -0.311   7.906  0.00  0.00     0.024 A 
ATOM      7  C2  ZIN A   1      18.015   0.094   6.752  0.00  0.00     0.034 A 
ATOM      8 Cl1  ZIN A   1      17.694  -0.712   5.249  0.00  0.00    -0.084 Cl
ATOM      9  C27 ZIN A   1      18.921   1.138   6.798  0.00  0.00     0.024 A 
ATOM     10  C26 ZIN A   1      19.172   1.783   7.995  0.00  0.00     0.009 A 
ENDBRANCH   3   4
ENDBRANCH   2   3
ENDBRANCH   1   2
BRANCH   1  11
ATOM     11  C10 ZIN A   1      18.548   3.658  12.715  0.00  0.00     0.144 C 
BRANCH  11  12
ATOM     12  N11 ZIN A   1      17.528   4.475  13.374  0.00  0.00    -0.351 N 
ATOM     13  C16 ZIN A   1      17.286   4.540  14.701  0.00  0.00     0.182 A 
ATOM     14  N14 ZIN A   1      16.305   5.375  14.908  0.00  0.00    -0.361 N 
ATOM     15  C13 ZIN A   1      15.884   5.862  13.732  0.00  0.00     0.106 A 
ATOM     16  H15 ZIN A   1      15.937   5.605  15.776  0.00  0.00     0.166 HD
ATOM     17  C12 ZIN A   1      16.635   5.312  12.759  0.00  0.00     0.108 A 
ENDBRANCH  11  12
ENDBRANCH   1  11
BRANCH   1  18
ATOM     18  S17 ZIN A   1      19.633   1.282  13.529  0.00  0.00    -0.120 SA
BRANCH  18  19
ATOM     19  C18 ZIN A   1      18.976   0.456  14.940  0.00  0.00     0.044 A 
ATOM     20  C24 ZIN A   1      18.468  -0.832  14.820  0.00  0.00     0.052 A 
ATOM     21  C23 ZIN A   1      17.959  -1.478  15.931  0.00  0.00     0.025 A 
ATOM     22 Cl25 ZIN A   1      18.487  -1.633  13.281  0.00  0.00    -0.083 Cl
ATOM     23  C22 ZIN A   1      17.944  -0.840  17.158  0.00  0.00     0.003 A 
ATOM     24  C21 ZIN A   1      18.444   0.444  17.280  0.00  0.00     0.025 A 
ATOM     25  C19 ZIN A   1      18.960   1.094  16.175  0.00  0.00     0.052 A 
ATOM     26 Cl20 ZIN A   1      19.586   2.706  16.329  0.00  0.00    -0.083 Cl
ENDBRANCH  18  19
ENDBRANCH   1  18
TORSDOF 7
ENDMDL
