MODEL 1
REMARK VINA RESULT:      -7.3      0.000      0.000
REMARK  12 active torsions:
REMARK  status: ('A' for Active; 'I' for Inactive)
REMARK    1  A    between atoms: C2_2  and  C3_3 
REMARK    2  A    between atoms: C3_3  and  C4_4 
REMARK    3  A    between atoms: C4_4  and  C5_5 
REMARK    4  A    between atoms: C5_5  and  C6_6 
REMARK    5  A    between atoms: C6_6  and  O8_7 
REMARK    6  A    between atoms: C6_6  and  C9_8 
REMARK    7  A    between atoms: C10_9  and  C11_10 
REMARK    8  A    between atoms: C13_11  and  O15_12 
REMARK    9  A    between atoms: C21_17  and  C22_18 
REMARK   10  A    between atoms: C22_18  and  C23_19 
REMARK   11  A    between atoms: C23_19  and  C24_20 
REMARK   12  A    between atoms: C24_20  and  C25_21 
ROOT
ATOM      1  C11 ZIN A   1      17.372  -0.471  12.843  0.00  0.00     0.043 C 
ATOM      2  C13 ZIN A   1      18.102  -1.546  12.016  0.00  0.00     0.128 C 
ATOM      3  C16 ZIN A   1      19.112  -2.178  12.993  0.00  0.00     0.065 C 
ATOM      4  C17 ZIN A   1      19.474  -1.077  14.003  0.00  0.00     0.136 C 
ATOM      5  O19 ZIN A   1      19.407  -1.615  15.330  0.00  0.00    -0.350 OA
ATOM      6  C20 ZIN A   1      18.769  -0.743  16.155  0.00  0.00     0.043 C 
ATOM      7  C21 ZIN A   1      19.005  -0.559  17.437  0.00  0.00     0.005 C 
ATOM      8  C28 ZIN A   1      17.733  -0.020  15.313  0.00  0.00     0.072 C 
ATOM      9  C29 ZIN A   1      18.384   0.015  13.890  0.00  0.00     0.031 C 
ENDROOT
BRANCH   1  10
ATOM     10  C10 ZIN A   1      16.954   0.672  11.955  0.00  0.00    -0.021 C 
ATOM     11  C9  ZIN A   1      17.834   1.569  11.583  0.00  0.00     0.001 C 
BRANCH  11  12
ATOM     12  C6  ZIN A   1      17.415   2.712  10.695  0.00  0.00     0.140 C 
BRANCH  12  13
ATOM     13  C5  ZIN A   1      18.596   3.136   9.819  0.00  0.00     0.036 C 
BRANCH  13  14
ATOM     14  C4  ZIN A   1      19.335   1.892   9.321  0.00  0.00     0.003 C 
BRANCH  14  15
ATOM     15  C3  ZIN A   1      19.032   1.679   7.837  0.00  0.00    -0.000 C 
BRANCH  15  16
ATOM     16  C2  ZIN A   1      18.687   0.208   7.594  0.00  0.00    -0.005 C 
ATOM     17  C1  ZIN A   1      17.357  -0.123   8.273  0.00  0.00     0.005 C 
ENDBRANCH  15  16
ENDBRANCH  14  15
ENDBRANCH  13  14
ENDBRANCH  12  13
BRANCH  12  18
ATOM     18  O8  ZIN A   1      17.000   3.815  11.501  0.00  0.00    -0.392 OA
ATOM     19  H42 ZIN A   1      16.277   3.609  12.109  0.00  0.00     0.210 HD
ENDBRANCH  12  18
ENDBRANCH  11  12
ENDBRANCH   1  10
BRANCH   2  20
ATOM     20  O15 ZIN A   1      17.176  -2.529  11.551  0.00  0.00    -0.395 OA
ATOM     21  H45 ZIN A   1      16.292  -2.449  11.935  0.00  0.00     0.210 HD
ENDBRANCH   2  20
BRANCH   7  22
ATOM     22  C22 ZIN A   1      18.205   0.454  18.214  0.00  0.00     0.030 C 
BRANCH  22  23
ATOM     23  C23 ZIN A   1      19.078   1.676  18.509  0.00  0.00     0.014 C 
BRANCH  23  24
ATOM     24  C24 ZIN A   1      18.370   2.938  18.016  0.00  0.00     0.113 C 
BRANCH  24  25
ATOM     25  C25 ZIN A   1      19.054   3.444  16.771  0.00  0.00     0.172 C 
ATOM     26  O26 ZIN A   1      20.261   3.614  16.766  0.00  0.00    -0.648 OA
ATOM     27  O27 ZIN A   1      18.401   3.686  15.771  0.00  0.00    -0.648 OA
ENDBRANCH  24  25
ENDBRANCH  23  24
ENDBRANCH  22  23
ENDBRANCH   7  22
TORSDOF 12
ENDMDL
MODEL 2
REMARK VINA RESULT:      -7.2      3.550      7.308
REMARK  12 active torsions:
REMARK  status: ('A' for Active; 'I' for Inactive)
REMARK    1  A    between atoms: C2_2  and  C3_3 
REMARK    2  A    between atoms: C3_3  and  C4_4 
REMARK    3  A    between atoms: C4_4  and  C5_5 
REMARK    4  A    between atoms: C5_5  and  C6_6 
REMARK    5  A    between atoms: C6_6  and  O8_7 
REMARK    6  A    between atoms: C6_6  and  C9_8 
REMARK    7  A    between atoms: C10_9  and  C11_10 
REMARK    8  A    between atoms: C13_11  and  O15_12 
REMARK    9  A    between atoms: C21_17  and  C22_18 
REMARK   10  A    between atoms: C22_18  and  C23_19 
REMARK   11  A    between atoms: C23_19  and  C24_20 
REMARK   12  A    between atoms: C24_20  and  C25_21 
ROOT
ATOM      1  C11 ZIN A   1      19.229  -1.544   7.106  0.00  0.00     0.043 C 
ATOM      2  C13 ZIN A   1      18.896  -1.071   5.679  0.00  0.00     0.128 C 
ATOM      3  C16 ZIN A   1      18.668   0.446   5.808  0.00  0.00     0.065 C 
ATOM      4  C17 ZIN A   1      18.149   0.680   7.236  0.00  0.00     0.136 C 
ATOM      5  O19 ZIN A   1      18.867   1.770   7.827  0.00  0.00    -0.350 OA
ATOM      6  C20 ZIN A   1      19.222   1.458   9.102  0.00  0.00     0.043 C 
ATOM      7  C21 ZIN A   1      19.330   2.294  10.113  0.00  0.00     0.005 C 
ATOM      8  C28 ZIN A   1      19.469  -0.040   9.135  0.00  0.00     0.072 C 
ATOM      9  C29 ZIN A   1      18.483  -0.592   8.051  0.00  0.00     0.031 C 
ENDROOT
BRANCH   1  10
ATOM     10  C10 ZIN A   1      18.752  -2.958   7.310  0.00  0.00    -0.021 C 
ATOM     11  C9  ZIN A   1      19.532  -3.964   7.001  0.00  0.00     0.001 C 
BRANCH  11  12
ATOM     12  C6  ZIN A   1      19.054  -5.379   7.206  0.00  0.00     0.140 C 
BRANCH  12  13
ATOM     13  C5  ZIN A   1      19.456  -5.856   8.603  0.00  0.00     0.036 C 
BRANCH  13  14
ATOM     14  C4  ZIN A   1      18.215  -5.924   9.496  0.00  0.00     0.003 C 
BRANCH  14  15
ATOM     15  C3  ZIN A   1      18.401  -4.998  10.699  0.00  0.00    -0.000 C 
BRANCH  15  16
ATOM     16  C2  ZIN A   1      19.855  -4.526  10.759  0.00  0.00    -0.005 C 
ATOM     17  C1  ZIN A   1      19.912  -3.126  11.374  0.00  0.00     0.005 C 
ENDBRANCH  15  16
ENDBRANCH  14  15
ENDBRANCH  13  14
ENDBRANCH  12  13
BRANCH  12  18
ATOM     18  O8  ZIN A   1      19.647  -6.229   6.223  0.00  0.00    -0.392 OA
ATOM     19  H42 ZIN A   1      19.982  -5.760   5.447  0.00  0.00     0.210 HD
ENDBRANCH  12  18
ENDBRANCH  11  12
ENDBRANCH   1  10
BRANCH   2  20
ATOM     20  O15 ZIN A   1      19.989  -1.339   4.798  0.00  0.00    -0.395 OA
ATOM     21  H45 ZIN A   1      20.719  -1.818   5.213  0.00  0.00     0.210 HD
ENDBRANCH   2  20
BRANCH   7  22
ATOM     22  C22 ZIN A   1      19.736   1.785  11.472  0.00  0.00     0.030 C 
BRANCH  22  23
ATOM     23  C23 ZIN A   1      18.496   1.648  12.357  0.00  0.00     0.014 C 
BRANCH  23  24
ATOM     24  C24 ZIN A   1      18.263   0.173  12.685  0.00  0.00     0.113 C 
BRANCH  24  25
ATOM     25  C25 ZIN A   1      17.084  -0.338  11.898  0.00  0.00     0.172 C 
ATOM     26  O26 ZIN A   1      16.351   0.448  11.320  0.00  0.00    -0.648 OA
ATOM     27  O27 ZIN A   1      16.860  -1.535  11.839  0.00  0.00    -0.648 OA
ENDBRANCH  24  25
ENDBRANCH  23  24
ENDBRANCH  22  23
ENDBRANCH   7  22
TORSDOF 12
ENDMDL
MODEL 3
REMARK VINA RESULT:      -7.1      2.570      8.912
REMARK  12 active torsions:
REMARK  status: ('A' for Active; 'I' for Inactive)
REMARK    1  A    between atoms: C2_2  and  C3_3 
REMARK    2  A    between atoms: C3_3  and  C4_4 
REMARK    3  A    between atoms: C4_4  and  C5_5 
REMARK    4  A    between atoms: C5_5  and  C6_6 
REMARK    5  A    between atoms: C6_6  and  O8_7 
REMARK    6  A    between atoms: C6_6  and  C9_8 
REMARK    7  A    between atoms: C10_9  and  C11_10 
REMARK    8  A    between atoms: C13_11  and  O15_12 
REMARK    9  A    between atoms: C21_17  and  C22_18 
REMARK   10  A    between atoms: C22_18  and  C23_19 
REMARK   11  A    between atoms: C23_19  and  C24_20 
REMARK   12  A    between atoms: C24_20  and  C25_21 
ROOT
ATOM      1  C11 ZIN A   1      17.403   0.971  10.160  0.00  0.00     0.043 C 
ATOM      2  C13 ZIN A   1      18.005   2.298  10.658  0.00  0.00     0.128 C 
ATOM      3  C16 ZIN A   1      18.816   2.836   9.465  0.00  0.00     0.065 C 
ATOM      4  C17 ZIN A   1      19.278   1.603   8.671  0.00  0.00     0.136 C 
ATOM      5  O19 ZIN A   1      19.020   1.815   7.278  0.00  0.00    -0.350 OA
ATOM      6  C20 ZIN A   1      18.476   0.696   6.729  0.00  0.00     0.043 C 
ATOM      7  C21 ZIN A   1      18.640   0.267   5.495  0.00  0.00     0.005 C 
ATOM      8  C28 ZIN A   1      17.642   0.036   7.813  0.00  0.00     0.072 C 
ATOM      9  C29 ZIN A   1      18.398   0.416   9.131  0.00  0.00     0.031 C 
ENDROOT
BRANCH   1  10
ATOM     10  C10 ZIN A   1      17.251   0.006  11.308  0.00  0.00    -0.021 C 
ATOM     11  C9  ZIN A   1      18.236  -0.164  12.154  0.00  0.00     0.001 C 
BRANCH  11  12
ATOM     12  C6  ZIN A   1      18.083  -1.130  13.302  0.00  0.00     0.140 C 
BRANCH  12  13
ATOM     13  C5  ZIN A   1      19.004  -0.707  14.449  0.00  0.00     0.036 C 
BRANCH  13  14
ATOM     14  C4  ZIN A   1      18.620  -1.468  15.719  0.00  0.00     0.003 C 
BRANCH  14  15
ATOM     15  C3  ZIN A   1      17.444  -0.764  16.401  0.00  0.00    -0.000 C 
BRANCH  15  16
ATOM     16  C2  ZIN A   1      17.976   0.315  17.346  0.00  0.00    -0.005 C 
ATOM     17  C1  ZIN A   1      19.181  -0.230  18.116  0.00  0.00     0.005 C 
ENDBRANCH  15  16
ENDBRANCH  14  15
ENDBRANCH  13  14
ENDBRANCH  12  13
BRANCH  12  18
ATOM     18  O8  ZIN A   1      18.434  -2.444  12.870  0.00  0.00    -0.392 OA
ATOM     19  H42 ZIN A   1      18.107  -3.149  13.446  0.00  0.00     0.210 HD
ENDBRANCH  12  18
ENDBRANCH  11  12
ENDBRANCH   1  10
BRANCH   2  20
ATOM     20  O15 ZIN A   1      16.966   3.214  11.008  0.00  0.00    -0.395 OA
ATOM     21  H45 ZIN A   1      17.233   3.883  11.653  0.00  0.00     0.210 HD
ENDBRANCH   2  20
BRANCH   7  22
ATOM     22  C22 ZIN A   1      17.962  -1.000   5.041  0.00  0.00     0.030 C 
BRANCH  22  23
ATOM     23  C23 ZIN A   1      19.017  -2.000   4.565  0.00  0.00     0.014 C 
BRANCH  23  24
ATOM     24  C24 ZIN A   1      18.682  -3.390   5.108  0.00  0.00     0.113 C 
BRANCH  24  25
ATOM     25  C25 ZIN A   1      19.331  -3.574   6.456  0.00  0.00     0.172 C 
ATOM     26  O26 ZIN A   1      20.523  -3.819   6.529  0.00  0.00    -0.648 OA
ATOM     27  O27 ZIN A   1      18.664  -3.480   7.472  0.00  0.00    -0.648 OA
ENDBRANCH  24  25
ENDBRANCH  23  24
ENDBRANCH  22  23
ENDBRANCH   7  22
TORSDOF 12
ENDMDL
MODEL 4
REMARK VINA RESULT:      -7.1      3.966      8.846
REMARK  12 active torsions:
REMARK  status: ('A' for Active; 'I' for Inactive)
REMARK    1  A    between atoms: C2_2  and  C3_3 
REMARK    2  A    between atoms: C3_3  and  C4_4 
REMARK    3  A    between atoms: C4_4  and  C5_5 
REMARK    4  A    between atoms: C5_5  and  C6_6 
REMARK    5  A    between atoms: C6_6  and  O8_7 
REMARK    6  A    between atoms: C6_6  and  C9_8 
REMARK    7  A    between atoms: C10_9  and  C11_10 
REMARK    8  A    between atoms: C13_11  and  O15_12 
REMARK    9  A    between atoms: C21_17  and  C22_18 
REMARK   10  A    between atoms: C22_18  and  C23_19 
REMARK   11  A    between atoms: C23_19  and  C24_20 
REMARK   12  A    between atoms: C24_20  and  C25_21 
ROOT
ATOM      1  C11 ZIN A   1      17.835   0.222   9.773  0.00  0.00     0.043 C 
ATOM      2  C13 ZIN A   1      18.324   1.585  10.295  0.00  0.00     0.128 C 
ATOM      3  C16 ZIN A   1      18.853   2.319   9.049  0.00  0.00     0.065 C 
ATOM      4  C17 ZIN A   1      19.344   1.225   8.086  0.00  0.00     0.136 C 
ATOM      5  O19 ZIN A   1      18.839   1.493   6.772  0.00  0.00    -0.350 OA
ATOM      6  C20 ZIN A   1      18.370   0.348   6.210  0.00  0.00     0.043 C 
ATOM      7  C21 ZIN A   1      18.389   0.035   4.931  0.00  0.00     0.005 C 
ATOM      8  C28 ZIN A   1      17.818  -0.502   7.341  0.00  0.00     0.072 C 
ATOM      9  C29 ZIN A   1      18.717  -0.107   8.561  0.00  0.00     0.031 C 
ENDROOT
BRANCH   1  10
ATOM     10  C10 ZIN A   1      18.001  -0.832  10.837  0.00  0.00    -0.021 C 
ATOM     11  C9  ZIN A   1      19.200  -1.231  11.182  0.00  0.00     0.001 C 
BRANCH  11  12
ATOM     12  C6  ZIN A   1      19.365  -2.286  12.247  0.00  0.00     0.140 C 
BRANCH  12  13
ATOM     13  C5  ZIN A   1      20.134  -3.476  11.670  0.00  0.00     0.036 C 
BRANCH  13  14
ATOM     14  C4  ZIN A   1      19.150  -4.590  11.305  0.00  0.00     0.003 C 
BRANCH  14  15
ATOM     15  C3  ZIN A   1      18.975  -4.638   9.786  0.00  0.00    -0.000 C 
BRANCH  15  16
ATOM     16  C2  ZIN A   1      17.534  -4.268   9.428  0.00  0.00    -0.005 C 
ATOM     17  C1  ZIN A   1      16.569  -5.053  10.318  0.00  0.00     0.005 C 
ENDBRANCH  15  16
ENDBRANCH  14  15
ENDBRANCH  13  14
ENDBRANCH  12  13
BRANCH  12  18
ATOM     18  O8  ZIN A   1      18.080  -2.719  12.692  0.00  0.00    -0.392 OA
ATOM     19  H42 ZIN A   1      17.765  -2.268  13.488  0.00  0.00     0.210 HD
ENDBRANCH  12  18
ENDBRANCH  11  12
ENDBRANCH   1  10
BRANCH   2  20
ATOM     20  O15 ZIN A   1      17.241   2.312  10.879  0.00  0.00    -0.395 OA
ATOM     21  H45 ZIN A   1      16.623   2.681  10.235  0.00  0.00     0.210 HD
ENDBRANCH   2  20
BRANCH   7  22
ATOM     22  C22 ZIN A   1      17.825  -1.284   4.469  0.00  0.00     0.030 C 
BRANCH  22  23
ATOM     23  C23 ZIN A   1      18.954  -2.311   4.356  0.00  0.00     0.014 C 
BRANCH  23  24
ATOM     24  C24 ZIN A   1      18.483  -3.650   4.926  0.00  0.00     0.113 C 
BRANCH  24  25
ATOM     25  C25 ZIN A   1      19.402  -4.071   6.043  0.00  0.00     0.172 C 
ATOM     26  O26 ZIN A   1      19.416  -5.233   6.414  0.00  0.00    -0.648 OA
ATOM     27  O27 ZIN A   1      20.129  -3.252   6.578  0.00  0.00    -0.648 OA
ENDBRANCH  24  25
ENDBRANCH  23  24
ENDBRANCH  22  23
ENDBRANCH   7  22
TORSDOF 12
ENDMDL
MODEL 5
REMARK VINA RESULT:      -7.0      2.320      7.925
REMARK  12 active torsions:
REMARK  status: ('A' for Active; 'I' for Inactive)
REMARK    1  A    between atoms: C2_2  and  C3_3 
REMARK    2  A    between atoms: C3_3  and  C4_4 
REMARK    3  A    between atoms: C4_4  and  C5_5 
REMARK    4  A    between atoms: C5_5  and  C6_6 
REMARK    5  A    between atoms: C6_6  and  O8_7 
REMARK    6  A    between atoms: C6_6  and  C9_8 
REMARK    7  A    between atoms: C10_9  and  C11_10 
REMARK    8  A    between atoms: C13_11  and  O15_12 
REMARK    9  A    between atoms: C21_17  and  C22_18 
REMARK   10  A    between atoms: C22_18  and  C23_19 
REMARK   11  A    between atoms: C23_19  and  C24_20 
REMARK   12  A    between atoms: C24_20  and  C25_21 
ROOT
ATOM      1  C11 ZIN A   1      18.224   3.387  14.891  0.00  0.00     0.043 C 
ATOM      2  C13 ZIN A   1      17.989   4.847  15.321  0.00  0.00     0.128 C 
ATOM      3  C16 ZIN A   1      17.849   5.630  14.003  0.00  0.00     0.065 C 
ATOM      4  C17 ZIN A   1      18.690   4.871  12.964  0.00  0.00     0.136 C 
ATOM      5  O19 ZIN A   1      17.925   4.713  11.762  0.00  0.00    -0.350 OA
ATOM      6  C20 ZIN A   1      18.055   3.444  11.290  0.00  0.00     0.043 C 
ATOM      7  C21 ZIN A   1      18.041   3.071  10.028  0.00  0.00     0.005 C 
ATOM      8  C28 ZIN A   1      18.220   2.540  12.499  0.00  0.00     0.072 C 
ATOM      9  C29 ZIN A   1      18.948   3.458  13.539  0.00  0.00     0.031 C 
ENDROOT
BRANCH   1  10
ATOM     10  C10 ZIN A   1      19.085   2.679  15.905  0.00  0.00    -0.021 C 
ATOM     11  C9  ZIN A   1      18.529   2.054  16.913  0.00  0.00     0.001 C 
BRANCH  11  12
ATOM     12  C6  ZIN A   1      19.391   1.345  17.927  0.00  0.00     0.140 C 
BRANCH  12  13
ATOM     13  C5  ZIN A   1      18.749   0.006  18.294  0.00  0.00     0.036 C 
BRANCH  13  14
ATOM     14  C4  ZIN A   1      17.613  -0.301  17.316  0.00  0.00     0.003 C 
BRANCH  14  15
ATOM     15  C3  ZIN A   1      18.055  -1.403  16.350  0.00  0.00    -0.000 C 
BRANCH  15  16
ATOM     16  C2  ZIN A   1      18.138  -0.834  14.932  0.00  0.00    -0.005 C 
ATOM     17  C1  ZIN A   1      19.465  -1.249  14.294  0.00  0.00     0.005 C 
ENDBRANCH  15  16
ENDBRANCH  14  15
ENDBRANCH  13  14
ENDBRANCH  12  13
BRANCH  12  18
ATOM     18  O8  ZIN A   1      19.511   2.153  19.098  0.00  0.00    -0.392 OA
ATOM     19  H42 ZIN A   1      19.896   1.693  19.857  0.00  0.00     0.210 HD
ENDBRANCH  12  18
ENDBRANCH  11  12
ENDBRANCH   1  10
BRANCH   2  20
ATOM     20  O15 ZIN A   1      16.790   4.951  16.093  0.00  0.00    -0.395 OA
ATOM     21  H45 ZIN A   1      16.117   5.520  15.697  0.00  0.00     0.210 HD
ENDBRANCH   2  20
BRANCH   7  22
ATOM     22  C22 ZIN A   1      18.199   1.615   9.670  0.00  0.00     0.030 C 
BRANCH  22  23
ATOM     23  C23 ZIN A   1      19.409   1.445   8.748  0.00  0.00     0.014 C 
BRANCH  23  24
ATOM     24  C24 ZIN A   1      18.958   1.550   7.291  0.00  0.00     0.113 C 
BRANCH  24  25
ATOM     25  C25 ZIN A   1      18.422   0.218   6.833  0.00  0.00     0.172 C 
ATOM     26  O26 ZIN A   1      19.189  -0.706   6.622  0.00  0.00    -0.648 OA
ATOM     27  O27 ZIN A   1      17.224   0.065   6.671  0.00  0.00    -0.648 OA
ENDBRANCH  24  25
ENDBRANCH  23  24
ENDBRANCH  22  23
ENDBRANCH   7  22
TORSDOF 12
ENDMDL
MODEL 6
REMARK VINA RESULT:      -7.0      2.773      5.070
REMARK  12 active torsions:
REMARK  status: ('A' for Active; 'I' for Inactive)
REMARK    1  A    between atoms: C2_2  and  C3_3 
REMARK    2  A    between atoms: C3_3  and  C4_4 
REMARK    3  A    between atoms: C4_4  and  C5_5 
REMARK    4  A    between atoms: C5_5  and  C6_6 
REMARK    5  A    between atoms: C6_6  and  O8_7 
REMARK    6  A    between atoms: C6_6  and  C9_8 
REMARK    7  A    between atoms: C10_9  and  C11_10 
REMARK    8  A    between atoms: C13_11  and  O15_12 
REMARK    9  A    between atoms: C21_17  and  C22_18 
REMARK   10  A    between atoms: C22_18  and  C23_19 
REMARK   11  A    between atoms: C23_19  and  C24_20 
REMARK   12  A    between atoms: C24_20  and  C25_21 
ROOT
ATOM      1  C11 ZIN A   1      18.755  -0.109   9.767  0.00  0.00     0.043 C 
ATOM      2  C13 ZIN A   1      18.567   1.243   9.054  0.00  0.00     0.128 C 
ATOM      3  C16 ZIN A   1      18.108   2.212  10.159  0.00  0.00     0.065 C 
ATOM      4  C17 ZIN A   1      17.358   1.356  11.193  0.00  0.00     0.136 C 
ATOM      5  O19 ZIN A   1      17.819   1.693  12.507  0.00  0.00    -0.350 OA
ATOM      6  C20 ZIN A   1      18.026   0.561  13.233  0.00  0.00     0.043 C 
ATOM      7  C21 ZIN A   1      17.866   0.422  14.532  0.00  0.00     0.005 C 
ATOM      8  C28 ZIN A   1      18.479  -0.510  12.256  0.00  0.00     0.072 C 
ATOM      9  C29 ZIN A   1      17.750  -0.117  10.927  0.00  0.00     0.031 C 
ENDROOT
BRANCH   1  10
ATOM     10  C10 ZIN A   1      18.461  -1.242   8.817  0.00  0.00    -0.021 C 
ATOM     11  C9  ZIN A   1      19.431  -1.784   8.124  0.00  0.00     0.001 C 
BRANCH  11  12
ATOM     12  C6  ZIN A   1      19.137  -2.917   7.174  0.00  0.00     0.140 C 
BRANCH  12  13
ATOM     13  C5  ZIN A   1      18.385  -4.023   7.918  0.00  0.00     0.036 C 
BRANCH  13  14
ATOM     14  C4  ZIN A   1      19.374  -4.840   8.752  0.00  0.00     0.003 C 
BRANCH  14  15
ATOM     15  C3  ZIN A   1      18.702  -5.279  10.055  0.00  0.00    -0.000 C 
BRANCH  15  16
ATOM     16  C2  ZIN A   1      18.727  -4.121  11.055  0.00  0.00    -0.005 C 
ATOM     17  C1  ZIN A   1      20.177  -3.782  11.406  0.00  0.00     0.005 C 
ENDBRANCH  15  16
ENDBRANCH  14  15
ENDBRANCH  13  14
ENDBRANCH  12  13
BRANCH  12  18
ATOM     18  O8  ZIN A   1      20.362  -3.438   6.659  0.00  0.00    -0.392 OA
ATOM     19  H42 ZIN A   1      20.731  -4.165   7.180  0.00  0.00     0.210 HD
ENDBRANCH  12  18
ENDBRANCH  11  12
ENDBRANCH   1  10
BRANCH   2  20
ATOM     20  O15 ZIN A   1      19.804   1.682   8.488  0.00  0.00    -0.395 OA
ATOM     21  H45 ZIN A   1      20.172   2.470   8.910  0.00  0.00     0.210 HD
ENDBRANCH   2  20
BRANCH   7  22
ATOM     22  C22 ZIN A   1      18.139  -0.908  15.187  0.00  0.00     0.030 C 
BRANCH  22  23
ATOM     23  C23 ZIN A   1      17.750  -0.838  16.665  0.00  0.00     0.014 C 
BRANCH  23  24
ATOM     24  C24 ZIN A   1      19.010  -0.670  17.516  0.00  0.00     0.113 C 
BRANCH  24  25
ATOM     25  C25 ZIN A   1      18.903   0.595  18.328  0.00  0.00     0.172 C 
ATOM     26  O26 ZIN A   1      17.823   0.945  18.772  0.00  0.00    -0.648 OA
ATOM     27  O27 ZIN A   1      19.896   1.269  18.541  0.00  0.00    -0.648 OA
ENDBRANCH  24  25
ENDBRANCH  23  24
ENDBRANCH  22  23
ENDBRANCH   7  22
TORSDOF 12
ENDMDL
MODEL 7
REMARK VINA RESULT:      -7.0      2.769      7.808
REMARK  12 active torsions:
REMARK  status: ('A' for Active; 'I' for Inactive)
REMARK    1  A    between atoms: C2_2  and  C3_3 
REMARK    2  A    between atoms: C3_3  and  C4_4 
REMARK    3  A    between atoms: C4_4  and  C5_5 
REMARK    4  A    between atoms: C5_5  and  C6_6 
REMARK    5  A    between atoms: C6_6  and  O8_7 
REMARK    6  A    between atoms: C6_6  and  C9_8 
REMARK    7  A    between atoms: C10_9  and  C11_10 
REMARK    8  A    between atoms: C13_11  and  O15_12 
REMARK    9  A    between atoms: C21_17  and  C22_18 
REMARK   10  A    between atoms: C22_18  and  C23_19 
REMARK   11  A    between atoms: C23_19  and  C24_20 
REMARK   12  A    between atoms: C24_20  and  C25_21 
ROOT
ATOM      1  C11 ZIN A   1      18.064   2.739  13.374  0.00  0.00     0.043 C 
ATOM      2  C13 ZIN A   1      18.504   4.203  13.555  0.00  0.00     0.128 C 
ATOM      3  C16 ZIN A   1      18.974   4.651  12.159  0.00  0.00     0.065 C 
ATOM      4  C17 ZIN A   1      19.491   3.385  11.456  0.00  0.00     0.136 C 
ATOM      5  O19 ZIN A   1      18.948   3.325  10.132  0.00  0.00    -0.350 OA
ATOM      6  C20 ZIN A   1      18.516   2.065   9.862  0.00  0.00     0.043 C 
ATOM      7  C21 ZIN A   1      18.522   1.467   8.688  0.00  0.00     0.005 C 
ATOM      8  C28 ZIN A   1      18.026   1.477  11.173  0.00  0.00     0.072 C 
ATOM      9  C29 ZIN A   1      18.934   2.174  12.242  0.00  0.00     0.031 C 
ENDROOT
BRANCH   1  10
ATOM     10  C10 ZIN A   1      18.298   1.964  14.645  0.00  0.00    -0.021 C 
ATOM     11  C9  ZIN A   1      17.556   0.921  14.922  0.00  0.00     0.001 C 
BRANCH  11  12
ATOM     12  C6  ZIN A   1      17.791   0.146  16.194  0.00  0.00     0.140 C 
BRANCH  12  13
ATOM     13  C5  ZIN A   1      18.385  -1.223  15.854  0.00  0.00     0.036 C 
BRANCH  13  14
ATOM     14  C4  ZIN A   1      18.154  -1.525  14.372  0.00  0.00     0.003 C 
BRANCH  14  15
ATOM     15  C3  ZIN A   1      19.503  -1.634  13.658  0.00  0.00    -0.000 C 
BRANCH  15  16
ATOM     16  C2  ZIN A   1      19.274  -1.994  12.189  0.00  0.00    -0.005 C 
ATOM     17  C1  ZIN A   1      17.771  -2.102  11.919  0.00  0.00     0.005 C 
ENDBRANCH  15  16
ENDBRANCH  14  15
ENDBRANCH  13  14
ENDBRANCH  12  13
BRANCH  12  18
ATOM     18  O8  ZIN A   1      16.551  -0.030  16.881  0.00  0.00    -0.392 OA
ATOM     19  H42 ZIN A   1      16.442   0.546  17.650  0.00  0.00     0.210 HD
ENDBRANCH  12  18
ENDBRANCH  11  12
ENDBRANCH   1  10
BRANCH   2  20
ATOM     20  O15 ZIN A   1      17.403   5.003  13.992  0.00  0.00    -0.395 OA
ATOM     21  H45 ZIN A   1      17.272   5.807  13.471  0.00  0.00     0.210 HD
ENDBRANCH   2  20
BRANCH   7  22
ATOM     22  C22 ZIN A   1      18.006   0.058   8.557  0.00  0.00     0.030 C 
BRANCH  22  23
ATOM     23  C23 ZIN A   1      17.569  -0.193   7.112  0.00  0.00     0.014 C 
BRANCH  23  24
ATOM     24  C24 ZIN A   1      18.565   0.467   6.157  0.00  0.00     0.113 C 
BRANCH  24  25
ATOM     25  C25 ZIN A   1      18.806  -0.440   4.977  0.00  0.00     0.172 C 
ATOM     26  O26 ZIN A   1      19.947  -0.701   4.633  0.00  0.00    -0.648 OA
ATOM     27  O27 ZIN A   1      17.863  -0.911   4.366  0.00  0.00    -0.648 OA
ENDBRANCH  24  25
ENDBRANCH  23  24
ENDBRANCH  22  23
ENDBRANCH   7  22
TORSDOF 12
ENDMDL
MODEL 8
REMARK VINA RESULT:      -7.0      2.053      5.802
REMARK  12 active torsions:
REMARK  status: ('A' for Active; 'I' for Inactive)
REMARK    1  A    between atoms: C2_2  and  C3_3 
REMARK    2  A    between atoms: C3_3  and  C4_4 
REMARK    3  A    between atoms: C4_4  and  C5_5 
REMARK    4  A    between atoms: C5_5  and  C6_6 
REMARK    5  A    between atoms: C6_6  and  O8_7 
REMARK    6  A    between atoms: C6_6  and  C9_8 
REMARK    7  A    between atoms: C10_9  and  C11_10 
REMARK    8  A    between atoms: C13_11  and  O15_12 
REMARK    9  A    between atoms: C21_17  and  C22_18 
REMARK   10  A    between atoms: C22_18  and  C23_19 
REMARK   11  A    between atoms: C23_19  and  C24_20 
REMARK   12  A    between atoms: C24_20  and  C25_21 
ROOT
ATOM      1  C11 ZIN A   1      19.088   1.928  16.570  0.00  0.00     0.043 C 
ATOM      2  C13 ZIN A   1      18.608   1.479  17.962  0.00  0.00     0.128 C 
ATOM      3  C16 ZIN A   1      18.147   0.022  17.770  0.00  0.00     0.065 C 
ATOM      4  C17 ZIN A   1      17.672  -0.086  16.312  0.00  0.00     0.136 C 
ATOM      5  O19 ZIN A   1      18.235  -1.262  15.719  0.00  0.00    -0.350 OA
ATOM      6  C20 ZIN A   1      18.702  -0.978  14.473  0.00  0.00     0.043 C 
ATOM      7  C21 ZIN A   1      18.727  -1.794  13.439  0.00  0.00     0.005 C 
ATOM      8  C28 ZIN A   1      19.188   0.460  14.504  0.00  0.00     0.072 C 
ATOM      9  C29 ZIN A   1      18.248   1.136  15.559  0.00  0.00     0.031 C 
ENDROOT
BRANCH   1  10
ATOM     10  C10 ZIN A   1      18.855   3.407  16.393  0.00  0.00    -0.021 C 
ATOM     11  C9  ZIN A   1      19.872   4.212  16.211  0.00  0.00     0.001 C 
BRANCH  11  12
ATOM     12  C6  ZIN A   1      19.639   5.691  16.034  0.00  0.00     0.140 C 
BRANCH  12  13
ATOM     13  C5  ZIN A   1      19.206   5.970  14.593  0.00  0.00     0.036 C 
BRANCH  13  14
ATOM     14  C4  ZIN A   1      19.836   4.932  13.662  0.00  0.00     0.003 C 
BRANCH  14  15
ATOM     15  C3  ZIN A   1      18.927   4.716  12.449  0.00  0.00    -0.000 C 
BRANCH  15  16
ATOM     16  C2  ZIN A   1      17.478   5.016  12.839  0.00  0.00    -0.005 C 
ATOM     17  C1  ZIN A   1      16.618   5.099  11.577  0.00  0.00     0.005 C 
ENDBRANCH  15  16
ENDBRANCH  14  15
ENDBRANCH  13  14
ENDBRANCH  12  13
BRANCH  12  18
ATOM     18  O8  ZIN A   1      20.846   6.401  16.314  0.00  0.00    -0.392 OA
ATOM     19  H42 ZIN A   1      21.435   6.494  15.552  0.00  0.00     0.210 HD
ENDBRANCH  12  18
ENDBRANCH  11  12
ENDBRANCH   1  10
BRANCH   2  20
ATOM     20  O15 ZIN A   1      19.683   1.542  18.903  0.00  0.00    -0.395 OA
ATOM     21  H45 ZIN A   1      19.746   0.769  19.480  0.00  0.00     0.210 HD
ENDBRANCH   2  20
BRANCH   7  22
ATOM     22  C22 ZIN A   1      19.280  -1.321  12.120  0.00  0.00     0.030 C 
BRANCH  22  23
ATOM     23  C23 ZIN A   1      18.246  -1.561  11.018  0.00  0.00     0.014 C 
BRANCH  23  24
ATOM     24  C24 ZIN A   1      17.907  -0.233  10.339  0.00  0.00     0.113 C 
BRANCH  24  25
ATOM     25  C25 ZIN A   1      16.957   0.549  11.210  0.00  0.00     0.172 C 
ATOM     26  O26 ZIN A   1      17.216   1.702  11.511  0.00  0.00    -0.648 OA
ATOM     27  O27 ZIN A   1      15.932   0.029  11.616  0.00  0.00    -0.648 OA
ENDBRANCH  24  25
ENDBRANCH  23  24
ENDBRANCH  22  23
ENDBRANCH   7  22
TORSDOF 12
ENDMDL
MODEL 9
REMARK VINA RESULT:      -6.7      4.028      7.404
REMARK  12 active torsions:
REMARK  status: ('A' for Active; 'I' for Inactive)
REMARK    1  A    between atoms: C2_2  and  C3_3 
REMARK    2  A    between atoms: C3_3  and  C4_4 
REMARK    3  A    between atoms: C4_4  and  C5_5 
REMARK    4  A    between atoms: C5_5  and  C6_6 
REMARK    5  A    between atoms: C6_6  and  O8_7 
REMARK    6  A    between atoms: C6_6  and  C9_8 
REMARK    7  A    between atoms: C10_9  and  C11_10 
REMARK    8  A    between atoms: C13_11  and  O15_12 
REMARK    9  A    between atoms: C21_17  and  C22_18 
REMARK   10  A    between atoms: C22_18  and  C23_19 
REMARK   11  A    between atoms: C23_19  and  C24_20 
REMARK   12  A    between atoms: C24_20  and  C25_21 
ROOT
ATOM      1  C11 ZIN A   1      18.910  -2.026   6.451  0.00  0.00     0.043 C 
ATOM      2  C13 ZIN A   1      18.545  -1.818   4.970  0.00  0.00     0.128 C 
ATOM      3  C16 ZIN A   1      18.284  -0.306   4.836  0.00  0.00     0.065 C 
ATOM      4  C17 ZIN A   1      17.780   0.164   6.210  0.00  0.00     0.136 C 
ATOM      5  O19 ZIN A   1      18.481   1.355   6.587  0.00  0.00    -0.350 OA
ATOM      6  C20 ZIN A   1      18.862   1.279   7.891  0.00  0.00     0.043 C 
ATOM      7  C21 ZIN A   1      18.965   2.281   8.738  0.00  0.00     0.005 C 
ATOM      8  C28 ZIN A   1      19.144  -0.185   8.181  0.00  0.00     0.072 C 
ATOM      9  C29 ZIN A   1      18.155  -0.938   7.228  0.00  0.00     0.031 C 
ENDROOT
BRANCH   1  10
ATOM     10  C10 ZIN A   1      18.468  -3.392   6.909  0.00  0.00    -0.021 C 
ATOM     11  C9  ZIN A   1      19.049  -3.958   7.937  0.00  0.00     0.001 C 
BRANCH  11  12
ATOM     12  C6  ZIN A   1      18.607  -5.325   8.394  0.00  0.00     0.140 C 
BRANCH  12  13
ATOM     13  C5  ZIN A   1      18.327  -5.294   9.898  0.00  0.00     0.036 C 
BRANCH  13  14
ATOM     14  C4  ZIN A   1      19.504  -4.637  10.622  0.00  0.00     0.003 C 
BRANCH  14  15
ATOM     15  C3  ZIN A   1      18.975  -3.649  11.664  0.00  0.00    -0.000 C 
BRANCH  15  16
ATOM     16  C2  ZIN A   1      17.639  -3.075  11.190  0.00  0.00    -0.005 C 
ATOM     17  C1  ZIN A   1      17.488  -1.643  11.707  0.00  0.00     0.005 C 
ENDBRANCH  15  16
ENDBRANCH  14  15
ENDBRANCH  13  14
ENDBRANCH  12  13
BRANCH  12  18
ATOM     18  O8  ZIN A   1      19.637  -6.276   8.121  0.00  0.00    -0.392 OA
ATOM     19  H42 ZIN A   1      20.465  -5.882   7.813  0.00  0.00     0.210 HD
ENDBRANCH  12  18
ENDBRANCH  11  12
ENDBRANCH   1  10
BRANCH   2  20
ATOM     20  O15 ZIN A   1      19.631  -2.214   4.130  0.00  0.00    -0.395 OA
ATOM     21  H45 ZIN A   1      20.221  -2.865   4.532  0.00  0.00     0.210 HD
ENDBRANCH   2  20
BRANCH   7  22
ATOM     22  C22 ZIN A   1      19.403   2.026  10.158  0.00  0.00     0.030 C 
BRANCH  22  23
ATOM     23  C23 ZIN A   1      18.235   2.301  11.108  0.00  0.00     0.014 C 
BRANCH  23  24
ATOM     24  C24 ZIN A   1      17.512   3.576  10.672  0.00  0.00     0.113 C 
BRANCH  24  25
ATOM     25  C25 ZIN A   1      17.549   4.583  11.792  0.00  0.00     0.172 C 
ATOM     26  O26 ZIN A   1      16.543   5.209  12.081  0.00  0.00    -0.648 OA
ATOM     27  O27 ZIN A   1      18.583   4.774  12.408  0.00  0.00    -0.648 OA
ENDBRANCH  24  25
ENDBRANCH  23  24
ENDBRANCH  22  23
ENDBRANCH   7  22
TORSDOF 12
ENDMDL
