MODEL 1
REMARK VINA RESULT:      -4.0      0.000      0.000
REMARK  4 active torsions:
REMARK  status: ('A' for Active; 'I' for Inactive)
REMARK    1  A    between atoms: C2_2  and  S4_4 
REMARK    2  A    between atoms: C2_2  and  C5_5 
REMARK    3  A    between atoms: C5_5  and  N7_6 
REMARK    4  A    between atoms: C5_5  and  C11_10 
ROOT
ATOM      1  C5  ZIN A   1      19.060  -1.403   6.666  0.00  0.00     0.300 C 
ENDROOT
BRANCH   1   2
ATOM      2  C2  ZIN A   1      18.691  -0.158   7.475  0.00  0.00     0.036 C 
ATOM      3  C1  ZIN A   1      17.203  -0.200   7.826  0.00  0.00     0.029 C 
ATOM      4  C3  ZIN A   1      18.986   1.095   6.648  0.00  0.00     0.029 C 
BRANCH   2   5
ATOM      5  S4  ZIN A   1      19.671  -0.118   9.002  0.00  0.00    -0.170 SA
ATOM      6  H20 ZIN A   1      20.624  -1.038   8.774  0.00  0.00     0.102 HD
ENDBRANCH   2   5
ENDBRANCH   1   2
BRANCH   1   7
ATOM      7  N7  ZIN A   1      18.132  -2.493   6.993  0.00  0.00    -0.064 N 
ATOM      8  H8  ZIN A   1      18.570  -3.121   7.650  0.00  0.00     0.275 HD
ATOM      9  H9  ZIN A   1      17.293  -2.109   7.402  0.00  0.00     0.275 HD
ATOM     10  H10 ZIN A   1      17.896  -2.997   6.152  0.00  0.00     0.275 HD
ENDBRANCH   1   7
BRANCH   1  11
ATOM     11  C11 ZIN A   1      18.968  -1.090   5.194  0.00  0.00     0.206 C 
ATOM     12  O12 ZIN A   1      19.982  -0.871   4.553  0.00  0.00    -0.646 OA
ATOM     13  O13 ZIN A   1      17.880  -1.056   4.645  0.00  0.00    -0.646 OA
ENDBRANCH   1  11
TORSDOF 4
ENDMDL
MODEL 2
REMARK VINA RESULT:      -4.0     10.424     10.896
REMARK  4 active torsions:
REMARK  status: ('A' for Active; 'I' for Inactive)
REMARK    1  A    between atoms: C2_2  and  S4_4 
REMARK    2  A    between atoms: C2_2  and  C5_5 
REMARK    3  A    between atoms: C5_5  and  N7_6 
REMARK    4  A    between atoms: C5_5  and  C11_10 
ROOT
ATOM      1  C5  ZIN A   1      18.818   0.917  16.448  0.00  0.00     0.300 C 
ENDROOT
BRANCH   1   2
ATOM      2  C2  ZIN A   1      18.300  -0.488  16.135  0.00  0.00     0.036 C 
ATOM      3  C1  ZIN A   1      16.898  -0.656  16.723  0.00  0.00     0.029 C 
ATOM      4  C3  ZIN A   1      19.240  -1.527  16.750  0.00  0.00     0.029 C 
BRANCH   2   5
ATOM      5  S4  ZIN A   1      18.234  -0.722  14.337  0.00  0.00    -0.170 SA
ATOM      6  H20 ZIN A   1      18.394   0.526  13.863  0.00  0.00     0.102 HD
ENDBRANCH   2   5
ENDBRANCH   1   2
BRANCH   1   7
ATOM      7  N7  ZIN A   1      17.899   1.915  15.886  0.00  0.00    -0.064 N 
ATOM      8  H8  ZIN A   1      17.023   1.884  16.384  0.00  0.00     0.275 HD
ATOM      9  H9  ZIN A   1      18.305   2.835  15.976  0.00  0.00     0.275 HD
ATOM     10  H10 ZIN A   1      17.738   1.712  14.911  0.00  0.00     0.275 HD
ENDBRANCH   1   7
BRANCH   1  11
ATOM     11  C11 ZIN A   1      18.906   1.099  17.941  0.00  0.00     0.206 C 
ATOM     12  O12 ZIN A   1      17.904   1.372  18.582  0.00  0.00    -0.646 OA
ATOM     13  O13 ZIN A   1      19.977   0.974  18.508  0.00  0.00    -0.646 OA
ENDBRANCH   1  11
TORSDOF 4
ENDMDL
MODEL 3
REMARK VINA RESULT:      -3.7      4.555      4.995
REMARK  4 active torsions:
REMARK  status: ('A' for Active; 'I' for Inactive)
REMARK    1  A    between atoms: C2_2  and  S4_4 
REMARK    2  A    between atoms: C2_2  and  C5_5 
REMARK    3  A    between atoms: C5_5  and  N7_6 
REMARK    4  A    between atoms: C5_5  and  C11_10 
ROOT
ATOM      1  C5  ZIN A   1      20.158  -0.181  11.081  0.00  0.00     0.300 C 
ENDROOT
BRANCH   1   2
ATOM      2  C2  ZIN A   1      19.313  -1.271  11.743  0.00  0.00     0.036 C 
ATOM      3  C1  ZIN A   1      19.386  -1.119  13.264  0.00  0.00     0.029 C 
ATOM      4  C3  ZIN A   1      19.849  -2.647  11.341  0.00  0.00     0.029 C 
BRANCH   2   5
ATOM      5  S4  ZIN A   1      17.589  -1.112  11.202  0.00  0.00    -0.170 SA
ATOM      6  H20 ZIN A   1      16.903  -1.693  12.202  0.00  0.00     0.102 HD
ENDBRANCH   2   5
ENDBRANCH   1   2
BRANCH   1   7
ATOM      7  N7  ZIN A   1      21.557  -0.621  11.008  0.00  0.00    -0.064 N 
ATOM      8  H8  ZIN A   1      21.599  -1.626  11.086  0.00  0.00     0.275 HD
ATOM      9  H9  ZIN A   1      21.954  -0.336  10.125  0.00  0.00     0.275 HD
ATOM     10  H10 ZIN A   1      22.081  -0.204  11.763  0.00  0.00     0.275 HD
ENDBRANCH   1   7
BRANCH   1  11
ATOM     11  C11 ZIN A   1      19.641   0.081   9.690  0.00  0.00     0.206 C 
ATOM     12  O12 ZIN A   1      19.882  -0.708   8.792  0.00  0.00    -0.646 OA
ATOM     13  O13 ZIN A   1      18.980   1.080   9.463  0.00  0.00    -0.646 OA
ENDBRANCH   1  11
TORSDOF 4
ENDMDL
MODEL 4
REMARK VINA RESULT:      -3.7      6.042      6.575
REMARK  4 active torsions:
REMARK  status: ('A' for Active; 'I' for Inactive)
REMARK    1  A    between atoms: C2_2  and  S4_4 
REMARK    2  A    between atoms: C2_2  and  C5_5 
REMARK    3  A    between atoms: C5_5  and  N7_6 
REMARK    4  A    between atoms: C5_5  and  C11_10 
ROOT
ATOM      1  C5  ZIN A   1      20.170   0.758  12.741  0.00  0.00     0.300 C 
ENDROOT
BRANCH   1   2
ATOM      2  C2  ZIN A   1      19.311  -0.503  12.627  0.00  0.00     0.036 C 
ATOM      3  C1  ZIN A   1      17.839  -0.106  12.494  0.00  0.00     0.029 C 
ATOM      4  C3  ZIN A   1      19.497  -1.363  13.879  0.00  0.00     0.029 C 
BRANCH   2   5
ATOM      5  S4  ZIN A   1      19.816  -1.449  11.164  0.00  0.00    -0.170 SA
ATOM      6  H20 ZIN A   1      19.110  -0.875  10.174  0.00  0.00     0.102 HD
ENDBRANCH   2   5
ENDBRANCH   1   2
BRANCH   1   7
ATOM      7  N7  ZIN A   1      21.488   0.509  12.144  0.00  0.00    -0.064 N 
ATOM      8  H8  ZIN A   1      21.484   0.808  11.181  0.00  0.00     0.275 HD
ATOM      9  H9  ZIN A   1      22.191   1.024  12.653  0.00  0.00     0.275 HD
ATOM     10  H10 ZIN A   1      21.696  -0.477  12.188  0.00  0.00     0.275 HD
ENDBRANCH   1   7
BRANCH   1  11
ATOM     11  C11 ZIN A   1      19.496   1.893  12.015  0.00  0.00     0.206 C 
ATOM     12  O12 ZIN A   1      18.909   2.757  12.645  0.00  0.00    -0.646 OA
ATOM     13  O13 ZIN A   1      19.537   1.948  10.798  0.00  0.00    -0.646 OA
ENDBRANCH   1  11
TORSDOF 4
ENDMDL
MODEL 5
REMARK VINA RESULT:      -3.6      5.259      5.910
REMARK  4 active torsions:
REMARK  status: ('A' for Active; 'I' for Inactive)
REMARK    1  A    between atoms: C2_2  and  S4_4 
REMARK    2  A    between atoms: C2_2  and  C5_5 
REMARK    3  A    between atoms: C5_5  and  N7_6 
REMARK    4  A    between atoms: C5_5  and  C11_10 
ROOT
ATOM      1  C5  ZIN A   1      19.032   1.710  11.476  0.00  0.00     0.300 C 
ENDROOT
BRANCH   1   2
ATOM      2  C2  ZIN A   1      18.908   1.003  10.125  0.00  0.00     0.036 C 
ATOM      3  C1  ZIN A   1      19.190   2.002   9.001  0.00  0.00     0.029 C 
ATOM      4  C3  ZIN A   1      17.492   0.444   9.968  0.00  0.00     0.029 C 
BRANCH   2   5
ATOM      5  S4  ZIN A   1      20.107  -0.355  10.041  0.00  0.00    -0.170 SA
ATOM      6  H20 ZIN A   1      20.620  -0.230   8.804  0.00  0.00     0.102 HD
ENDBRANCH   2   5
ENDBRANCH   1   2
BRANCH   1   7
ATOM      7  N7  ZIN A   1      20.449   1.947  11.778  0.00  0.00    -0.064 N 
ATOM      8  H8  ZIN A   1      20.996   1.158  11.469  0.00  0.00     0.275 HD
ATOM      9  H9  ZIN A   1      20.760   2.780  11.300  0.00  0.00     0.275 HD
ATOM     10  H10 ZIN A   1      20.565   2.067  12.773  0.00  0.00     0.275 HD
ENDBRANCH   1   7
BRANCH   1  11
ATOM     11  C11 ZIN A   1      18.302   3.027  11.423  0.00  0.00     0.206 C 
ATOM     12  O12 ZIN A   1      17.082   3.050  11.448  0.00  0.00    -0.646 OA
ATOM     13  O13 ZIN A   1      18.930   4.069  11.356  0.00  0.00    -0.646 OA
ENDBRANCH   1  11
TORSDOF 4
ENDMDL
MODEL 6
REMARK VINA RESULT:      -3.6      4.632      5.279
REMARK  4 active torsions:
REMARK  status: ('A' for Active; 'I' for Inactive)
REMARK    1  A    between atoms: C2_2  and  S4_4 
REMARK    2  A    between atoms: C2_2  and  C5_5 
REMARK    3  A    between atoms: C5_5  and  N7_6 
REMARK    4  A    between atoms: C5_5  and  C11_10 
ROOT
ATOM      1  C5  ZIN A   1      18.078   0.683  11.290  0.00  0.00     0.300 C 
ENDROOT
BRANCH   1   2
ATOM      2  C2  ZIN A   1      18.530   0.639   9.829  0.00  0.00     0.036 C 
ATOM      3  C1  ZIN A   1      18.903   2.050   9.368  0.00  0.00     0.029 C 
ATOM      4  C3  ZIN A   1      17.393   0.100   8.958  0.00  0.00     0.029 C 
BRANCH   2   5
ATOM      5  S4  ZIN A   1      19.975  -0.448   9.676  0.00  0.00    -0.170 SA
ATOM      6  H20 ZIN A   1      19.665  -1.217   8.617  0.00  0.00     0.102 HD
ENDBRANCH   2   5
ENDBRANCH   1   2
BRANCH   1   7
ATOM      7  N7  ZIN A   1      17.639   2.043  11.626  0.00  0.00    -0.064 N 
ATOM      8  H8  ZIN A   1      17.659   2.165  12.627  0.00  0.00     0.275 HD
ATOM      9  H9  ZIN A   1      18.256   2.713  11.193  0.00  0.00     0.275 HD
ATOM     10  H10 ZIN A   1      16.698   2.185  11.290  0.00  0.00     0.275 HD
ENDBRANCH   1   7
BRANCH   1  11
ATOM     11  C11 ZIN A   1      16.935  -0.279  11.491  0.00  0.00     0.206 C 
ATOM     12  O12 ZIN A   1      17.158  -1.469  11.639  0.00  0.00    -0.646 OA
ATOM     13  O13 ZIN A   1      15.788   0.133  11.505  0.00  0.00    -0.646 OA
ENDBRANCH   1  11
TORSDOF 4
ENDMDL
MODEL 7
REMARK VINA RESULT:      -3.6      6.179      6.574
REMARK  4 active torsions:
REMARK  status: ('A' for Active; 'I' for Inactive)
REMARK    1  A    between atoms: C2_2  and  S4_4 
REMARK    2  A    between atoms: C2_2  and  C5_5 
REMARK    3  A    between atoms: C5_5  and  N7_6 
REMARK    4  A    between atoms: C5_5  and  C11_10 
ROOT
ATOM      1  C5  ZIN A   1      20.197   0.079  12.032  0.00  0.00     0.300 C 
ENDROOT
BRANCH   1   2
ATOM      2  C2  ZIN A   1      19.260   1.047  11.307  0.00  0.00     0.036 C 
ATOM      3  C1  ZIN A   1      17.824   0.821  11.784  0.00  0.00     0.029 C 
ATOM      4  C3  ZIN A   1      19.342   0.803   9.799  0.00  0.00     0.029 C 
BRANCH   2   5
ATOM      5  S4  ZIN A   1      19.756   2.754  11.671  0.00  0.00    -0.170 SA
ATOM      6  H20 ZIN A   1      18.778   3.481  11.101  0.00  0.00     0.102 HD
ENDBRANCH   2   5
ENDBRANCH   1   2
BRANCH   1   7
ATOM      7  N7  ZIN A   1      21.545   0.658  12.100  0.00  0.00    -0.064 N 
ATOM      8  H8  ZIN A   1      21.785   1.057  11.205  0.00  0.00     0.275 HD
ATOM      9  H9  ZIN A   1      21.566   1.378  12.806  0.00  0.00     0.275 HD
ATOM     10  H10 ZIN A   1      22.209  -0.064  12.334  0.00  0.00     0.275 HD
ENDBRANCH   1   7
BRANCH   1  11
ATOM     11  C11 ZIN A   1      19.685  -0.165  13.428  0.00  0.00     0.206 C 
ATOM     12  O12 ZIN A   1      19.820   0.692  14.286  0.00  0.00    -0.646 OA
ATOM     13  O13 ZIN A   1      19.134  -1.218  13.700  0.00  0.00    -0.646 OA
ENDBRANCH   1  11
TORSDOF 4
ENDMDL
MODEL 8
REMARK VINA RESULT:      -3.6      6.231      6.735
REMARK  4 active torsions:
REMARK  status: ('A' for Active; 'I' for Inactive)
REMARK    1  A    between atoms: C2_2  and  S4_4 
REMARK    2  A    between atoms: C2_2  and  C5_5 
REMARK    3  A    between atoms: C5_5  and  N7_6 
REMARK    4  A    between atoms: C5_5  and  C11_10 
ROOT
ATOM      1  C5  ZIN A   1      20.197   0.090  12.031  0.00  0.00     0.300 C 
ENDROOT
BRANCH   1   2
ATOM      2  C2  ZIN A   1      19.285   1.107  11.342  0.00  0.00     0.036 C 
ATOM      3  C1  ZIN A   1      19.792   2.522  11.629  0.00  0.00     0.029 C 
ATOM      4  C3  ZIN A   1      17.859   0.958  11.876  0.00  0.00     0.029 C 
BRANCH   2   5
ATOM      5  S4  ZIN A   1      19.294   0.813   9.552  0.00  0.00    -0.170 SA
ATOM      6  H20 ZIN A   1      18.302  -0.080   9.387  0.00  0.00     0.102 HD
ENDBRANCH   2   5
ENDBRANCH   1   2
BRANCH   1   7
ATOM      7  N7  ZIN A   1      21.560   0.629  12.112  0.00  0.00    -0.064 N 
ATOM      8  H8  ZIN A   1      22.225  -0.128  12.067  0.00  0.00     0.275 HD
ATOM      9  H9  ZIN A   1      21.718   1.261  11.341  0.00  0.00     0.275 HD
ATOM     10  H10 ZIN A   1      21.675   1.125  12.983  0.00  0.00     0.275 HD
ENDBRANCH   1   7
BRANCH   1  11
ATOM     11  C11 ZIN A   1      19.683  -0.186  13.420  0.00  0.00     0.206 C 
ATOM     12  O12 ZIN A   1      19.118  -1.240  13.663  0.00  0.00    -0.646 OA
ATOM     13  O13 ZIN A   1      19.832   0.644  14.301  0.00  0.00    -0.646 OA
ENDBRANCH   1  11
TORSDOF 4
ENDMDL
MODEL 9
REMARK VINA RESULT:      -3.6      3.500      3.970
REMARK  4 active torsions:
REMARK  status: ('A' for Active; 'I' for Inactive)
REMARK    1  A    between atoms: C2_2  and  S4_4 
REMARK    2  A    between atoms: C2_2  and  C5_5 
REMARK    3  A    between atoms: C5_5  and  N7_6 
REMARK    4  A    between atoms: C5_5  and  C11_10 
ROOT
ATOM      1  C5  ZIN A   1      19.608  -0.708   8.850  0.00  0.00     0.300 C 
ENDROOT
BRANCH   1   2
ATOM      2  C2  ZIN A   1      18.560   0.379   8.608  0.00  0.00     0.036 C 
ATOM      3  C1  ZIN A   1      19.261   1.699   8.281  0.00  0.00     0.029 C 
ATOM      4  C3  ZIN A   1      17.704   0.553   9.865  0.00  0.00     0.029 C 
BRANCH   2   5
ATOM      5  S4  ZIN A   1      17.500  -0.102   7.216  0.00  0.00    -0.170 SA
ATOM      6  H20 ZIN A   1      16.297   0.385   7.569  0.00  0.00     0.102 HD
ENDBRANCH   2   5
ENDBRANCH   1   2
BRANCH   1   7
ATOM      7  N7  ZIN A   1      20.730  -0.146   9.612  0.00  0.00    -0.064 N 
ATOM      8  H8  ZIN A   1      20.769  -0.578  10.523  0.00  0.00     0.275 HD
ATOM      9  H9  ZIN A   1      21.593  -0.323   9.120  0.00  0.00     0.275 HD
ATOM     10  H10 ZIN A   1      20.601   0.849   9.717  0.00  0.00     0.275 HD
ENDBRANCH   1   7
BRANCH   1  11
ATOM     11  C11 ZIN A   1      18.988  -1.839   9.630  0.00  0.00     0.206 C 
ATOM     12  O12 ZIN A   1      18.294  -2.664   9.060  0.00  0.00    -0.646 OA
ATOM     13  O13 ZIN A   1      19.180  -1.929  10.830  0.00  0.00    -0.646 OA
ENDBRANCH   1  11
TORSDOF 4
ENDMDL
