MODEL 1
REMARK VINA RESULT:      -7.6      0.000      0.000
REMARK  2 active torsions:
REMARK  status: ('A' for Active; 'I' for Inactive)
REMARK    1  A    between atoms: O2_2  and  C3_3 
REMARK    2  A    between atoms: C25_23  and  O26_24 
ROOT
ATOM      1  C3  ZIN A   1      19.387   3.584  11.739  0.00  0.00     0.102 A 
ATOM      2  C4  ZIN A   1      18.384   3.862  10.813  0.00  0.00     0.040 A 
ATOM      3  C5  ZIN A   1      17.679   2.879  10.138  0.00  0.00     0.011 A 
ATOM      4  C6  ZIN A   1      17.968   1.543  10.353  0.00  0.00    -0.046 A 
ATOM      5  C7  ZIN A   1      17.198   0.400   9.775  0.00  0.00     0.075 C 
ATOM      6  C8  ZIN A   1      17.749  -0.960  10.170  0.00  0.00     0.227 C 
ATOM      7  N10 ZIN A   1      18.746  -1.417   9.195  0.00  0.00    -0.067 N 
ATOM      8  H11 ZIN A   1      19.042  -2.351   9.436  0.00  0.00     0.280 HD
ATOM      9  C12 ZIN A   1      18.141  -1.432   7.857  0.00  0.00     0.270 C 
ATOM     10  C13 ZIN A   1      19.914  -0.531   9.185  0.00  0.00     0.236 C 
ATOM     11  C14 ZIN A   1      20.582  -0.525  10.565  0.00  0.00     0.048 C 
ATOM     12  C15 ZIN A   1      19.550  -0.071  11.595  0.00  0.00     0.058 C 
ATOM     13  C16 ZIN A   1      19.016   1.286  11.208  0.00  0.00    -0.001 A 
ATOM     14  C17 ZIN A   1      19.703   2.236  11.948  0.00  0.00     0.111 A 
ATOM     15  O18 ZIN A   1      20.564   1.636  12.797  0.00  0.00    -0.334 OA
ATOM     16  C19 ZIN A   1      20.181   0.233  12.946  0.00  0.00     0.214 C 
ATOM     17  C21 ZIN A   1      19.208   0.157  14.086  0.00  0.00     0.157 C 
ATOM     18  O22 ZIN A   1      19.446   0.790  15.086  0.00  0.00    -0.295 OA
ATOM     19  C23 ZIN A   1      17.956  -0.665  14.042  0.00  0.00     0.084 C 
ATOM     20  C24 ZIN A   1      17.309  -0.555  12.660  0.00  0.00     0.048 C 
ATOM     21  C25 ZIN A   1      18.375  -1.005  11.567  0.00  0.00     0.102 C 
ENDROOT
BRANCH   1  22
ATOM     22  O2  ZIN A   1      20.036   4.577  12.404  0.00  0.00    -0.353 OA
ATOM     23  C1  ZIN A   1      19.438   5.044  13.615  0.00  0.00     0.210 C 
ENDBRANCH   1  22
BRANCH  21  24
ATOM     24  O26 ZIN A   1      18.811  -2.337  11.845  0.00  0.00    -0.386 OA
ATOM     25  H45 ZIN A   1      18.149  -2.882  12.291  0.00  0.00     0.210 HD
ENDBRANCH  21  24
TORSDOF 2
ENDMDL
MODEL 2
REMARK VINA RESULT:      -7.4      2.238      5.328
REMARK  2 active torsions:
REMARK  status: ('A' for Active; 'I' for Inactive)
REMARK    1  A    between atoms: O2_2  and  C3_3 
REMARK    2  A    between atoms: C25_23  and  O26_24 
ROOT
ATOM      1  C3  ZIN A   1      18.664  -2.428   9.866  0.00  0.00     0.102 A 
ATOM      2  C4  ZIN A   1      17.668  -2.789  10.770  0.00  0.00     0.040 A 
ATOM      3  C5  ZIN A   1      17.272  -1.985  11.825  0.00  0.00     0.011 A 
ATOM      4  C6  ZIN A   1      17.883  -0.762  12.037  0.00  0.00    -0.046 A 
ATOM      5  C7  ZIN A   1      17.461   0.237  13.065  0.00  0.00     0.075 C 
ATOM      6  C8  ZIN A   1      18.323   1.488  13.081  0.00  0.00     0.227 C 
ATOM      7  N10 ZIN A   1      19.449   1.327  14.009  0.00  0.00    -0.067 N 
ATOM      8  H11 ZIN A   1      19.963   2.195  14.060  0.00  0.00     0.280 HD
ATOM      9  C12 ZIN A   1      18.932   0.994  15.342  0.00  0.00     0.270 C 
ATOM     10  C13 ZIN A   1      20.349   0.260  13.562  0.00  0.00     0.236 C 
ATOM     11  C14 ZIN A   1      20.928   0.603  12.184  0.00  0.00     0.048 C 
ATOM     12  C15 ZIN A   1      19.766   0.794  11.211  0.00  0.00     0.058 C 
ATOM     13  C16 ZIN A   1      18.921  -0.455  11.185  0.00  0.00    -0.001 A 
ATOM     14  C17 ZIN A   1      19.305  -1.202  10.083  0.00  0.00     0.111 A 
ATOM     15  O18 ZIN A   1      20.251  -0.545   9.378  0.00  0.00    -0.334 OA
ATOM     16  C19 ZIN A   1      20.234   0.864   9.764  0.00  0.00     0.214 C 
ATOM     17  C21 ZIN A   1      19.261   1.561   8.859  0.00  0.00     0.157 C 
ATOM     18  O22 ZIN A   1      19.282   1.296   7.682  0.00  0.00    -0.295 OA
ATOM     19  C23 ZIN A   1      18.266   2.570   9.347  0.00  0.00     0.084 C 
ATOM     20  C24 ZIN A   1      17.677   2.117  10.684  0.00  0.00     0.048 C 
ATOM     21  C25 ZIN A   1      18.874   1.893  11.711  0.00  0.00     0.102 C 
ENDROOT
BRANCH   1  22
ATOM     22  O2  ZIN A   1      19.004  -3.233   8.823  0.00  0.00    -0.353 OA
ATOM     23  C1  ZIN A   1      18.426  -2.925   7.552  0.00  0.00     0.210 C 
ENDBRANCH   1  22
BRANCH  21  24
ATOM     24  O26 ZIN A   1      19.623   3.101  11.842  0.00  0.00    -0.386 OA
ATOM     25  H45 ZIN A   1      19.163   3.887  11.520  0.00  0.00     0.210 HD
ENDBRANCH  21  24
TORSDOF 2
ENDMDL
MODEL 3
REMARK VINA RESULT:      -7.1      2.416      4.989
REMARK  2 active torsions:
REMARK  status: ('A' for Active; 'I' for Inactive)
REMARK    1  A    between atoms: O2_2  and  C3_3 
REMARK    2  A    between atoms: C25_23  and  O26_24 
ROOT
ATOM      1  C3  ZIN A   1      18.199  -0.117   7.078  0.00  0.00     0.102 A 
ATOM      2  C4  ZIN A   1      18.883   1.089   6.942  0.00  0.00     0.040 A 
ATOM      3  C5  ZIN A   1      19.374   1.810   8.018  0.00  0.00     0.011 A 
ATOM      4  C6  ZIN A   1      19.183   1.351   9.309  0.00  0.00    -0.046 A 
ATOM      5  C7  ZIN A   1      19.767   1.977  10.534  0.00  0.00     0.075 C 
ATOM      6  C8  ZIN A   1      19.378   1.269  11.820  0.00  0.00     0.227 C 
ATOM      7  N10 ZIN A   1      18.147   1.843  12.374  0.00  0.00    -0.067 N 
ATOM      8  H11 ZIN A   1      17.949   1.409  13.263  0.00  0.00     0.280 HD
ATOM      9  C12 ZIN A   1      18.333   3.286  12.572  0.00  0.00     0.270 C 
ATOM     10  C13 ZIN A   1      17.013   1.624  11.470  0.00  0.00     0.236 C 
ATOM     11  C14 ZIN A   1      16.778   0.122  11.275  0.00  0.00     0.048 C 
ATOM     12  C15 ZIN A   1      18.059  -0.494  10.717  0.00  0.00     0.058 C 
ATOM     13  C16 ZIN A   1      18.435   0.201   9.433  0.00  0.00    -0.001 A 
ATOM     14  C17 ZIN A   1      17.980  -0.579   8.382  0.00  0.00     0.111 A 
ATOM     15  O18 ZIN A   1      17.414  -1.713   8.850  0.00  0.00    -0.334 OA
ATOM     16  C19 ZIN A   1      17.846  -1.921  10.230  0.00  0.00     0.214 C 
ATOM     17  C21 ZIN A   1      19.111  -2.726  10.183  0.00  0.00     0.157 C 
ATOM     18  O22 ZIN A   1      19.167  -3.663   9.424  0.00  0.00    -0.295 OA
ATOM     19  C23 ZIN A   1      20.308  -2.424  11.033  0.00  0.00     0.084 C 
ATOM     20  C24 ZIN A   1      20.521  -0.911  11.113  0.00  0.00     0.048 C 
ATOM     21  C25 ZIN A   1      19.189  -0.244  11.674  0.00  0.00     0.102 C 
ENDROOT
BRANCH   1  22
ATOM     22  O2  ZIN A   1      17.757  -0.810   5.995  0.00  0.00    -0.353 OA
ATOM     23  C1  ZIN A   1      18.340  -0.479   4.732  0.00  0.00     0.210 C 
ENDBRANCH   1  22
BRANCH  21  24
ATOM     24  O26 ZIN A   1      18.875  -0.804  12.949  0.00  0.00    -0.386 OA
ATOM     25  H45 ZIN A   1      18.097  -0.414  13.370  0.00  0.00     0.210 HD
ENDBRANCH  21  24
TORSDOF 2
ENDMDL
MODEL 4
REMARK VINA RESULT:      -7.0      2.459      5.170
REMARK  2 active torsions:
REMARK  status: ('A' for Active; 'I' for Inactive)
REMARK    1  A    between atoms: O2_2  and  C3_3 
REMARK    2  A    between atoms: C25_23  and  O26_24 
ROOT
ATOM      1  C3  ZIN A   1      17.400  -3.899  10.824  0.00  0.00     0.102 A 
ATOM      2  C4  ZIN A   1      17.957  -4.523   9.710  0.00  0.00     0.040 A 
ATOM      3  C5  ZIN A   1      18.649  -3.841   8.723  0.00  0.00     0.011 A 
ATOM      4  C6  ZIN A   1      18.803  -2.468   8.802  0.00  0.00    -0.046 A 
ATOM      5  C7  ZIN A   1      19.627  -1.646   7.866  0.00  0.00     0.075 C 
ATOM      6  C8  ZIN A   1      19.603  -0.161   8.185  0.00  0.00     0.227 C 
ATOM      7  N10 ZIN A   1      18.510   0.504   7.468  0.00  0.00    -0.067 N 
ATOM      8  H11 ZIN A   1      18.560   1.499   7.635  0.00  0.00     0.280 HD
ATOM      9  C12 ZIN A   1      18.651   0.250   6.028  0.00  0.00     0.270 C 
ATOM     10  C13 ZIN A   1      17.207   0.006   7.918  0.00  0.00     0.236 C 
ATOM     11  C14 ZIN A   1      17.022   0.291   9.413  0.00  0.00     0.048 C 
ATOM     12  C15 ZIN A   1      18.166  -0.378  10.172  0.00  0.00     0.058 C 
ATOM     13  C16 ZIN A   1      18.178  -1.855   9.865  0.00  0.00    -0.001 A 
ATOM     14  C17 ZIN A   1      17.530  -2.507  10.903  0.00  0.00     0.111 A 
ATOM     15  O18 ZIN A   1      17.164  -1.623  11.856  0.00  0.00    -0.334 OA
ATOM     16  C19 ZIN A   1      17.928  -0.390  11.676  0.00  0.00     0.214 C 
ATOM     17  C21 ZIN A   1      19.190  -0.530  12.475  0.00  0.00     0.157 C 
ATOM     18  O22 ZIN A   1      19.117  -0.995  13.587  0.00  0.00    -0.295 OA
ATOM     19  C23 ZIN A   1      20.537  -0.120  11.959  0.00  0.00     0.084 C 
ATOM     20  C24 ZIN A   1      20.671  -0.510  10.486  0.00  0.00     0.048 C 
ATOM     21  C25 ZIN A   1      19.476   0.162   9.676  0.00  0.00     0.102 C 
ENDROOT
BRANCH   1  22
ATOM     22  O2  ZIN A   1      16.753  -4.608  11.787  0.00  0.00    -0.353 OA
ATOM     23  C1  ZIN A   1      17.377  -5.814  12.233  0.00  0.00     0.210 C 
ENDBRANCH   1  22
BRANCH  21  24
ATOM     24  O26 ZIN A   1      19.514   1.578   9.857  0.00  0.00    -0.386 OA
ATOM     25  H45 ZIN A   1      18.642   1.994   9.888  0.00  0.00     0.210 HD
ENDBRANCH  21  24
TORSDOF 2
ENDMDL
MODEL 5
REMARK VINA RESULT:      -7.0      1.986      4.212
REMARK  2 active torsions:
REMARK  status: ('A' for Active; 'I' for Inactive)
REMARK    1  A    between atoms: O2_2  and  C3_3 
REMARK    2  A    between atoms: C25_23  and  O26_24 
ROOT
ATOM      1  C3  ZIN A   1      18.254   0.322  16.005  0.00  0.00     0.102 A 
ATOM      2  C4  ZIN A   1      18.956  -0.871  16.160  0.00  0.00     0.040 A 
ATOM      3  C5  ZIN A   1      19.434  -1.616  15.094  0.00  0.00     0.011 A 
ATOM      4  C6  ZIN A   1      19.209  -1.196  13.796  0.00  0.00    -0.046 A 
ATOM      5  C7  ZIN A   1      19.776  -1.849  12.577  0.00  0.00     0.075 C 
ATOM      6  C8  ZIN A   1      19.350  -1.182  11.280  0.00  0.00     0.227 C 
ATOM      7  N10 ZIN A   1      18.115  -1.786  10.769  0.00  0.00    -0.067 N 
ATOM      8  H11 ZIN A   1      17.893  -1.380   9.872  0.00  0.00     0.280 HD
ATOM      9  C12 ZIN A   1      18.316  -3.232  10.607  0.00  0.00     0.270 C 
ATOM     10  C13 ZIN A   1      16.998  -1.556  11.690  0.00  0.00     0.236 C 
ATOM     11  C14 ZIN A   1      16.748  -0.051  11.848  0.00  0.00     0.048 C 
ATOM     12  C15 ZIN A   1      18.033   0.595  12.361  0.00  0.00     0.058 C 
ATOM     13  C16 ZIN A   1      18.445  -0.059  13.656  0.00  0.00    -0.001 A 
ATOM     14  C17 ZIN A   1      18.002   0.745  14.694  0.00  0.00     0.111 A 
ATOM     15  O18 ZIN A   1      17.413   1.858  14.207  0.00  0.00    -0.334 OA
ATOM     16  C19 ZIN A   1      17.813   2.032  12.812  0.00  0.00     0.214 C 
ATOM     17  C21 ZIN A   1      19.068   2.854  12.810  0.00  0.00     0.157 C 
ATOM     18  O22 ZIN A   1      19.128   3.813  13.541  0.00  0.00    -0.295 OA
ATOM     19  C23 ZIN A   1      20.250   2.542  11.944  0.00  0.00     0.084 C 
ATOM     20  C24 ZIN A   1      20.481   1.030  11.901  0.00  0.00     0.048 C 
ATOM     21  C25 ZIN A   1      19.146   0.332  11.388  0.00  0.00     0.102 C 
ENDROOT
BRANCH   1  22
ATOM     22  O2  ZIN A   1      17.827   1.040  17.078  0.00  0.00    -0.353 OA
ATOM     23  C1  ZIN A   1      18.782   1.290  18.113  0.00  0.00     0.210 C 
ENDBRANCH   1  22
BRANCH  21  24
ATOM     24  O26 ZIN A   1      18.797   0.852  10.104  0.00  0.00    -0.386 OA
ATOM     25  H45 ZIN A   1      18.932   1.805  10.016  0.00  0.00     0.210 HD
ENDBRANCH  21  24
TORSDOF 2
ENDMDL
MODEL 6
REMARK VINA RESULT:      -7.0      2.743      6.126
REMARK  2 active torsions:
REMARK  status: ('A' for Active; 'I' for Inactive)
REMARK    1  A    between atoms: O2_2  and  C3_3 
REMARK    2  A    between atoms: C25_23  and  O26_24 
ROOT
ATOM      1  C3  ZIN A   1      18.433  -4.347   9.739  0.00  0.00     0.102 A 
ATOM      2  C4  ZIN A   1      17.678  -4.313  10.909  0.00  0.00     0.040 A 
ATOM      3  C5  ZIN A   1      17.376  -3.142  11.585  0.00  0.00     0.011 A 
ATOM      4  C6  ZIN A   1      17.843  -1.927  11.116  0.00  0.00    -0.046 A 
ATOM      5  C7  ZIN A   1      17.484  -0.595  11.690  0.00  0.00     0.075 C 
ATOM      6  C8  ZIN A   1      18.156   0.569  10.983  0.00  0.00     0.227 C 
ATOM      7  N10 ZIN A   1      19.443   0.883  11.612  0.00  0.00    -0.067 N 
ATOM      8  H11 ZIN A   1      19.835   1.705  11.175  0.00  0.00     0.280 HD
ATOM      9  C12 ZIN A   1      19.230   1.153  13.040  0.00  0.00     0.270 C 
ATOM     10  C13 ZIN A   1      20.383  -0.232  11.469  0.00  0.00     0.236 C 
ATOM     11  C14 ZIN A   1      20.648  -0.510   9.984  0.00  0.00     0.048 C 
ATOM     12  C15 ZIN A   1      19.313  -0.819   9.310  0.00  0.00     0.058 C 
ATOM     13  C16 ZIN A   1      18.655  -1.985  10.006  0.00  0.00    -0.001 A 
ATOM     14  C17 ZIN A   1      18.930  -3.125   9.268  0.00  0.00     0.111 A 
ATOM     15  O18 ZIN A   1      19.632  -2.809   8.159  0.00  0.00    -0.334 OA
ATOM     16  C19 ZIN A   1      19.494  -1.376   7.905  0.00  0.00     0.214 C 
ATOM     17  C21 ZIN A   1      18.286  -1.193   7.035  0.00  0.00     0.157 C 
ATOM     18  O22 ZIN A   1      18.126  -1.951   6.108  0.00  0.00    -0.295 OA
ATOM     19  C23 ZIN A   1      17.269  -0.116   7.259  0.00  0.00     0.084 C 
ATOM     20  C24 ZIN A   1      17.002   0.045   8.757  0.00  0.00     0.048 C 
ATOM     21  C25 ZIN A   1      18.386   0.349   9.485  0.00  0.00     0.102 C 
ENDROOT
BRANCH   1  22
ATOM     22  O2  ZIN A   1      18.684  -5.514   9.088  0.00  0.00    -0.353 OA
ATOM     23  C1  ZIN A   1      20.019  -6.021   9.155  0.00  0.00     0.210 C 
ENDBRANCH   1  22
BRANCH  21  24
ATOM     24  O26 ZIN A   1      18.974   1.521   8.921  0.00  0.00    -0.386 OA
ATOM     25  H45 ZIN A   1      18.671   2.346   9.323  0.00  0.00     0.210 HD
ENDBRANCH  21  24
TORSDOF 2
ENDMDL
MODEL 7
REMARK VINA RESULT:      -6.8      1.732      4.101
REMARK  2 active torsions:
REMARK  status: ('A' for Active; 'I' for Inactive)
REMARK    1  A    between atoms: O2_2  and  C3_3 
REMARK    2  A    between atoms: C25_23  and  O26_24 
ROOT
ATOM      1  C3  ZIN A   1      18.054  -0.613  14.437  0.00  0.00     0.102 A 
ATOM      2  C4  ZIN A   1      18.967  -1.646  14.239  0.00  0.00     0.040 A 
ATOM      3  C5  ZIN A   1      19.674  -1.819  13.060  0.00  0.00     0.011 A 
ATOM      4  C6  ZIN A   1      19.480  -0.954  11.998  0.00  0.00    -0.046 A 
ATOM      5  C7  ZIN A   1      20.269  -0.970  10.729  0.00  0.00     0.075 C 
ATOM      6  C8  ZIN A   1      19.829   0.087   9.731  0.00  0.00     0.227 C 
ATOM      7  N10 ZIN A   1      18.789  -0.443   8.841  0.00  0.00    -0.067 N 
ATOM      8  H11 ZIN A   1      18.567   0.250   8.141  0.00  0.00     0.280 HD
ATOM      9  C12 ZIN A   1      19.291  -1.655   8.179  0.00  0.00     0.270 C 
ATOM     10  C13 ZIN A   1      17.575  -0.774   9.592  0.00  0.00     0.236 C 
ATOM     11  C14 ZIN A   1      17.013   0.484  10.266  0.00  0.00     0.048 C 
ATOM     12  C15 ZIN A   1      18.092   1.059  11.180  0.00  0.00     0.058 C 
ATOM     13  C16 ZIN A   1      18.516   0.012  12.180  0.00  0.00    -0.001 A 
ATOM     14  C17 ZIN A   1      17.833   0.255  13.361  0.00  0.00     0.111 A 
ATOM     15  O18 ZIN A   1      17.074   1.366  13.244  0.00  0.00    -0.334 OA
ATOM     16  C19 ZIN A   1      17.547   2.143  12.100  0.00  0.00     0.214 C 
ATOM     17  C21 ZIN A   1      18.606   3.078  12.606  0.00  0.00     0.157 C 
ATOM     18  O22 ZIN A   1      18.408   3.661  13.645  0.00  0.00    -0.295 OA
ATOM     19  C23 ZIN A   1      19.896   3.324  11.884  0.00  0.00     0.084 C 
ATOM     20  C24 ZIN A   1      20.431   2.010  11.311  0.00  0.00     0.048 C 
ATOM     21  C25 ZIN A   1      19.313   1.380  10.368  0.00  0.00     0.102 C 
ENDROOT
BRANCH   1  22
ATOM     22  O2  ZIN A   1      17.400  -0.459  15.620  0.00  0.00    -0.353 OA
ATOM     23  C1  ZIN A   1      18.013  -1.030  16.778  0.00  0.00     0.210 C 
ENDBRANCH   1  22
BRANCH  21  24
ATOM     24  O26 ZIN A   1      18.977   2.311   9.339  0.00  0.00    -0.386 OA
ATOM     25  H45 ZIN A   1      18.308   2.959   9.597  0.00  0.00     0.210 HD
ENDBRANCH  21  24
TORSDOF 2
ENDMDL
MODEL 8
REMARK VINA RESULT:      -6.8      2.327      5.251
REMARK  2 active torsions:
REMARK  status: ('A' for Active; 'I' for Inactive)
REMARK    1  A    between atoms: O2_2  and  C3_3 
REMARK    2  A    between atoms: C25_23  and  O26_24 
ROOT
ATOM      1  C3  ZIN A   1      19.607  -2.516  12.033  0.00  0.00     0.102 A 
ATOM      2  C4  ZIN A   1      18.584  -2.482  12.978  0.00  0.00     0.040 A 
ATOM      3  C5  ZIN A   1      17.759  -1.385  13.166  0.00  0.00     0.011 A 
ATOM      4  C6  ZIN A   1      17.939  -0.241  12.409  0.00  0.00    -0.046 A 
ATOM      5  C7  ZIN A   1      17.041   0.953  12.440  0.00  0.00     0.075 C 
ATOM      6  C8  ZIN A   1      17.489   2.071  11.514  0.00  0.00     0.227 C 
ATOM      7  N10 ZIN A   1      18.388   2.994  12.215  0.00  0.00    -0.067 N 
ATOM      8  H11 ZIN A   1      18.612   3.767  11.605  0.00  0.00     0.280 HD
ATOM      9  C12 ZIN A   1      17.712   3.507  13.415  0.00  0.00     0.270 C 
ATOM     10  C13 ZIN A   1      19.627   2.321  12.613  0.00  0.00     0.236 C 
ATOM     11  C14 ZIN A   1      20.367   1.806  11.372  0.00  0.00     0.048 C 
ATOM     12  C15 ZIN A   1      19.436   0.857  10.620  0.00  0.00     0.058 C 
ATOM     13  C16 ZIN A   1      19.005  -0.259  11.538  0.00  0.00    -0.001 A 
ATOM     14  C17 ZIN A   1      19.813  -1.355  11.277  0.00  0.00     0.111 A 
ATOM     15  O18 ZIN A   1      20.662  -1.081  10.264  0.00  0.00    -0.334 OA
ATOM     16  C19 ZIN A   1      20.165   0.081   9.532  0.00  0.00     0.214 C 
ATOM     17  C21 ZIN A   1      19.252  -0.429   8.455  0.00  0.00     0.157 C 
ATOM     18  O22 ZIN A   1      19.599  -1.395   7.819  0.00  0.00    -0.295 OA
ATOM     19  C23 ZIN A   1      17.932   0.202   8.132  0.00  0.00     0.084 C 
ATOM     20  C24 ZIN A   1      17.222   0.615   9.424  0.00  0.00     0.048 C 
ATOM     21  C25 ZIN A   1      18.184   1.590  10.236  0.00  0.00     0.102 C 
ENDROOT
BRANCH   1  22
ATOM     22  O2  ZIN A   1      20.377  -3.623  11.858  0.00  0.00    -0.353 OA
ATOM     23  C1  ZIN A   1      19.911  -4.594  10.917  0.00  0.00     0.210 C 
ENDBRANCH   1  22
BRANCH  21  24
ATOM     24  O26 ZIN A   1      18.514   2.719   9.426  0.00  0.00    -0.386 OA
ATOM     25  H45 ZIN A   1      18.110   2.706   8.548  0.00  0.00     0.210 HD
ENDBRANCH  21  24
TORSDOF 2
ENDMDL
MODEL 9
REMARK VINA RESULT:      -6.7      1.981      3.764
REMARK  2 active torsions:
REMARK  status: ('A' for Active; 'I' for Inactive)
REMARK    1  A    between atoms: O2_2  and  C3_3 
REMARK    2  A    between atoms: C25_23  and  O26_24 
ROOT
ATOM      1  C3  ZIN A   1      18.793   1.900  13.784  0.00  0.00     0.102 A 
ATOM      2  C4  ZIN A   1      19.832   1.052  14.158  0.00  0.00     0.040 A 
ATOM      3  C5  ZIN A   1      20.304   0.028  13.353  0.00  0.00     0.011 A 
ATOM      4  C6  ZIN A   1      19.730  -0.207  12.116  0.00  0.00    -0.046 A 
ATOM      5  C7  ZIN A   1      20.230  -1.199  11.117  0.00  0.00     0.075 C 
ATOM      6  C8  ZIN A   1      19.395  -1.254   9.849  0.00  0.00     0.227 C 
ATOM      7  N10 ZIN A   1      18.322  -2.246   9.980  0.00  0.00    -0.067 N 
ATOM      8  H11 ZIN A   1      17.829  -2.318   9.102  0.00  0.00     0.280 HD
ATOM      9  C12 ZIN A   1      18.909  -3.550  10.312  0.00  0.00     0.270 C 
ATOM     10  C13 ZIN A   1      17.377  -1.861  11.032  0.00  0.00     0.236 C 
ATOM     11  C14 ZIN A   1      16.726  -0.516  10.689  0.00  0.00     0.048 C 
ATOM     12  C15 ZIN A   1      17.833   0.524  10.530  0.00  0.00     0.058 C 
ATOM     13  C16 ZIN A   1      18.651   0.587  11.796  0.00  0.00    -0.001 A 
ATOM     14  C17 ZIN A   1      18.189   1.658  12.544  0.00  0.00     0.111 A 
ATOM     15  O18 ZIN A   1      17.218   2.313  11.874  0.00  0.00    -0.334 OA
ATOM     16  C19 ZIN A   1      17.284   1.942  10.462  0.00  0.00     0.214 C 
ATOM     17  C21 ZIN A   1      18.217   2.908   9.792  0.00  0.00     0.157 C 
ATOM     18  O22 ZIN A   1      18.123   4.080  10.067  0.00  0.00    -0.295 OA
ATOM     19  C23 ZIN A   1      19.258   2.488   8.799  0.00  0.00     0.084 C 
ATOM     20  C24 ZIN A   1      19.914   1.183   9.253  0.00  0.00     0.048 C 
ATOM     21  C25 ZIN A   1      18.775   0.087   9.445  0.00  0.00     0.102 C 
ENDROOT
BRANCH   1  22
ATOM     22  O2  ZIN A   1      18.377   2.914  14.590  0.00  0.00    -0.353 OA
ATOM     23  C1  ZIN A   1      19.114   3.125  15.797  0.00  0.00     0.210 C 
ENDBRANCH   1  22
BRANCH  21  24
ATOM     24  O26 ZIN A   1      18.058  -0.076   8.221  0.00  0.00    -0.386 OA
ATOM     25  H45 ZIN A   1      17.099   0.005   8.312  0.00  0.00     0.210 HD
ENDBRANCH  21  24
TORSDOF 2
ENDMDL
