MODEL 1
REMARK VINA RESULT:      -8.0      0.000      0.000
REMARK  13 active torsions:
REMARK  status: ('A' for Active; 'I' for Inactive)
REMARK    1  A    between atoms: O2_2  and  C3_3 
REMARK    2  A    between atoms: C3_3  and  C5_5 
REMARK    3  A    between atoms: C5_5  and  C6_6 
REMARK    4  A    between atoms: C6_6  and  O7_7 
REMARK    5  A    between atoms: C6_6  and  C8_8 
REMARK    6  A    between atoms: C6_6  and  C15_15 
REMARK    7  A    between atoms: C8_8  and  C9_9 
REMARK    8  A    between atoms: C9_9  and  C10_10 
REMARK    9  A    between atoms: C10_10  and  C11_11 
REMARK   10  A    between atoms: C11_11  and  O14_14 
REMARK   11  A    between atoms: C15_15  and  O17_17 
REMARK   12  A    between atoms: O17_17  and  C18_18 
REMARK   13  A    between atoms: C20_19  and  O21_20 
ROOT
ATOM      1  C18 ZIN A   1      17.330   3.570  12.615  0.00  0.00     0.199 C 
ATOM      2  C20 ZIN A   1      17.054   4.783  11.710  0.00  0.00     0.074 C 
ATOM      3  C23 ZIN A   1      16.995   5.903  12.446  0.00  0.00     0.048 C 
ATOM      4  C24 ZIN A   1      17.147   5.495  13.885  0.00  0.00     0.158 C 
ATOM      5  C25 ZIN A   1      15.718   5.358  14.438  0.00  0.00     0.046 C 
ATOM      6  C26 ZIN A   1      15.423   6.827  14.879  0.00  0.00     0.030 C 
ATOM      7  C27 ZIN A   1      16.793   7.566  14.711  0.00  0.00     0.236 C 
ATOM      8  N28 ZIN A   1      17.726   6.419  14.879  0.00  0.00    -0.058 N 
ATOM      9  H29 ZIN A   1      17.640   6.034  15.807  0.00  0.00     0.281 HD
ATOM     10  C30 ZIN A   1      19.131   6.639  14.550  0.00  0.00     0.241 C 
ATOM     11  C31 ZIN A   1      19.967   5.700  15.397  0.00  0.00     0.067 C 
ATOM     12  C32 ZIN A   1      19.437   4.349  15.743  0.00  0.00    -0.047 A 
ATOM     13  C33 ZIN A   1      19.957   3.760  16.904  0.00  0.00     0.047 A 
ATOM     14  C34 ZIN A   1      19.482   2.520  17.288  0.00  0.00     0.105 A 
ATOM     15  C35 ZIN A   1      18.498   1.858  16.539  0.00  0.00     0.105 A 
ATOM     16  C36 ZIN A   1      17.988   2.433  15.387  0.00  0.00     0.048 A 
ATOM     17  C37 ZIN A   1      18.483   3.674  14.998  0.00  0.00    -0.039 A 
ATOM     18  C38 ZIN A   1      18.027   4.282  13.767  0.00  0.00     0.095 C 
ATOM     19  O40 ZIN A   1      18.212   0.680  17.135  0.00  0.00    -0.323 OA
ATOM     20  C41 ZIN A   1      19.308   0.432  18.040  0.00  0.00     0.352 C 
ATOM     21  O42 ZIN A   1      19.812   1.747  18.349  0.00  0.00    -0.323 OA
ENDROOT
BRANCH   1  22
ATOM     22  O17 ZIN A   1      18.213   2.615  11.968  0.00  0.00    -0.306 OA
BRANCH  22  23
ATOM     23  C15 ZIN A   1      17.650   1.497  11.484  0.00  0.00     0.294 C 
ATOM     24  O16 ZIN A   1      16.679   1.025  12.027  0.00  0.00    -0.262 OA
BRANCH  23  25
ATOM     25  C6  ZIN A   1      18.229   0.829  10.265  0.00  0.00     0.154 C 
BRANCH  25  26
ATOM     26  C5  ZIN A   1      19.426  -0.032  10.676  0.00  0.00     0.159 C 
BRANCH  26  27
ATOM     27  C3  ZIN A   1      19.009  -1.480  10.728  0.00  0.00     0.261 C 
ATOM     28  O4  ZIN A   1      19.265  -2.217   9.806  0.00  0.00    -0.265 OA
BRANCH  27  29
ATOM     29  O2  ZIN A   1      18.354  -1.951  11.801  0.00  0.00    -0.326 OA
ATOM     30  C1  ZIN A   1      18.939  -1.679  13.102  0.00  0.00     0.213 C 
ENDBRANCH  27  29
ENDBRANCH  26  27
ENDBRANCH  25  26
BRANCH  25  31
ATOM     31  O7  ZIN A   1      17.235   0.002   9.657  0.00  0.00    -0.379 OA
ATOM     32  H48 ZIN A   1      16.916  -0.712  10.224  0.00  0.00     0.211 HD
ENDBRANCH  25  31
BRANCH  25  33
ATOM     33  C8  ZIN A   1      18.686   1.894   9.267  0.00  0.00     0.049 C 
BRANCH  33  34
ATOM     34  C9  ZIN A   1      19.607   1.255   8.225  0.00  0.00     0.006 C 
BRANCH  34  35
ATOM     35  C10 ZIN A   1      18.978   1.390   6.837  0.00  0.00     0.037 C 
BRANCH  35  36
ATOM     36  C11 ZIN A   1      18.619   0.002   6.303  0.00  0.00     0.051 C 
ATOM     37  C12 ZIN A   1      17.103  -0.096   6.118  0.00  0.00     0.045 C 
ATOM     38  C13 ZIN A   1      19.312  -0.222   4.958  0.00  0.00     0.045 C 
BRANCH  36  39
ATOM     39  O14 ZIN A   1      19.051  -0.993   7.233  0.00  0.00    -0.391 OA
ATOM     40  H61 ZIN A   1      19.888  -0.784   7.672  0.00  0.00     0.210 HD
ENDBRANCH  36  39
ENDBRANCH  35  36
ENDBRANCH  34  35
ENDBRANCH  33  34
ENDBRANCH  25  33
ENDBRANCH  23  25
ENDBRANCH  22  23
ENDBRANCH   1  22
BRANCH   2  41
ATOM     41  O21 ZIN A   1      16.893   4.727  10.364  0.00  0.00    -0.358 OA
ATOM     42  C22 ZIN A   1      17.936   5.286   9.562  0.00  0.00     0.209 C 
ENDBRANCH   2  41
TORSDOF 13
ENDMDL
MODEL 2
REMARK VINA RESULT:      -7.6      1.756      5.323
REMARK  13 active torsions:
REMARK  status: ('A' for Active; 'I' for Inactive)
REMARK    1  A    between atoms: O2_2  and  C3_3 
REMARK    2  A    between atoms: C3_3  and  C5_5 
REMARK    3  A    between atoms: C5_5  and  C6_6 
REMARK    4  A    between atoms: C6_6  and  O7_7 
REMARK    5  A    between atoms: C6_6  and  C8_8 
REMARK    6  A    between atoms: C6_6  and  C15_15 
REMARK    7  A    between atoms: C8_8  and  C9_9 
REMARK    8  A    between atoms: C9_9  and  C10_10 
REMARK    9  A    between atoms: C10_10  and  C11_11 
REMARK   10  A    between atoms: C11_11  and  O14_14 
REMARK   11  A    between atoms: C15_15  and  O17_17 
REMARK   12  A    between atoms: O17_17  and  C18_18 
REMARK   13  A    between atoms: C20_19  and  O21_20 
ROOT
ATOM      1  C18 ZIN A   1      18.540   1.988  14.985  0.00  0.00     0.199 C 
ATOM      2  C20 ZIN A   1      18.365   2.228  16.493  0.00  0.00     0.074 C 
ATOM      3  C23 ZIN A   1      18.357   3.544  16.753  0.00  0.00     0.048 C 
ATOM      4  C24 ZIN A   1      18.608   4.253  15.450  0.00  0.00     0.158 C 
ATOM      5  C25 ZIN A   1      20.121   4.527  15.403  0.00  0.00     0.046 C 
ATOM      6  C26 ZIN A   1      20.204   5.887  16.167  0.00  0.00     0.030 C 
ATOM      7  C27 ZIN A   1      18.712   6.313  16.369  0.00  0.00     0.236 C 
ATOM      8  N28 ZIN A   1      18.087   5.613  15.214  0.00  0.00    -0.058 N 
ATOM      9  H29 ZIN A   1      18.447   5.981  14.347  0.00  0.00     0.281 HD
ATOM     10  C30 ZIN A   1      16.629   5.554  15.171  0.00  0.00     0.241 C 
ATOM     11  C31 ZIN A   1      16.202   5.475  13.718  0.00  0.00     0.067 C 
ATOM     12  C32 ZIN A   1      17.054   4.740  12.738  0.00  0.00    -0.047 A 
ATOM     13  C33 ZIN A   1      16.928   5.128  11.397  0.00  0.00     0.047 A 
ATOM     14  C34 ZIN A   1      17.713   4.500  10.448  0.00  0.00     0.105 A 
ATOM     15  C35 ZIN A   1      18.622   3.495  10.812  0.00  0.00     0.105 A 
ATOM     16  C36 ZIN A   1      18.743   3.103  12.134  0.00  0.00     0.048 A 
ATOM     17  C37 ZIN A   1      17.938   3.729  13.081  0.00  0.00    -0.039 A 
ATOM     18  C38 ZIN A   1      17.984   3.306  14.464  0.00  0.00     0.095 C 
ATOM     19  O40 ZIN A   1      19.261   3.060   9.703  0.00  0.00    -0.323 OA
ATOM     20  C41 ZIN A   1      18.461   3.521   8.594  0.00  0.00     0.352 C 
ATOM     21  O42 ZIN A   1      17.784   4.685   9.109  0.00  0.00    -0.323 OA
ENDROOT
BRANCH   1  22
ATOM     22  O17 ZIN A   1      17.748   0.859  14.531  0.00  0.00    -0.306 OA
BRANCH  22  23
ATOM     23  C15 ZIN A   1      18.398  -0.295  14.315  0.00  0.00     0.294 C 
ATOM     24  O16 ZIN A   1      18.845  -0.920  15.249  0.00  0.00    -0.262 OA
BRANCH  23  25
ATOM     25  C6  ZIN A   1      18.572  -0.812  12.911  0.00  0.00     0.154 C 
BRANCH  25  26
ATOM     26  C5  ZIN A   1      17.198  -1.009  12.267  0.00  0.00     0.159 C 
BRANCH  26  27
ATOM     27  C3  ZIN A   1      17.129  -0.227  10.980  0.00  0.00     0.261 C 
ATOM     28  O4  ZIN A   1      16.563   0.839  10.950  0.00  0.00    -0.265 OA
BRANCH  27  29
ATOM     29  O2  ZIN A   1      17.699  -0.716   9.867  0.00  0.00    -0.326 OA
ATOM     30  C1  ZIN A   1      17.420  -0.020   8.624  0.00  0.00     0.213 C 
ENDBRANCH  27  29
ENDBRANCH  26  27
ENDBRANCH  25  26
BRANCH  25  31
ATOM     31  O7  ZIN A   1      19.325   0.132  12.146  0.00  0.00    -0.379 OA
ATOM     32  H48 ZIN A   1      18.838   0.935  11.923  0.00  0.00     0.211 HD
ENDBRANCH  25  31
BRANCH  25  33
ATOM     33  C8  ZIN A   1      19.316  -2.148  12.947  0.00  0.00     0.049 C 
BRANCH  33  34
ATOM     34  C9  ZIN A   1      18.473  -3.219  12.252  0.00  0.00     0.006 C 
BRANCH  34  35
ATOM     35  C10 ZIN A   1      19.390  -4.163  11.473  0.00  0.00     0.037 C 
BRANCH  35  36
ATOM     36  C11 ZIN A   1      19.013  -4.131   9.990  0.00  0.00     0.051 C 
ATOM     37  C12 ZIN A   1      19.620  -5.345   9.283  0.00  0.00     0.045 C 
ATOM     38  C13 ZIN A   1      17.490  -4.169   9.850  0.00  0.00     0.045 C 
BRANCH  36  39
ATOM     39  O14 ZIN A   1      19.516  -2.933   9.396  0.00  0.00    -0.391 OA
ATOM     40  H61 ZIN A   1      19.070  -2.128   9.696  0.00  0.00     0.210 HD
ENDBRANCH  36  39
ENDBRANCH  35  36
ENDBRANCH  34  35
ENDBRANCH  33  34
ENDBRANCH  25  33
ENDBRANCH  23  25
ENDBRANCH  22  23
ENDBRANCH   1  22
BRANCH   2  41
ATOM     41  O21 ZIN A   1      18.237   1.251  17.426  0.00  0.00    -0.358 OA
ATOM     42  C22 ZIN A   1      19.361   1.013  18.275  0.00  0.00     0.209 C 
ENDBRANCH   2  41
TORSDOF 13
ENDMDL
MODEL 3
REMARK VINA RESULT:      -7.3      3.889     10.216
REMARK  13 active torsions:
REMARK  status: ('A' for Active; 'I' for Inactive)
REMARK    1  A    between atoms: O2_2  and  C3_3 
REMARK    2  A    between atoms: C3_3  and  C5_5 
REMARK    3  A    between atoms: C5_5  and  C6_6 
REMARK    4  A    between atoms: C6_6  and  O7_7 
REMARK    5  A    between atoms: C6_6  and  C8_8 
REMARK    6  A    between atoms: C6_6  and  C15_15 
REMARK    7  A    between atoms: C8_8  and  C9_9 
REMARK    8  A    between atoms: C9_9  and  C10_10 
REMARK    9  A    between atoms: C10_10  and  C11_11 
REMARK   10  A    between atoms: C11_11  and  O14_14 
REMARK   11  A    between atoms: C15_15  and  O17_17 
REMARK   12  A    between atoms: O17_17  and  C18_18 
REMARK   13  A    between atoms: C20_19  and  O21_20 
ROOT
ATOM      1  C18 ZIN A   1      17.587  -3.356  10.164  0.00  0.00     0.199 C 
ATOM      2  C20 ZIN A   1      17.474  -4.632  11.016  0.00  0.00     0.074 C 
ATOM      3  C23 ZIN A   1      17.476  -5.716  10.225  0.00  0.00     0.048 C 
ATOM      4  C24 ZIN A   1      17.509  -5.226   8.804  0.00  0.00     0.158 C 
ATOM      5  C25 ZIN A   1      16.045  -5.198   8.333  0.00  0.00     0.046 C 
ATOM      6  C26 ZIN A   1      15.861  -6.665   7.831  0.00  0.00     0.030 C 
ATOM      7  C27 ZIN A   1      17.300  -7.279   7.888  0.00  0.00     0.236 C 
ATOM      8  N28 ZIN A   1      18.113  -6.042   7.734  0.00  0.00    -0.058 N 
ATOM      9  H29 ZIN A   1      17.941  -5.623   6.833  0.00  0.00     0.281 HD
ATOM     10  C30 ZIN A   1      19.549  -6.145   7.978  0.00  0.00     0.241 C 
ATOM     11  C31 ZIN A   1      20.246  -5.092   7.140  0.00  0.00     0.067 C 
ATOM     12  C32 ZIN A   1      19.576  -3.781   6.895  0.00  0.00    -0.047 A 
ATOM     13  C33 ZIN A   1      19.974  -3.091   5.741  0.00  0.00     0.047 A 
ATOM     14  C34 ZIN A   1      19.368  -1.884   5.449  0.00  0.00     0.105 A 
ATOM     15  C35 ZIN A   1      18.371  -1.354   6.282  0.00  0.00     0.105 A 
ATOM     16  C36 ZIN A   1      17.981  -2.029   7.427  0.00  0.00     0.048 A 
ATOM     17  C37 ZIN A   1      18.608  -3.236   7.723  0.00  0.00    -0.039 A 
ATOM     18  C38 ZIN A   1      18.279  -3.943   8.941  0.00  0.00     0.095 C 
ATOM     19  O40 ZIN A   1      17.945  -0.181   5.765  0.00  0.00    -0.323 OA
ATOM     20  C41 ZIN A   1      18.961   0.213   4.819  0.00  0.00     0.352 C 
ATOM     21  O42 ZIN A   1      19.566  -1.032   4.415  0.00  0.00    -0.323 OA
ENDROOT
BRANCH   1  22
ATOM     22  O17 ZIN A   1      18.413  -2.355  10.814  0.00  0.00    -0.306 OA
BRANCH  22  23
ATOM     23  C15 ZIN A   1      17.780  -1.309  11.369  0.00  0.00     0.294 C 
ATOM     24  O16 ZIN A   1      16.785  -0.859  10.849  0.00  0.00    -0.262 OA
BRANCH  23  25
ATOM     25  C6  ZIN A   1      18.308  -0.696  12.639  0.00  0.00     0.154 C 
BRANCH  25  26
ATOM     26  C5  ZIN A   1      19.472   0.241  12.306  0.00  0.00     0.159 C 
BRANCH  26  27
ATOM     27  C3  ZIN A   1      18.992   1.670  12.344  0.00  0.00     0.261 C 
ATOM     28  O4  ZIN A   1      19.215   2.357  13.312  0.00  0.00    -0.265 OA
BRANCH  27  29
ATOM     29  O2  ZIN A   1      18.319   2.180  11.301  0.00  0.00    -0.326 OA
ATOM     30  C1  ZIN A   1      19.048   2.327  10.054  0.00  0.00     0.213 C 
ENDBRANCH  27  29
ENDBRANCH  26  27
ENDBRANCH  25  26
BRANCH  25  31
ATOM     31  O7  ZIN A   1      17.267   0.046  13.279  0.00  0.00    -0.379 OA
ATOM     32  H48 ZIN A   1      17.434   0.997  13.326  0.00  0.00     0.211 HD
ENDBRANCH  25  31
BRANCH  25  33
ATOM     33  C8  ZIN A   1      18.796  -1.802  13.577  0.00  0.00     0.049 C 
BRANCH  33  34
ATOM     34  C9  ZIN A   1      19.653  -1.188  14.686  0.00  0.00     0.006 C 
BRANCH  34  35
ATOM     35  C10 ZIN A   1      19.020  -1.492  16.045  0.00  0.00     0.037 C 
BRANCH  35  36
ATOM     36  C11 ZIN A   1      18.529  -0.189  16.681  0.00  0.00     0.051 C 
ATOM     37  C12 ZIN A   1      17.011  -0.252  16.865  0.00  0.00     0.045 C 
ATOM     38  C13 ZIN A   1      19.200  -0.002  18.043  0.00  0.00     0.045 C 
BRANCH  36  39
ATOM     39  O14 ZIN A   1      18.860   0.911  15.832  0.00  0.00    -0.391 OA
ATOM     40  H61 ZIN A   1      19.736   1.288  16.001  0.00  0.00     0.210 HD
ENDBRANCH  36  39
ENDBRANCH  35  36
ENDBRANCH  34  35
ENDBRANCH  33  34
ENDBRANCH  25  33
ENDBRANCH  23  25
ENDBRANCH  22  23
ENDBRANCH   1  22
BRANCH   2  41
ATOM     41  O21 ZIN A   1      17.384  -4.657  12.369  0.00  0.00    -0.358 OA
ATOM     42  C22 ZIN A   1      17.373  -5.942  12.995  0.00  0.00     0.209 C 
ENDBRANCH   2  41
TORSDOF 13
ENDMDL
MODEL 4
REMARK VINA RESULT:      -7.2      3.797      9.602
REMARK  13 active torsions:
REMARK  status: ('A' for Active; 'I' for Inactive)
REMARK    1  A    between atoms: O2_2  and  C3_3 
REMARK    2  A    between atoms: C3_3  and  C5_5 
REMARK    3  A    between atoms: C5_5  and  C6_6 
REMARK    4  A    between atoms: C6_6  and  O7_7 
REMARK    5  A    between atoms: C6_6  and  C8_8 
REMARK    6  A    between atoms: C6_6  and  C15_15 
REMARK    7  A    between atoms: C8_8  and  C9_9 
REMARK    8  A    between atoms: C9_9  and  C10_10 
REMARK    9  A    between atoms: C10_10  and  C11_11 
REMARK   10  A    between atoms: C11_11  and  O14_14 
REMARK   11  A    between atoms: C15_15  and  O17_17 
REMARK   12  A    between atoms: O17_17  and  C18_18 
REMARK   13  A    between atoms: C20_19  and  O21_20 
ROOT
ATOM      1  C18 ZIN A   1      17.822  -3.227  10.136  0.00  0.00     0.199 C 
ATOM      2  C20 ZIN A   1      17.809  -4.515  10.976  0.00  0.00     0.074 C 
ATOM      3  C23 ZIN A   1      17.772  -5.589  10.172  0.00  0.00     0.048 C 
ATOM      4  C24 ZIN A   1      17.676  -5.081   8.759  0.00  0.00     0.158 C 
ATOM      5  C25 ZIN A   1      16.178  -5.082   8.411  0.00  0.00     0.046 C 
ATOM      6  C26 ZIN A   1      15.988  -6.547   7.904  0.00  0.00     0.030 C 
ATOM      7  C27 ZIN A   1      17.441  -7.127   7.835  0.00  0.00     0.236 C 
ATOM      8  N28 ZIN A   1      18.210  -5.869   7.632  0.00  0.00    -0.058 N 
ATOM      9  H29 ZIN A   1      17.955  -5.443   6.755  0.00  0.00     0.281 HD
ATOM     10  C30 ZIN A   1      19.662  -5.940   7.757  0.00  0.00     0.241 C 
ATOM     11  C31 ZIN A   1      20.265  -4.860   6.880  0.00  0.00     0.067 C 
ATOM     12  C32 ZIN A   1      19.547  -3.562   6.709  0.00  0.00    -0.047 A 
ATOM     13  C33 ZIN A   1      19.833  -2.849   5.537  0.00  0.00     0.047 A 
ATOM     14  C34 ZIN A   1      19.177  -1.653   5.313  0.00  0.00     0.105 A 
ATOM     15  C35 ZIN A   1      18.239  -1.158   6.232  0.00  0.00     0.105 A 
ATOM     16  C36 ZIN A   1      17.960  -1.857   7.394  0.00  0.00     0.048 A 
ATOM     17  C37 ZIN A   1      18.637  -3.051   7.621  0.00  0.00    -0.039 A 
ATOM     18  C38 ZIN A   1      18.426  -3.781   8.852  0.00  0.00     0.095 C 
ATOM     19  O40 ZIN A   1      17.746   0.011   5.768  0.00  0.00    -0.323 OA
ATOM     20  C41 ZIN A   1      18.671   0.441   4.748  0.00  0.00     0.352 C 
ATOM     21  O42 ZIN A   1      19.269  -0.784   4.278  0.00  0.00    -0.323 OA
ENDROOT
BRANCH   1  22
ATOM     22  O17 ZIN A   1      18.675  -2.213  10.731  0.00  0.00    -0.306 OA
BRANCH  22  23
ATOM     23  C15 ZIN A   1      18.135  -1.451  11.694  0.00  0.00     0.294 C 
ATOM     24  O16 ZIN A   1      16.989  -1.078  11.599  0.00  0.00    -0.262 OA
BRANCH  23  25
ATOM     25  C6  ZIN A   1      18.956  -1.059  12.894  0.00  0.00     0.154 C 
BRANCH  25  26
ATOM     26  C5  ZIN A   1      18.031  -0.541  13.997  0.00  0.00     0.159 C 
BRANCH  26  27
ATOM     27  C3  ZIN A   1      18.743  -0.612  15.324  0.00  0.00     0.261 C 
ATOM     28  O4  ZIN A   1      18.834  -1.667  15.906  0.00  0.00    -0.265 OA
BRANCH  27  29
ATOM     29  O2  ZIN A   1      19.278   0.496  15.860  0.00  0.00    -0.326 OA
ATOM     30  C1  ZIN A   1      18.410   1.312  16.690  0.00  0.00     0.213 C 
ENDBRANCH  27  29
ENDBRANCH  26  27
ENDBRANCH  25  26
BRANCH  25  31
ATOM     31  O7  ZIN A   1      19.676  -2.198  13.372  0.00  0.00    -0.379 OA
ATOM     32  H48 ZIN A   1      19.444  -2.461  14.272  0.00  0.00     0.211 HD
ENDBRANCH  25  31
BRANCH  25  33
ATOM     33  C8  ZIN A   1      19.945   0.040  12.500  0.00  0.00     0.049 C 
BRANCH  33  34
ATOM     34  C9  ZIN A   1      19.234   1.394  12.510  0.00  0.00     0.006 C 
BRANCH  34  35
ATOM     35  C10 ZIN A   1      19.514   2.126  11.196  0.00  0.00     0.037 C 
BRANCH  35  36
ATOM     36  C11 ZIN A   1      18.211   2.272  10.407  0.00  0.00     0.051 C 
ATOM     37  C12 ZIN A   1      18.030   3.733   9.987  0.00  0.00     0.045 C 
ATOM     38  C13 ZIN A   1      18.269   1.387   9.160  0.00  0.00     0.045 C 
BRANCH  36  39
ATOM     39  O14 ZIN A   1      17.110   1.872  11.224  0.00  0.00    -0.391 OA
ATOM     40  H61 ZIN A   1      16.276   2.311  11.005  0.00  0.00     0.210 HD
ENDBRANCH  36  39
ENDBRANCH  35  36
ENDBRANCH  34  35
ENDBRANCH  33  34
ENDBRANCH  25  33
ENDBRANCH  23  25
ENDBRANCH  22  23
ENDBRANCH   1  22
BRANCH   2  41
ATOM     41  O21 ZIN A   1      17.831  -4.559  12.331  0.00  0.00    -0.358 OA
ATOM     42  C22 ZIN A   1      17.417  -5.780  12.947  0.00  0.00     0.209 C 
ENDBRANCH   2  41
TORSDOF 13
ENDMDL
MODEL 5
REMARK VINA RESULT:      -7.1      3.037      7.836
REMARK  13 active torsions:
REMARK  status: ('A' for Active; 'I' for Inactive)
REMARK    1  A    between atoms: O2_2  and  C3_3 
REMARK    2  A    between atoms: C3_3  and  C5_5 
REMARK    3  A    between atoms: C5_5  and  C6_6 
REMARK    4  A    between atoms: C6_6  and  O7_7 
REMARK    5  A    between atoms: C6_6  and  C8_8 
REMARK    6  A    between atoms: C6_6  and  C15_15 
REMARK    7  A    between atoms: C8_8  and  C9_9 
REMARK    8  A    between atoms: C9_9  and  C10_10 
REMARK    9  A    between atoms: C10_10  and  C11_11 
REMARK   10  A    between atoms: C11_11  and  O14_14 
REMARK   11  A    between atoms: C15_15  and  O17_17 
REMARK   12  A    between atoms: O17_17  and  C18_18 
REMARK   13  A    between atoms: C20_19  and  O21_20 
ROOT
ATOM      1  C18 ZIN A   1      18.931   3.105  12.432  0.00  0.00     0.199 C 
ATOM      2  C20 ZIN A   1      18.822   2.985  10.903  0.00  0.00     0.074 C 
ATOM      3  C23 ZIN A   1      18.978   1.706  10.529  0.00  0.00     0.048 C 
ATOM      4  C24 ZIN A   1      19.280   0.915  11.772  0.00  0.00     0.158 C 
ATOM      5  C25 ZIN A   1      20.813   0.817  11.848  0.00  0.00     0.046 C 
ATOM      6  C26 ZIN A   1      21.078  -0.448  10.972  0.00  0.00     0.030 C 
ATOM      7  C27 ZIN A   1      19.652  -1.025  10.681  0.00  0.00     0.236 C 
ATOM      8  N28 ZIN A   1      18.920  -0.512  11.870  0.00  0.00    -0.058 N 
ATOM      9  H29 ZIN A   1      19.301  -0.912  12.713  0.00  0.00     0.281 HD
ATOM     10  C30 ZIN A   1      17.465  -0.628  11.868  0.00  0.00     0.241 C 
ATOM     11  C31 ZIN A   1      16.997  -0.733  13.306  0.00  0.00     0.067 C 
ATOM     12  C32 ZIN A   1      17.731   0.005  14.376  0.00  0.00    -0.047 A 
ATOM     13  C33 ZIN A   1      17.620  -0.516  15.672  0.00  0.00     0.047 A 
ATOM     14  C34 ZIN A   1      18.300   0.111  16.699  0.00  0.00     0.105 A 
ATOM     15  C35 ZIN A   1      19.091   1.244  16.457  0.00  0.00     0.105 A 
ATOM     16  C36 ZIN A   1      19.196   1.767  15.179  0.00  0.00     0.048 A 
ATOM     17  C37 ZIN A   1      18.495   1.140  14.154  0.00  0.00    -0.039 A 
ATOM     18  C38 ZIN A   1      18.524   1.689  12.816  0.00  0.00     0.095 C 
ATOM     19  O40 ZIN A   1      19.646   1.648  17.621  0.00  0.00    -0.323 OA
ATOM     20  C41 ZIN A   1      18.880   0.998  18.657  0.00  0.00     0.352 C 
ATOM     21  O42 ZIN A   1      18.360  -0.186  18.019  0.00  0.00    -0.323 OA
ENDROOT
BRANCH   1  22
ATOM     22  O17 ZIN A   1      17.997   4.087  12.955  0.00  0.00    -0.306 OA
BRANCH  22  23
ATOM     23  C15 ZIN A   1      18.502   5.046  13.747  0.00  0.00     0.294 C 
ATOM     24  O16 ZIN A   1      19.608   5.486  13.534  0.00  0.00    -0.262 OA
BRANCH  23  25
ATOM     25  C6  ZIN A   1      17.692   5.572  14.903  0.00  0.00     0.154 C 
BRANCH  25  26
ATOM     26  C5  ZIN A   1      16.692   6.612  14.393  0.00  0.00     0.159 C 
BRANCH  26  27
ATOM     27  C3  ZIN A   1      15.316   6.282  14.912  0.00  0.00     0.261 C 
ATOM     28  O4  ZIN A   1      14.526   5.703  14.205  0.00  0.00    -0.265 OA
BRANCH  27  29
ATOM     29  O2  ZIN A   1      14.968   6.631  16.161  0.00  0.00    -0.326 OA
ATOM     30  C1  ZIN A   1      14.816   8.049  16.431  0.00  0.00     0.213 C 
ENDBRANCH  27  29
ENDBRANCH  26  27
ENDBRANCH  25  26
BRANCH  25  31
ATOM     31  O7  ZIN A   1      16.985   4.494  15.520  0.00  0.00    -0.379 OA
ATOM     32  H48 ZIN A   1      16.443   3.979  14.909  0.00  0.00     0.211 HD
ENDBRANCH  25  31
BRANCH  25  33
ATOM     33  C8  ZIN A   1      18.625   6.222  15.927  0.00  0.00     0.049 C 
BRANCH  33  34
ATOM     34  C9  ZIN A   1      18.476   5.512  17.274  0.00  0.00     0.006 C 
BRANCH  34  35
ATOM     35  C10 ZIN A   1      17.648   6.383  18.220  0.00  0.00     0.037 C 
BRANCH  35  36
ATOM     36  C11 ZIN A   1      16.738   5.492  19.069  0.00  0.00     0.051 C 
ATOM     37  C12 ZIN A   1      17.572   4.388  19.722  0.00  0.00     0.045 C 
ATOM     38  C13 ZIN A   1      16.068   6.335  20.155  0.00  0.00     0.045 C 
BRANCH  36  39
ATOM     39  O14 ZIN A   1      15.736   4.904  18.237  0.00  0.00    -0.391 OA
ATOM     40  H61 ZIN A   1      15.594   3.960  18.400  0.00  0.00     0.210 HD
ENDBRANCH  36  39
ENDBRANCH  35  36
ENDBRANCH  34  35
ENDBRANCH  33  34
ENDBRANCH  25  33
ENDBRANCH  23  25
ENDBRANCH  22  23
ENDBRANCH   1  22
BRANCH   2  41
ATOM     41  O21 ZIN A   1      18.600   4.021  10.055  0.00  0.00    -0.358 OA
ATOM     42  C22 ZIN A   1      17.351   4.705  10.180  0.00  0.00     0.209 C 
ENDBRANCH   2  41
TORSDOF 13
ENDMDL
MODEL 6
REMARK VINA RESULT:      -7.1      1.191      2.921
REMARK  13 active torsions:
REMARK  status: ('A' for Active; 'I' for Inactive)
REMARK    1  A    between atoms: O2_2  and  C3_3 
REMARK    2  A    between atoms: C3_3  and  C5_5 
REMARK    3  A    between atoms: C5_5  and  C6_6 
REMARK    4  A    between atoms: C6_6  and  O7_7 
REMARK    5  A    between atoms: C6_6  and  C8_8 
REMARK    6  A    between atoms: C6_6  and  C15_15 
REMARK    7  A    between atoms: C8_8  and  C9_9 
REMARK    8  A    between atoms: C9_9  and  C10_10 
REMARK    9  A    between atoms: C10_10  and  C11_11 
REMARK   10  A    between atoms: C11_11  and  O14_14 
REMARK   11  A    between atoms: C15_15  and  O17_17 
REMARK   12  A    between atoms: O17_17  and  C18_18 
REMARK   13  A    between atoms: C20_19  and  O21_20 
ROOT
ATOM      1  C18 ZIN A   1      17.737   3.255  12.735  0.00  0.00     0.199 C 
ATOM      2  C20 ZIN A   1      17.650   4.447  11.767  0.00  0.00     0.074 C 
ATOM      3  C23 ZIN A   1      17.616   5.598  12.456  0.00  0.00     0.048 C 
ATOM      4  C24 ZIN A   1      17.596   5.240  13.916  0.00  0.00     0.158 C 
ATOM      5  C25 ZIN A   1      16.115   5.240  14.331  0.00  0.00     0.046 C 
ATOM      6  C26 ZIN A   1      15.904   6.745  14.691  0.00  0.00     0.030 C 
ATOM      7  C27 ZIN A   1      17.340   7.365  14.633  0.00  0.00     0.236 C 
ATOM      8  N28 ZIN A   1      18.154   6.155  14.930  0.00  0.00    -0.058 N 
ATOM      9  H29 ZIN A   1      17.950   5.817  15.857  0.00  0.00     0.281 HD
ATOM     10  C30 ZIN A   1      19.597   6.248  14.732  0.00  0.00     0.241 C 
ATOM     11  C31 ZIN A   1      20.268   5.282  15.688  0.00  0.00     0.067 C 
ATOM     12  C32 ZIN A   1      19.597   3.992  16.025  0.00  0.00    -0.047 A 
ATOM     13  C33 ZIN A   1      19.954   3.413  17.251  0.00  0.00     0.047 A 
ATOM     14  C34 ZIN A   1      19.344   2.231  17.628  0.00  0.00     0.105 A 
ATOM     15  C35 ZIN A   1      18.383   1.620  16.809  0.00  0.00     0.105 A 
ATOM     16  C36 ZIN A   1      18.033   2.185  15.594  0.00  0.00     0.048 A 
ATOM     17  C37 ZIN A   1      18.665   3.365  15.214  0.00  0.00    -0.039 A 
ATOM     18  C38 ZIN A   1      18.379   3.956  13.925  0.00  0.00     0.095 C 
ATOM     19  O40 ZIN A   1      17.944   0.494  17.414  0.00  0.00    -0.323 OA
ATOM     20  C41 ZIN A   1      18.925   0.197  18.430  0.00  0.00     0.352 C 
ATOM     21  O42 ZIN A   1      19.506   1.479  18.742  0.00  0.00    -0.323 OA
ENDROOT
BRANCH   1  22
ATOM     22  O17 ZIN A   1      18.594   2.207  12.210  0.00  0.00    -0.306 OA
BRANCH  22  23
ATOM     23  C15 ZIN A   1      18.034   1.330  11.362  0.00  0.00     0.294 C 
ATOM     24  O16 ZIN A   1      16.863   1.047  11.470  0.00  0.00    -0.262 OA
BRANCH  23  25
ATOM     25  C6  ZIN A   1      18.863   0.698  10.275  0.00  0.00     0.154 C 
BRANCH  25  26
ATOM     26  C5  ZIN A   1      17.954  -0.104   9.342  0.00  0.00     0.159 C 
BRANCH  26  27
ATOM     27  C3  ZIN A   1      18.581  -0.179   7.972  0.00  0.00     0.261 C 
ATOM     28  O4  ZIN A   1      19.484  -0.953   7.763  0.00  0.00    -0.265 OA
BRANCH  27  29
ATOM     29  O2  ZIN A   1      18.134   0.614   6.986  0.00  0.00    -0.326 OA
ATOM     30  C1  ZIN A   1      19.084   0.976   5.949  0.00  0.00     0.213 C 
ENDBRANCH  27  29
ENDBRANCH  26  27
ENDBRANCH  25  26
BRANCH  25  31
ATOM     31  O7  ZIN A   1      19.531   1.718   9.530  0.00  0.00    -0.379 OA
ATOM     32  H48 ZIN A   1      20.163   2.233  10.047  0.00  0.00     0.211 HD
ENDBRANCH  25  31
BRANCH  25  33
ATOM     33  C8  ZIN A   1      19.901  -0.236  10.902  0.00  0.00     0.049 C 
BRANCH  33  34
ATOM     34  C9  ZIN A   1      19.187  -1.381  11.623  0.00  0.00     0.006 C 
BRANCH  34  35
ATOM     35  C10 ZIN A   1      19.973  -2.678  11.423  0.00  0.00     0.037 C 
BRANCH  35  36
ATOM     36  C11 ZIN A   1      19.148  -3.650  10.577  0.00  0.00     0.051 C 
ATOM     37  C12 ZIN A   1      19.508  -5.088  10.955  0.00  0.00     0.045 C 
ATOM     38  C13 ZIN A   1      17.659  -3.413  10.837  0.00  0.00     0.045 C 
BRANCH  36  39
ATOM     39  O14 ZIN A   1      19.429  -3.436   9.193  0.00  0.00    -0.391 OA
ATOM     40  H61 ZIN A   1      18.647  -3.460   8.624  0.00  0.00     0.210 HD
ENDBRANCH  36  39
ENDBRANCH  35  36
ENDBRANCH  34  35
ENDBRANCH  33  34
ENDBRANCH  25  33
ENDBRANCH  23  25
ENDBRANCH  22  23
ENDBRANCH   1  22
BRANCH   2  41
ATOM     41  O21 ZIN A   1      17.613   4.349  10.415  0.00  0.00    -0.358 OA
ATOM     42  C22 ZIN A   1      17.326   5.544   9.685  0.00  0.00     0.209 C 
ENDBRANCH   2  41
TORSDOF 13
ENDMDL
MODEL 7
REMARK VINA RESULT:      -6.9      5.286     10.669
REMARK  13 active torsions:
REMARK  status: ('A' for Active; 'I' for Inactive)
REMARK    1  A    between atoms: O2_2  and  C3_3 
REMARK    2  A    between atoms: C3_3  and  C5_5 
REMARK    3  A    between atoms: C5_5  and  C6_6 
REMARK    4  A    between atoms: C6_6  and  O7_7 
REMARK    5  A    between atoms: C6_6  and  C8_8 
REMARK    6  A    between atoms: C6_6  and  C15_15 
REMARK    7  A    between atoms: C8_8  and  C9_9 
REMARK    8  A    between atoms: C9_9  and  C10_10 
REMARK    9  A    between atoms: C10_10  and  C11_11 
REMARK   10  A    between atoms: C11_11  and  O14_14 
REMARK   11  A    between atoms: C15_15  and  O17_17 
REMARK   12  A    between atoms: O17_17  and  C18_18 
REMARK   13  A    between atoms: C20_19  and  O21_20 
ROOT
ATOM      1  C18 ZIN A   1      17.645  -5.045   5.251  0.00  0.00     0.199 C 
ATOM      2  C20 ZIN A   1      16.769  -5.536   4.087  0.00  0.00     0.074 C 
ATOM      3  C23 ZIN A   1      16.047  -6.600   4.470  0.00  0.00     0.048 C 
ATOM      4  C24 ZIN A   1      16.458  -6.929   5.879  0.00  0.00     0.158 C 
ATOM      5  C25 ZIN A   1      17.536  -8.020   5.760  0.00  0.00     0.046 C 
ATOM      6  C26 ZIN A   1      16.655  -9.309   5.709  0.00  0.00     0.030 C 
ATOM      7  C27 ZIN A   1      15.205  -8.802   6.012  0.00  0.00     0.236 C 
ATOM      8  N28 ZIN A   1      15.520  -7.586   6.809  0.00  0.00    -0.058 N 
ATOM      9  H29 ZIN A   1      15.993  -7.841   7.662  0.00  0.00     0.281 HD
ATOM     10  C30 ZIN A   1      14.423  -6.666   7.094  0.00  0.00     0.241 C 
ATOM     11  C31 ZIN A   1      14.730  -5.956   8.398  0.00  0.00     0.067 C 
ATOM     12  C32 ZIN A   1      16.145  -5.635   8.748  0.00  0.00    -0.047 A 
ATOM     13  C33 ZIN A   1      16.425  -5.488  10.114  0.00  0.00     0.047 A 
ATOM     14  C34 ZIN A   1      17.724  -5.216  10.499  0.00  0.00     0.105 A 
ATOM     15  C35 ZIN A   1      18.749  -5.093   9.549  0.00  0.00     0.105 A 
ATOM     16  C36 ZIN A   1      18.475  -5.230   8.199  0.00  0.00     0.048 A 
ATOM     17  C37 ZIN A   1      17.161  -5.486   7.818  0.00  0.00    -0.039 A 
ATOM     18  C38 ZIN A   1      16.817  -5.572   6.415  0.00  0.00     0.095 C 
ATOM     19  O40 ZIN A   1      19.912  -4.839  10.189  0.00  0.00    -0.323 OA
ATOM     20  C41 ZIN A   1      19.535  -4.410  11.514  0.00  0.00     0.352 C 
ATOM     21  O42 ZIN A   1      18.252  -5.032  11.732  0.00  0.00    -0.323 OA
ENDROOT
BRANCH   1  22
ATOM     22  O17 ZIN A   1      17.735  -3.596   5.274  0.00  0.00    -0.306 OA
BRANCH  22  23
ATOM     23  C15 ZIN A   1      18.814  -3.062   5.867  0.00  0.00     0.294 C 
ATOM     24  O16 ZIN A   1      19.876  -3.637   5.822  0.00  0.00    -0.262 OA
BRANCH  23  25
ATOM     25  C6  ZIN A   1      18.701  -1.745   6.591  0.00  0.00     0.154 C 
BRANCH  25  26
ATOM     26  C5  ZIN A   1      19.437  -0.663   5.797  0.00  0.00     0.159 C 
BRANCH  26  27
ATOM     27  C3  ZIN A   1      18.919   0.694   6.200  0.00  0.00     0.261 C 
ATOM     28  O4  ZIN A   1      17.868   1.095   5.759  0.00  0.00    -0.265 OA
BRANCH  27  29
ATOM     29  O2  ZIN A   1      19.626   1.457   7.049  0.00  0.00    -0.326 OA
ATOM     30  C1  ZIN A   1      18.952   1.896   8.257  0.00  0.00     0.213 C 
ENDBRANCH  27  29
ENDBRANCH  26  27
ENDBRANCH  25  26
BRANCH  25  31
ATOM     31  O7  ZIN A   1      17.323  -1.388   6.719  0.00  0.00    -0.379 OA
ATOM     32  H48 ZIN A   1      16.710  -2.101   6.500  0.00  0.00     0.211 HD
ENDBRANCH  25  31
BRANCH  25  33
ATOM     33  C8  ZIN A   1      19.326  -1.871   7.982  0.00  0.00     0.049 C 
BRANCH  33  34
ATOM     34  C9  ZIN A   1      18.250  -1.648   9.046  0.00  0.00     0.006 C 
BRANCH  34  35
ATOM     35  C10 ZIN A   1      18.909  -1.192  10.349  0.00  0.00     0.037 C 
BRANCH  35  36
ATOM     36  C11 ZIN A   1      17.831  -0.943  11.406  0.00  0.00     0.051 C 
ATOM     37  C12 ZIN A   1      18.494  -0.547  12.727  0.00  0.00     0.045 C 
ATOM     38  C13 ZIN A   1      16.911   0.187  10.938  0.00  0.00     0.045 C 
BRANCH  36  39
ATOM     39  O14 ZIN A   1      17.064  -2.133  11.595  0.00  0.00    -0.391 OA
ATOM     40  H61 ZIN A   1      17.468  -2.926  11.214  0.00  0.00     0.210 HD
ENDBRANCH  36  39
ENDBRANCH  35  36
ENDBRANCH  34  35
ENDBRANCH  33  34
ENDBRANCH  25  33
ENDBRANCH  23  25
ENDBRANCH  22  23
ENDBRANCH   1  22
BRANCH   2  41
ATOM     41  O21 ZIN A   1      16.732  -4.975   2.852  0.00  0.00    -0.358 OA
ATOM     42  C22 ZIN A   1      15.522  -4.313   2.476  0.00  0.00     0.209 C 
ENDBRANCH   2  41
TORSDOF 13
ENDMDL
MODEL 8
REMARK VINA RESULT:      -6.9      3.211      9.507
REMARK  13 active torsions:
REMARK  status: ('A' for Active; 'I' for Inactive)
REMARK    1  A    between atoms: O2_2  and  C3_3 
REMARK    2  A    between atoms: C3_3  and  C5_5 
REMARK    3  A    between atoms: C5_5  and  C6_6 
REMARK    4  A    between atoms: C6_6  and  O7_7 
REMARK    5  A    between atoms: C6_6  and  C8_8 
REMARK    6  A    between atoms: C6_6  and  C15_15 
REMARK    7  A    between atoms: C8_8  and  C9_9 
REMARK    8  A    between atoms: C9_9  and  C10_10 
REMARK    9  A    between atoms: C10_10  and  C11_11 
REMARK   10  A    between atoms: C11_11  and  O14_14 
REMARK   11  A    between atoms: C15_15  and  O17_17 
REMARK   12  A    between atoms: O17_17  and  C18_18 
REMARK   13  A    between atoms: C20_19  and  O21_20 
ROOT
ATOM      1  C18 ZIN A   1      19.175  -1.770  10.726  0.00  0.00     0.199 C 
ATOM      2  C20 ZIN A   1      19.350  -2.665  11.965  0.00  0.00     0.074 C 
ATOM      3  C23 ZIN A   1      18.951  -3.916  11.689  0.00  0.00     0.048 C 
ATOM      4  C24 ZIN A   1      18.415  -3.910  10.285  0.00  0.00     0.158 C 
ATOM      5  C25 ZIN A   1      16.894  -3.724  10.415  0.00  0.00     0.046 C 
ATOM      6  C26 ZIN A   1      16.423  -5.202  10.595  0.00  0.00     0.030 C 
ATOM      7  C27 ZIN A   1      17.711  -6.054  10.338  0.00  0.00     0.236 C 
ATOM      8  N28 ZIN A   1      18.460  -5.125   9.450  0.00  0.00    -0.058 N 
ATOM      9  H29 ZIN A   1      17.953  -4.980   8.591  0.00  0.00     0.281 HD
ATOM     10  C30 ZIN A   1      19.856  -5.445   9.165  0.00  0.00     0.241 C 
ATOM     11  C31 ZIN A   1      20.203  -4.874   7.804  0.00  0.00     0.067 C 
ATOM     12  C32 ZIN A   1      19.576  -3.594   7.359  0.00  0.00    -0.047 A 
ATOM     13  C33 ZIN A   1      19.496  -3.396   5.974  0.00  0.00     0.047 A 
ATOM     14  C34 ZIN A   1      18.900  -2.240   5.504  0.00  0.00     0.105 A 
ATOM     15  C35 ZIN A   1      18.381  -1.282   6.388  0.00  0.00     0.105 A 
ATOM     16  C36 ZIN A   1      18.466  -1.472   7.757  0.00  0.00     0.048 A 
ATOM     17  C37 ZIN A   1      19.082  -2.630   8.222  0.00  0.00    -0.039 A 
ATOM     18  C38 ZIN A   1      19.251  -2.838   9.644  0.00  0.00     0.095 C 
ATOM     19  O40 ZIN A   1      17.853  -0.265   5.672  0.00  0.00    -0.323 OA
ATOM     20  C41 ZIN A   1      18.400  -0.406   4.344  0.00  0.00     0.352 C 
ATOM     21  O42 ZIN A   1      18.699  -1.813   4.235  0.00  0.00    -0.323 OA
ENDROOT
BRANCH   1  22
ATOM     22  O17 ZIN A   1      20.260  -0.812  10.606  0.00  0.00    -0.306 OA
BRANCH  22  23
ATOM     23  C15 ZIN A   1      20.214   0.264  11.407  0.00  0.00     0.294 C 
ATOM     24  O16 ZIN A   1      21.143   0.512  12.140  0.00  0.00    -0.262 OA
BRANCH  23  25
ATOM     25  C6  ZIN A   1      19.005   1.162  11.395  0.00  0.00     0.154 C 
BRANCH  25  26
ATOM     26  C5  ZIN A   1      19.418   2.565  10.945  0.00  0.00     0.159 C 
BRANCH  26  27
ATOM     27  C3  ZIN A   1      18.361   3.131  10.031  0.00  0.00     0.261 C 
ATOM     28  O4  ZIN A   1      18.573   3.225   8.846  0.00  0.00    -0.265 OA
BRANCH  27  29
ATOM     29  O2  ZIN A   1      17.183   3.531  10.535  0.00  0.00    -0.326 OA
ATOM     30  C1  ZIN A   1      17.010   4.954  10.760  0.00  0.00     0.213 C 
ENDBRANCH  27  29
ENDBRANCH  26  27
ENDBRANCH  25  26
BRANCH  25  31
ATOM     31  O7  ZIN A   1      18.032   0.639  10.488  0.00  0.00    -0.379 OA
ATOM     32  H48 ZIN A   1      18.059  -0.322  10.394  0.00  0.00     0.211 HD
ENDBRANCH  25  31
BRANCH  25  33
ATOM     33  C8  ZIN A   1      18.406   1.233  12.801  0.00  0.00     0.049 C 
BRANCH  33  34
ATOM     34  C9  ZIN A   1      18.857   2.526  13.483  0.00  0.00     0.006 C 
BRANCH  34  35
ATOM     35  C10 ZIN A   1      18.331   2.554  14.919  0.00  0.00     0.037 C 
BRANCH  35  36
ATOM     36  C11 ZIN A   1      18.624   3.921  15.542  0.00  0.00     0.051 C 
ATOM     37  C12 ZIN A   1      19.755   3.784  16.563  0.00  0.00     0.045 C 
ATOM     38  C13 ZIN A   1      19.044   4.901  14.445  0.00  0.00     0.045 C 
BRANCH  36  39
ATOM     39  O14 ZIN A   1      17.451   4.410  16.194  0.00  0.00    -0.391 OA
ATOM     40  H61 ZIN A   1      16.815   3.719  16.429  0.00  0.00     0.210 HD
ENDBRANCH  36  39
ENDBRANCH  35  36
ENDBRANCH  34  35
ENDBRANCH  33  34
ENDBRANCH  25  33
ENDBRANCH  23  25
ENDBRANCH  22  23
ENDBRANCH   1  22
BRANCH   2  41
ATOM     41  O21 ZIN A   1      19.836  -2.249  13.162  0.00  0.00    -0.358 OA
ATOM     42  C22 ZIN A   1      18.880  -1.845  14.144  0.00  0.00     0.209 C 
ENDBRANCH   2  41
TORSDOF 13
ENDMDL
MODEL 9
REMARK VINA RESULT:      -6.6      2.864      7.574
REMARK  13 active torsions:
REMARK  status: ('A' for Active; 'I' for Inactive)
REMARK    1  A    between atoms: O2_2  and  C3_3 
REMARK    2  A    between atoms: C3_3  and  C5_5 
REMARK    3  A    between atoms: C5_5  and  C6_6 
REMARK    4  A    between atoms: C6_6  and  O7_7 
REMARK    5  A    between atoms: C6_6  and  C8_8 
REMARK    6  A    between atoms: C6_6  and  C15_15 
REMARK    7  A    between atoms: C8_8  and  C9_9 
REMARK    8  A    between atoms: C9_9  and  C10_10 
REMARK    9  A    between atoms: C10_10  and  C11_11 
REMARK   10  A    between atoms: C11_11  and  O14_14 
REMARK   11  A    between atoms: C15_15  and  O17_17 
REMARK   12  A    between atoms: O17_17  and  C18_18 
REMARK   13  A    between atoms: C20_19  and  O21_20 
ROOT
ATOM      1  C18 ZIN A   1      18.819   2.879  12.328  0.00  0.00     0.199 C 
ATOM      2  C20 ZIN A   1      18.703   2.665  10.809  0.00  0.00     0.074 C 
ATOM      3  C23 ZIN A   1      18.933   1.378  10.506  0.00  0.00     0.048 C 
ATOM      4  C24 ZIN A   1      19.294   0.680  11.789  0.00  0.00     0.158 C 
ATOM      5  C25 ZIN A   1      20.830   0.678  11.851  0.00  0.00     0.046 C 
ATOM      6  C26 ZIN A   1      21.163  -0.618  11.044  0.00  0.00     0.030 C 
ATOM      7  C27 ZIN A   1      19.772  -1.295  10.804  0.00  0.00     0.236 C 
ATOM      8  N28 ZIN A   1      19.021  -0.759  11.971  0.00  0.00    -0.058 N 
ATOM      9  H29 ZIN A   1      19.433  -1.087  12.831  0.00  0.00     0.281 HD
ATOM     10  C30 ZIN A   1      17.576  -0.962  11.994  0.00  0.00     0.241 C 
ATOM     11  C31 ZIN A   1      17.128  -1.012  13.441  0.00  0.00     0.067 C 
ATOM     12  C32 ZIN A   1      17.826  -0.171  14.459  0.00  0.00    -0.047 A 
ATOM     13  C33 ZIN A   1      17.758  -0.624  15.784  0.00  0.00     0.047 A 
ATOM     14  C34 ZIN A   1      18.409   0.100  16.765  0.00  0.00     0.105 A 
ATOM     15  C35 ZIN A   1      19.128   1.263  16.449  0.00  0.00     0.105 A 
ATOM     16  C36 ZIN A   1      19.190   1.717  15.143  0.00  0.00     0.048 A 
ATOM     17  C37 ZIN A   1      18.518   0.992  14.163  0.00  0.00    -0.039 A 
ATOM     18  C38 ZIN A   1      18.501   1.465  12.796  0.00  0.00     0.095 C 
ATOM     19  O40 ZIN A   1      19.668   1.765  17.582  0.00  0.00    -0.323 OA
ATOM     20  C41 ZIN A   1      18.953   1.131  18.662  0.00  0.00     0.352 C 
ATOM     21  O42 ZIN A   1      18.499  -0.116  18.098  0.00  0.00    -0.323 OA
ENDROOT
BRANCH   1  22
ATOM     22  O17 ZIN A   1      17.833   3.832  12.807  0.00  0.00    -0.306 OA
BRANCH  22  23
ATOM     23  C15 ZIN A   1      18.294   5.002  13.275  0.00  0.00     0.294 C 
ATOM     24  O16 ZIN A   1      19.305   5.480  12.816  0.00  0.00    -0.262 OA
BRANCH  23  25
ATOM     25  C6  ZIN A   1      17.552   5.719  14.372  0.00  0.00     0.154 C 
BRANCH  25  26
ATOM     26  C5  ZIN A   1      17.781   4.995  15.700  0.00  0.00     0.159 C 
BRANCH  26  27
ATOM     27  C3  ZIN A   1      18.970   5.600  16.403  0.00  0.00     0.261 C 
ATOM     28  O4  ZIN A   1      18.832   6.591  17.079  0.00  0.00    -0.265 OA
BRANCH  27  29
ATOM     29  O2  ZIN A   1      20.181   5.035  16.279  0.00  0.00    -0.326 OA
ATOM     30  C1  ZIN A   1      21.202   5.808  15.596  0.00  0.00     0.213 C 
ENDBRANCH  27  29
ENDBRANCH  26  27
ENDBRANCH  25  26
BRANCH  25  31
ATOM     31  O7  ZIN A   1      18.032   7.062  14.472  0.00  0.00    -0.379 OA
ATOM     32  H48 ZIN A   1      18.245   7.468  13.622  0.00  0.00     0.211 HD
ENDBRANCH  25  31
BRANCH  25  33
ATOM     33  C8  ZIN A   1      16.056   5.736  14.051  0.00  0.00     0.049 C 
BRANCH  33  34
ATOM     34  C9  ZIN A   1      15.264   6.026  15.328  0.00  0.00     0.006 C 
BRANCH  34  35
ATOM     35  C10 ZIN A   1      14.516   7.351  15.174  0.00  0.00     0.037 C 
BRANCH  35  36
ATOM     36  C11 ZIN A   1      15.104   8.383  16.138  0.00  0.00     0.051 C 
ATOM     37  C12 ZIN A   1      15.683   9.554  15.340  0.00  0.00     0.045 C 
ATOM     38  C13 ZIN A   1      14.003   8.896  17.068  0.00  0.00     0.045 C 
BRANCH  36  39
ATOM     39  O14 ZIN A   1      16.138   7.777  16.914  0.00  0.00    -0.391 OA
ATOM     40  H61 ZIN A   1      16.655   8.404  17.440  0.00  0.00     0.210 HD
ENDBRANCH  36  39
ENDBRANCH  35  36
ENDBRANCH  34  35
ENDBRANCH  33  34
ENDBRANCH  25  33
ENDBRANCH  23  25
ENDBRANCH  22  23
ENDBRANCH   1  22
BRANCH   2  41
ATOM     41  O21 ZIN A   1      18.411   3.636   9.908  0.00  0.00    -0.358 OA
ATOM     42  C22 ZIN A   1      18.525   3.292   8.525  0.00  0.00     0.209 C 
ENDBRANCH   2  41
TORSDOF 13
ENDMDL
