MODEL 1
REMARK VINA RESULT:     -10.3      0.000      0.000
REMARK  7 active torsions:
REMARK  status: ('A' for Active; 'I' for Inactive)
REMARK    1  A    between atoms: C9_9  and  C10_10 
REMARK    2  A    between atoms: C10_10  and  C11_11 
REMARK    3  A    between atoms: C11_11  and  C12_12 
REMARK    4  A    between atoms: C12_12  and  C13_13 
REMARK    5  A    between atoms: C13_13  and  N14_14 
REMARK    6  A    between atoms: N17_17  and  C18_18 
REMARK    7  A    between atoms: C23_23  and  C24_24 
REMARK       I    between atoms: C24_24  and  N25_25 
ROOT
ATOM      1  N1  <0> d   1      19.407  -1.376  12.623  0.00  0.00    -0.191 NA
ATOM      2  C2  <0> d   1      19.257  -0.984  13.679  0.00  0.00     0.099 C 
ATOM      3  C3  <0> d   1      19.069  -0.490  15.010  0.00  0.00     0.045 A 
ATOM      4  C4  <0> d   1      18.687  -1.366  16.034  0.00  0.00     0.025 A 
ATOM      5  C5  <0> d   1      18.503  -0.911  17.307  0.00  0.00     0.032 A 
ATOM      6  C6  <0> d   1      18.694   0.436  17.605  0.00  0.00     0.043 A 
ATOM      7  N7  <0> d   1      18.587   1.170  18.762  0.00  0.00    -0.365 N 
ATOM      8  C8  <0> d   1      18.886   2.482  18.513  0.00  0.00     0.096 A 
ATOM      9  C9  <0> d   1      19.192   2.645  17.217  0.00  0.00    -0.030 A 
ATOM     10  C32 <0> d   1      19.078   1.328  16.583  0.00  0.00    -0.000 A 
ATOM     11  C33 <0> d   1      19.271   0.860  15.286  0.00  0.00     0.037 A 
ATOM     12  H36 <0> d   1      18.335   0.810  19.627  0.00  0.00     0.165 HD
ENDROOT
BRANCH   9  13
ATOM     13  C10 <0> d   1      19.578   3.935  16.542  0.00  0.00     0.041 C 
BRANCH  13  14
ATOM     14  C11 <0> d   1      18.322   4.763  16.265  0.00  0.00     0.006 C 
BRANCH  14  15
ATOM     15  C12 <0> d   1      17.754   4.388  14.896  0.00  0.00     0.030 C 
BRANCH  15  16
ATOM     16  C13 <0> d   1      17.997   5.535  13.912  0.00  0.00     0.272 C 
BRANCH  16  17
ATOM     17  N14 <0> d   1      18.457   4.987  12.627  0.00  0.00     0.091 N 
ATOM     18  C31 <0> d   1      19.111   3.686  12.815  0.00  0.00     0.292 C 
ATOM     19  C30 <0> d   1      19.733   3.235  11.489  0.00  0.00     0.153 C 
ATOM     20  N17 <0> d   1      18.693   3.264  10.451  0.00  0.00    -0.377 N 
ATOM     21  C16 <0> d   1      17.899   4.493  10.295  0.00  0.00     0.153 C 
ATOM     22  C15 <0> d   1      17.349   4.894  11.668  0.00  0.00     0.292 C 
BRANCH  20  23
ATOM     23  C18 <0> d   1      18.464   2.153   9.631  0.00  0.00     0.031 A 
ATOM     24  C29 <0> d   1      18.934   2.147   8.330  0.00  0.00     0.043 A 
ATOM     25  C28 <0> d   1      18.706   1.032   7.522  0.00  0.00     0.003 A 
ATOM     26  C21 <0> d   1      17.994  -0.073   8.025  0.00  0.00     0.086 A 
ATOM     27  C27 <0> d   1      19.050   0.687   6.142  0.00  0.00     0.057 A 
ATOM     28  C20 <0> d   1      17.525  -0.044   9.333  0.00  0.00     0.040 A 
ATOM     29  O22 <0> d   1      17.919  -0.992   7.039  0.00  0.00    -0.304 OA
ATOM     30  C19 <0> d   1      17.758   1.058  10.126  0.00  0.00     0.032 A 
ATOM     31  C23 <0> d   1      18.539  -0.552   5.925  0.00  0.00     0.144 A 
BRANCH  31  32
ATOM     32  C24 <0> d   1      18.646  -1.302   4.666  0.00  0.00     0.273 C 
ATOM     33  N25 <0> d   1      17.533  -1.630   3.980  0.00  0.00    -0.364 N 
ATOM     34  H52 <0> d   1      16.661  -1.373   4.318  0.00  0.00     0.159 HD
ATOM     35  H53 <0> d   1      17.603  -2.126   3.149  0.00  0.00     0.159 HD
ATOM     36  O26 <0> d   1      19.739  -1.625   4.241  0.00  0.00    -0.266 OA
ENDBRANCH  31  32
ENDBRANCH  20  23
ENDBRANCH  16  17
ENDBRANCH  15  16
ENDBRANCH  14  15
ENDBRANCH  13  14
ENDBRANCH   9  13
TORSDOF 7
ENDMDL
MODEL 2
REMARK VINA RESULT:      -9.5      3.853      9.728
REMARK  7 active torsions:
REMARK  status: ('A' for Active; 'I' for Inactive)
REMARK    1  A    between atoms: C9_9  and  C10_10 
REMARK    2  A    between atoms: C10_10  and  C11_11 
REMARK    3  A    between atoms: C11_11  and  C12_12 
REMARK    4  A    between atoms: C12_12  and  C13_13 
REMARK    5  A    between atoms: C13_13  and  N14_14 
REMARK    6  A    between atoms: N17_17  and  C18_18 
REMARK    7  A    between atoms: C23_23  and  C24_24 
REMARK       I    between atoms: C24_24  and  N25_25 
ROOT
ATOM      1  N1  <0> d   1      16.410   0.114  11.137  0.00  0.00    -0.191 NA
ATOM      2  C2  <0> d   1      16.951   0.240  10.146  0.00  0.00     0.099 C 
ATOM      3  C3  <0> d   1      17.632   0.397   8.896  0.00  0.00     0.045 A 
ATOM      4  C4  <0> d   1      18.679   1.322   8.781  0.00  0.00     0.025 A 
ATOM      5  C5  <0> d   1      19.337   1.484   7.598  0.00  0.00     0.032 A 
ATOM      6  C6  <0> d   1      18.976   0.728   6.485  0.00  0.00     0.043 A 
ATOM      7  N7  <0> d   1      19.442   0.672   5.192  0.00  0.00    -0.365 N 
ATOM      8  C8  <0> d   1      18.731  -0.255   4.479  0.00  0.00     0.096 A 
ATOM      9  C9  <0> d   1      17.800  -0.821   5.263  0.00  0.00    -0.030 A 
ATOM     10  C32 <0> d   1      17.925  -0.205   6.587  0.00  0.00    -0.000 A 
ATOM     11  C33 <0> d   1      17.258  -0.373   7.798  0.00  0.00     0.037 A 
ATOM     12  H36 <0> d   1      20.167   1.210   4.839  0.00  0.00     0.165 HD
ENDROOT
BRANCH   9  13
ATOM     13  C10 <0> d   1      16.814  -1.886   4.859  0.00  0.00     0.041 C 
BRANCH  13  14
ATOM     14  C11 <0> d   1      17.292  -2.564   3.573  0.00  0.00     0.006 C 
BRANCH  14  15
ATOM     15  C12 <0> d   1      18.449  -3.512   3.896  0.00  0.00     0.030 C 
BRANCH  15  16
ATOM     16  C13 <0> d   1      17.892  -4.890   4.259  0.00  0.00     0.272 C 
BRANCH  16  17
ATOM     17  N14 <0> d   1      18.221  -5.198   5.658  0.00  0.00     0.091 N 
ATOM     18  C31 <0> d   1      19.256  -4.288   6.166  0.00  0.00     0.292 C 
ATOM     19  C30 <0> d   1      19.699  -4.751   7.558  0.00  0.00     0.153 C 
ATOM     20  N17 <0> d   1      18.508  -4.877   8.410  0.00  0.00    -0.377 N 
ATOM     21  C16 <0> d   1      17.371  -5.663   7.906  0.00  0.00     0.153 C 
ATOM     22  C15 <0> d   1      17.019  -5.163   6.501  0.00  0.00     0.292 C 
BRANCH  20  23
ATOM     23  C18 <0> d   1      18.457  -4.266   9.668  0.00  0.00     0.031 A 
ATOM     24  C29 <0> d   1      19.172  -3.105   9.901  0.00  0.00     0.043 A 
ATOM     25  C28 <0> d   1      19.111  -2.500  11.157  0.00  0.00     0.003 A 
ATOM     26  C21 <0> d   1      18.336  -3.073  12.182  0.00  0.00     0.086 A 
ATOM     27  C27 <0> d   1      19.714  -1.300  11.740  0.00  0.00     0.057 A 
ATOM     28  C20 <0> d   1      17.630  -4.244  11.929  0.00  0.00     0.040 A 
ATOM     29  O22 <0> d   1      18.463  -2.292  13.275  0.00  0.00    -0.304 OA
ATOM     30  C19 <0> d   1      17.691  -4.832  10.686  0.00  0.00     0.032 A 
ATOM     31  C23 <0> d   1      19.274  -1.243  13.023  0.00  0.00     0.144 A 
BRANCH  31  32
ATOM     32  C24 <0> d   1      19.628  -0.197  13.993  0.00  0.00     0.273 C 
ATOM     33  N25 <0> d   1      20.202   0.947  13.571  0.00  0.00    -0.364 N 
ATOM     34  H52 <0> d   1      20.384   1.080  12.628  0.00  0.00     0.159 HD
ATOM     35  H53 <0> d   1      20.436   1.637  14.212  0.00  0.00     0.159 HD
ATOM     36  O26 <0> d   1      19.400  -0.363  15.176  0.00  0.00    -0.266 OA
ENDBRANCH  31  32
ENDBRANCH  20  23
ENDBRANCH  16  17
ENDBRANCH  15  16
ENDBRANCH  14  15
ENDBRANCH  13  14
ENDBRANCH   9  13
TORSDOF 7
ENDMDL
MODEL 3
REMARK VINA RESULT:      -9.5      3.636      9.598
REMARK  7 active torsions:
REMARK  status: ('A' for Active; 'I' for Inactive)
REMARK    1  A    between atoms: C9_9  and  C10_10 
REMARK    2  A    between atoms: C10_10  and  C11_11 
REMARK    3  A    between atoms: C11_11  and  C12_12 
REMARK    4  A    between atoms: C12_12  and  C13_13 
REMARK    5  A    between atoms: C13_13  and  N14_14 
REMARK    6  A    between atoms: N17_17  and  C18_18 
REMARK    7  A    between atoms: C23_23  and  C24_24 
REMARK       I    between atoms: C24_24  and  N25_25 
ROOT
ATOM      1  N1  <0> d   1      20.732   0.195  11.844  0.00  0.00    -0.191 NA
ATOM      2  C2  <0> d   1      20.293   0.166  10.797  0.00  0.00     0.099 C 
ATOM      3  C3  <0> d   1      19.740   0.129   9.476  0.00  0.00     0.045 A 
ATOM      4  C4  <0> d   1      19.137   1.274   8.938  0.00  0.00     0.025 A 
ATOM      5  C5  <0> d   1      18.606   1.255   7.682  0.00  0.00     0.032 A 
ATOM      6  C6  <0> d   1      18.656   0.092   6.916  0.00  0.00     0.043 A 
ATOM      7  N7  <0> d   1      18.217  -0.224   5.652  0.00  0.00    -0.365 N 
ATOM      8  C8  <0> d   1      18.518  -1.527   5.365  0.00  0.00     0.096 A 
ATOM      9  C9  <0> d   1      19.148  -2.093   6.406  0.00  0.00    -0.030 A 
ATOM     10  C32 <0> d   1      19.260  -1.066   7.446  0.00  0.00    -0.000 A 
ATOM     11  C33 <0> d   1      19.807  -1.042   8.726  0.00  0.00     0.037 A 
ATOM     12  H36 <0> d   1      17.761   0.388   5.053  0.00  0.00     0.165 HD
ENDROOT
BRANCH   9  13
ATOM     13  C10 <0> d   1      19.646  -3.512   6.491  0.00  0.00     0.041 C 
BRANCH  13  14
ATOM     14  C11 <0> d   1      18.484  -4.477   6.250  0.00  0.00     0.006 C 
BRANCH  14  15
ATOM     15  C12 <0> d   1      17.736  -4.714   7.563  0.00  0.00     0.030 C 
BRANCH  15  16
ATOM     16  C13 <0> d   1      18.572  -5.621   8.469  0.00  0.00     0.272 C 
BRANCH  16  17
ATOM     17  N14 <0> d   1      18.511  -5.122   9.850  0.00  0.00     0.091 N 
ATOM     18  C31 <0> d   1      19.618  -4.197  10.125  0.00  0.00     0.292 C 
ATOM     19  C30 <0> d   1      19.625  -3.843  11.615  0.00  0.00     0.153 C 
ATOM     20  N17 <0> d   1      18.292  -3.345  11.984  0.00  0.00    -0.377 N 
ATOM     21  C16 <0> d   1      17.121  -4.156  11.618  0.00  0.00     0.153 C 
ATOM     22  C15 <0> d   1      17.212  -4.497  10.128  0.00  0.00     0.292 C 
BRANCH  20  23
ATOM     23  C18 <0> d   1      18.142  -2.133  12.667  0.00  0.00     0.031 A 
ATOM     24  C29 <0> d   1      18.751  -1.952  13.895  0.00  0.00     0.043 A 
ATOM     25  C28 <0> d   1      18.599  -0.737  14.566  0.00  0.00     0.003 A 
ATOM     26  C21 <0> d   1      17.824   0.292  14.000  0.00  0.00     0.086 A 
ATOM     27  C27 <0> d   1      19.088  -0.210  15.840  0.00  0.00     0.057 A 
ATOM     28  C20 <0> d   1      17.214   0.087  12.767  0.00  0.00     0.040 A 
ATOM     29  O22 <0> d   1      17.845   1.335  14.855  0.00  0.00    -0.304 OA
ATOM     30  C19 <0> d   1      17.373  -1.112  12.109  0.00  0.00     0.032 A 
ATOM     31  C23 <0> d   1      18.590   1.049  15.944  0.00  0.00     0.144 A 
BRANCH  31  32
ATOM     32  C24 <0> d   1      18.824   1.962  17.071  0.00  0.00     0.273 C 
ATOM     33  N25 <0> d   1      18.105   3.096  17.181  0.00  0.00    -0.364 N 
ATOM     34  H52 <0> d   1      17.432   3.311  16.515  0.00  0.00     0.159 HD
ATOM     35  H53 <0> d   1      18.260   3.699  17.925  0.00  0.00     0.159 HD
ATOM     36  O26 <0> d   1      19.667   1.693  17.905  0.00  0.00    -0.266 OA
ENDBRANCH  31  32
ENDBRANCH  20  23
ENDBRANCH  16  17
ENDBRANCH  15  16
ENDBRANCH  14  15
ENDBRANCH  13  14
ENDBRANCH   9  13
TORSDOF 7
ENDMDL
MODEL 4
REMARK VINA RESULT:      -9.4      3.640     10.165
REMARK  7 active torsions:
REMARK  status: ('A' for Active; 'I' for Inactive)
REMARK    1  A    between atoms: C9_9  and  C10_10 
REMARK    2  A    between atoms: C10_10  and  C11_11 
REMARK    3  A    between atoms: C11_11  and  C12_12 
REMARK    4  A    between atoms: C12_12  and  C13_13 
REMARK    5  A    between atoms: C13_13  and  N14_14 
REMARK    6  A    between atoms: N17_17  and  C18_18 
REMARK    7  A    between atoms: C23_23  and  C24_24 
REMARK       I    between atoms: C24_24  and  N25_25 
ROOT
ATOM      1  N1  <0> d   1      19.236   1.747   9.263  0.00  0.00    -0.191 NA
ATOM      2  C2  <0> d   1      19.180   1.108   8.325  0.00  0.00     0.099 C 
ATOM      3  C3  <0> d   1      19.109   0.302   7.143  0.00  0.00     0.045 A 
ATOM      4  C4  <0> d   1      19.219   0.901   5.881  0.00  0.00     0.025 A 
ATOM      5  C5  <0> d   1      19.153   0.147   4.747  0.00  0.00     0.032 A 
ATOM      6  C6  <0> d   1      18.976  -1.232   4.829  0.00  0.00     0.043 A 
ATOM      7  N7  <0> d   1      18.874  -2.227   3.886  0.00  0.00    -0.365 N 
ATOM      8  C8  <0> d   1      18.705  -3.438   4.501  0.00  0.00     0.096 A 
ATOM      9  C9  <0> d   1      18.690  -3.278   5.833  0.00  0.00    -0.030 A 
ATOM     10  C32 <0> d   1      18.865  -1.846   6.092  0.00  0.00    -0.000 A 
ATOM     11  C33 <0> d   1      18.938  -1.076   7.250  0.00  0.00     0.037 A 
ATOM     12  H36 <0> d   1      18.916  -2.091   2.926  0.00  0.00     0.165 HD
ENDROOT
BRANCH   9  13
ATOM     13  C10 <0> d   1      18.526  -4.363   6.865  0.00  0.00     0.041 C 
BRANCH  13  14
ATOM     14  C11 <0> d   1      19.825  -5.162   6.978  0.00  0.00     0.006 C 
BRANCH  14  15
ATOM     15  C12 <0> d   1      19.980  -5.685   8.407  0.00  0.00     0.030 C 
BRANCH  15  16
ATOM     16  C13 <0> d   1      18.602  -5.785   9.066  0.00  0.00     0.272 C 
BRANCH  16  17
ATOM     17  N14 <0> d   1      18.626  -5.086  10.359  0.00  0.00     0.091 N 
ATOM     18  C31 <0> d   1      19.678  -4.061  10.382  0.00  0.00     0.292 C 
ATOM     19  C30 <0> d   1      19.792  -3.483  11.797  0.00  0.00     0.153 C 
ATOM     20  N17 <0> d   1      18.462  -3.020  12.221  0.00  0.00    -0.377 N 
ATOM     21  C16 <0> d   1      17.330  -3.951  12.097  0.00  0.00     0.153 C 
ATOM     22  C15 <0> d   1      17.313  -4.509  10.671  0.00  0.00     0.292 C 
BRANCH  20  23
ATOM     23  C18 <0> d   1      18.280  -1.730  12.730  0.00  0.00     0.031 A 
ATOM     24  C29 <0> d   1      18.835  -1.384  13.949  0.00  0.00     0.043 A 
ATOM     25  C28 <0> d   1      18.652  -0.092  14.446  0.00  0.00     0.003 A 
ATOM     26  C21 <0> d   1      17.899   0.847  13.717  0.00  0.00     0.086 A 
ATOM     27  C27 <0> d   1      19.084   0.602  15.660  0.00  0.00     0.057 A 
ATOM     28  C20 <0> d   1      17.344   0.477  12.497  0.00  0.00     0.040 A 
ATOM     29  O22 <0> d   1      17.882   1.994  14.427  0.00  0.00    -0.304 OA
ATOM     30  C19 <0> d   1      17.534  -0.798  12.011  0.00  0.00     0.032 A 
ATOM     31  C23 <0> d   1      18.579   1.860  15.575  0.00  0.00     0.144 A 
BRANCH  31  32
ATOM     32  C24 <0> d   1      18.763   2.915  16.580  0.00  0.00     0.273 C 
ATOM     33  N25 <0> d   1      17.729   3.711  16.918  0.00  0.00    -0.364 N 
ATOM     34  H52 <0> d   1      16.864   3.589  16.497  0.00  0.00     0.159 HD
ATOM     35  H53 <0> d   1      17.851   4.408  17.582  0.00  0.00     0.159 HD
ATOM     36  O26 <0> d   1      19.848   3.069  17.109  0.00  0.00    -0.266 OA
ENDBRANCH  31  32
ENDBRANCH  20  23
ENDBRANCH  16  17
ENDBRANCH  15  16
ENDBRANCH  14  15
ENDBRANCH  13  14
ENDBRANCH   9  13
TORSDOF 7
ENDMDL
MODEL 5
REMARK VINA RESULT:      -9.3      1.516      2.013
REMARK  7 active torsions:
REMARK  status: ('A' for Active; 'I' for Inactive)
REMARK    1  A    between atoms: C9_9  and  C10_10 
REMARK    2  A    between atoms: C10_10  and  C11_11 
REMARK    3  A    between atoms: C11_11  and  C12_12 
REMARK    4  A    between atoms: C12_12  and  C13_13 
REMARK    5  A    between atoms: C13_13  and  N14_14 
REMARK    6  A    between atoms: N17_17  and  C18_18 
REMARK    7  A    between atoms: C23_23  and  C24_24 
REMARK       I    between atoms: C24_24  and  N25_25 
ROOT
ATOM      1  N1  <0> d   1      19.262  -1.616  13.000  0.00  0.00    -0.191 NA
ATOM      2  C2  <0> d   1      19.158  -1.122  14.017  0.00  0.00     0.099 C 
ATOM      3  C3  <0> d   1      19.027  -0.498  15.300  0.00  0.00     0.045 A 
ATOM      4  C4  <0> d   1      18.676  -1.265  16.418  0.00  0.00     0.025 A 
ATOM      5  C5  <0> d   1      18.547  -0.686  17.646  0.00  0.00     0.032 A 
ATOM      6  C6  <0> d   1      18.764   0.681  17.804  0.00  0.00     0.043 A 
ATOM      7  N7  <0> d   1      18.710   1.525  18.887  0.00  0.00    -0.365 N 
ATOM      8  C8  <0> d   1      19.014   2.802  18.501  0.00  0.00     0.096 A 
ATOM      9  C9  <0> d   1      19.271   2.834  17.184  0.00  0.00    -0.030 A 
ATOM     10  C32 <0> d   1      19.118   1.463  16.687  0.00  0.00    -0.000 A 
ATOM     11  C33 <0> d   1      19.255   0.869  15.435  0.00  0.00     0.037 A 
ATOM     12  H36 <0> d   1      18.488   1.255  19.792  0.00  0.00     0.165 HD
ENDROOT
BRANCH   9  13
ATOM     13  C10 <0> d   1      19.645   4.046  16.372  0.00  0.00     0.041 C 
BRANCH  13  14
ATOM     14  C11 <0> d   1      18.375   4.772  15.924  0.00  0.00     0.006 C 
BRANCH  14  15
ATOM     15  C12 <0> d   1      18.679   5.612  14.682  0.00  0.00     0.030 C 
BRANCH  15  16
ATOM     16  C13 <0> d   1      17.576   5.402  13.642  0.00  0.00     0.272 C 
BRANCH  16  17
ATOM     17  N14 <0> d   1      18.167   4.878  12.402  0.00  0.00     0.091 N 
ATOM     18  C31 <0> d   1      19.022   3.716  12.678  0.00  0.00     0.292 C 
ATOM     19  C30 <0> d   1      19.758   3.312  11.396  0.00  0.00     0.153 C 
ATOM     20  N17 <0> d   1      18.766   3.116  10.329  0.00  0.00    -0.377 N 
ATOM     21  C16 <0> d   1      17.786   4.185  10.086  0.00  0.00     0.153 C 
ATOM     22  C15 <0> d   1      17.126   4.554  11.418  0.00  0.00     0.292 C 
BRANCH  20  23
ATOM     23  C18 <0> d   1      18.756   1.944   9.565  0.00  0.00     0.031 A 
ATOM     24  C29 <0> d   1      18.382   0.745  10.145  0.00  0.00     0.043 A 
ATOM     25  C28 <0> d   1      18.370  -0.418   9.373  0.00  0.00     0.003 A 
ATOM     26  C21 <0> d   1      18.745  -0.372   8.018  0.00  0.00     0.086 A 
ATOM     27  C27 <0> d   1      18.035  -1.817   9.645  0.00  0.00     0.057 A 
ATOM     28  C20 <0> d   1      19.124   0.842   7.456  0.00  0.00     0.040 A 
ATOM     29  O22 <0> d   1      18.646  -1.624   7.525  0.00  0.00    -0.304 OA
ATOM     30  C19 <0> d   1      19.129   1.986   8.222  0.00  0.00     0.032 A 
ATOM     31  C23 <0> d   1      18.228  -2.484   8.478  0.00  0.00     0.144 A 
BRANCH  31  32
ATOM     32  C24 <0> d   1      18.013  -3.924   8.281  0.00  0.00     0.273 C 
ATOM     33  N25 <0> d   1      16.813  -4.471   8.558  0.00  0.00    -0.364 N 
ATOM     34  H52 <0> d   1      16.091  -3.914   8.890  0.00  0.00     0.159 HD
ATOM     35  H53 <0> d   1      16.672  -5.422   8.429  0.00  0.00     0.159 HD
ATOM     36  O26 <0> d   1      18.919  -4.622   7.865  0.00  0.00    -0.266 OA
ENDBRANCH  31  32
ENDBRANCH  20  23
ENDBRANCH  16  17
ENDBRANCH  15  16
ENDBRANCH  14  15
ENDBRANCH  13  14
ENDBRANCH   9  13
TORSDOF 7
ENDMDL
MODEL 6
REMARK VINA RESULT:      -9.1      3.580     10.045
REMARK  7 active torsions:
REMARK  status: ('A' for Active; 'I' for Inactive)
REMARK    1  A    between atoms: C9_9  and  C10_10 
REMARK    2  A    between atoms: C10_10  and  C11_11 
REMARK    3  A    between atoms: C11_11  and  C12_12 
REMARK    4  A    between atoms: C12_12  and  C13_13 
REMARK    5  A    between atoms: C13_13  and  N14_14 
REMARK    6  A    between atoms: N17_17  and  C18_18 
REMARK    7  A    between atoms: C23_23  and  C24_24 
REMARK       I    between atoms: C24_24  and  N25_25 
ROOT
ATOM      1  N1  <0> d   1      19.315   1.873  10.162  0.00  0.00    -0.191 NA
ATOM      2  C2  <0> d   1      19.261   1.306   9.179  0.00  0.00     0.099 C 
ATOM      3  C3  <0> d   1      19.194   0.589   7.941  0.00  0.00     0.045 A 
ATOM      4  C4  <0> d   1      19.086   1.291   6.732  0.00  0.00     0.025 A 
ATOM      5  C5  <0> d   1      19.021   0.624   5.545  0.00  0.00     0.032 A 
ATOM      6  C6  <0> d   1      19.061  -0.769   5.519  0.00  0.00     0.043 A 
ATOM      7  N7  <0> d   1      19.015  -1.694   4.503  0.00  0.00    -0.365 N 
ATOM      8  C8  <0> d   1      19.089  -2.959   5.019  0.00  0.00     0.096 A 
ATOM      9  C9  <0> d   1      19.184  -2.903   6.357  0.00  0.00    -0.030 A 
ATOM     10  C32 <0> d   1      19.168  -1.485   6.727  0.00  0.00    -0.000 A 
ATOM     11  C33 <0> d   1      19.241  -0.802   7.938  0.00  0.00     0.037 A 
ATOM     12  H36 <0> d   1      18.940  -1.481   3.559  0.00  0.00     0.165 HD
ENDROOT
BRANCH   9  13
ATOM     13  C10 <0> d   1      19.286  -4.075   7.298  0.00  0.00     0.041 C 
BRANCH  13  14
ATOM     14  C11 <0> d   1      17.895  -4.665   7.532  0.00  0.00     0.006 C 
BRANCH  14  15
ATOM     15  C12 <0> d   1      17.681  -4.889   9.030  0.00  0.00     0.030 C 
BRANCH  15  16
ATOM     16  C13 <0> d   1      18.965  -4.541   9.786  0.00  0.00     0.272 C 
BRANCH  16  17
ATOM     17  N14 <0> d   1      18.816  -3.225  10.423  0.00  0.00     0.091 N 
ATOM     18  C31 <0> d   1      17.641  -3.197  11.304  0.00  0.00     0.292 C 
ATOM     19  C30 <0> d   1      17.416  -1.766  11.804  0.00  0.00     0.153 C 
ATOM     20  N17 <0> d   1      18.663  -1.283  12.415  0.00  0.00    -0.377 N 
ATOM     21  C16 <0> d   1      19.909  -1.405  11.642  0.00  0.00     0.153 C 
ATOM     22  C15 <0> d   1      20.036  -2.849  11.149  0.00  0.00     0.292 C 
BRANCH  20  23
ATOM     23  C18 <0> d   1      18.664  -0.721  13.696  0.00  0.00     0.031 A 
ATOM     24  C29 <0> d   1      18.700   0.654  13.847  0.00  0.00     0.043 A 
ATOM     25  C28 <0> d   1      18.696   1.206  15.129  0.00  0.00     0.003 A 
ATOM     26  C21 <0> d   1      18.666   0.369  16.260  0.00  0.00     0.086 A 
ATOM     27  C27 <0> d   1      18.722   2.573  15.649  0.00  0.00     0.057 A 
ATOM     28  C20 <0> d   1      18.637  -1.011  16.087  0.00  0.00     0.040 A 
ATOM     29  O22 <0> d   1      18.675   1.160  17.353  0.00  0.00    -0.304 OA
ATOM     30  C19 <0> d   1      18.637  -1.547  14.818  0.00  0.00     0.032 A 
ATOM     31  C23 <0> d   1      18.707   2.462  17.002  0.00  0.00     0.144 A 
BRANCH  31  32
ATOM     32  C24 <0> d   1      18.724   3.590  17.944  0.00  0.00     0.273 C 
ATOM     33  N25 <0> d   1      18.975   3.374  19.250  0.00  0.00    -0.364 N 
ATOM     34  H52 <0> d   1      19.143   2.474  19.570  0.00  0.00     0.159 HD
ATOM     35  H53 <0> d   1      18.985   4.120  19.872  0.00  0.00     0.159 HD
ATOM     36  O26 <0> d   1      18.513   4.720  17.543  0.00  0.00    -0.266 OA
ENDBRANCH  31  32
ENDBRANCH  20  23
ENDBRANCH  16  17
ENDBRANCH  15  16
ENDBRANCH  14  15
ENDBRANCH  13  14
ENDBRANCH   9  13
TORSDOF 7
ENDMDL
MODEL 7
REMARK VINA RESULT:      -8.9      3.905      9.227
REMARK  7 active torsions:
REMARK  status: ('A' for Active; 'I' for Inactive)
REMARK    1  A    between atoms: C9_9  and  C10_10 
REMARK    2  A    between atoms: C10_10  and  C11_11 
REMARK    3  A    between atoms: C11_11  and  C12_12 
REMARK    4  A    between atoms: C12_12  and  C13_13 
REMARK    5  A    between atoms: C13_13  and  N14_14 
REMARK    6  A    between atoms: N17_17  and  C18_18 
REMARK    7  A    between atoms: C23_23  and  C24_24 
REMARK       I    between atoms: C24_24  and  N25_25 
ROOT
ATOM      1  N1  <0> d   1      16.335  -4.524  11.891  0.00  0.00    -0.191 NA
ATOM      2  C2  <0> d   1      17.071  -4.519  11.025  0.00  0.00     0.099 C 
ATOM      3  C3  <0> d   1      17.998  -4.512   9.933  0.00  0.00     0.045 A 
ATOM      4  C4  <0> d   1      19.097  -5.381   9.943  0.00  0.00     0.025 A 
ATOM      5  C5  <0> d   1      19.988  -5.386   8.912  0.00  0.00     0.032 A 
ATOM      6  C6  <0> d   1      19.817  -4.524   7.831  0.00  0.00     0.043 A 
ATOM      7  N7  <0> d   1      20.530  -4.306   6.676  0.00  0.00    -0.365 N 
ATOM      8  C8  <0> d   1      19.926  -3.330   5.931  0.00  0.00     0.096 A 
ATOM      9  C9  <0> d   1      18.825  -2.889   6.558  0.00  0.00    -0.030 A 
ATOM     10  C32 <0> d   1      18.715  -3.645   7.809  0.00  0.00    -0.000 A 
ATOM     11  C33 <0> d   1      17.803  -3.646   8.860  0.00  0.00     0.037 A 
ATOM     12  H36 <0> d   1      21.342  -4.775   6.427  0.00  0.00     0.165 HD
ENDROOT
BRANCH   9  13
ATOM     13  C10 <0> d   1      17.882  -1.821   6.070  0.00  0.00     0.041 C 
BRANCH  13  14
ATOM     14  C11 <0> d   1      18.681  -0.583   5.657  0.00  0.00     0.006 C 
BRANCH  14  15
ATOM     15  C12 <0> d   1      18.153   0.639   6.410  0.00  0.00     0.030 C 
BRANCH  15  16
ATOM     16  C13 <0> d   1      19.108   0.984   7.555  0.00  0.00     0.272 C 
BRANCH  16  17
ATOM     17  N14 <0> d   1      18.851   0.090   8.693  0.00  0.00     0.091 N 
ATOM     18  C31 <0> d   1      20.074  -0.129   9.476  0.00  0.00     0.292 C 
ATOM     19  C30 <0> d   1      19.812  -1.202  10.538  0.00  0.00     0.153 C 
ATOM     20  N17 <0> d   1      18.634  -0.805  11.322  0.00  0.00    -0.377 N 
ATOM     21  C16 <0> d   1      17.407  -0.438  10.598  0.00  0.00     0.153 C 
ATOM     22  C15 <0> d   1      17.764   0.605   9.534  0.00  0.00     0.292 C 
BRANCH  20  23
ATOM     23  C18 <0> d   1      18.677  -0.779  12.720  0.00  0.00     0.031 A 
ATOM     24  C29 <0> d   1      18.632   0.431  13.389  0.00  0.00     0.043 A 
ATOM     25  C28 <0> d   1      18.671   0.447  14.785  0.00  0.00     0.003 A 
ATOM     26  C21 <0> d   1      18.766  -0.758  15.504  0.00  0.00     0.086 A 
ATOM     27  C27 <0> d   1      18.639   1.508  15.792  0.00  0.00     0.057 A 
ATOM     28  C20 <0> d   1      18.818  -1.963  14.812  0.00  0.00     0.040 A 
ATOM     29  O22 <0> d   1      18.790  -0.448  16.817  0.00  0.00    -0.304 OA
ATOM     30  C19 <0> d   1      18.774  -1.971  13.436  0.00  0.00     0.032 A 
ATOM     31  C23 <0> d   1      18.715   0.887  16.997  0.00  0.00     0.144 A 
BRANCH  31  32
ATOM     32  C24 <0> d   1      18.716   1.565  18.300  0.00  0.00     0.273 C 
ATOM     33  N25 <0> d   1      17.704   1.361  19.167  0.00  0.00    -0.364 N 
ATOM     34  H52 <0> d   1      16.974   0.768  18.931  0.00  0.00     0.159 HD
ATOM     35  H53 <0> d   1      17.705   1.810  20.028  0.00  0.00     0.159 HD
ATOM     36  O26 <0> d   1      19.631   2.310  18.597  0.00  0.00    -0.266 OA
ENDBRANCH  31  32
ENDBRANCH  20  23
ENDBRANCH  16  17
ENDBRANCH  15  16
ENDBRANCH  14  15
ENDBRANCH  13  14
ENDBRANCH   9  13
TORSDOF 7
ENDMDL
MODEL 8
REMARK VINA RESULT:      -8.9      3.481      9.708
REMARK  7 active torsions:
REMARK  status: ('A' for Active; 'I' for Inactive)
REMARK    1  A    between atoms: C9_9  and  C10_10 
REMARK    2  A    between atoms: C10_10  and  C11_11 
REMARK    3  A    between atoms: C11_11  and  C12_12 
REMARK    4  A    between atoms: C12_12  and  C13_13 
REMARK    5  A    between atoms: C13_13  and  N14_14 
REMARK    6  A    between atoms: N17_17  and  C18_18 
REMARK    7  A    between atoms: C23_23  and  C24_24 
REMARK       I    between atoms: C24_24  and  N25_25 
ROOT
ATOM      1  N1  <0> d   1      19.460   1.489   8.696  0.00  0.00    -0.191 NA
ATOM      2  C2  <0> d   1      19.283   0.792   7.816  0.00  0.00     0.099 C 
ATOM      3  C3  <0> d   1      19.060  -0.087   6.708  0.00  0.00     0.045 A 
ATOM      4  C4  <0> d   1      18.959   0.434   5.411  0.00  0.00     0.025 A 
ATOM      5  C5  <0> d   1      18.747  -0.390   4.345  0.00  0.00     0.032 A 
ATOM      6  C6  <0> d   1      18.627  -1.765   4.534  0.00  0.00     0.043 A 
ATOM      7  N7  <0> d   1      18.415  -2.819   3.677  0.00  0.00    -0.365 N 
ATOM      8  C8  <0> d   1      18.377  -3.992   4.380  0.00  0.00     0.096 A 
ATOM      9  C9  <0> d   1      18.559  -3.750   5.687  0.00  0.00    -0.030 A 
ATOM     10  C32 <0> d   1      18.726  -2.301   5.833  0.00  0.00    -0.000 A 
ATOM     11  C33 <0> d   1      18.949  -1.459   6.919  0.00  0.00     0.037 A 
ATOM     12  H36 <0> d   1      18.307  -2.741   2.716  0.00  0.00     0.165 HD
ENDROOT
BRANCH   9  13
ATOM     13  C10 <0> d   1      18.585  -4.772   6.794  0.00  0.00     0.041 C 
BRANCH  13  14
ATOM     14  C11 <0> d   1      20.030  -5.192   7.067  0.00  0.00     0.006 C 
BRANCH  14  15
ATOM     15  C12 <0> d   1      20.158  -5.667   8.515  0.00  0.00     0.030 C 
BRANCH  15  16
ATOM     16  C13 <0> d   1      18.763  -5.863   9.113  0.00  0.00     0.272 C 
BRANCH  16  17
ATOM     17  N14 <0> d   1      18.653  -5.093  10.361  0.00  0.00     0.091 N 
ATOM     18  C31 <0> d   1      19.797  -4.186  10.521  0.00  0.00     0.292 C 
ATOM     19  C30 <0> d   1      19.741  -3.539  11.908  0.00  0.00     0.153 C 
ATOM     20  N17 <0> d   1      18.422  -2.913  12.080  0.00  0.00    -0.377 N 
ATOM     21  C16 <0> d   1      17.226  -3.725  11.803  0.00  0.00     0.153 C 
ATOM     22  C15 <0> d   1      17.381  -4.364  10.420  0.00  0.00     0.292 C 
BRANCH  20  23
ATOM     23  C18 <0> d   1      18.307  -1.582  12.496  0.00  0.00     0.031 A 
ATOM     24  C29 <0> d   1      18.012  -0.594  11.574  0.00  0.00     0.043 A 
ATOM     25  C28 <0> d   1      17.894   0.730  11.999  0.00  0.00     0.003 A 
ATOM     26  C21 <0> d   1      18.084   1.058  13.354  0.00  0.00     0.086 A 
ATOM     27  C27 <0> d   1      17.597   1.994  11.323  0.00  0.00     0.057 A 
ATOM     28  C20 <0> d   1      18.386   0.051  14.263  0.00  0.00     0.040 A 
ATOM     29  O22 <0> d   1      17.917   2.391  13.478  0.00  0.00    -0.304 OA
ATOM     30  C19 <0> d   1      18.496  -1.254  13.837  0.00  0.00     0.032 A 
ATOM     31  C23 <0> d   1      17.629   2.952  12.285  0.00  0.00     0.144 A 
BRANCH  31  32
ATOM     32  C24 <0> d   1      17.387   4.384  12.061  0.00  0.00     0.273 C 
ATOM     33  N25 <0> d   1      16.609   4.784  11.036  0.00  0.00    -0.364 N 
ATOM     34  H52 <0> d   1      16.208   4.127  10.445  0.00  0.00     0.159 HD
ATOM     35  H53 <0> d   1      16.449   5.730  10.888  0.00  0.00     0.159 HD
ATOM     36  O26 <0> d   1      17.889   5.208  12.802  0.00  0.00    -0.266 OA
ENDBRANCH  31  32
ENDBRANCH  20  23
ENDBRANCH  16  17
ENDBRANCH  15  16
ENDBRANCH  14  15
ENDBRANCH  13  14
ENDBRANCH   9  13
TORSDOF 7
ENDMDL
MODEL 9
REMARK VINA RESULT:      -8.8      3.764     10.460
REMARK  7 active torsions:
REMARK  status: ('A' for Active; 'I' for Inactive)
REMARK    1  A    between atoms: C9_9  and  C10_10 
REMARK    2  A    between atoms: C10_10  and  C11_11 
REMARK    3  A    between atoms: C11_11  and  C12_12 
REMARK    4  A    between atoms: C12_12  and  C13_13 
REMARK    5  A    between atoms: C13_13  and  N14_14 
REMARK    6  A    between atoms: N17_17  and  C18_18 
REMARK    7  A    between atoms: C23_23  and  C24_24 
REMARK       I    between atoms: C24_24  and  N25_25 
ROOT
ATOM      1  N1  <0> d   1      14.003  -5.013   1.934  0.00  0.00    -0.191 NA
ATOM      2  C2  <0> d   1      14.902  -4.941   2.625  0.00  0.00     0.099 C 
ATOM      3  C3  <0> d   1      16.036  -4.850   3.495  0.00  0.00     0.045 A 
ATOM      4  C4  <0> d   1      16.616  -6.017   4.012  0.00  0.00     0.025 A 
ATOM      5  C5  <0> d   1      17.695  -5.947   4.843  0.00  0.00     0.032 A 
ATOM      6  C6  <0> d   1      18.237  -4.710   5.188  0.00  0.00     0.043 A 
ATOM      7  N7  <0> d   1      19.293  -4.333   5.983  0.00  0.00    -0.365 N 
ATOM      8  C8  <0> d   1      19.408  -2.969   5.991  0.00  0.00     0.096 A 
ATOM      9  C9  <0> d   1      18.454  -2.424   5.221  0.00  0.00    -0.030 A 
ATOM     10  C32 <0> d   1      17.663  -3.531   4.675  0.00  0.00    -0.000 A 
ATOM     11  C33 <0> d   1      16.564  -3.604   3.822  0.00  0.00     0.037 A 
ATOM     12  H36 <0> d   1      19.871  -4.943   6.467  0.00  0.00     0.165 HD
ENDROOT
BRANCH   9  13
ATOM     13  C10 <0> d   1      18.237  -0.955   4.966  0.00  0.00     0.041 C 
BRANCH  13  14
ATOM     14  C11 <0> d   1      16.998  -0.482   5.729  0.00  0.00     0.006 C 
BRANCH  14  15
ATOM     15  C12 <0> d   1      17.409   0.012   7.116  0.00  0.00     0.030 C 
BRANCH  15  16
ATOM     16  C13 <0> d   1      18.699   0.829   7.005  0.00  0.00     0.272 C 
BRANCH  16  17
ATOM     17  N14 <0> d   1      19.386   0.837   8.304  0.00  0.00     0.091 N 
ATOM     18  C31 <0> d   1      18.770   1.807   9.218  0.00  0.00     0.292 C 
ATOM     19  C30 <0> d   1      19.619   1.918  10.488  0.00  0.00     0.153 C 
ATOM     20  N17 <0> d   1      19.805   0.570  11.045  0.00  0.00    -0.377 N 
ATOM     21  C16 <0> d   1      20.292  -0.491  10.150  0.00  0.00     0.153 C 
ATOM     22  C15 <0> d   1      19.416  -0.507   8.893  0.00  0.00     0.292 C 
BRANCH  20  23
ATOM     23  C18 <0> d   1      19.529   0.304  12.391  0.00  0.00     0.031 A 
ATOM     24  C29 <0> d   1      19.590   1.324  13.322  0.00  0.00     0.043 A 
ATOM     25  C28 <0> d   1      19.307   1.050  14.662  0.00  0.00     0.003 A 
ATOM     26  C21 <0> d   1      18.972  -0.257  15.062  0.00  0.00     0.086 A 
ATOM     27  C27 <0> d   1      19.270   1.859  15.881  0.00  0.00     0.057 A 
ATOM     28  C20 <0> d   1      18.923  -1.269  14.110  0.00  0.00     0.040 A 
ATOM     29  O22 <0> d   1      18.757  -0.233  16.393  0.00  0.00    -0.304 OA
ATOM     30  C19 <0> d   1      19.199  -0.990  12.790  0.00  0.00     0.032 A 
ATOM     31  C23 <0> d   1      18.930   1.012  16.885  0.00  0.00     0.144 A 
BRANCH  31  32
ATOM     32  C24 <0> d   1      18.774   1.391  18.296  0.00  0.00     0.273 C 
ATOM     33  N25 <0> d   1      17.690   0.988  18.987  0.00  0.00    -0.364 N 
ATOM     34  H52 <0> d   1      17.010   0.448  18.553  0.00  0.00     0.159 HD
ATOM     35  H53 <0> d   1      17.587   1.239  19.919  0.00  0.00     0.159 HD
ATOM     36  O26 <0> d   1      19.625   2.068  18.841  0.00  0.00    -0.266 OA
ENDBRANCH  31  32
ENDBRANCH  20  23
ENDBRANCH  16  17
ENDBRANCH  15  16
ENDBRANCH  14  15
ENDBRANCH  13  14
ENDBRANCH   9  13
TORSDOF 7
ENDMDL
