MODEL 1
REMARK VINA RESULT:      -7.5      0.000      0.000
REMARK  10 active torsions:
REMARK  status: ('A' for Active; 'I' for Inactive)
REMARK    1  A    between atoms: C2_2  and  O3_3 
REMARK    2  A    between atoms: O3_3  and  C4_4 
REMARK    3  A    between atoms: C4_4  and  C6_6 
REMARK    4  A    between atoms: C6_6  and  C8_7 
REMARK    5  A    between atoms: C6_6  and  N16_15 
REMARK    6  A    between atoms: C8_7  and  C9_8 
REMARK    7  A    between atoms: C9_8  and  C10_9 
REMARK    8  A    between atoms: N16_15  and  C17_16 
REMARK    9  A    between atoms: C17_16  and  C20_18 
REMARK       I    between atoms: C20_18  and  N22_20 
REMARK   10  A    between atoms: C26_24  and  C28_25 
ROOT
ATOM      1  C6  <0> d   1      17.661  -1.101  12.503  0.00  0.00     0.320 C 
ENDROOT
BRANCH   1   2
ATOM      2  C4  <0> d   1      17.006   0.138  11.950  0.00  0.00     0.292 C 
ATOM      3  O5  <0> d   1      16.042   0.041  11.230  0.00  0.00    -0.263 OA
BRANCH   2   4
ATOM      4  O3  <0> d   1      17.494   1.350  12.259  0.00  0.00    -0.320 OA
BRANCH   4   5
ATOM      5  C2  <0> d   1      17.628   2.303  11.172  0.00  0.00     0.174 C 
ATOM      6  C1  <0> d   1      19.042   2.888  11.177  0.00  0.00     0.034 C 
ENDBRANCH   4   5
ENDBRANCH   2   4
ENDBRANCH   1   2
BRANCH   1   7
ATOM      7  C8  <0> d   1      19.150  -0.832  12.733  0.00  0.00     0.051 C 
BRANCH   7   8
ATOM      8  C9  <0> d   1      19.586  -1.472  14.052  0.00  0.00     0.041 C 
BRANCH   8   9
ATOM      9  C10 <0> d   1      18.932  -0.748  15.201  0.00  0.00    -0.058 A 
ATOM     10  C15 <0> d   1      18.148  -1.446  16.101  0.00  0.00     0.007 A 
ATOM     11  C14 <0> d   1      17.552  -0.783  17.157  0.00  0.00     0.001 A 
ATOM     12  C13 <0> d   1      17.732   0.580  17.308  0.00  0.00     0.000 A 
ATOM     13  C12 <0> d   1      18.511   1.279  16.405  0.00  0.00     0.001 A 
ATOM     14  C11 <0> d   1      19.111   0.615  15.351  0.00  0.00     0.007 A 
ENDBRANCH   8   9
ENDBRANCH   7   8
ENDBRANCH   1   7
BRANCH   1  15
ATOM     15  N16 <0> d   1      17.506  -2.205  11.547  0.00  0.00     0.111 N 
ATOM     16  H45 <0> d   1      17.331  -3.076  12.027  0.00  0.00     0.318 HD
BRANCH  15  17
ATOM     17  C17 <0> d   1      18.681  -2.313  10.671  0.00  0.00     0.308 C 
ATOM     18  C19 <0> d   1      19.388  -3.645  10.930  0.00  0.00     0.053 C 
BRANCH  17  19
ATOM     19  C20 <0> d   1      18.241  -2.250   9.231  0.00  0.00     0.253 C 
ATOM     20  O21 <0> d   1      17.545  -3.130   8.770  0.00  0.00    -0.271 OA
ATOM     21  N22 <0> d   1      18.622  -1.215   8.456  0.00  0.00    -0.336 N 
ATOM     22  C26 <0> d   1      18.266  -1.027   7.042  0.00  0.00     0.188 C 
ATOM     23  C23 <0> d   1      19.467  -0.086   8.884  0.00  0.00     0.127 C 
ATOM     24  C25 <0> d   1      18.898   0.303   6.582  0.00  0.00     0.038 C 
ATOM     25  C24 <0> d   1      19.108   1.069   7.916  0.00  0.00     0.022 C 
BRANCH  22  26
ATOM     26  C28 <0> d   1      18.806  -2.165   6.212  0.00  0.00     0.196 C 
ATOM     27  O29 <0> d   1      19.965  -2.519   6.345  0.00  0.00    -0.646 OA
ATOM     28  O30 <0> d   1      18.084  -2.729   5.409  0.00  0.00    -0.646 OA
ENDBRANCH  22  26
ENDBRANCH  17  19
ENDBRANCH  15  17
ENDBRANCH   1  15
TORSDOF 10
ENDMDL
MODEL 2
REMARK VINA RESULT:      -7.4      2.512      7.830
REMARK  10 active torsions:
REMARK  status: ('A' for Active; 'I' for Inactive)
REMARK    1  A    between atoms: C2_2  and  O3_3 
REMARK    2  A    between atoms: O3_3  and  C4_4 
REMARK    3  A    between atoms: C4_4  and  C6_6 
REMARK    4  A    between atoms: C6_6  and  C8_7 
REMARK    5  A    between atoms: C6_6  and  N16_15 
REMARK    6  A    between atoms: C8_7  and  C9_8 
REMARK    7  A    between atoms: C9_8  and  C10_9 
REMARK    8  A    between atoms: N16_15  and  C17_16 
REMARK    9  A    between atoms: C17_16  and  C20_18 
REMARK       I    between atoms: C20_18  and  N22_20 
REMARK   10  A    between atoms: C26_24  and  C28_25 
ROOT
ATOM      1  C6  <0> d   1      18.514   0.029  11.507  0.00  0.00     0.320 C 
ENDROOT
BRANCH   1   2
ATOM      2  C4  <0> d   1      17.174   0.712  11.441  0.00  0.00     0.292 C 
ATOM      3  O5  <0> d   1      16.159   0.063  11.529  0.00  0.00    -0.263 OA
BRANCH   2   4
ATOM      4  O3  <0> d   1      17.106   2.044  11.285  0.00  0.00    -0.320 OA
BRANCH   4   5
ATOM      5  C2  <0> d   1      18.361   2.751  11.103  0.00  0.00     0.174 C 
ATOM      6  C1  <0> d   1      18.305   3.566   9.809  0.00  0.00     0.034 C 
ENDBRANCH   4   5
ENDBRANCH   2   4
ENDBRANCH   1   2
BRANCH   1   7
ATOM      7  C8  <0> d   1      18.654  -0.938  10.329  0.00  0.00     0.051 C 
BRANCH   7   8
ATOM      8  C9  <0> d   1      19.638  -0.360   9.309  0.00  0.00     0.041 C 
BRANCH   8   9
ATOM      9  C10 <0> d   1      19.049  -0.472   7.926  0.00  0.00    -0.058 A 
ATOM     10  C15 <0> d   1      19.132  -1.665   7.234  0.00  0.00     0.007 A 
ATOM     11  C14 <0> d   1      18.587  -1.769   5.967  0.00  0.00     0.001 A 
ATOM     12  C13 <0> d   1      17.969  -0.677   5.389  0.00  0.00     0.000 A 
ATOM     13  C12 <0> d   1      17.891   0.519   6.079  0.00  0.00     0.001 A 
ATOM     14  C11 <0> d   1      18.432   0.622   7.347  0.00  0.00     0.007 A 
ENDBRANCH   8   9
ENDBRANCH   7   8
ENDBRANCH   1   7
BRANCH   1  15
ATOM     15  N16 <0> d   1      18.622  -0.718  12.768  0.00  0.00     0.111 N 
ATOM     16  H45 <0> d   1      17.769  -0.649  13.302  0.00  0.00     0.318 HD
BRANCH  15  17
ATOM     17  C17 <0> d   1      19.775  -0.258  13.555  0.00  0.00     0.308 C 
ATOM     18  C19 <0> d   1      20.765   0.460  12.637  0.00  0.00     0.053 C 
BRANCH  17  19
ATOM     19  C20 <0> d   1      19.303   0.692  14.627  0.00  0.00     0.253 C 
ATOM     20  O21 <0> d   1      19.516   1.881  14.520  0.00  0.00    -0.271 OA
ATOM     21  N22 <0> d   1      18.645   0.218  15.703  0.00  0.00    -0.336 N 
ATOM     22  C26 <0> d   1      18.131   1.028  16.818  0.00  0.00     0.188 C 
ATOM     23  C23 <0> d   1      18.326  -1.197  15.961  0.00  0.00     0.127 C 
ATOM     24  C25 <0> d   1      17.429   0.066  17.798  0.00  0.00     0.038 C 
ATOM     25  C24 <0> d   1      17.099  -1.161  16.907  0.00  0.00     0.022 C 
BRANCH  22  26
ATOM     26  C28 <0> d   1      19.266   1.734  17.516  0.00  0.00     0.196 C 
ATOM     27  O29 <0> d   1      19.948   1.135  18.329  0.00  0.00    -0.646 OA
ATOM     28  O30 <0> d   1      19.498   2.905  17.268  0.00  0.00    -0.646 OA
ENDBRANCH  22  26
ENDBRANCH  17  19
ENDBRANCH  15  17
ENDBRANCH   1  15
TORSDOF 10
ENDMDL
MODEL 3
REMARK VINA RESULT:      -7.3      1.955      3.968
REMARK  10 active torsions:
REMARK  status: ('A' for Active; 'I' for Inactive)
REMARK    1  A    between atoms: C2_2  and  O3_3 
REMARK    2  A    between atoms: O3_3  and  C4_4 
REMARK    3  A    between atoms: C4_4  and  C6_6 
REMARK    4  A    between atoms: C6_6  and  C8_7 
REMARK    5  A    between atoms: C6_6  and  N16_15 
REMARK    6  A    between atoms: C8_7  and  C9_8 
REMARK    7  A    between atoms: C9_8  and  C10_9 
REMARK    8  A    between atoms: N16_15  and  C17_16 
REMARK    9  A    between atoms: C17_16  and  C20_18 
REMARK       I    between atoms: C20_18  and  N22_20 
REMARK   10  A    between atoms: C26_24  and  C28_25 
ROOT
ATOM      1  C6  <0> d   1      18.006  -0.431  10.882  0.00  0.00     0.320 C 
ENDROOT
BRANCH   1   2
ATOM      2  C4  <0> d   1      16.985   0.009  11.898  0.00  0.00     0.292 C 
ATOM      3  O5  <0> d   1      15.819   0.080  11.593  0.00  0.00    -0.263 OA
BRANCH   2   4
ATOM      4  O3  <0> d   1      17.372   0.322  13.145  0.00  0.00    -0.320 OA
BRANCH   4   5
ATOM      5  C2  <0> d   1      18.714  -0.068  13.537  0.00  0.00     0.174 C 
ATOM      6  C1  <0> d   1      19.317   1.011  14.439  0.00  0.00     0.034 C 
ENDBRANCH   4   5
ENDBRANCH   2   4
ENDBRANCH   1   2
BRANCH   1   7
ATOM      7  C8  <0> d   1      17.887   0.439   9.629  0.00  0.00     0.051 C 
BRANCH   7   8
ATOM      8  C9  <0> d   1      19.101   1.366   9.534  0.00  0.00     0.041 C 
BRANCH   8   9
ATOM      9  C10 <0> d   1      18.884   2.568  10.417  0.00  0.00    -0.058 A 
ATOM     10  C15 <0> d   1      19.848   2.930  11.339  0.00  0.00     0.007 A 
ATOM     11  C14 <0> d   1      19.652   4.036  12.146  0.00  0.00     0.001 A 
ATOM     12  C13 <0> d   1      18.487   4.772  12.038  0.00  0.00     0.000 A 
ATOM     13  C12 <0> d   1      17.520   4.406  11.119  0.00  0.00     0.001 A 
ATOM     14  C11 <0> d   1      17.719   3.304  10.310  0.00  0.00     0.007 A 
ENDBRANCH   8   9
ENDBRANCH   7   8
ENDBRANCH   1   7
BRANCH   1  15
ATOM     15  N16 <0> d   1      17.768  -1.836  10.525  0.00  0.00     0.111 N 
ATOM     16  H45 <0> d   1      17.331  -2.334  11.287  0.00  0.00     0.318 HD
BRANCH  15  17
ATOM     17  C17 <0> d   1      19.016  -2.494  10.115  0.00  0.00     0.308 C 
ATOM     18  C19 <0> d   1      19.655  -3.175  11.327  0.00  0.00     0.053 C 
BRANCH  17  19
ATOM     19  C20 <0> d   1      18.716  -3.527   9.059  0.00  0.00     0.253 C 
ATOM     20  O21 <0> d   1      18.274  -4.611   9.378  0.00  0.00    -0.271 OA
ATOM     21  N22 <0> d   1      18.939  -3.245   7.760  0.00  0.00    -0.336 N 
ATOM     22  C26 <0> d   1      18.690  -4.155   6.632  0.00  0.00     0.188 C 
ATOM     23  C23 <0> d   1      19.475  -1.977   7.235  0.00  0.00     0.127 C 
ATOM     24  C25 <0> d   1      19.063  -3.396   5.341  0.00  0.00     0.038 C 
ATOM     25  C24 <0> d   1      18.971  -1.908   5.772  0.00  0.00     0.022 C 
BRANCH  22  26
ATOM     26  C28 <0> d   1      19.542  -5.393   6.762  0.00  0.00     0.196 C 
ATOM     27  O29 <0> d   1      19.046  -6.493   6.592  0.00  0.00    -0.646 OA
ATOM     28  O30 <0> d   1      20.724  -5.291   7.038  0.00  0.00    -0.646 OA
ENDBRANCH  22  26
ENDBRANCH  17  19
ENDBRANCH  15  17
ENDBRANCH   1  15
TORSDOF 10
ENDMDL
MODEL 4
REMARK VINA RESULT:      -7.2      1.774      3.359
REMARK  10 active torsions:
REMARK  status: ('A' for Active; 'I' for Inactive)
REMARK    1  A    between atoms: C2_2  and  O3_3 
REMARK    2  A    between atoms: O3_3  and  C4_4 
REMARK    3  A    between atoms: C4_4  and  C6_6 
REMARK    4  A    between atoms: C6_6  and  C8_7 
REMARK    5  A    between atoms: C6_6  and  N16_15 
REMARK    6  A    between atoms: C8_7  and  C9_8 
REMARK    7  A    between atoms: C9_8  and  C10_9 
REMARK    8  A    between atoms: N16_15  and  C17_16 
REMARK    9  A    between atoms: C17_16  and  C20_18 
REMARK       I    between atoms: C20_18  and  N22_20 
REMARK   10  A    between atoms: C26_24  and  C28_25 
ROOT
ATOM      1  C6  <0> d   1      17.336   1.122  10.537  0.00  0.00     0.320 C 
ENDROOT
BRANCH   1   2
ATOM      2  C4  <0> d   1      17.749   2.570  10.560  0.00  0.00     0.292 C 
ATOM      3  O5  <0> d   1      18.681   2.944   9.888  0.00  0.00    -0.263 OA
BRANCH   2   4
ATOM      4  O3  <0> d   1      17.082   3.446  11.327  0.00  0.00    -0.320 OA
BRANCH   4   5
ATOM      5  C2  <0> d   1      17.870   4.446  12.025  0.00  0.00     0.174 C 
ATOM      6  C1  <0> d   1      18.400   3.857  13.334  0.00  0.00     0.034 C 
ENDBRANCH   4   5
ENDBRANCH   2   4
ENDBRANCH   1   2
BRANCH   1   7
ATOM      7  C8  <0> d   1      17.188   0.610  11.971  0.00  0.00     0.051 C 
BRANCH   7   8
ATOM      8  C9  <0> d   1      18.564   0.223  12.519  0.00  0.00     0.041 C 
BRANCH   8   9
ATOM      9  C10 <0> d   1      18.430  -0.191  13.962  0.00  0.00    -0.058 A 
ATOM     10  C15 <0> d   1      19.196  -1.230  14.456  0.00  0.00     0.007 A 
ATOM     11  C14 <0> d   1      19.077  -1.606  15.782  0.00  0.00     0.001 A 
ATOM     12  C13 <0> d   1      18.186  -0.949  16.609  0.00  0.00     0.000 A 
ATOM     13  C12 <0> d   1      17.417   0.087  16.113  0.00  0.00     0.001 A 
ATOM     14  C11 <0> d   1      17.538   0.466  14.790  0.00  0.00     0.007 A 
ENDBRANCH   8   9
ENDBRANCH   7   8
ENDBRANCH   1   7
BRANCH   1  15
ATOM     15  N16 <0> d   1      18.358   0.331   9.838  0.00  0.00     0.111 N 
ATOM     16  H45 <0> d   1      18.990   0.929   9.327  0.00  0.00     0.318 HD
BRANCH  15  17
ATOM     17  C17 <0> d   1      17.740  -0.662   8.950  0.00  0.00     0.308 C 
ATOM     18  C19 <0> d   1      17.573  -0.063   7.553  0.00  0.00     0.053 C 
BRANCH  17  19
ATOM     19  C20 <0> d   1      18.621  -1.883   8.871  0.00  0.00     0.253 C 
ATOM     20  O21 <0> d   1      19.452  -1.975   7.992  0.00  0.00    -0.271 OA
ATOM     21  N22 <0> d   1      18.485  -2.871   9.777  0.00  0.00    -0.336 N 
ATOM     22  C26 <0> d   1      19.275  -4.110   9.819  0.00  0.00     0.188 C 
ATOM     23  C23 <0> d   1      17.517  -2.891  10.888  0.00  0.00     0.127 C 
ATOM     24  C25 <0> d   1      18.792  -4.922  11.038  0.00  0.00     0.038 C 
ATOM     25  C24 <0> d   1      18.140  -3.841  11.941  0.00  0.00     0.022 C 
BRANCH  22  26
ATOM     26  C28 <0> d   1      19.064  -4.907   8.556  0.00  0.00     0.196 C 
ATOM     27  O29 <0> d   1      17.935  -5.213   8.211  0.00  0.00    -0.646 OA
ATOM     28  O30 <0> d   1      20.021  -5.244   7.881  0.00  0.00    -0.646 OA
ENDBRANCH  22  26
ENDBRANCH  17  19
ENDBRANCH  15  17
ENDBRANCH   1  15
TORSDOF 10
ENDMDL
MODEL 5
REMARK VINA RESULT:      -7.2      2.006      4.669
REMARK  10 active torsions:
REMARK  status: ('A' for Active; 'I' for Inactive)
REMARK    1  A    between atoms: C2_2  and  O3_3 
REMARK    2  A    between atoms: O3_3  and  C4_4 
REMARK    3  A    between atoms: C4_4  and  C6_6 
REMARK    4  A    between atoms: C6_6  and  C8_7 
REMARK    5  A    between atoms: C6_6  and  N16_15 
REMARK    6  A    between atoms: C8_7  and  C9_8 
REMARK    7  A    between atoms: C9_8  and  C10_9 
REMARK    8  A    between atoms: N16_15  and  C17_16 
REMARK    9  A    between atoms: C17_16  and  C20_18 
REMARK       I    between atoms: C20_18  and  N22_20 
REMARK   10  A    between atoms: C26_24  and  C28_25 
ROOT
ATOM      1  C6  <0> d   1      18.054   0.323  12.431  0.00  0.00     0.320 C 
ENDROOT
BRANCH   1   2
ATOM      2  C4  <0> d   1      18.864   0.579  13.675  0.00  0.00     0.292 C 
ATOM      3  O5  <0> d   1      20.057   0.747  13.596  0.00  0.00    -0.263 OA
BRANCH   2   4
ATOM      4  O3  <0> d   1      18.259   0.621  14.873  0.00  0.00    -0.320 OA
BRANCH   4   5
ATOM      5  C2  <0> d   1      18.982   0.056  15.997  0.00  0.00     0.174 C 
ATOM      6  C1  <0> d   1      18.511  -1.380  16.237  0.00  0.00     0.034 C 
ENDBRANCH   4   5
ENDBRANCH   2   4
ENDBRANCH   1   2
BRANCH   1   7
ATOM      7  C8  <0> d   1      17.553  -1.123  12.435  0.00  0.00     0.051 C 
BRANCH   7   8
ATOM      8  C9  <0> d   1      18.730  -2.069  12.681  0.00  0.00     0.041 C 
BRANCH   8   9
ATOM      9  C10 <0> d   1      18.566  -3.304  11.833  0.00  0.00    -0.058 A 
ATOM     10  C15 <0> d   1      19.675  -3.914  11.278  0.00  0.00     0.007 A 
ATOM     11  C14 <0> d   1      19.525  -5.049  10.503  0.00  0.00     0.001 A 
ATOM     12  C13 <0> d   1      18.264  -5.569  10.276  0.00  0.00     0.000 A 
ATOM     13  C12 <0> d   1      17.154  -4.956  10.827  0.00  0.00     0.001 A 
ATOM     14  C11 <0> d   1      17.304  -3.823  11.604  0.00  0.00     0.007 A 
ENDBRANCH   8   9
ENDBRANCH   7   8
ENDBRANCH   1   7
BRANCH   1  15
ATOM     15  N16 <0> d   1      18.893   0.547  11.246  0.00  0.00     0.111 N 
ATOM     16  H45 <0> d   1      19.686   1.129  11.469  0.00  0.00     0.318 HD
BRANCH  15  17
ATOM     17  C17 <0> d   1      18.108   1.126  10.147  0.00  0.00     0.308 C 
ATOM     18  C19 <0> d   1      17.993   2.638  10.345  0.00  0.00     0.053 C 
BRANCH  17  19
ATOM     19  C20 <0> d   1      18.795   0.841   8.835  0.00  0.00     0.253 C 
ATOM     20  O21 <0> d   1      19.532   1.671   8.344  0.00  0.00    -0.271 OA
ATOM     21  N22 <0> d   1      18.591  -0.335   8.210  0.00  0.00    -0.336 N 
ATOM     22  C26 <0> d   1      19.195  -0.742   6.933  0.00  0.00     0.188 C 
ATOM     23  C23 <0> d   1      17.722  -1.424   8.690  0.00  0.00     0.127 C 
ATOM     24  C25 <0> d   1      18.698  -2.169   6.624  0.00  0.00     0.038 C 
ATOM     25  C24 <0> d   1      18.283  -2.704   8.022  0.00  0.00     0.022 C 
BRANCH  22  26
ATOM     26  C28 <0> d   1      18.770   0.197   5.832  0.00  0.00     0.196 C 
ATOM     27  O29 <0> d   1      19.596   0.627   5.044  0.00  0.00    -0.646 OA
ATOM     28  O30 <0> d   1      17.601   0.527   5.730  0.00  0.00    -0.646 OA
ENDBRANCH  22  26
ENDBRANCH  17  19
ENDBRANCH  15  17
ENDBRANCH   1  15
TORSDOF 10
ENDMDL
MODEL 6
REMARK VINA RESULT:      -7.1      2.789      5.961
REMARK  10 active torsions:
REMARK  status: ('A' for Active; 'I' for Inactive)
REMARK    1  A    between atoms: C2_2  and  O3_3 
REMARK    2  A    between atoms: O3_3  and  C4_4 
REMARK    3  A    between atoms: C4_4  and  C6_6 
REMARK    4  A    between atoms: C6_6  and  C8_7 
REMARK    5  A    between atoms: C6_6  and  N16_15 
REMARK    6  A    between atoms: C8_7  and  C9_8 
REMARK    7  A    between atoms: C9_8  and  C10_9 
REMARK    8  A    between atoms: N16_15  and  C17_16 
REMARK    9  A    between atoms: C17_16  and  C20_18 
REMARK       I    between atoms: C20_18  and  N22_20 
REMARK   10  A    between atoms: C26_24  and  C28_25 
ROOT
ATOM      1  C6  <0> d   1      18.670   1.097  10.732  0.00  0.00     0.320 C 
ENDROOT
BRANCH   1   2
ATOM      2  C4  <0> d   1      18.513   2.456  11.362  0.00  0.00     0.292 C 
ATOM      3  O5  <0> d   1      19.490   3.094  11.675  0.00  0.00    -0.263 OA
BRANCH   2   4
ATOM      4  O3  <0> d   1      17.287   2.959  11.577  0.00  0.00    -0.320 OA
BRANCH   4   5
ATOM      5  C2  <0> d   1      17.188   4.394  11.773  0.00  0.00     0.174 C 
ATOM      6  C1  <0> d   1      17.116   5.091  10.412  0.00  0.00     0.034 C 
ENDBRANCH   4   5
ENDBRANCH   2   4
ENDBRANCH   1   2
BRANCH   1   7
ATOM      7  C8  <0> d   1      17.941   1.071   9.387  0.00  0.00     0.051 C 
BRANCH   7   8
ATOM      8  C9  <0> d   1      18.890   1.540   8.282  0.00  0.00     0.041 C 
BRANCH   8   9
ATOM      9  C10 <0> d   1      18.572   0.809   7.003  0.00  0.00    -0.058 A 
ATOM     10  C15 <0> d   1      17.361   0.158   6.863  0.00  0.00     0.007 A 
ATOM     11  C14 <0> d   1      17.066  -0.509   5.688  0.00  0.00     0.001 A 
ATOM     12  C13 <0> d   1      17.987  -0.533   4.657  0.00  0.00     0.000 A 
ATOM     13  C12 <0> d   1      19.201   0.114   4.800  0.00  0.00     0.001 A 
ATOM     14  C11 <0> d   1      19.494   0.784   5.973  0.00  0.00     0.007 A 
ENDBRANCH   8   9
ENDBRANCH   7   8
ENDBRANCH   1   7
BRANCH   1  15
ATOM     15  N16 <0> d   1      18.097   0.076  11.619  0.00  0.00     0.111 N 
ATOM     16  H45 <0> d   1      18.061   0.405  12.572  0.00  0.00     0.318 HD
BRANCH  15  17
ATOM     17  C17 <0> d   1      18.848  -1.184  11.525  0.00  0.00     0.308 C 
ATOM     18  C19 <0> d   1      19.281  -1.623  12.925  0.00  0.00     0.053 C 
BRANCH  17  19
ATOM     19  C20 <0> d   1      17.971  -2.246  10.914  0.00  0.00     0.253 C 
ATOM     20  O21 <0> d   1      16.969  -2.613  11.491  0.00  0.00    -0.271 OA
ATOM     21  N22 <0> d   1      18.301  -2.789   9.725  0.00  0.00    -0.336 N 
ATOM     22  C26 <0> d   1      17.538  -3.828   9.017  0.00  0.00     0.188 C 
ATOM     23  C23 <0> d   1      19.486  -2.442   8.921  0.00  0.00     0.127 C 
ATOM     24  C25 <0> d   1      18.275  -4.114   7.692  0.00  0.00     0.038 C 
ATOM     25  C24 <0> d   1      19.106  -2.822   7.468  0.00  0.00     0.022 C 
BRANCH  22  26
ATOM     26  C28 <0> d   1      17.472  -5.084   9.848  0.00  0.00     0.196 C 
ATOM     27  O29 <0> d   1      18.497  -5.592  10.268  0.00  0.00    -0.646 OA
ATOM     28  O30 <0> d   1      16.392  -5.592  10.098  0.00  0.00    -0.646 OA
ENDBRANCH  22  26
ENDBRANCH  17  19
ENDBRANCH  15  17
ENDBRANCH   1  15
TORSDOF 10
ENDMDL
MODEL 7
REMARK VINA RESULT:      -7.1      2.102      5.503
REMARK  10 active torsions:
REMARK  status: ('A' for Active; 'I' for Inactive)
REMARK    1  A    between atoms: C2_2  and  O3_3 
REMARK    2  A    between atoms: O3_3  and  C4_4 
REMARK    3  A    between atoms: C4_4  and  C6_6 
REMARK    4  A    between atoms: C6_6  and  C8_7 
REMARK    5  A    between atoms: C6_6  and  N16_15 
REMARK    6  A    between atoms: C8_7  and  C9_8 
REMARK    7  A    between atoms: C9_8  and  C10_9 
REMARK    8  A    between atoms: N16_15  and  C17_16 
REMARK    9  A    between atoms: C17_16  and  C20_18 
REMARK       I    between atoms: C20_18  and  N22_20 
REMARK   10  A    between atoms: C26_24  and  C28_25 
ROOT
ATOM      1  C6  <0> d   1      18.045  -0.667  11.631  0.00  0.00     0.320 C 
ENDROOT
BRANCH   1   2
ATOM      2  C4  <0> d   1      17.760  -0.403  13.087  0.00  0.00     0.292 C 
ATOM      3  O5  <0> d   1      17.243   0.636  13.423  0.00  0.00    -0.263 OA
BRANCH   2   4
ATOM      4  O3  <0> d   1      18.080  -1.322  14.011  0.00  0.00    -0.320 OA
BRANCH   4   5
ATOM      5  C2  <0> d   1      19.107  -0.961  14.972  0.00  0.00     0.174 C 
ATOM      6  C1  <0> d   1      18.724  -1.500  16.353  0.00  0.00     0.034 C 
ENDBRANCH   4   5
ENDBRANCH   2   4
ENDBRANCH   1   2
BRANCH   1   7
ATOM      7  C8  <0> d   1      17.333   0.381  10.773  0.00  0.00     0.051 C 
BRANCH   7   8
ATOM      8  C9  <0> d   1      18.370   1.188   9.989  0.00  0.00     0.041 C 
BRANCH   8   9
ATOM      9  C10 <0> d   1      18.251   0.867   8.521  0.00  0.00    -0.058 A 
ATOM     10  C15 <0> d   1      17.254   0.018   8.079  0.00  0.00     0.007 A 
ATOM     11  C14 <0> d   1      17.141  -0.274   6.732  0.00  0.00     0.001 A 
ATOM     12  C13 <0> d   1      18.032   0.276   5.829  0.00  0.00     0.000 A 
ATOM     13  C12 <0> d   1      19.033   1.121   6.272  0.00  0.00     0.001 A 
ATOM     14  C11 <0> d   1      19.143   1.416   7.618  0.00  0.00     0.007 A 
ENDBRANCH   8   9
ENDBRANCH   7   8
ENDBRANCH   1   7
BRANCH   1  15
ATOM     15  N16 <0> d   1      17.560  -2.006  11.272  0.00  0.00     0.111 N 
ATOM     16  H45 <0> d   1      17.308  -2.532  12.096  0.00  0.00     0.318 HD
BRANCH  15  17
ATOM     17  C17 <0> d   1      18.556  -2.729  10.470  0.00  0.00     0.308 C 
ATOM     18  C19 <0> d   1      19.600  -3.354  11.396  0.00  0.00     0.053 C 
BRANCH  17  19
ATOM     19  C20 <0> d   1      17.870  -3.816   9.680  0.00  0.00     0.253 C 
ATOM     20  O21 <0> d   1      17.010  -4.494  10.202  0.00  0.00    -0.271 OA
ATOM     21  N22 <0> d   1      18.214  -4.032   8.395  0.00  0.00    -0.336 N 
ATOM     22  C26 <0> d   1      17.629  -5.053   7.513  0.00  0.00     0.188 C 
ATOM     23  C23 <0> d   1      19.241  -3.290   7.643  0.00  0.00     0.127 C 
ATOM     24  C25 <0> d   1      18.308  -4.911   6.134  0.00  0.00     0.038 C 
ATOM     25  C24 <0> d   1      18.839  -3.452   6.156  0.00  0.00     0.022 C 
BRANCH  22  26
ATOM     26  C28 <0> d   1      17.883  -6.431   8.069  0.00  0.00     0.196 C 
ATOM     27  O29 <0> d   1      19.024  -6.800   8.288  0.00  0.00    -0.646 OA
ATOM     28  O30 <0> d   1      16.946  -7.177   8.297  0.00  0.00    -0.646 OA
ENDBRANCH  22  26
ENDBRANCH  17  19
ENDBRANCH  15  17
ENDBRANCH   1  15
TORSDOF 10
ENDMDL
MODEL 8
REMARK VINA RESULT:      -7.1      1.811      2.623
REMARK  10 active torsions:
REMARK  status: ('A' for Active; 'I' for Inactive)
REMARK    1  A    between atoms: C2_2  and  O3_3 
REMARK    2  A    between atoms: O3_3  and  C4_4 
REMARK    3  A    between atoms: C4_4  and  C6_6 
REMARK    4  A    between atoms: C6_6  and  C8_7 
REMARK    5  A    between atoms: C6_6  and  N16_15 
REMARK    6  A    between atoms: C8_7  and  C9_8 
REMARK    7  A    between atoms: C9_8  and  C10_9 
REMARK    8  A    between atoms: N16_15  and  C17_16 
REMARK    9  A    between atoms: C17_16  and  C20_18 
REMARK       I    between atoms: C20_18  and  N22_20 
REMARK   10  A    between atoms: C26_24  and  C28_25 
ROOT
ATOM      1  C6  <0> d   1      19.405  -0.735  12.531  0.00  0.00     0.320 C 
ENDROOT
BRANCH   1   2
ATOM      2  C4  <0> d   1      20.092   0.604  12.451  0.00  0.00     0.292 C 
ATOM      3  O5  <0> d   1      21.279   0.662  12.239  0.00  0.00    -0.263 OA
BRANCH   2   4
ATOM      4  O3  <0> d   1      19.384   1.732  12.616  0.00  0.00    -0.320 OA
BRANCH   4   5
ATOM      5  C2  <0> d   1      18.384   2.036  11.608  0.00  0.00     0.174 C 
ATOM      6  C1  <0> d   1      18.943   3.070  10.629  0.00  0.00     0.034 C 
ENDBRANCH   4   5
ENDBRANCH   2   4
ENDBRANCH   1   2
BRANCH   1   7
ATOM      7  C8  <0> d   1      19.612  -1.333  13.925  0.00  0.00     0.051 C 
BRANCH   7   8
ATOM      8  C9  <0> d   1      18.338  -1.148  14.753  0.00  0.00     0.041 C 
BRANCH   8   9
ATOM      9  C10 <0> d   1      18.650  -0.325  15.976  0.00  0.00    -0.058 A 
ATOM     10  C15 <0> d   1      18.606   1.054  15.910  0.00  0.00     0.007 A 
ATOM     11  C14 <0> d   1      18.888   1.810  17.034  0.00  0.00     0.001 A 
ATOM     12  C13 <0> d   1      19.223   1.184  18.220  0.00  0.00     0.000 A 
ATOM     13  C12 <0> d   1      19.272  -0.196  18.285  0.00  0.00     0.001 A 
ATOM     14  C11 <0> d   1      18.987  -0.951  17.163  0.00  0.00     0.007 A 
ENDBRANCH   8   9
ENDBRANCH   7   8
ENDBRANCH   1   7
BRANCH   1  15
ATOM     15  N16 <0> d   1      19.974  -1.638  11.522  0.00  0.00     0.111 N 
ATOM     16  H45 <0> d   1      20.782  -1.224  11.080  0.00  0.00     0.318 HD
BRANCH  15  17
ATOM     17  C17 <0> d   1      18.964  -2.016  10.524  0.00  0.00     0.308 C 
ATOM     18  C19 <0> d   1      17.583  -1.561  11.000  0.00  0.00     0.053 C 
BRANCH  17  19
ATOM     19  C20 <0> d   1      19.286  -1.355   9.208  0.00  0.00     0.253 C 
ATOM     20  O21 <0> d   1      19.715  -0.220   9.189  0.00  0.00    -0.271 OA
ATOM     21  N22 <0> d   1      19.097  -2.025   8.055  0.00  0.00    -0.336 N 
ATOM     22  C26 <0> d   1      19.369  -1.503   6.707  0.00  0.00     0.188 C 
ATOM     23  C23 <0> d   1      18.579  -3.399   7.933  0.00  0.00     0.127 C 
ATOM     24  C25 <0> d   1      19.032  -2.626   5.704  0.00  0.00     0.038 C 
ATOM     25  C24 <0> d   1      19.119  -3.909   6.574  0.00  0.00     0.022 C 
BRANCH  22  26
ATOM     26  C28 <0> d   1      18.510  -0.295   6.431  0.00  0.00     0.196 C 
ATOM     27  O29 <0> d   1      19.027   0.760   6.108  0.00  0.00    -0.646 OA
ATOM     28  O30 <0> d   1      17.298  -0.375   6.533  0.00  0.00    -0.646 OA
ENDBRANCH  22  26
ENDBRANCH  17  19
ENDBRANCH  15  17
ENDBRANCH   1  15
TORSDOF 10
ENDMDL
MODEL 9
REMARK VINA RESULT:      -7.1      2.906      5.974
REMARK  10 active torsions:
REMARK  status: ('A' for Active; 'I' for Inactive)
REMARK    1  A    between atoms: C2_2  and  O3_3 
REMARK    2  A    between atoms: O3_3  and  C4_4 
REMARK    3  A    between atoms: C4_4  and  C6_6 
REMARK    4  A    between atoms: C6_6  and  C8_7 
REMARK    5  A    between atoms: C6_6  and  N16_15 
REMARK    6  A    between atoms: C8_7  and  C9_8 
REMARK    7  A    between atoms: C9_8  and  C10_9 
REMARK    8  A    between atoms: N16_15  and  C17_16 
REMARK    9  A    between atoms: C17_16  and  C20_18 
REMARK       I    between atoms: C20_18  and  N22_20 
REMARK   10  A    between atoms: C26_24  and  C28_25 
ROOT
ATOM      1  C6  <0> d   1      18.155   0.104  10.463  0.00  0.00     0.320 C 
ENDROOT
BRANCH   1   2
ATOM      2  C4  <0> d   1      17.623   0.736  11.722  0.00  0.00     0.292 C 
ATOM      3  O5  <0> d   1      16.478   0.548  12.057  0.00  0.00    -0.263 OA
BRANCH   2   4
ATOM      4  O3  <0> d   1      18.423   1.508  12.475  0.00  0.00    -0.320 OA
BRANCH   4   5
ATOM      5  C2  <0> d   1      19.774   1.728  11.990  0.00  0.00     0.174 C 
ATOM      6  C1  <0> d   1      19.935   3.192  11.575  0.00  0.00     0.034 C 
ENDBRANCH   4   5
ENDBRANCH   2   4
ENDBRANCH   1   2
BRANCH   1   7
ATOM      7  C8  <0> d   1      17.664   0.895   9.248  0.00  0.00     0.051 C 
BRANCH   7   8
ATOM      8  C9  <0> d   1      18.842   1.175   8.312  0.00  0.00     0.041 C 
BRANCH   8   9
ATOM      9  C10 <0> d   1      18.569   0.560   6.964  0.00  0.00    -0.058 A 
ATOM     10  C15 <0> d   1      19.470   0.732   5.930  0.00  0.00     0.007 A 
ATOM     11  C14 <0> d   1      19.222   0.163   4.695  0.00  0.00     0.001 A 
ATOM     12  C13 <0> d   1      18.067  -0.569   4.490  0.00  0.00     0.000 A 
ATOM     13  C12 <0> d   1      17.162  -0.736   5.523  0.00  0.00     0.001 A 
ATOM     14  C11 <0> d   1      17.413  -0.171   6.759  0.00  0.00     0.007 A 
ENDBRANCH   8   9
ENDBRANCH   7   8
ENDBRANCH   1   7
BRANCH   1  15
ATOM     15  N16 <0> d   1      17.675  -1.282  10.370  0.00  0.00     0.111 N 
ATOM     16  H45 <0> d   1      17.325  -1.603  11.260  0.00  0.00     0.318 HD
BRANCH  15  17
ATOM     17  C17 <0> d   1      18.732  -2.172   9.868  0.00  0.00     0.308 C 
ATOM     18  C19 <0> d   1      19.674  -2.542  11.014  0.00  0.00     0.053 C 
BRANCH  17  19
ATOM     19  C20 <0> d   1      18.107  -3.424   9.306  0.00  0.00     0.253 C 
ATOM     20  O21 <0> d   1      17.255  -4.012   9.936  0.00  0.00    -0.271 OA
ATOM     21  N22 <0> d   1      18.499  -3.889   8.103  0.00  0.00    -0.336 N 
ATOM     22  C26 <0> d   1      17.975  -5.092   7.438  0.00  0.00     0.188 C 
ATOM     23  C23 <0> d   1      19.523  -3.279   7.237  0.00  0.00     0.127 C 
ATOM     24  C25 <0> d   1      18.692  -5.212   6.077  0.00  0.00     0.038 C 
ATOM     25  C24 <0> d   1      19.174  -3.761   5.807  0.00  0.00     0.022 C 
BRANCH  22  26
ATOM     26  C28 <0> d   1      18.257  -6.314   8.275  0.00  0.00     0.196 C 
ATOM     27  O29 <0> d   1      17.336  -7.015   8.659  0.00  0.00    -0.646 OA
ATOM     28  O30 <0> d   1      19.405  -6.600   8.568  0.00  0.00    -0.646 OA
ENDBRANCH  22  26
ENDBRANCH  17  19
ENDBRANCH  15  17
ENDBRANCH   1  15
TORSDOF 10
ENDMDL
