MODEL 1
REMARK VINA RESULT:      -8.3      0.000      0.000
REMARK  6 active torsions:
REMARK  status: ('A' for Active; 'I' for Inactive)
REMARK    1  A    between atoms: C2_2  and  C3_3 
REMARK       I    between atoms: C3_3  and  N5_5 
REMARK    2  A    between atoms: N5_5  and  C6_6 
REMARK    3  A    between atoms: N5_5  and  C12_12 
REMARK    4  A    between atoms: N15_15  and  C16_16 
REMARK    5  A    between atoms: C16_16  and  C17_17 
REMARK    6  A    between atoms: C17_17  and  C18_18 
ROOT
ATOM      1  C12 ZIN A   1      18.434   1.752  12.055  0.00  0.00     0.096 C 
ATOM      2  C13 ZIN A   1      17.483   0.557  12.161  0.00  0.00     0.056 C 
ATOM      3  C14 ZIN A   1      17.761  -0.195  13.464  0.00  0.00     0.274 C 
ATOM      4  N15 ZIN A   1      19.157  -0.654  13.478  0.00  0.00     0.088 N 
ATOM      5  C24 ZIN A   1      20.089   0.479  13.424  0.00  0.00     0.274 C 
ATOM      6  C25 ZIN A   1      19.879   1.252  12.120  0.00  0.00     0.056 C 
ENDROOT
BRANCH   1   7
ATOM      7  N5  ZIN A   1      18.212   2.443  10.782  0.00  0.00    -0.313 N 
ATOM      8  C3  ZIN A   1      17.950   3.765  10.770  0.00  0.00     0.224 C 
ATOM      9  O4  ZIN A   1      17.654   4.315   9.729  0.00  0.00    -0.273 OA
BRANCH   8  10
ATOM     10  C2  ZIN A   1      18.028   4.561  12.047  0.00  0.00     0.099 C 
ATOM     11  C1  ZIN A   1      16.654   5.157  12.361  0.00  0.00     0.014 C 
ENDBRANCH   8  10
BRANCH   7  12
ATOM     12  C6  ZIN A   1      18.270   1.730   9.580  0.00  0.00     0.037 A 
ATOM     13  C11 ZIN A   1      17.366   0.705   9.333  0.00  0.00     0.030 A 
ATOM     14  C10 ZIN A   1      17.421   0.008   8.142  0.00  0.00     0.002 A 
ATOM     15  C9  ZIN A   1      18.384   0.322   7.200  0.00  0.00     0.000 A 
ATOM     16  C8  ZIN A   1      19.289   1.338   7.445  0.00  0.00     0.002 A 
ATOM     17  C7  ZIN A   1      19.235   2.043   8.631  0.00  0.00     0.030 A 
ENDBRANCH   7  12
ENDBRANCH   1   7
BRANCH   4  18
ATOM     18  C16 ZIN A   1      19.422  -1.499  14.650  0.00  0.00     0.277 C 
BRANCH  18  19
ATOM     19  C17 ZIN A   1      18.142  -1.645  15.474  0.00  0.00     0.068 C 
BRANCH  19  20
ATOM     20  C18 ZIN A   1      18.184  -0.690  16.640  0.00  0.00    -0.057 A 
ATOM     21  C23 ZIN A   1      19.371  -0.473  17.312  0.00  0.00     0.007 A 
ATOM     22  C22 ZIN A   1      19.410   0.405  18.379  0.00  0.00     0.001 A 
ATOM     23  C21 ZIN A   1      18.260   1.060  18.778  0.00  0.00     0.000 A 
ATOM     24  C20 ZIN A   1      17.071   0.838  18.109  0.00  0.00     0.001 A 
ATOM     25  C19 ZIN A   1      17.033  -0.037  17.039  0.00  0.00     0.007 A 
ENDBRANCH  19  20
ENDBRANCH  18  19
ENDBRANCH   4  18
TORSDOF 6
ENDMDL
MODEL 2
REMARK VINA RESULT:      -8.3      2.143      7.570
REMARK  6 active torsions:
REMARK  status: ('A' for Active; 'I' for Inactive)
REMARK    1  A    between atoms: C2_2  and  C3_3 
REMARK       I    between atoms: C3_3  and  N5_5 
REMARK    2  A    between atoms: N5_5  and  C6_6 
REMARK    3  A    between atoms: N5_5  and  C12_12 
REMARK    4  A    between atoms: N15_15  and  C16_16 
REMARK    5  A    between atoms: C16_16  and  C17_17 
REMARK    6  A    between atoms: C17_17  and  C18_18 
ROOT
ATOM      1  C12 ZIN A   1      18.626   0.664  12.149  0.00  0.00     0.096 C 
ATOM      2  C13 ZIN A   1      20.017   0.118  11.815  0.00  0.00     0.056 C 
ATOM      3  C14 ZIN A   1      19.985  -0.524  10.426  0.00  0.00     0.274 C 
ATOM      4  N15 ZIN A   1      18.996  -1.610  10.409  0.00  0.00     0.088 N 
ATOM      5  C24 ZIN A   1      17.646  -1.102  10.682  0.00  0.00     0.274 C 
ATOM      6  C25 ZIN A   1      17.608  -0.476  12.079  0.00  0.00     0.056 C 
ENDROOT
BRANCH   1   7
ATOM      7  N5  ZIN A   1      18.635   1.229  13.501  0.00  0.00    -0.313 N 
ATOM      8  C3  ZIN A   1      18.849   2.548  13.679  0.00  0.00     0.224 C 
ATOM      9  O4  ZIN A   1      18.970   2.997  14.800  0.00  0.00    -0.273 OA
BRANCH   8  10
ATOM     10  C2  ZIN A   1      18.935   3.465  12.487  0.00  0.00     0.099 C 
ATOM     11  C1  ZIN A   1      19.682   4.742  12.878  0.00  0.00     0.014 C 
ENDBRANCH   8  10
BRANCH   7  12
ATOM     12  C6  ZIN A   1      18.423   0.400  14.607  0.00  0.00     0.037 A 
ATOM     13  C11 ZIN A   1      19.361  -0.569  14.942  0.00  0.00     0.030 A 
ATOM     14  C10 ZIN A   1      19.153  -1.382  16.039  0.00  0.00     0.002 A 
ATOM     15  C9  ZIN A   1      18.005  -1.240  16.798  0.00  0.00     0.000 A 
ATOM     16  C8  ZIN A   1      17.066  -0.281  16.464  0.00  0.00     0.002 A 
ATOM     17  C7  ZIN A   1      17.272   0.539  15.372  0.00  0.00     0.030 A 
ENDBRANCH   7  12
ENDBRANCH   1   7
BRANCH   4  18
ATOM     18  C16 ZIN A   1      19.036  -2.340   9.135  0.00  0.00     0.277 C 
BRANCH  18  19
ATOM     19  C17 ZIN A   1      17.862  -1.903   8.259  0.00  0.00     0.068 C 
BRANCH  19  20
ATOM     20  C18 ZIN A   1      18.382  -1.168   7.051  0.00  0.00    -0.057 A 
ATOM     21  C23 ZIN A   1      18.470   0.211   7.066  0.00  0.00     0.007 A 
ATOM     22  C22 ZIN A   1      18.951   0.886   5.959  0.00  0.00     0.001 A 
ATOM     23  C21 ZIN A   1      19.337   0.181   4.834  0.00  0.00     0.000 A 
ATOM     24  C20 ZIN A   1      19.244  -1.198   4.817  0.00  0.00     0.001 A 
ATOM     25  C19 ZIN A   1      18.767  -1.873   5.926  0.00  0.00     0.007 A 
ENDBRANCH  19  20
ENDBRANCH  18  19
ENDBRANCH   4  18
TORSDOF 6
ENDMDL
MODEL 3
REMARK VINA RESULT:      -8.1      3.686      5.870
REMARK  6 active torsions:
REMARK  status: ('A' for Active; 'I' for Inactive)
REMARK    1  A    between atoms: C2_2  and  C3_3 
REMARK       I    between atoms: C3_3  and  N5_5 
REMARK    2  A    between atoms: N5_5  and  C6_6 
REMARK    3  A    between atoms: N5_5  and  C12_12 
REMARK    4  A    between atoms: N15_15  and  C16_16 
REMARK    5  A    between atoms: C16_16  and  C17_17 
REMARK    6  A    between atoms: C17_17  and  C18_18 
ROOT
ATOM      1  C12 ZIN A   1      18.520  -0.303  10.958  0.00  0.00     0.096 C 
ATOM      2  C13 ZIN A   1      17.268  -1.179  11.052  0.00  0.00     0.056 C 
ATOM      3  C14 ZIN A   1      17.602  -2.453  11.831  0.00  0.00     0.274 C 
ATOM      4  N15 ZIN A   1      18.680  -3.180  11.147  0.00  0.00     0.088 N 
ATOM      5  C24 ZIN A   1      19.906  -2.376  11.086  0.00  0.00     0.274 C 
ATOM      6  C25 ZIN A   1      19.641  -1.099  10.285  0.00  0.00     0.056 C 
ENDROOT
BRANCH   1   7
ATOM      7  N5  ZIN A   1      18.223   0.891  10.163  0.00  0.00    -0.313 N 
ATOM      8  C3  ZIN A   1      17.965   2.063  10.778  0.00  0.00     0.224 C 
ATOM      9  O4  ZIN A   1      17.608   3.023  10.128  0.00  0.00    -0.273 OA
BRANCH   8  10
ATOM     10  C2  ZIN A   1      18.123   2.181  12.271  0.00  0.00     0.099 C 
ATOM     11  C1  ZIN A   1      19.112   3.303  12.593  0.00  0.00     0.014 C 
ENDBRANCH   8  10
BRANCH   7  12
ATOM     12  C6  ZIN A   1      18.206   0.816   8.767  0.00  0.00     0.037 A 
ATOM     13  C11 ZIN A   1      17.259   0.029   8.123  0.00  0.00     0.030 A 
ATOM     14  C10 ZIN A   1      17.240  -0.038   6.743  0.00  0.00     0.002 A 
ATOM     15  C9  ZIN A   1      18.170   0.669   6.003  0.00  0.00     0.000 A 
ATOM     16  C8  ZIN A   1      19.117   1.448   6.640  0.00  0.00     0.002 A 
ATOM     17  C7  ZIN A   1      19.138   1.525   8.019  0.00  0.00     0.030 A 
ENDBRANCH   7  12
ENDBRANCH   1   7
BRANCH   4  18
ATOM     18  C16 ZIN A   1      18.931  -4.477  11.789  0.00  0.00     0.277 C 
BRANCH  18  19
ATOM     19  C17 ZIN A   1      17.655  -5.319  11.754  0.00  0.00     0.068 C 
BRANCH  19  20
ATOM     20  C18 ZIN A   1      17.314  -5.656  10.325  0.00  0.00    -0.057 A 
ATOM     21  C23 ZIN A   1      16.041  -5.415   9.844  0.00  0.00     0.007 A 
ATOM     22  C22 ZIN A   1      15.729  -5.720   8.532  0.00  0.00     0.001 A 
ATOM     23  C21 ZIN A   1      16.688  -6.274   7.704  0.00  0.00     0.000 A 
ATOM     24  C20 ZIN A   1      17.959  -6.520   8.188  0.00  0.00     0.001 A 
ATOM     25  C19 ZIN A   1      18.273  -6.211   9.499  0.00  0.00     0.007 A 
ENDBRANCH  19  20
ENDBRANCH  18  19
ENDBRANCH   4  18
TORSDOF 6
ENDMDL
MODEL 4
REMARK VINA RESULT:      -8.1      3.321      8.385
REMARK  6 active torsions:
REMARK  status: ('A' for Active; 'I' for Inactive)
REMARK    1  A    between atoms: C2_2  and  C3_3 
REMARK       I    between atoms: C3_3  and  N5_5 
REMARK    2  A    between atoms: N5_5  and  C6_6 
REMARK    3  A    between atoms: N5_5  and  C12_12 
REMARK    4  A    between atoms: N15_15  and  C16_16 
REMARK    5  A    between atoms: C16_16  and  C17_17 
REMARK    6  A    between atoms: C17_17  and  C18_18 
ROOT
ATOM      1  C12 ZIN A   1      18.139   0.056  10.197  0.00  0.00     0.096 C 
ATOM      2  C13 ZIN A   1      19.525   0.387   9.636  0.00  0.00     0.056 C 
ATOM      3  C14 ZIN A   1      19.368   1.067   8.274  0.00  0.00     0.274 C 
ATOM      4  N15 ZIN A   1      18.650   0.171   7.358  0.00  0.00     0.088 N 
ATOM      5  C24 ZIN A   1      17.300  -0.123   7.853  0.00  0.00     0.274 C 
ATOM      6  C25 ZIN A   1      17.395  -0.839   9.203  0.00  0.00     0.056 C 
ENDROOT
BRANCH   1   7
ATOM      7  N5  ZIN A   1      18.284  -0.648  11.474  0.00  0.00    -0.313 N 
ATOM      8  C3  ZIN A   1      18.169   0.030  12.634  0.00  0.00     0.224 C 
ATOM      9  O4  ZIN A   1      18.401  -0.526  13.687  0.00  0.00    -0.273 OA
BRANCH   8  10
ATOM     10  C2  ZIN A   1      17.750   1.477  12.622  0.00  0.00     0.099 C 
ATOM     11  C1  ZIN A   1      18.132   2.129  13.953  0.00  0.00     0.014 C 
ENDBRANCH   8  10
BRANCH   7  12
ATOM     12  C6  ZIN A   1      18.543  -2.022  11.490  0.00  0.00     0.037 A 
ATOM     13  C11 ZIN A   1      19.847  -2.487  11.383  0.00  0.00     0.030 A 
ATOM     14  C10 ZIN A   1      20.100  -3.845  11.406  0.00  0.00     0.002 A 
ATOM     15  C9  ZIN A   1      19.054  -4.742  11.525  0.00  0.00     0.000 A 
ATOM     16  C8  ZIN A   1      17.754  -4.283  11.626  0.00  0.00     0.002 A 
ATOM     17  C7  ZIN A   1      17.495  -2.927  11.610  0.00  0.00     0.030 A 
ENDBRANCH   7  12
ENDBRANCH   1   7
BRANCH   4  18
ATOM     18  C16 ZIN A   1      18.603   0.733   6.001  0.00  0.00     0.277 C 
BRANCH  18  19
ATOM     19  C17 ZIN A   1      19.451  -0.128   5.063  0.00  0.00     0.068 C 
BRANCH  19  20
ATOM     20  C18 ZIN A   1      18.743  -1.433   4.802  0.00  0.00    -0.057 A 
ATOM     21  C23 ZIN A   1      17.517  -1.438   4.164  0.00  0.00     0.007 A 
ATOM     22  C22 ZIN A   1      16.869  -2.635   3.921  0.00  0.00     0.001 A 
ATOM     23  C21 ZIN A   1      17.444  -3.826   4.322  0.00  0.00     0.000 A 
ATOM     24  C20 ZIN A   1      18.668  -3.820   4.965  0.00  0.00     0.001 A 
ATOM     25  C19 ZIN A   1      19.318  -2.624   5.205  0.00  0.00     0.007 A 
ENDBRANCH  19  20
ENDBRANCH  18  19
ENDBRANCH   4  18
TORSDOF 6
ENDMDL
MODEL 5
REMARK VINA RESULT:      -8.0      3.020      4.502
REMARK  6 active torsions:
REMARK  status: ('A' for Active; 'I' for Inactive)
REMARK    1  A    between atoms: C2_2  and  C3_3 
REMARK       I    between atoms: C3_3  and  N5_5 
REMARK    2  A    between atoms: N5_5  and  C6_6 
REMARK    3  A    between atoms: N5_5  and  C12_12 
REMARK    4  A    between atoms: N15_15  and  C16_16 
REMARK    5  A    between atoms: C16_16  and  C17_17 
REMARK    6  A    between atoms: C17_17  and  C18_18 
ROOT
ATOM      1  C12 ZIN A   1      18.296  -1.612  10.636  0.00  0.00     0.096 C 
ATOM      2  C13 ZIN A   1      19.654  -0.907  10.587  0.00  0.00     0.056 C 
ATOM      3  C14 ZIN A   1      19.896  -0.185  11.915  0.00  0.00     0.274 C 
ATOM      4  N15 ZIN A   1      18.824   0.792  12.145  0.00  0.00     0.088 N 
ATOM      5  C24 ZIN A   1      17.516   0.133  12.242  0.00  0.00     0.274 C 
ATOM      6  C25 ZIN A   1      17.203  -0.579  10.923  0.00  0.00     0.056 C 
ENDROOT
BRANCH   1   7
ATOM      7  N5  ZIN A   1      18.033  -2.256   9.347  0.00  0.00    -0.313 N 
ATOM      8  C3  ZIN A   1      17.659  -3.550   9.304  0.00  0.00     0.224 C 
ATOM      9  O4  ZIN A   1      17.552  -4.116   8.236  0.00  0.00    -0.273 OA
BRANCH   8  10
ATOM     10  C2  ZIN A   1      17.370  -4.293  10.582  0.00  0.00     0.099 C 
ATOM     11  C1  ZIN A   1      17.441  -5.800  10.324  0.00  0.00     0.014 C 
ENDBRANCH   8  10
BRANCH   7  12
ATOM     12  C6  ZIN A   1      18.173  -1.530   8.160  0.00  0.00     0.037 A 
ATOM     13  C11 ZIN A   1      17.256  -0.537   7.839  0.00  0.00     0.030 A 
ATOM     14  C10 ZIN A   1      17.400   0.184   6.669  0.00  0.00     0.002 A 
ATOM     15  C9  ZIN A   1      18.450  -0.090   5.812  0.00  0.00     0.000 A 
ATOM     16  C8  ZIN A   1      19.362  -1.082   6.126  0.00  0.00     0.002 A 
ATOM     17  C7  ZIN A   1      19.227  -1.802   7.296  0.00  0.00     0.030 A 
ENDBRANCH   7  12
ENDBRANCH   1   7
BRANCH   4  18
ATOM     18  C16 ZIN A   1      19.096   1.602  13.341  0.00  0.00     0.277 C 
BRANCH  18  19
ATOM     19  C17 ZIN A   1      17.929   1.470  14.321  0.00  0.00     0.068 C 
BRANCH  19  20
ATOM     20  C18 ZIN A   1      18.416   0.834  15.598  0.00  0.00    -0.057 A 
ATOM     21  C23 ZIN A   1      18.450  -0.542  15.714  0.00  0.00     0.007 A 
ATOM     22  C22 ZIN A   1      18.900  -1.126  16.884  0.00  0.00     0.001 A 
ATOM     23  C21 ZIN A   1      19.307  -0.334  17.940  0.00  0.00     0.000 A 
ATOM     24  C20 ZIN A   1      19.267   1.044  17.826  0.00  0.00     0.001 A 
ATOM     25  C19 ZIN A   1      18.821   1.628  16.655  0.00  0.00     0.007 A 
ENDBRANCH  19  20
ENDBRANCH  18  19
ENDBRANCH   4  18
TORSDOF 6
ENDMDL
MODEL 6
REMARK VINA RESULT:      -7.9      2.954      6.310
REMARK  6 active torsions:
REMARK  status: ('A' for Active; 'I' for Inactive)
REMARK    1  A    between atoms: C2_2  and  C3_3 
REMARK       I    between atoms: C3_3  and  N5_5 
REMARK    2  A    between atoms: N5_5  and  C6_6 
REMARK    3  A    between atoms: N5_5  and  C12_12 
REMARK    4  A    between atoms: N15_15  and  C16_16 
REMARK    5  A    between atoms: C16_16  and  C17_17 
REMARK    6  A    between atoms: C17_17  and  C18_18 
ROOT
ATOM      1  C12 ZIN A   1      18.378   1.165  11.601  0.00  0.00     0.096 C 
ATOM      2  C13 ZIN A   1      19.659   0.492  11.100  0.00  0.00     0.056 C 
ATOM      3  C14 ZIN A   1      19.448   0.014   9.661  0.00  0.00     0.274 C 
ATOM      4  N15 ZIN A   1      18.326  -0.933   9.617  0.00  0.00     0.088 N 
ATOM      5  C24 ZIN A   1      17.076  -0.296  10.050  0.00  0.00     0.274 C 
ATOM      6  C25 ZIN A   1      17.216   0.173  11.500  0.00  0.00     0.056 C 
ENDROOT
BRANCH   1   7
ATOM      7  N5  ZIN A   1      18.553   1.572  12.997  0.00  0.00    -0.313 N 
ATOM      8  C3  ZIN A   1      18.767   2.868  13.299  0.00  0.00     0.224 C 
ATOM      9  O4  ZIN A   1      19.025   3.191  14.440  0.00  0.00    -0.273 OA
BRANCH   8  10
ATOM     10  C2  ZIN A   1      18.681   3.917  12.221  0.00  0.00     0.099 C 
ATOM     11  C1  ZIN A   1      17.260   4.481  12.169  0.00  0.00     0.014 C 
ENDBRANCH   8  10
BRANCH   7  12
ATOM     12  C6  ZIN A   1      18.501   0.616  14.017  0.00  0.00     0.037 A 
ATOM     13  C11 ZIN A   1      19.508  -0.333  14.134  0.00  0.00     0.030 A 
ATOM     14  C10 ZIN A   1      19.458  -1.272  15.146  0.00  0.00     0.002 A 
ATOM     15  C9  ZIN A   1      18.399  -1.274  16.036  0.00  0.00     0.000 A 
ATOM     16  C8  ZIN A   1      17.391  -0.334  15.919  0.00  0.00     0.002 A 
ATOM     17  C7  ZIN A   1      17.439   0.611  14.913  0.00  0.00     0.030 A 
ENDBRANCH   7  12
ENDBRANCH   1   7
BRANCH   4  18
ATOM     18  C16 ZIN A   1      18.183  -1.519   8.277  0.00  0.00     0.277 C 
BRANCH  18  19
ATOM     19  C17 ZIN A   1      18.886  -2.876   8.237  0.00  0.00     0.068 C 
BRANCH  19  20
ATOM     20  C18 ZIN A   1      18.399  -3.729   9.380  0.00  0.00    -0.057 A 
ATOM     21  C23 ZIN A   1      17.144  -4.304   9.327  0.00  0.00     0.007 A 
ATOM     22  C22 ZIN A   1      16.698  -5.089  10.374  0.00  0.00     0.001 A 
ATOM     23  C21 ZIN A   1      17.505  -5.292  11.478  0.00  0.00     0.000 A 
ATOM     24  C20 ZIN A   1      18.758  -4.711  11.534  0.00  0.00     0.001 A 
ATOM     25  C19 ZIN A   1      19.206  -3.929  10.485  0.00  0.00     0.007 A 
ENDBRANCH  19  20
ENDBRANCH  18  19
ENDBRANCH   4  18
TORSDOF 6
ENDMDL
MODEL 7
REMARK VINA RESULT:      -7.9      2.884      5.569
REMARK  6 active torsions:
REMARK  status: ('A' for Active; 'I' for Inactive)
REMARK    1  A    between atoms: C2_2  and  C3_3 
REMARK       I    between atoms: C3_3  and  N5_5 
REMARK    2  A    between atoms: N5_5  and  C6_6 
REMARK    3  A    between atoms: N5_5  and  C12_12 
REMARK    4  A    between atoms: N15_15  and  C16_16 
REMARK    5  A    between atoms: C16_16  and  C17_17 
REMARK    6  A    between atoms: C17_17  and  C18_18 
ROOT
ATOM      1  C12 ZIN A   1      18.681  -0.924  11.796  0.00  0.00     0.096 C 
ATOM      2  C13 ZIN A   1      19.947  -0.103  12.052  0.00  0.00     0.056 C 
ATOM      3  C14 ZIN A   1      19.824   0.606  13.402  0.00  0.00     0.274 C 
ATOM      4  N15 ZIN A   1      18.644   1.482  13.391  0.00  0.00     0.088 N 
ATOM      5  C24 ZIN A   1      17.412   0.710  13.193  0.00  0.00     0.274 C 
ATOM      6  C25 ZIN A   1      17.463   0.003  11.837  0.00  0.00     0.056 C 
ENDROOT
BRANCH   1   7
ATOM      7  N5  ZIN A   1      18.768  -1.560  10.479  0.00  0.00    -0.313 N 
ATOM      8  C3  ZIN A   1      19.000  -2.884  10.383  0.00  0.00     0.224 C 
ATOM      9  O4  ZIN A   1      19.186  -3.390   9.296  0.00  0.00    -0.273 OA
BRANCH   8  10
ATOM     10  C2  ZIN A   1      19.027  -3.736  11.626  0.00  0.00     0.099 C 
ATOM     11  C1  ZIN A   1      18.046  -4.900  11.468  0.00  0.00     0.014 C 
ENDBRANCH   8  10
BRANCH   7  12
ATOM     12  C6  ZIN A   1      18.611  -0.792   9.320  0.00  0.00     0.037 A 
ATOM     13  C11 ZIN A   1      19.601   0.105   8.939  0.00  0.00     0.030 A 
ATOM     14  C10 ZIN A   1      19.447   0.857   7.791  0.00  0.00     0.002 A 
ATOM     15  C9  ZIN A   1      18.302   0.725   7.026  0.00  0.00     0.000 A 
ATOM     16  C8  ZIN A   1      17.312  -0.162   7.405  0.00  0.00     0.002 A 
ATOM     17  C7  ZIN A   1      17.463  -0.922   8.548  0.00  0.00     0.030 A 
ENDBRANCH   7  12
ENDBRANCH   1   7
BRANCH   4  18
ATOM     18  C16 ZIN A   1      18.572   2.284  14.620  0.00  0.00     0.277 C 
BRANCH  18  19
ATOM     19  C17 ZIN A   1      18.960   3.731  14.308  0.00  0.00     0.068 C 
BRANCH  19  20
ATOM     20  C18 ZIN A   1      18.262   4.178  13.049  0.00  0.00    -0.057 A 
ATOM     21  C23 ZIN A   1      17.042   4.822  13.128  0.00  0.00     0.007 A 
ATOM     22  C22 ZIN A   1      16.403   5.236  11.974  0.00  0.00     0.001 A 
ATOM     23  C21 ZIN A   1      16.980   4.998  10.741  0.00  0.00     0.000 A 
ATOM     24  C20 ZIN A   1      18.198   4.348  10.662  0.00  0.00     0.001 A 
ATOM     25  C19 ZIN A   1      18.839   3.938  11.816  0.00  0.00     0.007 A 
ENDBRANCH  19  20
ENDBRANCH  18  19
ENDBRANCH   4  18
TORSDOF 6
ENDMDL
MODEL 8
REMARK VINA RESULT:      -7.8      2.983      4.443
REMARK  6 active torsions:
REMARK  status: ('A' for Active; 'I' for Inactive)
REMARK    1  A    between atoms: C2_2  and  C3_3 
REMARK       I    between atoms: C3_3  and  N5_5 
REMARK    2  A    between atoms: N5_5  and  C6_6 
REMARK    3  A    between atoms: N5_5  and  C12_12 
REMARK    4  A    between atoms: N15_15  and  C16_16 
REMARK    5  A    between atoms: C16_16  and  C17_17 
REMARK    6  A    between atoms: C17_17  and  C18_18 
ROOT
ATOM      1  C12 ZIN A   1      18.959  -0.160  10.321  0.00  0.00     0.096 C 
ATOM      2  C13 ZIN A   1      17.649   0.354  10.924  0.00  0.00     0.056 C 
ATOM      3  C14 ZIN A   1      17.934   1.610  11.750  0.00  0.00     0.274 C 
ATOM      4  N15 ZIN A   1      18.893   1.290  12.816  0.00  0.00     0.088 N 
ATOM      5  C24 ZIN A   1      20.174   0.839  12.260  0.00  0.00     0.274 C 
ATOM      6  C25 ZIN A   1      19.956  -0.440  11.448  0.00  0.00     0.056 C 
ENDROOT
BRANCH   1   7
ATOM      7  N5  ZIN A   1      18.704  -1.395   9.576  0.00  0.00    -0.313 N 
ATOM      8  C3  ZIN A   1      18.593  -1.363   8.233  0.00  0.00     0.224 C 
ATOM      9  O4  ZIN A   1      18.269  -2.362   7.626  0.00  0.00    -0.273 OA
BRANCH   8  10
ATOM     10  C2  ZIN A   1      18.875  -0.085   7.485  0.00  0.00     0.099 C 
ATOM     11  C1  ZIN A   1      17.799   0.130   6.419  0.00  0.00     0.014 C 
ENDBRANCH   8  10
BRANCH   7  12
ATOM     12  C6  ZIN A   1      18.572  -2.609  10.258  0.00  0.00     0.037 A 
ATOM     13  C11 ZIN A   1      19.655  -3.474  10.359  0.00  0.00     0.030 A 
ATOM     14  C10 ZIN A   1      19.524  -4.669  11.039  0.00  0.00     0.002 A 
ATOM     15  C9  ZIN A   1      18.312  -5.010  11.611  0.00  0.00     0.000 A 
ATOM     16  C8  ZIN A   1      17.230  -4.155  11.508  0.00  0.00     0.002 A 
ATOM     17  C7  ZIN A   1      17.356  -2.956  10.835  0.00  0.00     0.030 A 
ENDBRANCH   7  12
ENDBRANCH   1   7
BRANCH   4  18
ATOM     18  C16 ZIN A   1      19.083   2.437  13.715  0.00  0.00     0.277 C 
BRANCH  18  19
ATOM     19  C17 ZIN A   1      17.972   2.451  14.766  0.00  0.00     0.068 C 
BRANCH  19  20
ATOM     20  C18 ZIN A   1      18.276   1.430  15.832  0.00  0.00    -0.057 A 
ATOM     21  C23 ZIN A   1      19.105   1.758  16.887  0.00  0.00     0.007 A 
ATOM     22  C22 ZIN A   1      19.381   0.823  17.867  0.00  0.00     0.001 A 
ATOM     23  C21 ZIN A   1      18.834  -0.444  17.787  0.00  0.00     0.000 A 
ATOM     24  C20 ZIN A   1      18.009  -0.775  16.728  0.00  0.00     0.001 A 
ATOM     25  C19 ZIN A   1      17.730   0.162  15.750  0.00  0.00     0.007 A 
ENDBRANCH  19  20
ENDBRANCH  18  19
ENDBRANCH   4  18
TORSDOF 6
ENDMDL
MODEL 9
REMARK VINA RESULT:      -7.7      2.304      7.112
REMARK  6 active torsions:
REMARK  status: ('A' for Active; 'I' for Inactive)
REMARK    1  A    between atoms: C2_2  and  C3_3 
REMARK       I    between atoms: C3_3  and  N5_5 
REMARK    2  A    between atoms: N5_5  and  C6_6 
REMARK    3  A    between atoms: N5_5  and  C12_12 
REMARK    4  A    between atoms: N15_15  and  C16_16 
REMARK    5  A    between atoms: C16_16  and  C17_17 
REMARK    6  A    between atoms: C17_17  and  C18_18 
ROOT
ATOM      1  C12 ZIN A   1      18.790  -0.182  12.569  0.00  0.00     0.096 C 
ATOM      2  C13 ZIN A   1      17.544  -0.726  11.865  0.00  0.00     0.056 C 
ATOM      3  C14 ZIN A   1      17.930  -1.950  11.031  0.00  0.00     0.274 C 
ATOM      4  N15 ZIN A   1      18.947  -1.569  10.041  0.00  0.00     0.088 N 
ATOM      5  C24 ZIN A   1      20.170  -1.087  10.695  0.00  0.00     0.274 C 
ATOM      6  C25 ZIN A   1      19.850   0.162  11.520  0.00  0.00     0.056 C 
ENDROOT
BRANCH   1   7
ATOM      7  N5  ZIN A   1      18.438   1.024  13.323  0.00  0.00    -0.313 N 
ATOM      8  C3  ZIN A   1      18.153   0.937  14.638  0.00  0.00     0.224 C 
ATOM      9  O4  ZIN A   1      17.751   1.913  15.237  0.00  0.00    -0.273 OA
BRANCH   8  10
ATOM     10  C2  ZIN A   1      18.334  -0.371  15.363  0.00  0.00     0.099 C 
ATOM     11  C1  ZIN A   1      17.361  -0.439  16.543  0.00  0.00     0.014 C 
ENDBRANCH   8  10
BRANCH   7  12
ATOM     12  C6  ZIN A   1      18.398   2.265  12.679  0.00  0.00     0.037 A 
ATOM     13  C11 ZIN A   1      17.413   2.528  11.736  0.00  0.00     0.030 A 
ATOM     14  C10 ZIN A   1      17.371   3.757  11.106  0.00  0.00     0.002 A 
ATOM     15  C9  ZIN A   1      18.317   4.721  11.407  0.00  0.00     0.000 A 
ATOM     16  C8  ZIN A   1      19.302   4.461  12.341  0.00  0.00     0.002 A 
ATOM     17  C7  ZIN A   1      19.345   3.236  12.979  0.00  0.00     0.030 A 
ENDBRANCH   7  12
ENDBRANCH   1   7
BRANCH   4  18
ATOM     18  C16 ZIN A   1      19.240  -2.684   9.131  0.00  0.00     0.277 C 
BRANCH  18  19
ATOM     19  C17 ZIN A   1      18.152  -2.766   8.059  0.00  0.00     0.068 C 
BRANCH  19  20
ATOM     20  C18 ZIN A   1      18.393  -1.705   7.016  0.00  0.00    -0.057 A 
ATOM     21  C23 ZIN A   1      17.755  -0.484   7.113  0.00  0.00     0.007 A 
ATOM     22  C22 ZIN A   1      17.979   0.491   6.159  0.00  0.00     0.001 A 
ATOM     23  C21 ZIN A   1      18.834   0.241   5.102  0.00  0.00     0.000 A 
ATOM     24  C20 ZIN A   1      19.468  -0.983   5.002  0.00  0.00     0.001 A 
ATOM     25  C19 ZIN A   1      19.248  -1.957   5.959  0.00  0.00     0.007 A 
ENDBRANCH  19  20
ENDBRANCH  18  19
ENDBRANCH   4  18
TORSDOF 6
ENDMDL
