MODEL 1
REMARK VINA RESULT:      -4.7      0.000      0.000
REMARK  8 active torsions:
REMARK  status: ('A' for Active; 'I' for Inactive)
REMARK    1  A    between atoms: N1_1  and  C5_5 
REMARK    2  A    between atoms: C5_5  and  C6_6 
REMARK    3  A    between atoms: C6_6  and  C7_7 
REMARK    4  A    between atoms: C7_7  and  O8_8 
REMARK    5  A    between atoms: C7_7  and  P9_9 
REMARK    6  A    between atoms: C7_7  and  P13_13 
REMARK    7  A    between atoms: P9_9  and  O12_12 
REMARK    8  A    between atoms: P13_13  and  O16_16 
ROOT
ATOM      1  C7  RES d   1      19.316   1.493  10.957  0.00  0.00     0.270 C 
ENDROOT
BRANCH   1   2
ATOM      2  C6  RES d   1      17.839   1.733  11.276  0.00  0.00     0.093 C 
BRANCH   2   3
ATOM      3  C5  RES d   1      17.600   3.230  11.489  0.00  0.00     0.234 C 
BRANCH   3   4
ATOM      4  N1  RES d   1      17.824   3.565  12.901  0.00  0.00    -0.079 N 
ATOM      5  H2  RES d   1      17.073   3.189  13.460  0.00  0.00     0.274 HD
ATOM      6  H3  RES d   1      17.855   4.568  13.009  0.00  0.00     0.274 HD
ATOM      7  H4  RES d   1      18.701   3.168  13.206  0.00  0.00     0.274 HD
ENDBRANCH   3   4
ENDBRANCH   2   3
ENDBRANCH   1   2
BRANCH   1   8
ATOM      8  O8  RES d   1      19.985   2.749  10.824  0.00  0.00    -0.366 OA
ATOM      9  H21 RES d   1      19.946   3.300  11.618  0.00  0.00     0.212 HD
ENDBRANCH   1   8
BRANCH   1  10
ATOM     10  P9  RES d   1      20.082   0.537  12.308  0.00  0.00     0.296 P 
ATOM     11  O10 RES d   1      19.639   1.122  13.668  0.00  0.00    -0.644 OA
ATOM     12  O11 RES d   1      19.636  -0.939  12.212  0.00  0.00    -0.644 OA
BRANCH  10  13
ATOM     13  O12 RES d   1      21.686   0.623  12.184  0.00  0.00    -0.320 OA
ATOM     14  H22 RES d   1      22.155  -0.073  12.665  0.00  0.00     0.221 HD
ENDBRANCH  10  13
ENDBRANCH   1  10
BRANCH   1  15
ATOM     15  P13 RES d   1      19.458   0.560   9.398  0.00  0.00     0.296 P 
ATOM     16  O14 RES d   1      19.637   1.546   8.222  0.00  0.00    -0.644 OA
ATOM     17  O15 RES d   1      18.176  -0.275   9.178  0.00  0.00    -0.644 OA
BRANCH  15  18
ATOM     18  O16 RES d   1      20.732  -0.422   9.474  0.00  0.00    -0.320 OA
ATOM     19  H23 RES d   1      21.396  -0.155  10.125  0.00  0.00     0.221 HD
ENDBRANCH  15  18
ENDBRANCH   1  15
TORSDOF 8
ENDMDL
MODEL 2
REMARK VINA RESULT:      -4.7      3.179      4.787
REMARK  8 active torsions:
REMARK  status: ('A' for Active; 'I' for Inactive)
REMARK    1  A    between atoms: N1_1  and  C5_5 
REMARK    2  A    between atoms: C5_5  and  C6_6 
REMARK    3  A    between atoms: C6_6  and  C7_7 
REMARK    4  A    between atoms: C7_7  and  O8_8 
REMARK    5  A    between atoms: C7_7  and  P9_9 
REMARK    6  A    between atoms: C7_7  and  P13_13 
REMARK    7  A    between atoms: P9_9  and  O12_12 
REMARK    8  A    between atoms: P13_13  and  O16_16 
ROOT
ATOM      1  C7  RES d   1      19.290  -1.446  12.067  0.00  0.00     0.270 C 
ENDROOT
BRANCH   1   2
ATOM      2  C6  RES d   1      17.809  -1.645  11.738  0.00  0.00     0.093 C 
BRANCH   2   3
ATOM      3  C5  RES d   1      17.537  -3.131  11.491  0.00  0.00     0.234 C 
BRANCH   3   4
ATOM      4  N1  RES d   1      17.731  -3.433  10.067  0.00  0.00    -0.079 N 
ATOM      5  H2  RES d   1      18.213  -2.666   9.622  0.00  0.00     0.274 HD
ATOM      6  H3  RES d   1      16.834  -3.568   9.626  0.00  0.00     0.274 HD
ATOM      7  H4  RES d   1      18.281  -4.275   9.974  0.00  0.00     0.274 HD
ENDBRANCH   3   4
ENDBRANCH   2   3
ENDBRANCH   1   2
BRANCH   1   8
ATOM      8  O8  RES d   1      19.920  -2.720  12.216  0.00  0.00    -0.366 OA
ATOM      9  H21 RES d   1      19.368  -3.465  11.944  0.00  0.00     0.212 HD
ENDBRANCH   1   8
BRANCH   1  10
ATOM     10  P9  RES d   1      20.095  -0.525  10.714  0.00  0.00     0.296 P 
ATOM     11  O10 RES d   1      19.680  -1.136   9.357  0.00  0.00    -0.644 OA
ATOM     12  O11 RES d   1      19.657   0.956  10.768  0.00  0.00    -0.644 OA
BRANCH  10  13
ATOM     13  O12 RES d   1      21.694  -0.618  10.879  0.00  0.00    -0.320 OA
ATOM     14  H22 RES d   1      22.134  -1.110  10.173  0.00  0.00     0.221 HD
ENDBRANCH  10  13
ENDBRANCH   1  10
BRANCH   1  15
ATOM     15  P13 RES d   1      19.446  -0.504  13.619  0.00  0.00     0.296 P 
ATOM     16  O14 RES d   1      19.609  -1.484  14.803  0.00  0.00    -0.644 OA
ATOM     17  O15 RES d   1      18.178   0.353  13.832  0.00  0.00    -0.644 OA
BRANCH  15  18
ATOM     18  O16 RES d   1      20.736   0.457  13.537  0.00  0.00    -0.320 OA
ATOM     19  H23 RES d   1      21.355   0.225  12.830  0.00  0.00     0.221 HD
ENDBRANCH  15  18
ENDBRANCH   1  15
TORSDOF 8
ENDMDL
MODEL 3
REMARK VINA RESULT:      -4.7      2.599      4.338
REMARK  8 active torsions:
REMARK  status: ('A' for Active; 'I' for Inactive)
REMARK    1  A    between atoms: N1_1  and  C5_5 
REMARK    2  A    between atoms: C5_5  and  C6_6 
REMARK    3  A    between atoms: C6_6  and  C7_7 
REMARK    4  A    between atoms: C7_7  and  O8_8 
REMARK    5  A    between atoms: C7_7  and  P9_9 
REMARK    6  A    between atoms: C7_7  and  P13_13 
REMARK    7  A    between atoms: P9_9  and  O12_12 
REMARK    8  A    between atoms: P13_13  and  O16_16 
ROOT
ATOM      1  C7  RES d   1      19.483   2.191  11.504  0.00  0.00     0.270 C 
ENDROOT
BRANCH   1   2
ATOM      2  C6  RES d   1      19.547   0.777  12.084  0.00  0.00     0.093 C 
BRANCH   2   3
ATOM      3  C5  RES d   1      21.010   0.358  12.249  0.00  0.00     0.234 C 
BRANCH   3   4
ATOM      4  N1  RES d   1      21.445  -0.380  11.056  0.00  0.00    -0.079 N 
ATOM      5  H2  RES d   1      21.848  -1.262  11.334  0.00  0.00     0.274 HD
ATOM      6  H3  RES d   1      22.135   0.162  10.558  0.00  0.00     0.274 HD
ATOM      7  H4  RES d   1      20.651  -0.547  10.455  0.00  0.00     0.274 HD
ENDBRANCH   3   4
ENDBRANCH   2   3
ENDBRANCH   1   2
BRANCH   1   8
ATOM      8  O8  RES d   1      20.787   2.776  11.534  0.00  0.00    -0.366 OA
ATOM      9  H21 RES d   1      20.979   3.347  10.777  0.00  0.00     0.212 HD
ENDBRANCH   1   8
BRANCH   1  10
ATOM     10  P9  RES d   1      18.892   2.115   9.781  0.00  0.00     0.296 P 
ATOM     11  O10 RES d   1      17.654   1.194   9.701  0.00  0.00    -0.644 OA
ATOM     12  O11 RES d   1      18.509   3.535   9.305  0.00  0.00    -0.644 OA
BRANCH  10  13
ATOM     13  O12 RES d   1      20.058   1.529   8.838  0.00  0.00    -0.320 OA
ATOM     14  H22 RES d   1      20.421   2.173   8.215  0.00  0.00     0.221 HD
ENDBRANCH  10  13
ENDBRANCH   1  10
BRANCH   1  15
ATOM     15  P13 RES d   1      18.338   3.203  12.495  0.00  0.00     0.296 P 
ATOM     16  O14 RES d   1      19.002   4.559  12.827  0.00  0.00    -0.644 OA
ATOM     17  O15 RES d   1      17.999   2.462  13.808  0.00  0.00    -0.644 OA
BRANCH  15  18
ATOM     18  O16 RES d   1      16.985   3.458  11.659  0.00  0.00    -0.320 OA
ATOM     19  H23 RES d   1      16.508   4.259  11.917  0.00  0.00     0.221 HD
ENDBRANCH  15  18
ENDBRANCH   1  15
TORSDOF 8
ENDMDL
MODEL 4
REMARK VINA RESULT:      -4.6      2.358      3.205
REMARK  8 active torsions:
REMARK  status: ('A' for Active; 'I' for Inactive)
REMARK    1  A    between atoms: N1_1  and  C5_5 
REMARK    2  A    between atoms: C5_5  and  C6_6 
REMARK    3  A    between atoms: C6_6  and  C7_7 
REMARK    4  A    between atoms: C7_7  and  O8_8 
REMARK    5  A    between atoms: C7_7  and  P9_9 
REMARK    6  A    between atoms: C7_7  and  P13_13 
REMARK    7  A    between atoms: P9_9  and  O12_12 
REMARK    8  A    between atoms: P13_13  and  O16_16 
ROOT
ATOM      1  C7  RES d   1      19.669  -0.322  10.636  0.00  0.00     0.270 C 
ENDROOT
BRANCH   1   2
ATOM      2  C6  RES d   1      18.486   0.280   9.875  0.00  0.00     0.093 C 
BRANCH   2   3
ATOM      3  C5  RES d   1      18.909   0.594   8.438  0.00  0.00     0.234 C 
BRANCH   3   4
ATOM      4  N1  RES d   1      19.712   1.824   8.423  0.00  0.00    -0.079 N 
ATOM      5  H2  RES d   1      19.227   2.550   8.929  0.00  0.00     0.274 HD
ATOM      6  H3  RES d   1      19.858   2.119   7.469  0.00  0.00     0.274 HD
ATOM      7  H4  RES d   1      20.605   1.648   8.860  0.00  0.00     0.274 HD
ENDBRANCH   3   4
ENDBRANCH   2   3
ENDBRANCH   1   2
BRANCH   1   8
ATOM      8  O8  RES d   1      20.763  -0.517   9.737  0.00  0.00    -0.366 OA
ATOM      9  H21 RES d   1      20.602  -1.192   9.064  0.00  0.00     0.212 HD
ENDBRANCH   1   8
BRANCH   1  10
ATOM     10  P9  RES d   1      20.175   0.814  11.970  0.00  0.00     0.296 P 
ATOM     11  O10 RES d   1      19.935   2.273  11.523  0.00  0.00    -0.644 OA
ATOM     12  O11 RES d   1      19.344   0.520  13.239  0.00  0.00    -0.644 OA
BRANCH  10  13
ATOM     13  O12 RES d   1      21.738   0.601  12.291  0.00  0.00    -0.320 OA
ATOM     14  H22 RES d   1      22.128   1.304  12.829  0.00  0.00     0.221 HD
ENDBRANCH  10  13
ENDBRANCH   1  10
BRANCH   1  15
ATOM     15  P13 RES d   1      19.178  -1.923  11.355  0.00  0.00     0.296 P 
ATOM     16  O14 RES d   1      19.441  -3.050  10.331  0.00  0.00    -0.644 OA
ATOM     17  O15 RES d   1      17.674  -1.890  11.709  0.00  0.00    -0.644 OA
BRANCH  15  18
ATOM     18  O16 RES d   1      20.038  -2.198  12.689  0.00  0.00    -0.320 OA
ATOM     19  H23 RES d   1      19.558  -2.017  13.510  0.00  0.00     0.221 HD
ENDBRANCH  15  18
ENDBRANCH   1  15
TORSDOF 8
ENDMDL
MODEL 5
REMARK VINA RESULT:      -4.6      1.218      3.413
REMARK  8 active torsions:
REMARK  status: ('A' for Active; 'I' for Inactive)
REMARK    1  A    between atoms: N1_1  and  C5_5 
REMARK    2  A    between atoms: C5_5  and  C6_6 
REMARK    3  A    between atoms: C6_6  and  C7_7 
REMARK    4  A    between atoms: C7_7  and  O8_8 
REMARK    5  A    between atoms: C7_7  and  P9_9 
REMARK    6  A    between atoms: C7_7  and  P13_13 
REMARK    7  A    between atoms: P9_9  and  O12_12 
REMARK    8  A    between atoms: P13_13  and  O16_16 
ROOT
ATOM      1  C7  RES d   1      19.173   1.392  11.190  0.00  0.00     0.270 C 
ENDROOT
BRANCH   1   2
ATOM      2  C6  RES d   1      19.701   2.828  11.176  0.00  0.00     0.093 C 
BRANCH   2   3
ATOM      3  C5  RES d   1      18.534   3.803  11.348  0.00  0.00     0.234 C 
BRANCH   3   4
ATOM      4  N1  RES d   1      17.936   4.087  10.037  0.00  0.00    -0.079 N 
ATOM      5  H2  RES d   1      18.207   5.012   9.736  0.00  0.00     0.274 HD
ATOM      6  H3  RES d   1      16.931   4.038  10.108  0.00  0.00     0.274 HD
ATOM      7  H4  RES d   1      18.260   3.407   9.365  0.00  0.00     0.274 HD
ENDBRANCH   3   4
ENDBRANCH   2   3
ENDBRANCH   1   2
BRANCH   1   8
ATOM      8  O8  RES d   1      17.788   1.399  11.541  0.00  0.00    -0.366 OA
ATOM      9  H21 RES d   1      17.575   0.854  12.311  0.00  0.00     0.212 HD
ENDBRANCH   1   8
BRANCH   1  10
ATOM     10  P9  RES d   1      19.377   0.653   9.536  0.00  0.00     0.296 P 
ATOM     11  O10 RES d   1      18.136  -0.203   9.198  0.00  0.00    -0.644 OA
ATOM     12  O11 RES d   1      19.530   1.776   8.486  0.00  0.00    -0.644 OA
BRANCH  10  13
ATOM     13  O12 RES d   1      20.691  -0.277   9.522  0.00  0.00    -0.320 OA
ATOM     14  H22 RES d   1      20.600  -1.077   8.986  0.00  0.00     0.221 HD
ENDBRANCH  10  13
ENDBRANCH   1  10
BRANCH   1  15
ATOM     15  P13 RES d   1      20.106   0.414  12.411  0.00  0.00     0.296 P 
ATOM     16  O14 RES d   1      19.752  -1.082  12.253  0.00  0.00    -0.644 OA
ATOM     17  O15 RES d   1      19.738   0.882  13.838  0.00  0.00    -0.644 OA
BRANCH  15  18
ATOM     18  O16 RES d   1      21.686   0.620  12.171  0.00  0.00    -0.320 OA
ATOM     19  H23 RES d   1      22.235  -0.086  12.539  0.00  0.00     0.221 HD
ENDBRANCH  15  18
ENDBRANCH   1  15
TORSDOF 8
ENDMDL
MODEL 6
REMARK VINA RESULT:      -4.5      2.629      4.352
REMARK  8 active torsions:
REMARK  status: ('A' for Active; 'I' for Inactive)
REMARK    1  A    between atoms: N1_1  and  C5_5 
REMARK    2  A    between atoms: C5_5  and  C6_6 
REMARK    3  A    between atoms: C6_6  and  C7_7 
REMARK    4  A    between atoms: C7_7  and  O8_8 
REMARK    5  A    between atoms: C7_7  and  P9_9 
REMARK    6  A    between atoms: C7_7  and  P13_13 
REMARK    7  A    between atoms: P9_9  and  O12_12 
REMARK    8  A    between atoms: P13_13  and  O16_16 
ROOT
ATOM      1  C7  RES d   1      19.476   0.071  10.635  0.00  0.00     0.270 C 
ENDROOT
BRANCH   1   2
ATOM      2  C6  RES d   1      18.806  -1.192  11.180  0.00  0.00     0.093 C 
BRANCH   2   3
ATOM      3  C5  RES d   1      19.451  -2.426  10.545  0.00  0.00     0.234 C 
BRANCH   3   4
ATOM      4  N1  RES d   1      20.610  -2.840  11.346  0.00  0.00    -0.079 N 
ATOM      5  H2  RES d   1      21.078  -3.609  10.890  0.00  0.00     0.274 HD
ATOM      6  H3  RES d   1      20.300  -3.132  12.262  0.00  0.00     0.274 HD
ATOM      7  H4  RES d   1      21.249  -2.065  11.439  0.00  0.00     0.274 HD
ENDBRANCH   3   4
ENDBRANCH   2   3
ENDBRANCH   1   2
BRANCH   1   8
ATOM      8  O8  RES d   1      20.508  -0.296   9.716  0.00  0.00    -0.366 OA
ATOM      9  H21 RES d   1      21.041  -1.049  10.005  0.00  0.00     0.212 HD
ENDBRANCH   1   8
BRANCH   1  10
ATOM     10  P9  RES d   1      18.236   1.096   9.777  0.00  0.00     0.296 P 
ATOM     11  O10 RES d   1      17.546   0.257   8.678  0.00  0.00    -0.644 OA
ATOM     12  O11 RES d   1      17.178   1.583  10.793  0.00  0.00    -0.644 OA
BRANCH  10  13
ATOM     13  O12 RES d   1      18.961   2.367   9.106  0.00  0.00    -0.320 OA
ATOM     14  H22 RES d   1      18.701   3.215   9.489  0.00  0.00     0.221 HD
ENDBRANCH  10  13
ENDBRANCH   1  10
BRANCH   1  15
ATOM     15  P13 RES d   1      20.198   1.019  12.014  0.00  0.00     0.296 P 
ATOM     16  O14 RES d   1      19.420   0.713  13.313  0.00  0.00    -0.644 OA
ATOM     17  O15 RES d   1      20.107   2.530  11.703  0.00  0.00    -0.644 OA
BRANCH  15  18
ATOM     18  O16 RES d   1      21.742   0.602  12.201  0.00  0.00    -0.320 OA
ATOM     19  H23 RES d   1      21.891  -0.353  12.231  0.00  0.00     0.221 HD
ENDBRANCH  15  18
ENDBRANCH   1  15
TORSDOF 8
ENDMDL
MODEL 7
REMARK VINA RESULT:      -4.5      2.614      3.420
REMARK  8 active torsions:
REMARK  status: ('A' for Active; 'I' for Inactive)
REMARK    1  A    between atoms: N1_1  and  C5_5 
REMARK    2  A    between atoms: C5_5  and  C6_6 
REMARK    3  A    between atoms: C6_6  and  C7_7 
REMARK    4  A    between atoms: C7_7  and  O8_8 
REMARK    5  A    between atoms: C7_7  and  P9_9 
REMARK    6  A    between atoms: C7_7  and  P13_13 
REMARK    7  A    between atoms: P9_9  and  O12_12 
REMARK    8  A    between atoms: P13_13  and  O16_16 
ROOT
ATOM      1  C7  RES d   1      19.091   0.349  10.403  0.00  0.00     0.270 C 
ENDROOT
BRANCH   1   2
ATOM      2  C6  RES d   1      19.933  -0.234   9.266  0.00  0.00     0.093 C 
BRANCH   2   3
ATOM      3  C5  RES d   1      19.206  -1.435   8.657  0.00  0.00     0.234 C 
BRANCH   3   4
ATOM      4  N1  RES d   1      19.474  -2.631   9.466  0.00  0.00    -0.079 N 
ATOM      5  H2  RES d   1      18.722  -2.768  10.124  0.00  0.00     0.274 HD
ATOM      6  H3  RES d   1      20.342  -2.511   9.967  0.00  0.00     0.274 HD
ATOM      7  H4  RES d   1      19.543  -3.437   8.862  0.00  0.00     0.274 HD
ENDBRANCH   3   4
ENDBRANCH   2   3
ENDBRANCH   1   2
BRANCH   1   8
ATOM      8  O8  RES d   1      17.811  -0.287  10.421  0.00  0.00    -0.366 OA
ATOM      9  H21 RES d   1      17.677  -0.877  11.176  0.00  0.00     0.212 HD
ENDBRANCH   1   8
BRANCH   1  10
ATOM     10  P9  RES d   1      19.935   0.062  11.994  0.00  0.00     0.296 P 
ATOM     11  O10 RES d   1      19.360   1.018  13.062  0.00  0.00    -0.644 OA
ATOM     12  O11 RES d   1      19.712  -1.402  12.438  0.00  0.00    -0.644 OA
BRANCH  10  13
ATOM     13  O12 RES d   1      21.512   0.336  11.822  0.00  0.00    -0.320 OA
ATOM     14  H22 RES d   1      22.029   0.171  12.622  0.00  0.00     0.221 HD
ENDBRANCH  10  13
ENDBRANCH   1  10
BRANCH   1  15
ATOM     15  P13 RES d   1      18.877   2.140  10.144  0.00  0.00     0.296 P 
ATOM     16  O14 RES d   1      17.485   2.573  10.657  0.00  0.00    -0.644 OA
ATOM     17  O15 RES d   1      18.993   2.461   8.637  0.00  0.00    -0.644 OA
BRANCH  15  18
ATOM     18  O16 RES d   1      20.020   2.939  10.951  0.00  0.00    -0.320 OA
ATOM     19  H23 RES d   1      19.750   3.821  11.243  0.00  0.00     0.221 HD
ENDBRANCH  15  18
ENDBRANCH   1  15
TORSDOF 8
ENDMDL
MODEL 8
REMARK VINA RESULT:      -4.5      2.315      3.988
REMARK  8 active torsions:
REMARK  status: ('A' for Active; 'I' for Inactive)
REMARK    1  A    between atoms: N1_1  and  C5_5 
REMARK    2  A    between atoms: C5_5  and  C6_6 
REMARK    3  A    between atoms: C6_6  and  C7_7 
REMARK    4  A    between atoms: C7_7  and  O8_8 
REMARK    5  A    between atoms: C7_7  and  P9_9 
REMARK    6  A    between atoms: C7_7  and  P13_13 
REMARK    7  A    between atoms: P9_9  and  O12_12 
REMARK    8  A    between atoms: P13_13  and  O16_16 
ROOT
ATOM      1  C7  RES d   1      19.300   0.477  10.496  0.00  0.00     0.270 C 
ENDROOT
BRANCH   1   2
ATOM      2  C6  RES d   1      18.018  -0.351  10.389  0.00  0.00     0.093 C 
BRANCH   2   3
ATOM      3  C5  RES d   1      17.989  -1.076   9.041  0.00  0.00     0.234 C 
BRANCH   3   4
ATOM      4  N1  RES d   1      17.417  -0.190   8.020  0.00  0.00    -0.079 N 
ATOM      5  H2  RES d   1      16.434  -0.388   7.915  0.00  0.00     0.274 HD
ATOM      6  H3  RES d   1      17.887  -0.343   7.140  0.00  0.00     0.274 HD
ATOM      7  H4  RES d   1      17.538   0.772   8.303  0.00  0.00     0.274 HD
ENDBRANCH   3   4
ENDBRANCH   2   3
ENDBRANCH   1   2
BRANCH   1   8
ATOM      8  O8  RES d   1      20.237   0.032   9.513  0.00  0.00    -0.366 OA
ATOM      9  H21 RES d   1      20.902  -0.581   9.853  0.00  0.00     0.212 HD
ENDBRANCH   1   8
BRANCH   1  10
ATOM     10  P9  RES d   1      18.914   2.236  10.215  0.00  0.00     0.296 P 
ATOM     11  O10 RES d   1      18.994   2.546   8.703  0.00  0.00    -0.644 OA
ATOM     12  O11 RES d   1      17.488   2.539  10.727  0.00  0.00    -0.644 OA
BRANCH  10  13
ATOM     13  O12 RES d   1      19.974   3.152  11.008  0.00  0.00    -0.320 OA
ATOM     14  H22 RES d   1      20.458   3.771  10.444  0.00  0.00     0.221 HD
ENDBRANCH  10  13
ENDBRANCH   1  10
BRANCH   1  15
ATOM     15  P13 RES d   1      20.018   0.271  12.158  0.00  0.00     0.296 P 
ATOM     16  O14 RES d   1      19.801  -1.181  12.638  0.00  0.00    -0.644 OA
ATOM     17  O15 RES d   1      19.331   1.246  13.141  0.00  0.00    -0.644 OA
BRANCH  15  18
ATOM     18  O16 RES d   1      21.597   0.589  12.104  0.00  0.00    -0.320 OA
ATOM     19  H23 RES d   1      21.939   1.016  12.901  0.00  0.00     0.221 HD
ENDBRANCH  15  18
ENDBRANCH   1  15
TORSDOF 8
ENDMDL
MODEL 9
REMARK VINA RESULT:      -4.5      2.702      3.744
REMARK  8 active torsions:
REMARK  status: ('A' for Active; 'I' for Inactive)
REMARK    1  A    between atoms: N1_1  and  C5_5 
REMARK    2  A    between atoms: C5_5  and  C6_6 
REMARK    3  A    between atoms: C6_6  and  C7_7 
REMARK    4  A    between atoms: C7_7  and  O8_8 
REMARK    5  A    between atoms: C7_7  and  P9_9 
REMARK    6  A    between atoms: C7_7  and  P13_13 
REMARK    7  A    between atoms: P9_9  and  O12_12 
REMARK    8  A    between atoms: P13_13  and  O16_16 
ROOT
ATOM      1  C7  RES d   1      19.339  -1.384  12.263  0.00  0.00     0.270 C 
ENDROOT
BRANCH   1   2
ATOM      2  C6  RES d   1      17.971  -0.848  12.691  0.00  0.00     0.093 C 
BRANCH   2   3
ATOM      3  C5  RES d   1      17.947  -0.663  14.210  0.00  0.00     0.234 C 
BRANCH   3   4
ATOM      4  N1  RES d   1      18.430   0.682  14.547  0.00  0.00    -0.079 N 
ATOM      5  H2  RES d   1      19.073   0.624  15.322  0.00  0.00     0.274 HD
ATOM      6  H3  RES d   1      17.649   1.267  14.801  0.00  0.00     0.274 HD
ATOM      7  H4  RES d   1      18.902   1.080  13.748  0.00  0.00     0.274 HD
ENDBRANCH   3   4
ENDBRANCH   2   3
ENDBRANCH   1   2
BRANCH   1   8
ATOM      8  O8  RES d   1      20.084  -1.764  13.422  0.00  0.00    -0.366 OA
ATOM      9  H21 RES d   1      20.657  -2.531  13.286  0.00  0.00     0.212 HD
ENDBRANCH   1   8
BRANCH   1  10
ATOM     10  P9  RES d   1      19.113  -2.836  11.183  0.00  0.00     0.296 P 
ATOM     11  O10 RES d   1      19.949  -4.016  11.725  0.00  0.00    -0.644 OA
ATOM     12  O11 RES d   1      17.619  -3.232  11.158  0.00  0.00    -0.644 OA
BRANCH  10  13
ATOM     13  O12 RES d   1      19.598  -2.475   9.691  0.00  0.00    -0.320 OA
ATOM     14  H22 RES d   1      20.297  -3.052   9.354  0.00  0.00     0.221 HD
ENDBRANCH  10  13
ENDBRANCH   1  10
BRANCH   1  15
ATOM     15  P13 RES d   1      20.243  -0.088  11.356  0.00  0.00     0.296 P 
ATOM     16  O14 RES d   1      20.434   1.143  12.271  0.00  0.00    -0.644 OA
ATOM     17  O15 RES d   1      19.436   0.323  10.103  0.00  0.00    -0.644 OA
BRANCH  15  18
ATOM     18  O16 RES d   1      21.682  -0.652  10.906  0.00  0.00    -0.320 OA
ATOM     19  H23 RES d   1      21.644  -1.300  10.189  0.00  0.00     0.221 HD
ENDBRANCH  15  18
ENDBRANCH   1  15
TORSDOF 8
ENDMDL
