MODEL 1
REMARK VINA RESULT:      -6.7      0.000      0.000
REMARK  10 active torsions:
REMARK  status: ('A' for Active; 'I' for Inactive)
REMARK    1  A    between atoms: C2_2  and  C4_3 
REMARK    2  A    between atoms: C2_2  and  N11_10 
REMARK    3  A    between atoms: C4_3  and  C5_4 
REMARK       I    between atoms: N11_10  and  C12_11 
REMARK    4  A    between atoms: C12_11  and  C14_13 
REMARK    5  A    between atoms: C14_13  and  N16_14 
REMARK    6  A    between atoms: C14_13  and  C20_18 
REMARK    7  A    between atoms: C20_18  and  C21_19 
REMARK    8  A    between atoms: C21_19  and  C22_20 
REMARK    9  A    between atoms: C22_20  and  C23_21 
REMARK   10  A    between atoms: C23_21  and  N24_22 
ROOT
ATOM      1  N11 <0> d   1      19.666   1.463  10.544  0.00  0.00    -0.355 N 
ATOM      2  C12 <0> d   1      19.316   0.413  11.315  0.00  0.00     0.248 C 
ATOM      3  O13 <0> d   1      18.222  -0.092  11.189  0.00  0.00    -0.271 OA
ATOM      4  H38 <0> d   1      20.542   1.868  10.645  0.00  0.00     0.162 HD
ENDROOT
BRANCH   2   5
ATOM      5  C14 <0> d   1      20.286  -0.131  12.332  0.00  0.00     0.274 C 
BRANCH   5   6
ATOM      6  N16 <0> d   1      21.561   0.590  12.228  0.00  0.00    -0.067 N 
ATOM      7  H17 <0> d   1      21.499   1.459  12.736  0.00  0.00     0.275 HD
ATOM      8  H18 <0> d   1      22.300   0.025  12.618  0.00  0.00     0.275 HD
ATOM      9  H19 <0> d   1      21.761   0.781  11.258  0.00  0.00     0.275 HD
ENDBRANCH   5   6
BRANCH   5  10
ATOM     10  C20 <0> d   1      19.708   0.056  13.737  0.00  0.00     0.042 C 
BRANCH  10  11
ATOM     11  C21 <0> d   1      19.510  -1.312  14.394  0.00  0.00     0.004 C 
BRANCH  11  12
ATOM     12  C22 <0> d   1      18.461  -1.199  15.501  0.00  0.00     0.027 C 
BRANCH  12  13
ATOM     13  C23 <0> d   1      17.890   0.221  15.520  0.00  0.00     0.229 C 
BRANCH  13  14
ATOM     14  N24 <0> d   1      16.871   0.324  16.572  0.00  0.00    -0.079 N 
ATOM     15  H25 <0> d   1      16.709   1.296  16.791  0.00  0.00     0.274 HD
ATOM     16  H26 <0> d   1      16.012  -0.097  16.252  0.00  0.00     0.274 HD
ATOM     17  H27 <0> d   1      17.192  -0.158  17.399  0.00  0.00     0.274 HD
ENDBRANCH  13  14
ENDBRANCH  12  13
ENDBRANCH  11  12
ENDBRANCH  10  11
ENDBRANCH   5  10
ENDBRANCH   2   5
BRANCH   1  18
ATOM     18  C2  <0> d   1      18.724   1.992   9.556  0.00  0.00     0.084 C 
ATOM     19  C1  <0> d   1      18.264   3.387   9.986  0.00  0.00     0.032 C 
BRANCH  18  20
ATOM     20  C4  <0> d   1      19.412   2.080   8.191  0.00  0.00     0.063 C 
BRANCH  20  21
ATOM     21  C5  <0> d   1      18.764   1.107   7.240  0.00  0.00    -0.056 A 
ATOM     22  C10 <0> d   1      17.695   0.338   7.659  0.00  0.00     0.007 A 
ATOM     23  C9  <0> d   1      17.099  -0.551   6.784  0.00  0.00     0.001 A 
ATOM     24  C8  <0> d   1      17.577  -0.678   5.493  0.00  0.00     0.000 A 
ATOM     25  C7  <0> d   1      18.650   0.088   5.076  0.00  0.00     0.001 A 
ATOM     26  C6  <0> d   1      19.244   0.980   5.950  0.00  0.00     0.007 A 
ENDBRANCH  20  21
ENDBRANCH  18  20
ENDBRANCH   1  18
TORSDOF 10
ENDMDL
MODEL 2
REMARK VINA RESULT:      -6.7      1.471      2.947
REMARK  10 active torsions:
REMARK  status: ('A' for Active; 'I' for Inactive)
REMARK    1  A    between atoms: C2_2  and  C4_3 
REMARK    2  A    between atoms: C2_2  and  N11_10 
REMARK    3  A    between atoms: C4_3  and  C5_4 
REMARK       I    between atoms: N11_10  and  C12_11 
REMARK    4  A    between atoms: C12_11  and  C14_13 
REMARK    5  A    between atoms: C14_13  and  N16_14 
REMARK    6  A    between atoms: C14_13  and  C20_18 
REMARK    7  A    between atoms: C20_18  and  C21_19 
REMARK    8  A    between atoms: C21_19  and  C22_20 
REMARK    9  A    between atoms: C22_20  and  C23_21 
REMARK   10  A    between atoms: C23_21  and  N24_22 
ROOT
ATOM      1  N11 <0> d   1      18.532   1.951  11.675  0.00  0.00    -0.355 N 
ATOM      2  C12 <0> d   1      17.762   1.096  12.378  0.00  0.00     0.248 C 
ATOM      3  O13 <0> d   1      16.700   0.726  11.925  0.00  0.00    -0.271 OA
ATOM      4  H38 <0> d   1      19.381   2.248  12.038  0.00  0.00     0.162 HD
ENDROOT
BRANCH   2   5
ATOM      5  C14 <0> d   1      18.220   0.602  13.726  0.00  0.00     0.274 C 
BRANCH   5   6
ATOM      6  N16 <0> d   1      17.380   1.193  14.776  0.00  0.00    -0.067 N 
ATOM      7  H17 <0> d   1      16.408   1.030  14.560  0.00  0.00     0.275 HD
ATOM      8  H18 <0> d   1      17.603   0.770  15.663  0.00  0.00     0.275 HD
ATOM      9  H19 <0> d   1      17.552   2.186  14.824  0.00  0.00     0.275 HD
ENDBRANCH   5   6
BRANCH   5  10
ATOM     10  C20 <0> d   1      18.102  -0.923  13.777  0.00  0.00     0.042 C 
BRANCH  10  11
ATOM     11  C21 <0> d   1      19.466  -1.550  13.485  0.00  0.00     0.004 C 
BRANCH  11  12
ATOM     12  C22 <0> d   1      19.351  -2.481  12.276  0.00  0.00     0.027 C 
BRANCH  12  13
ATOM     13  C23 <0> d   1      19.653  -1.695  10.998  0.00  0.00     0.229 C 
BRANCH  13  14
ATOM     14  N24 <0> d   1      20.951  -1.022  11.133  0.00  0.00    -0.079 N 
ATOM     15  H25 <0> d   1      21.053  -0.337  10.398  0.00  0.00     0.274 HD
ATOM     16  H26 <0> d   1      21.002  -0.564  12.030  0.00  0.00     0.274 HD
ATOM     17  H27 <0> d   1      21.692  -1.704  11.061  0.00  0.00     0.274 HD
ENDBRANCH  13  14
ENDBRANCH  12  13
ENDBRANCH  11  12
ENDBRANCH  10  11
ENDBRANCH   5  10
ENDBRANCH   2   5
BRANCH   1  18
ATOM     18  C2  <0> d   1      18.086   2.432  10.366  0.00  0.00     0.084 C 
ATOM     19  C1  <0> d   1      17.813   3.936  10.441  0.00  0.00     0.032 C 
BRANCH  18  20
ATOM     20  C4  <0> d   1      19.176   2.163   9.326  0.00  0.00     0.063 C 
BRANCH  20  21
ATOM     21  C5  <0> d   1      18.620   1.288   8.231  0.00  0.00    -0.056 A 
ATOM     22  C10 <0> d   1      19.054   1.452   6.929  0.00  0.00     0.007 A 
ATOM     23  C9  <0> d   1      18.547   0.646   5.926  0.00  0.00     0.001 A 
ATOM     24  C8  <0> d   1      17.601  -0.317   6.224  0.00  0.00     0.000 A 
ATOM     25  C7  <0> d   1      17.164  -0.476   7.526  0.00  0.00     0.001 A 
ATOM     26  C6  <0> d   1      17.674   0.327   8.529  0.00  0.00     0.007 A 
ENDBRANCH  20  21
ENDBRANCH  18  20
ENDBRANCH   1  18
TORSDOF 10
ENDMDL
MODEL 3
REMARK VINA RESULT:      -6.6      1.744      2.376
REMARK  10 active torsions:
REMARK  status: ('A' for Active; 'I' for Inactive)
REMARK    1  A    between atoms: C2_2  and  C4_3 
REMARK    2  A    between atoms: C2_2  and  N11_10 
REMARK    3  A    between atoms: C4_3  and  C5_4 
REMARK       I    between atoms: N11_10  and  C12_11 
REMARK    4  A    between atoms: C12_11  and  C14_13 
REMARK    5  A    between atoms: C14_13  and  N16_14 
REMARK    6  A    between atoms: C14_13  and  C20_18 
REMARK    7  A    between atoms: C20_18  and  C21_19 
REMARK    8  A    between atoms: C21_19  and  C22_20 
REMARK    9  A    between atoms: C22_20  and  C23_21 
REMARK   10  A    between atoms: C23_21  and  N24_22 
ROOT
ATOM      1  N11 <0> d   1      18.468   2.551  11.926  0.00  0.00    -0.355 N 
ATOM      2  C12 <0> d   1      17.852   1.620  12.682  0.00  0.00     0.248 C 
ATOM      3  O13 <0> d   1      16.957   0.952  12.211  0.00  0.00    -0.271 OA
ATOM      4  H38 <0> d   1      19.184   3.086  12.303  0.00  0.00     0.162 HD
ENDROOT
BRANCH   2   5
ATOM      5  C14 <0> d   1      18.275   1.412  14.114  0.00  0.00     0.274 C 
BRANCH   5   6
ATOM      6  N16 <0> d   1      17.786   2.528  14.936  0.00  0.00    -0.067 N 
ATOM      7  H17 <0> d   1      17.369   3.227  14.340  0.00  0.00     0.275 HD
ATOM      8  H18 <0> d   1      17.097   2.188  15.589  0.00  0.00     0.275 HD
ATOM      9  H19 <0> d   1      18.558   2.935  15.442  0.00  0.00     0.275 HD
ENDBRANCH   5   6
BRANCH   5  10
ATOM     10  C20 <0> d   1      17.684   0.100  14.634  0.00  0.00     0.042 C 
BRANCH  10  11
ATOM     11  C21 <0> d   1      18.818  -0.851  15.023  0.00  0.00     0.004 C 
BRANCH  11  12
ATOM     12  C22 <0> d   1      18.508  -1.486  16.379  0.00  0.00     0.027 C 
BRANCH  12  13
ATOM     13  C23 <0> d   1      18.357  -0.387  17.434  0.00  0.00     0.229 C 
BRANCH  13  14
ATOM     14  N24 <0> d   1      19.580  -0.316  18.244  0.00  0.00    -0.079 N 
ATOM     15  H25 <0> d   1      20.366  -0.103  17.649  0.00  0.00     0.274 HD
ATOM     16  H26 <0> d   1      19.480   0.405  18.942  0.00  0.00     0.274 HD
ATOM     17  H27 <0> d   1      19.733  -1.204  18.699  0.00  0.00     0.274 HD
ENDBRANCH  13  14
ENDBRANCH  12  13
ENDBRANCH  11  12
ENDBRANCH  10  11
ENDBRANCH   5  10
ENDBRANCH   2   5
BRANCH   1  18
ATOM     18  C2  <0> d   1      18.057   2.754  10.535  0.00  0.00     0.084 C 
ATOM     19  C1  <0> d   1      17.741   4.233  10.307  0.00  0.00     0.032 C 
BRANCH  18  20
ATOM     20  C4  <0> d   1      19.191   2.325   9.600  0.00  0.00     0.063 C 
BRANCH  20  21
ATOM     21  C5  <0> d   1      18.639   1.433   8.518  0.00  0.00    -0.056 A 
ATOM     22  C10 <0> d   1      19.060   1.591   7.211  0.00  0.00     0.007 A 
ATOM     23  C9  <0> d   1      18.557   0.770   6.219  0.00  0.00     0.001 A 
ATOM     24  C8  <0> d   1      17.626  -0.203   6.533  0.00  0.00     0.000 A 
ATOM     25  C7  <0> d   1      17.202  -0.357   7.839  0.00  0.00     0.001 A 
ATOM     26  C6  <0> d   1      17.708   0.462   8.831  0.00  0.00     0.007 A 
ENDBRANCH  20  21
ENDBRANCH  18  20
ENDBRANCH   1  18
TORSDOF 10
ENDMDL
MODEL 4
REMARK VINA RESULT:      -6.5      2.714      5.482
REMARK  10 active torsions:
REMARK  status: ('A' for Active; 'I' for Inactive)
REMARK    1  A    between atoms: C2_2  and  C4_3 
REMARK    2  A    between atoms: C2_2  and  N11_10 
REMARK    3  A    between atoms: C4_3  and  C5_4 
REMARK       I    between atoms: N11_10  and  C12_11 
REMARK    4  A    between atoms: C12_11  and  C14_13 
REMARK    5  A    between atoms: C14_13  and  N16_14 
REMARK    6  A    between atoms: C14_13  and  C20_18 
REMARK    7  A    between atoms: C20_18  and  C21_19 
REMARK    8  A    between atoms: C21_19  and  C22_20 
REMARK    9  A    between atoms: C22_20  and  C23_21 
REMARK   10  A    between atoms: C23_21  and  N24_22 
ROOT
ATOM      1  N11 <0> d   1      18.400   0.850  12.899  0.00  0.00    -0.355 N 
ATOM      2  C12 <0> d   1      19.546   1.389  12.436  0.00  0.00     0.248 C 
ATOM      3  O13 <0> d   1      20.569   0.739  12.450  0.00  0.00    -0.271 OA
ATOM      4  H38 <0> d   1      17.581   1.371  12.888  0.00  0.00     0.162 HD
ENDROOT
BRANCH   2   5
ATOM      5  C14 <0> d   1      19.555   2.798  11.903  0.00  0.00     0.274 C 
BRANCH   5   6
ATOM      6  N16 <0> d   1      20.929   3.178  11.545  0.00  0.00    -0.067 N 
ATOM      7  H17 <0> d   1      21.522   3.098  12.358  0.00  0.00     0.275 HD
ATOM      8  H18 <0> d   1      21.269   2.566  10.819  0.00  0.00     0.275 HD
ATOM      9  H19 <0> d   1      20.938   4.131  11.214  0.00  0.00     0.275 HD
ENDBRANCH   5   6
BRANCH   5  10
ATOM     10  C20 <0> d   1      18.665   2.879  10.660  0.00  0.00     0.042 C 
BRANCH  10  11
ATOM     11  C21 <0> d   1      19.318   2.105   9.513  0.00  0.00     0.004 C 
BRANCH  11  12
ATOM     12  C22 <0> d   1      18.574   0.786   9.298  0.00  0.00     0.027 C 
BRANCH  12  13
ATOM     13  C23 <0> d   1      19.548  -0.270   8.771  0.00  0.00     0.229 C 
BRANCH  13  14
ATOM     14  N24 <0> d   1      20.675  -0.403   9.703  0.00  0.00    -0.079 N 
ATOM     15  H25 <0> d   1      21.115  -1.302   9.573  0.00  0.00     0.274 HD
ATOM     16  H26 <0> d   1      21.346   0.328   9.528  0.00  0.00     0.274 HD
ATOM     17  H27 <0> d   1      20.337  -0.329  10.652  0.00  0.00     0.274 HD
ENDBRANCH  13  14
ENDBRANCH  12  13
ENDBRANCH  11  12
ENDBRANCH  10  11
ENDBRANCH   5  10
ENDBRANCH   2   5
BRANCH   1  18
ATOM     18  C2  <0> d   1      18.390  -0.519  13.418  0.00  0.00     0.084 C 
ATOM     19  C1  <0> d   1      17.919  -0.509  14.874  0.00  0.00     0.032 C 
BRANCH  18  20
ATOM     20  C4  <0> d   1      17.439  -1.376  12.579  0.00  0.00     0.063 C 
BRANCH  20  21
ATOM     21  C5  <0> d   1      18.231  -2.416  11.828  0.00  0.00    -0.056 A 
ATOM     22  C10 <0> d   1      17.686  -3.028  10.714  0.00  0.00     0.007 A 
ATOM     23  C9  <0> d   1      18.414  -3.978  10.024  0.00  0.00     0.001 A 
ATOM     24  C8  <0> d   1      19.683  -4.324  10.452  0.00  0.00     0.000 A 
ATOM     25  C7  <0> d   1      20.224  -3.716  11.569  0.00  0.00     0.001 A 
ATOM     26  C6  <0> d   1      19.497  -2.763  12.257  0.00  0.00     0.007 A 
ENDBRANCH  20  21
ENDBRANCH  18  20
ENDBRANCH   1  18
TORSDOF 10
ENDMDL
MODEL 5
REMARK VINA RESULT:      -6.5      2.179      4.378
REMARK  10 active torsions:
REMARK  status: ('A' for Active; 'I' for Inactive)
REMARK    1  A    between atoms: C2_2  and  C4_3 
REMARK    2  A    between atoms: C2_2  and  N11_10 
REMARK    3  A    between atoms: C4_3  and  C5_4 
REMARK       I    between atoms: N11_10  and  C12_11 
REMARK    4  A    between atoms: C12_11  and  C14_13 
REMARK    5  A    between atoms: C14_13  and  N16_14 
REMARK    6  A    between atoms: C14_13  and  C20_18 
REMARK    7  A    between atoms: C20_18  and  C21_19 
REMARK    8  A    between atoms: C21_19  and  C22_20 
REMARK    9  A    between atoms: C22_20  and  C23_21 
REMARK   10  A    between atoms: C23_21  and  N24_22 
ROOT
ATOM      1  N11 <0> d   1      18.744  -0.477   9.640  0.00  0.00    -0.355 N 
ATOM      2  C12 <0> d   1      19.699  -1.113  10.347  0.00  0.00     0.248 C 
ATOM      3  O13 <0> d   1      20.766  -0.573  10.546  0.00  0.00    -0.271 OA
ATOM      4  H38 <0> d   1      17.890  -0.910   9.480  0.00  0.00     0.162 HD
ENDROOT
BRANCH   2   5
ATOM      5  C14 <0> d   1      19.441  -2.495  10.889  0.00  0.00     0.274 C 
BRANCH   5   6
ATOM      6  N16 <0> d   1      20.680  -3.035  11.464  0.00  0.00    -0.067 N 
ATOM      7  H17 <0> d   1      20.853  -3.955  11.087  0.00  0.00     0.275 HD
ATOM      8  H18 <0> d   1      21.450  -2.427  11.235  0.00  0.00     0.275 HD
ATOM      9  H19 <0> d   1      20.586  -3.096  12.467  0.00  0.00     0.275 HD
ENDBRANCH   5   6
BRANCH   5  10
ATOM     10  C20 <0> d   1      18.364  -2.424  11.975  0.00  0.00     0.042 C 
BRANCH  10  11
ATOM     11  C21 <0> d   1      18.975  -1.873  13.264  0.00  0.00     0.004 C 
BRANCH  11  12
ATOM     12  C22 <0> d   1      18.450  -0.458  13.514  0.00  0.00     0.027 C 
BRANCH  12  13
ATOM     13  C23 <0> d   1      19.543   0.382  14.179  0.00  0.00     0.229 C 
BRANCH  13  14
ATOM     14  N24 <0> d   1      20.764   0.327  13.366  0.00  0.00    -0.079 N 
ATOM     15  H25 <0> d   1      21.471   0.917  13.780  0.00  0.00     0.274 HD
ATOM     16  H26 <0> d   1      21.100  -0.623  13.326  0.00  0.00     0.274 HD
ATOM     17  H27 <0> d   1      20.561   0.651  12.432  0.00  0.00     0.274 HD
ENDBRANCH  13  14
ENDBRANCH  12  13
ENDBRANCH  11  12
ENDBRANCH  10  11
ENDBRANCH   5  10
ENDBRANCH   2   5
BRANCH   1  18
ATOM     18  C2  <0> d   1      18.994   0.866   9.112  0.00  0.00     0.084 C 
ATOM     19  C1  <0> d   1      19.115   0.801   7.588  0.00  0.00     0.032 C 
BRANCH  18  20
ATOM     20  C4  <0> d   1      17.834   1.789   9.493  0.00  0.00     0.063 C 
BRANCH  20  21
ATOM     21  C5  <0> d   1      18.312   2.808  10.496  0.00  0.00    -0.056 A 
ATOM     22  C10 <0> d   1      17.467   3.822  10.906  0.00  0.00     0.007 A 
ATOM     23  C9  <0> d   1      17.904   4.754  11.829  0.00  0.00     0.001 A 
ATOM     24  C8  <0> d   1      19.189   4.676  12.335  0.00  0.00     0.000 A 
ATOM     25  C7  <0> d   1      20.034   3.665  11.920  0.00  0.00     0.001 A 
ATOM     26  C6  <0> d   1      19.596   2.731  11.000  0.00  0.00     0.007 A 
ENDBRANCH  20  21
ENDBRANCH  18  20
ENDBRANCH   1  18
TORSDOF 10
ENDMDL
MODEL 6
REMARK VINA RESULT:      -6.4      1.589      2.193
REMARK  10 active torsions:
REMARK  status: ('A' for Active; 'I' for Inactive)
REMARK    1  A    between atoms: C2_2  and  C4_3 
REMARK    2  A    between atoms: C2_2  and  N11_10 
REMARK    3  A    between atoms: C4_3  and  C5_4 
REMARK       I    between atoms: N11_10  and  C12_11 
REMARK    4  A    between atoms: C12_11  and  C14_13 
REMARK    5  A    between atoms: C14_13  and  N16_14 
REMARK    6  A    between atoms: C14_13  and  C20_18 
REMARK    7  A    between atoms: C20_18  and  C21_19 
REMARK    8  A    between atoms: C21_19  and  C22_20 
REMARK    9  A    between atoms: C22_20  and  C23_21 
REMARK   10  A    between atoms: C23_21  and  N24_22 
ROOT
ATOM      1  N11 <0> d   1      18.678   0.321  12.086  0.00  0.00    -0.355 N 
ATOM      2  C12 <0> d   1      18.023  -0.804  12.437  0.00  0.00     0.248 C 
ATOM      3  O13 <0> d   1      16.909  -1.015  12.009  0.00  0.00    -0.271 OA
ATOM      4  H38 <0> d   1      19.570   0.490  12.429  0.00  0.00     0.162 HD
ENDROOT
BRANCH   2   5
ATOM      5  C14 <0> d   1      18.676  -1.799  13.362  0.00  0.00     0.274 C 
BRANCH   5   6
ATOM      6  N16 <0> d   1      19.800  -2.446  12.672  0.00  0.00    -0.067 N 
ATOM      7  H17 <0> d   1      19.871  -3.406  12.973  0.00  0.00     0.275 HD
ATOM      8  H18 <0> d   1      19.645  -2.416  11.676  0.00  0.00     0.275 HD
ATOM      9  H19 <0> d   1      20.655  -1.960  12.895  0.00  0.00     0.275 HD
ENDBRANCH   5   6
BRANCH   5  10
ATOM     10  C20 <0> d   1      19.193  -1.074  14.608  0.00  0.00     0.042 C 
BRANCH  10  11
ATOM     11  C21 <0> d   1      18.334  -1.457  15.814  0.00  0.00     0.004 C 
BRANCH  11  12
ATOM     12  C22 <0> d   1      17.580  -0.224  16.316  0.00  0.00     0.027 C 
BRANCH  12  13
ATOM     13  C23 <0> d   1      18.496   0.999  16.242  0.00  0.00     0.229 C 
BRANCH  13  14
ATOM     14  N24 <0> d   1      17.802   2.089  15.544  0.00  0.00    -0.079 N 
ATOM     15  H25 <0> d   1      18.298   2.314  14.694  0.00  0.00     0.274 HD
ATOM     16  H26 <0> d   1      16.862   1.799  15.318  0.00  0.00     0.274 HD
ATOM     17  H27 <0> d   1      17.768   2.902  16.140  0.00  0.00     0.274 HD
ENDBRANCH  13  14
ENDBRANCH  12  13
ENDBRANCH  11  12
ENDBRANCH  10  11
ENDBRANCH   5  10
ENDBRANCH   2   5
BRANCH   1  18
ATOM     18  C2  <0> d   1      18.044   1.288  11.188  0.00  0.00     0.084 C 
ATOM     19  C1  <0> d   1      17.603   2.515  11.989  0.00  0.00     0.032 C 
BRANCH  18  20
ATOM     20  C4  <0> d   1      19.044   1.714  10.110  0.00  0.00     0.063 C 
BRANCH  20  21
ATOM     21  C5  <0> d   1      18.603   1.173   8.774  0.00  0.00    -0.056 A 
ATOM     22  C10 <0> d   1      19.223   1.603   7.616  0.00  0.00     0.007 A 
ATOM     23  C9  <0> d   1      18.821   1.103   6.391  0.00  0.00     0.001 A 
ATOM     24  C8  <0> d   1      17.793   0.181   6.324  0.00  0.00     0.000 A 
ATOM     25  C7  <0> d   1      17.170  -0.245   7.482  0.00  0.00     0.001 A 
ATOM     26  C6  <0> d   1      17.575   0.253   8.707  0.00  0.00     0.007 A 
ENDBRANCH  20  21
ENDBRANCH  18  20
ENDBRANCH   1  18
TORSDOF 10
ENDMDL
MODEL 7
REMARK VINA RESULT:      -6.3      2.122      7.315
REMARK  10 active torsions:
REMARK  status: ('A' for Active; 'I' for Inactive)
REMARK    1  A    between atoms: C2_2  and  C4_3 
REMARK    2  A    between atoms: C2_2  and  N11_10 
REMARK    3  A    between atoms: C4_3  and  C5_4 
REMARK       I    between atoms: N11_10  and  C12_11 
REMARK    4  A    between atoms: C12_11  and  C14_13 
REMARK    5  A    between atoms: C14_13  and  N16_14 
REMARK    6  A    between atoms: C14_13  and  C20_18 
REMARK    7  A    between atoms: C20_18  and  C21_19 
REMARK    8  A    between atoms: C21_19  and  C22_20 
REMARK    9  A    between atoms: C22_20  and  C23_21 
REMARK   10  A    between atoms: C23_21  and  N24_22 
ROOT
ATOM      1  N11 <0> d   1      19.062   0.393  12.496  0.00  0.00    -0.355 N 
ATOM      2  C12 <0> d   1      18.258   1.362  12.017  0.00  0.00     0.248 C 
ATOM      3  O13 <0> d   1      17.054   1.233  12.074  0.00  0.00    -0.271 OA
ATOM      4  H38 <0> d   1      20.026   0.496  12.449  0.00  0.00     0.162 HD
ENDROOT
BRANCH   2   5
ATOM      5  C14 <0> d   1      18.854   2.605  11.408  0.00  0.00     0.274 C 
BRANCH   5   6
ATOM      6  N16 <0> d   1      20.318   2.549  11.516  0.00  0.00    -0.067 N 
ATOM      7  H17 <0> d   1      20.578   1.861  12.206  0.00  0.00     0.275 HD
ATOM      8  H18 <0> d   1      20.713   2.296  10.624  0.00  0.00     0.275 HD
ATOM      9  H19 <0> d   1      20.669   3.453  11.795  0.00  0.00     0.275 HD
ENDBRANCH   5   6
BRANCH   5  10
ATOM     10  C20 <0> d   1      18.456   2.691   9.932  0.00  0.00     0.042 C 
BRANCH  10  11
ATOM     11  C21 <0> d   1      19.458   1.904   9.086  0.00  0.00     0.004 C 
BRANCH  11  12
ATOM     12  C22 <0> d   1      18.733   0.768   8.362  0.00  0.00     0.027 C 
BRANCH  12  13
ATOM     13  C23 <0> d   1      19.394  -0.566   8.716  0.00  0.00     0.229 C 
BRANCH  13  14
ATOM     14  N24 <0> d   1      20.605  -0.317   9.509  0.00  0.00    -0.079 N 
ATOM     15  H25 <0> d   1      21.259  -1.073   9.371  0.00  0.00     0.274 HD
ATOM     16  H26 <0> d   1      21.026   0.551   9.216  0.00  0.00     0.274 HD
ATOM     17  H27 <0> d   1      20.360  -0.259  10.486  0.00  0.00     0.274 HD
ENDBRANCH  13  14
ENDBRANCH  12  13
ENDBRANCH  11  12
ENDBRANCH  10  11
ENDBRANCH   5  10
ENDBRANCH   2   5
BRANCH   1  18
ATOM     18  C2  <0> d   1      18.483  -0.815  13.087  0.00  0.00     0.084 C 
ATOM     19  C1  <0> d   1      18.539  -1.958  12.071  0.00  0.00     0.032 C 
BRANCH  18  20
ATOM     20  C4  <0> d   1      19.278  -1.204  14.336  0.00  0.00     0.063 C 
BRANCH  20  21
ATOM     21  C5  <0> d   1      18.669  -0.540  15.545  0.00  0.00    -0.056 A 
ATOM     22  C10 <0> d   1      17.644  -1.163  16.232  0.00  0.00     0.007 A 
ATOM     23  C9  <0> d   1      17.089  -0.556  17.344  0.00  0.00     0.001 A 
ATOM     24  C8  <0> d   1      17.553   0.678  17.762  0.00  0.00     0.000 A 
ATOM     25  C7  <0> d   1      18.575   1.302  17.071  0.00  0.00     0.001 A 
ATOM     26  C6  <0> d   1      19.132   0.693  15.962  0.00  0.00     0.007 A 
ENDBRANCH  20  21
ENDBRANCH  18  20
ENDBRANCH   1  18
TORSDOF 10
ENDMDL
MODEL 8
REMARK VINA RESULT:      -6.2      2.178      7.835
REMARK  10 active torsions:
REMARK  status: ('A' for Active; 'I' for Inactive)
REMARK    1  A    between atoms: C2_2  and  C4_3 
REMARK    2  A    between atoms: C2_2  and  N11_10 
REMARK    3  A    between atoms: C4_3  and  C5_4 
REMARK       I    between atoms: N11_10  and  C12_11 
REMARK    4  A    between atoms: C12_11  and  C14_13 
REMARK    5  A    between atoms: C14_13  and  N16_14 
REMARK    6  A    between atoms: C14_13  and  C20_18 
REMARK    7  A    between atoms: C20_18  and  C21_19 
REMARK    8  A    between atoms: C21_19  and  C22_20 
REMARK    9  A    between atoms: C22_20  and  C23_21 
REMARK   10  A    between atoms: C23_21  and  N24_22 
ROOT
ATOM      1  N11 <0> d   1      18.641  -0.622  11.120  0.00  0.00    -0.355 N 
ATOM      2  C12 <0> d   1      17.854   0.353  10.623  0.00  0.00     0.248 C 
ATOM      3  O13 <0> d   1      16.750   0.537  11.089  0.00  0.00    -0.271 OA
ATOM      4  H38 <0> d   1      19.524  -0.769  10.747  0.00  0.00     0.162 HD
ENDROOT
BRANCH   2   5
ATOM      5  C14 <0> d   1      18.345   1.213   9.487  0.00  0.00     0.274 C 
BRANCH   5   6
ATOM      6  N16 <0> d   1      19.544   1.947   9.911  0.00  0.00    -0.067 N 
ATOM      7  H17 <0> d   1      20.048   1.403  10.595  0.00  0.00     0.275 HD
ATOM      8  H18 <0> d   1      20.136   2.115   9.112  0.00  0.00     0.275 HD
ATOM      9  H19 <0> d   1      19.271   2.829  10.318  0.00  0.00     0.275 HD
ENDBRANCH   5   6
BRANCH   5  10
ATOM     10  C20 <0> d   1      18.689   0.325   8.288  0.00  0.00     0.042 C 
BRANCH  10  11
ATOM     11  C21 <0> d   1      18.940   1.201   7.060  0.00  0.00     0.004 C 
BRANCH  11  12
ATOM     12  C22 <0> d   1      18.301   0.553   5.831  0.00  0.00     0.027 C 
BRANCH  12  13
ATOM     13  C23 <0> d   1      19.382  -0.141   4.999  0.00  0.00     0.229 C 
BRANCH  13  14
ATOM     14  N24 <0> d   1      18.778  -1.232   4.224  0.00  0.00    -0.079 N 
ATOM     15  H25 <0> d   1      19.203  -2.108   4.487  0.00  0.00     0.274 HD
ATOM     16  H26 <0> d   1      17.788  -1.269   4.409  0.00  0.00     0.274 HD
ATOM     17  H27 <0> d   1      18.929  -1.068   3.239  0.00  0.00     0.274 HD
ENDBRANCH  13  14
ENDBRANCH  12  13
ENDBRANCH  11  12
ENDBRANCH  10  11
ENDBRANCH   5  10
ENDBRANCH   2   5
BRANCH   1  18
ATOM     18  C2  <0> d   1      18.163  -1.458  12.224  0.00  0.00     0.084 C 
ATOM     19  C1  <0> d   1      17.830  -2.855  11.698  0.00  0.00     0.032 C 
BRANCH  18  20
ATOM     20  C4  <0> d   1      19.253  -1.561  13.294  0.00  0.00     0.063 C 
BRANCH  20  21
ATOM     21  C5  <0> d   1      18.720  -1.042  14.605  0.00  0.00    -0.056 A 
ATOM     22  C10 <0> d   1      17.814   0.002  14.618  0.00  0.00     0.007 A 
ATOM     23  C9  <0> d   1      17.322   0.474  15.820  0.00  0.00     0.001 A 
ATOM     24  C8  <0> d   1      17.744  -0.091  17.010  0.00  0.00     0.000 A 
ATOM     25  C7  <0> d   1      18.655  -1.131  16.996  0.00  0.00     0.001 A 
ATOM     26  C6  <0> d   1      19.143  -1.605  15.793  0.00  0.00     0.007 A 
ENDBRANCH  20  21
ENDBRANCH  18  20
ENDBRANCH   1  18
TORSDOF 10
ENDMDL
MODEL 9
REMARK VINA RESULT:      -6.1      3.978      5.814
REMARK  10 active torsions:
REMARK  status: ('A' for Active; 'I' for Inactive)
REMARK    1  A    between atoms: C2_2  and  C4_3 
REMARK    2  A    between atoms: C2_2  and  N11_10 
REMARK    3  A    between atoms: C4_3  and  C5_4 
REMARK       I    between atoms: N11_10  and  C12_11 
REMARK    4  A    between atoms: C12_11  and  C14_13 
REMARK    5  A    between atoms: C14_13  and  N16_14 
REMARK    6  A    between atoms: C14_13  and  C20_18 
REMARK    7  A    between atoms: C20_18  and  C21_19 
REMARK    8  A    between atoms: C21_19  and  C22_20 
REMARK    9  A    between atoms: C22_20  and  C23_21 
REMARK   10  A    between atoms: C23_21  and  N24_22 
ROOT
ATOM      1  N11 <0> d   1      18.119  -2.656   6.300  0.00  0.00    -0.355 N 
ATOM      2  C12 <0> d   1      19.078  -3.568   6.559  0.00  0.00     0.248 C 
ATOM      3  O13 <0> d   1      20.244  -3.285   6.388  0.00  0.00    -0.271 OA
ATOM      4  H38 <0> d   1      17.185  -2.882   6.437  0.00  0.00     0.162 HD
ENDROOT
BRANCH   2   5
ATOM      5  C14 <0> d   1      18.699  -4.938   7.060  0.00  0.00     0.274 C 
BRANCH   5   6
ATOM      6  N16 <0> d   1      19.162  -5.954   6.104  0.00  0.00    -0.067 N 
ATOM      7  H17 <0> d   1      18.377  -6.295   5.570  0.00  0.00     0.275 HD
ATOM      8  H18 <0> d   1      19.841  -5.544   5.481  0.00  0.00     0.275 HD
ATOM      9  H19 <0> d   1      19.585  -6.720   6.607  0.00  0.00     0.275 HD
ENDBRANCH   5   6
BRANCH   5  10
ATOM     10  C20 <0> d   1      19.355  -5.183   8.421  0.00  0.00     0.042 C 
BRANCH  10  11
ATOM     11  C21 <0> d   1      18.392  -4.767   9.534  0.00  0.00     0.004 C 
BRANCH  11  12
ATOM     12  C22 <0> d   1      19.125  -4.784  10.876  0.00  0.00     0.027 C 
BRANCH  12  13
ATOM     13  C23 <0> d   1      19.446  -3.349  11.301  0.00  0.00     0.229 C 
BRANCH  13  14
ATOM     14  N24 <0> d   1      20.902  -3.183  11.399  0.00  0.00    -0.079 N 
ATOM     15  H25 <0> d   1      21.356  -4.062  11.198  0.00  0.00     0.274 HD
ATOM     16  H26 <0> d   1      21.208  -2.487  10.737  0.00  0.00     0.274 HD
ATOM     17  H27 <0> d   1      21.144  -2.886  12.333  0.00  0.00     0.274 HD
ENDBRANCH  13  14
ENDBRANCH  12  13
ENDBRANCH  11  12
ENDBRANCH  10  11
ENDBRANCH   5  10
ENDBRANCH   2   5
BRANCH   1  18
ATOM     18  C2  <0> d   1      18.486  -1.325   5.813  0.00  0.00     0.084 C 
ATOM     19  C1  <0> d   1      18.546  -1.339   4.284  0.00  0.00     0.032 C 
BRANCH  18  20
ATOM     20  C4  <0> d   1      17.440  -0.307   6.274  0.00  0.00     0.063 C 
BRANCH  20  21
ATOM     21  C5  <0> d   1      17.925   0.380   7.525  0.00  0.00    -0.056 A 
ATOM     22  C10 <0> d   1      18.913   1.344   7.446  0.00  0.00     0.007 A 
ATOM     23  C9  <0> d   1      19.354   1.977   8.593  0.00  0.00     0.001 A 
ATOM     24  C8  <0> d   1      18.813   1.640   9.820  0.00  0.00     0.000 A 
ATOM     25  C7  <0> d   1      17.829   0.673   9.899  0.00  0.00     0.001 A 
ATOM     26  C6  <0> d   1      17.385   0.043   8.751  0.00  0.00     0.007 A 
ENDBRANCH  20  21
ENDBRANCH  18  20
ENDBRANCH   1  18
TORSDOF 10
ENDMDL
