MODEL 1
REMARK VINA RESULT:      -8.8      0.000      0.000
REMARK  0 active torsions:
REMARK  status: ('A' for Active; 'I' for Inactive)
ROOT
ATOM      1  C1  ZIN A   1      19.205  -4.474   9.763  0.00  0.00     0.309 C 
ATOM      2  N2  ZIN A   1      18.185  -3.539  10.257  0.00  0.00     0.085 N 
ATOM      3  C3  ZIN A   1      18.127  -2.316   9.411  0.00  0.00     0.282 C 
ATOM      4  C4  ZIN A   1      17.801  -1.193  10.408  0.00  0.00     0.060 C 
ATOM      5  C6  ZIN A   1      18.114   0.178   9.951  0.00  0.00    -0.018 A 
ATOM      6  C7  ZIN A   1      18.715   0.438   8.737  0.00  0.00     0.010 A 
ATOM      7  C8  ZIN A   1      19.015   1.741   8.378  0.00  0.00     0.001 A 
ATOM      8  C9  ZIN A   1      18.717   2.784   9.235  0.00  0.00     0.003 A 
ATOM      9  C10 ZIN A   1      18.103   2.529  10.448  0.00  0.00     0.038 A 
ATOM     10  C11 ZIN A   1      17.787   1.228  10.799  0.00  0.00     0.082 A 
ATOM     11  O12 ZIN A   1      17.107   0.944  11.927  0.00  0.00    -0.310 OA
ATOM     12  C13 ZIN A   1      17.609   0.284  12.988  0.00  0.00     0.083 A 
ATOM     13  C14 ZIN A   1      17.377   0.855  14.241  0.00  0.00     0.039 A 
ATOM     14  C15 ZIN A   1      17.867   0.274  15.390  0.00  0.00     0.026 A 
ATOM     15  C16 ZIN A   1      18.602  -0.894  15.299  0.00  0.00     0.034 A 
ATOM     16 Cl17 ZIN A   1      19.240  -1.635  16.733  0.00  0.00    -0.084 Cl
ATOM     17  C18 ZIN A   1      18.828  -1.467  14.067  0.00  0.00     0.034 A 
ATOM     18  C19 ZIN A   1      18.329  -0.897  12.896  0.00  0.00    -0.016 A 
ATOM     19  C20 ZIN A   1      18.596  -1.608  11.627  0.00  0.00     0.060 C 
ATOM     20  C22 ZIN A   1      18.471  -3.130  11.656  0.00  0.00     0.282 C 
ENDROOT
TORSDOF 0
ENDMDL
MODEL 2
REMARK VINA RESULT:      -8.7      2.892      4.639
REMARK  0 active torsions:
REMARK  status: ('A' for Active; 'I' for Inactive)
ROOT
ATOM      1  C1  ZIN A   1      17.309   5.787  13.572  0.00  0.00     0.309 C 
ATOM      2  N2  ZIN A   1      18.422   4.829  13.608  0.00  0.00     0.085 N 
ATOM      3  C3  ZIN A   1      18.859   4.468  12.231  0.00  0.00     0.282 C 
ATOM      4  C4  ZIN A   1      19.268   2.991  12.350  0.00  0.00     0.060 C 
ATOM      5  C6  ZIN A   1      19.321   2.239  11.078  0.00  0.00    -0.018 A 
ATOM      6  C7  ZIN A   1      18.970   2.799   9.868  0.00  0.00     0.010 A 
ATOM      7  C8  ZIN A   1      19.008   2.033   8.715  0.00  0.00     0.001 A 
ATOM      8  C9  ZIN A   1      19.393   0.707   8.773  0.00  0.00     0.003 A 
ATOM      9  C10 ZIN A   1      19.758   0.144   9.983  0.00  0.00     0.038 A 
ATOM     10  C11 ZIN A   1      19.738   0.914  11.133  0.00  0.00     0.082 A 
ATOM     11  O12 ZIN A   1      20.172   0.435  12.315  0.00  0.00    -0.310 OA
ATOM     12  C13 ZIN A   1      19.395   0.202  13.389  0.00  0.00     0.083 A 
ATOM     13  C14 ZIN A   1      19.560  -1.034  14.019  0.00  0.00     0.039 A 
ATOM     14  C15 ZIN A   1      18.798  -1.382  15.112  0.00  0.00     0.026 A 
ATOM     15  C16 ZIN A   1      17.853  -0.493  15.592  0.00  0.00     0.034 A 
ATOM     16 Cl17 ZIN A   1      16.874  -0.919  16.960  0.00  0.00    -0.084 Cl
ATOM     17  C18 ZIN A   1      17.691   0.730  14.980  0.00  0.00     0.034 A 
ATOM     18  C19 ZIN A   1      18.462   1.102  13.880  0.00  0.00    -0.016 A 
ATOM     19  C20 ZIN A   1      18.237   2.450  13.317  0.00  0.00     0.060 C 
ATOM     20  C22 ZIN A   1      18.031   3.585  14.318  0.00  0.00     0.282 C 
ENDROOT
TORSDOF 0
ENDMDL
MODEL 3
REMARK VINA RESULT:      -8.3      3.434      5.549
REMARK  0 active torsions:
REMARK  status: ('A' for Active; 'I' for Inactive)
ROOT
ATOM      1  C1  ZIN A   1      17.788  -3.024  11.878  0.00  0.00     0.309 C 
ATOM      2  N2  ZIN A   1      18.712  -2.139  11.156  0.00  0.00     0.085 N 
ATOM      3  C3  ZIN A   1      18.682  -0.762  11.720  0.00  0.00     0.282 C 
ATOM      4  C4  ZIN A   1      18.887   0.143  10.495  0.00  0.00     0.060 C 
ATOM      5  C6  ZIN A   1      18.465   1.551  10.662  0.00  0.00    -0.018 A 
ATOM      6  C7  ZIN A   1      17.871   2.017  11.816  0.00  0.00     0.010 A 
ATOM      7  C8  ZIN A   1      17.467   3.338  11.901  0.00  0.00     0.001 A 
ATOM      8  C9  ZIN A   1      17.654   4.192  10.831  0.00  0.00     0.003 A 
ATOM      9  C10 ZIN A   1      18.260   3.733   9.676  0.00  0.00     0.038 A 
ATOM     10  C11 ZIN A   1      18.681   2.417   9.598  0.00  0.00     0.082 A 
ATOM     11  O12 ZIN A   1      19.358   1.951   8.529  0.00  0.00    -0.310 OA
ATOM     12  C13 ZIN A   1      18.892   1.041   7.654  0.00  0.00     0.083 A 
ATOM     13  C14 ZIN A   1      19.046   1.346   6.300  0.00  0.00     0.039 A 
ATOM     14  C15 ZIN A   1      18.583   0.493   5.322  0.00  0.00     0.026 A 
ATOM     15  C16 ZIN A   1      17.955  -0.683   5.688  0.00  0.00     0.034 A 
ATOM     16 Cl17 ZIN A   1      17.353  -1.764   4.471  0.00  0.00    -0.084 Cl
ATOM     17  C18 ZIN A   1      17.806  -0.993   7.022  0.00  0.00     0.034 A 
ATOM     18  C19 ZIN A   1      18.280  -0.147   8.024  0.00  0.00    -0.016 A 
ATOM     19  C20 ZIN A   1      18.104  -0.587   9.424  0.00  0.00     0.060 C 
ATOM     20  C22 ZIN A   1      18.360  -2.064   9.715  0.00  0.00     0.282 C 
ENDROOT
TORSDOF 0
ENDMDL
MODEL 4
REMARK VINA RESULT:      -8.2      3.174      5.030
REMARK  0 active torsions:
REMARK  status: ('A' for Active; 'I' for Inactive)
ROOT
ATOM      1  C1  ZIN A   1      18.115  -0.418   5.283  0.00  0.00     0.309 C 
ATOM      2  N2  ZIN A   1      19.113  -0.199   6.339  0.00  0.00     0.085 N 
ATOM      3  C3  ZIN A   1      19.240  -1.399   7.209  0.00  0.00     0.282 C 
ATOM      4  C4  ZIN A   1      19.516  -0.815   8.604  0.00  0.00     0.060 C 
ATOM      5  C6  ZIN A   1      19.249  -1.722   9.741  0.00  0.00    -0.018 A 
ATOM      6  C7  ZIN A   1      18.731  -2.990   9.575  0.00  0.00     0.010 A 
ATOM      7  C8  ZIN A   1      18.471  -3.780  10.681  0.00  0.00     0.001 A 
ATOM      8  C9  ZIN A   1      18.726  -3.303  11.953  0.00  0.00     0.003 A 
ATOM      9  C10 ZIN A   1      19.257  -2.038  12.124  0.00  0.00     0.038 A 
ATOM     10  C11 ZIN A   1      19.534  -1.254  11.017  0.00  0.00     0.082 A 
ATOM     11  O12 ZIN A   1      20.137  -0.053  11.132  0.00  0.00    -0.310 OA
ATOM     12  C13 ZIN A   1      19.560   1.132  10.860  0.00  0.00     0.083 A 
ATOM     13  C14 ZIN A   1      19.718   2.135  11.818  0.00  0.00     0.039 A 
ATOM     14  C15 ZIN A   1      19.148   3.377  11.648  0.00  0.00     0.026 A 
ATOM     15  C16 ZIN A   1      18.406   3.634  10.510  0.00  0.00     0.034 A 
ATOM     16 Cl17 ZIN A   1      17.668   5.189  10.284  0.00  0.00    -0.084 Cl
ATOM     17  C18 ZIN A   1      18.252   2.651   9.557  0.00  0.00     0.034 A 
ATOM     18  C19 ZIN A   1      18.832   1.393   9.708  0.00  0.00    -0.016 A 
ATOM     19  C20 ZIN A   1      18.639   0.419   8.613  0.00  0.00     0.060 C 
ATOM     20  C22 ZIN A   1      18.743   0.962   7.189  0.00  0.00     0.282 C 
ENDROOT
TORSDOF 0
ENDMDL
MODEL 5
REMARK VINA RESULT:      -8.1      3.637      6.657
REMARK  0 active torsions:
REMARK  status: ('A' for Active; 'I' for Inactive)
ROOT
ATOM      1  C1  ZIN A   1      20.010   5.897  14.492  0.00  0.00     0.309 C 
ATOM      2  N2  ZIN A   1      18.843   5.058  14.188  0.00  0.00     0.085 N 
ATOM      3  C3  ZIN A   1      18.663   4.001  15.220  0.00  0.00     0.282 C 
ATOM      4  C4  ZIN A   1      18.127   2.798  14.426  0.00  0.00     0.060 C 
ATOM      5  C6  ZIN A   1      18.271   1.482  15.084  0.00  0.00    -0.018 A 
ATOM      6  C7  ZIN A   1      18.898   1.325  16.302  0.00  0.00     0.010 A 
ATOM      7  C8  ZIN A   1      19.033   0.062  16.853  0.00  0.00     0.001 A 
ATOM      8  C9  ZIN A   1      18.545  -1.044  16.183  0.00  0.00     0.003 A 
ATOM      9  C10 ZIN A   1      17.905  -0.890  14.967  0.00  0.00     0.038 A 
ATOM     10  C11 ZIN A   1      17.754   0.374  14.425  0.00  0.00     0.082 A 
ATOM     11  O12 ZIN A   1      17.057   0.581  13.290  0.00  0.00    -0.310 OA
ATOM     12  C13 ZIN A   1      17.585   0.990  12.121  0.00  0.00     0.083 A 
ATOM     13  C14 ZIN A   1      17.205   0.275  10.983  0.00  0.00     0.039 A 
ATOM     14  C15 ZIN A   1      17.705   0.597   9.741  0.00  0.00     0.026 A 
ATOM     15  C16 ZIN A   1      18.600   1.644   9.620  0.00  0.00     0.034 A 
ATOM     16 Cl17 ZIN A   1      19.252   2.056   8.065  0.00  0.00    -0.084 Cl
ATOM     17  C18 ZIN A   1      18.973   2.358  10.737  0.00  0.00     0.034 A 
ATOM     18  C19 ZIN A   1      18.467   2.053  11.999  0.00  0.00    -0.016 A 
ATOM     19  C20 ZIN A   1      18.901   2.901  13.129  0.00  0.00     0.060 C 
ATOM     20  C22 ZIN A   1      18.989   4.403  12.863  0.00  0.00     0.282 C 
ENDROOT
TORSDOF 0
ENDMDL
MODEL 6
REMARK VINA RESULT:      -8.0      2.427      4.374
REMARK  0 active torsions:
REMARK  status: ('A' for Active; 'I' for Inactive)
ROOT
ATOM      1  C1  ZIN A   1      18.295   0.541  15.913  0.00  0.00     0.309 C 
ATOM      2  N2  ZIN A   1      19.241   0.073  14.891  0.00  0.00     0.085 N 
ATOM      3  C3  ZIN A   1      19.420   1.094  13.823  0.00  0.00     0.282 C 
ATOM      4  C4  ZIN A   1      19.610   0.262  12.545  0.00  0.00     0.060 C 
ATOM      5  C6  ZIN A   1      19.368   0.978  11.274  0.00  0.00    -0.018 A 
ATOM      6  C7  ZIN A   1      18.942   2.288  11.229  0.00  0.00     0.010 A 
ATOM      7  C8  ZIN A   1      18.699   2.895  10.008  0.00  0.00     0.001 A 
ATOM      8  C9  ZIN A   1      18.880   2.190   8.833  0.00  0.00     0.003 A 
ATOM      9  C10 ZIN A   1      19.319   0.879   8.873  0.00  0.00     0.038 A 
ATOM     10  C11 ZIN A   1      19.579   0.278  10.093  0.00  0.00     0.082 A 
ATOM     11  O12 ZIN A   1      20.095  -0.964  10.175  0.00  0.00    -0.310 OA
ATOM     12  C13 ZIN A   1      19.449  -2.041  10.661  0.00  0.00     0.083 A 
ATOM     13  C14 ZIN A   1      19.508  -3.202   9.887  0.00  0.00     0.039 A 
ATOM     14  C15 ZIN A   1      18.861  -4.353  10.282  0.00  0.00     0.026 A 
ATOM     15  C16 ZIN A   1      18.141  -4.356  11.463  0.00  0.00     0.034 A 
ATOM     16 Cl17 ZIN A   1      17.309  -5.792  11.969  0.00  0.00    -0.084 Cl
ATOM     17  C18 ZIN A   1      18.085  -3.217  12.234  0.00  0.00     0.034 A 
ATOM     18  C19 ZIN A   1      18.743  -2.047  11.854  0.00  0.00    -0.016 A 
ATOM     19  C20 ZIN A   1      18.652  -0.889  12.769  0.00  0.00     0.060 C 
ATOM     20  C22 ZIN A   1      18.765  -1.186  14.263  0.00  0.00     0.282 C 
ENDROOT
TORSDOF 0
ENDMDL
MODEL 7
REMARK VINA RESULT:      -7.9      2.951      4.275
REMARK  0 active torsions:
REMARK  status: ('A' for Active; 'I' for Inactive)
ROOT
ATOM      1  C1  ZIN A   1      18.758  -1.260  15.097  0.00  0.00     0.309 C 
ATOM      2  N2  ZIN A   1      17.812  -0.437  14.333  0.00  0.00     0.085 N 
ATOM      3  C3  ZIN A   1      18.030  -0.593  12.869  0.00  0.00     0.282 C 
ATOM      4  C4  ZIN A   1      17.722   0.801  12.300  0.00  0.00     0.060 C 
ATOM      5  C6  ZIN A   1      18.272   1.078  10.955  0.00  0.00    -0.018 A 
ATOM      6  C7  ZIN A   1      19.061   0.175  10.274  0.00  0.00     0.010 A 
ATOM      7  C8  ZIN A   1      19.575   0.505   9.032  0.00  0.00     0.001 A 
ATOM      8  C9  ZIN A   1      19.303   1.739   8.472  0.00  0.00     0.003 A 
ATOM      9  C10 ZIN A   1      18.502   2.644   9.146  0.00  0.00     0.038 A 
ATOM     10  C11 ZIN A   1      17.973   2.307  10.380  0.00  0.00     0.082 A 
ATOM     11  O12 ZIN A   1      17.115   3.119  11.029  0.00  0.00    -0.310 OA
ATOM     12  C13 ZIN A   1      17.377   3.758  12.184  0.00  0.00     0.083 A 
ATOM     13  C14 ZIN A   1      17.053   5.116  12.229  0.00  0.00     0.039 A 
ATOM     14  C15 ZIN A   1      17.302   5.869  13.356  0.00  0.00     0.026 A 
ATOM     15  C16 ZIN A   1      17.883   5.270  14.458  0.00  0.00     0.034 A 
ATOM     16 Cl17 ZIN A   1      18.217   6.205  15.882  0.00  0.00    -0.084 Cl
ATOM     17  C18 ZIN A   1      18.198   3.929  14.423  0.00  0.00     0.034 A 
ATOM     18  C19 ZIN A   1      17.942   3.151  13.295  0.00  0.00    -0.016 A 
ATOM     19  C20 ZIN A   1      18.282   1.714  13.369  0.00  0.00     0.060 C 
ATOM     20  C22 ZIN A   1      17.957   1.000  14.680  0.00  0.00     0.282 C 
ENDROOT
TORSDOF 0
ENDMDL
MODEL 8
REMARK VINA RESULT:      -7.9      2.981      4.541
REMARK  0 active torsions:
REMARK  status: ('A' for Active; 'I' for Inactive)
ROOT
ATOM      1  C1  ZIN A   1      19.252  -0.135   4.733  0.00  0.00     0.309 C 
ATOM      2  N2  ZIN A   1      18.279  -0.388   5.804  0.00  0.00     0.085 N 
ATOM      3  C3  ZIN A   1      18.229   0.753   6.759  0.00  0.00     0.282 C 
ATOM      4  C4  ZIN A   1      17.972   0.084   8.119  0.00  0.00     0.060 C 
ATOM      5  C6  ZIN A   1      18.312   0.898   9.306  0.00  0.00    -0.018 A 
ATOM      6  C7  ZIN A   1      18.877   2.152   9.210  0.00  0.00     0.010 A 
ATOM      7  C8  ZIN A   1      19.204   2.853  10.358  0.00  0.00     0.001 A 
ATOM      8  C9  ZIN A   1      18.969   2.299  11.602  0.00  0.00     0.003 A 
ATOM      9  C10 ZIN A   1      18.391   1.046  11.703  0.00  0.00     0.038 A 
ATOM     10  C11 ZIN A   1      18.047   0.353  10.556  0.00  0.00     0.082 A 
ATOM     11  O12 ZIN A   1      17.399  -0.827  10.608  0.00  0.00    -0.310 OA
ATOM     12  C13 ZIN A   1      17.917  -2.012  10.235  0.00  0.00     0.083 A 
ATOM     13  C14 ZIN A   1      17.746  -3.073  11.128  0.00  0.00     0.039 A 
ATOM     14  C15 ZIN A   1      18.258  -4.322  10.854  0.00  0.00     0.026 A 
ATOM     15  C16 ZIN A   1      18.953  -4.528   9.676  0.00  0.00     0.034 A 
ATOM     16 Cl17 ZIN A   1      19.618  -6.091   9.319  0.00  0.00    -0.084 Cl
ATOM     17  C18 ZIN A   1      19.119  -3.488   8.788  0.00  0.00     0.034 A 
ATOM     18  C19 ZIN A   1      18.597  -2.221   9.045  0.00  0.00    -0.016 A 
ATOM     19  C20 ZIN A   1      18.796  -1.181   8.013  0.00  0.00     0.060 C 
ATOM     20  C22 ZIN A   1      18.626  -1.618   6.559  0.00  0.00     0.282 C 
ENDROOT
TORSDOF 0
ENDMDL
MODEL 9
REMARK VINA RESULT:      -7.8      2.975      5.133
REMARK  0 active torsions:
REMARK  status: ('A' for Active; 'I' for Inactive)
ROOT
ATOM      1  C1  ZIN A   1      18.294  -0.442  15.008  0.00  0.00     0.309 C 
ATOM      2  N2  ZIN A   1      19.094   0.222  13.970  0.00  0.00     0.085 N 
ATOM      3  C3  ZIN A   1      18.751   1.668  13.877  0.00  0.00     0.282 C 
ATOM      4  C4  ZIN A   1      18.890   1.984  12.379  0.00  0.00     0.060 C 
ATOM      5  C6  ZIN A   1      18.195   3.204  11.916  0.00  0.00    -0.018 A 
ATOM      6  C7  ZIN A   1      17.421   3.981  12.752  0.00  0.00     0.010 A 
ATOM      7  C8  ZIN A   1      16.767   5.094  12.253  0.00  0.00     0.001 A 
ATOM      8  C9  ZIN A   1      16.884   5.428  10.916  0.00  0.00     0.003 A 
ATOM      9  C10 ZIN A   1      17.669   4.658  10.077  0.00  0.00     0.038 A 
ATOM     10  C11 ZIN A   1      18.337   3.556  10.580  0.00  0.00     0.082 A 
ATOM     11  O12 ZIN A   1      19.184   2.833   9.820  0.00  0.00    -0.310 OA
ATOM     12  C13 ZIN A   1      18.982   1.561   9.431  0.00  0.00     0.083 A 
ATOM     13  C14 ZIN A   1      19.196   1.283   8.080  0.00  0.00     0.039 A 
ATOM     14  C15 ZIN A   1      18.995   0.018   7.573  0.00  0.00     0.026 A 
ATOM     15  C16 ZIN A   1      18.571  -0.992   8.417  0.00  0.00     0.034 A 
ATOM     16 Cl17 ZIN A   1      18.298  -2.589   7.795  0.00  0.00    -0.084 Cl
ATOM     17  C18 ZIN A   1      18.365  -0.727   9.753  0.00  0.00     0.034 A 
ATOM     18  C19 ZIN A   1      18.575   0.545  10.283  0.00  0.00    -0.016 A 
ATOM     19  C20 ZIN A   1      18.361   0.720  11.736  0.00  0.00     0.060 C 
ATOM     20  C22 ZIN A   1      18.866  -0.402  12.642  0.00  0.00     0.282 C 
ENDROOT
TORSDOF 0
ENDMDL
