MODEL 1
REMARK VINA RESULT:      -7.3      0.000      0.000
REMARK  12 active torsions:
REMARK  status: ('A' for Active; 'I' for Inactive)
REMARK    1  A    between atoms: C2_2  and  C3_3 
REMARK    2  A    between atoms: C3_3  and  N4_4 
REMARK    3  A    between atoms: N4_4  and  C7_7 
REMARK    4  A    between atoms: C7_7  and  C8_8 
REMARK    5  A    between atoms: C8_8  and  O10_9 
REMARK    6  A    between atoms: C8_8  and  C11_10 
REMARK    7  A    between atoms: C11_10  and  O12_11 
REMARK    8  A    between atoms: O12_11  and  C13_12 
REMARK    9  A    between atoms: C18_17  and  C19_18 
REMARK   10  A    between atoms: C19_18  and  C21_20 
REMARK   11  A    between atoms: C21_20  and  C22_21 
REMARK   12  A    between atoms: C22_21  and  C23_22 
ROOT
ATOM      1  C13 ZIN A   1      18.081   1.837  10.126  0.00  0.00     0.082 A 
ATOM      2  C14 ZIN A   1      18.753   2.392   9.049  0.00  0.00     0.038 A 
ATOM      3  C15 ZIN A   1      19.033   1.622   7.937  0.00  0.00     0.003 A 
ATOM      4  C16 ZIN A   1      18.648   0.293   7.887  0.00  0.00     0.001 A 
ATOM      5  C17 ZIN A   1      17.979  -0.278   8.947  0.00  0.00     0.018 A 
ATOM      6  C18 ZIN A   1      17.692   0.488  10.084  0.00  0.00     0.043 A 
ENDROOT
BRANCH   1   7
ATOM      7  O12 ZIN A   1      17.805   2.591  11.219  0.00  0.00    -0.348 OA
BRANCH   7   8
ATOM      8  C11 ZIN A   1      18.185   3.968  11.170  0.00  0.00     0.209 C 
BRANCH   8   9
ATOM      9  C8  ZIN A   1      19.016   4.312  12.408  0.00  0.00     0.168 C 
BRANCH   9  10
ATOM     10  C7  ZIN A   1      18.477   3.539  13.614  0.00  0.00     0.265 C 
BRANCH  10  11
ATOM     11  N4  ZIN A   1      19.538   3.401  14.620  0.00  0.00    -0.073 N 
ATOM     12  H5  ZIN A   1      20.280   4.056  14.419  0.00  0.00     0.277 HD
ATOM     13  H6  ZIN A   1      19.904   2.461  14.598  0.00  0.00     0.277 HD
BRANCH  11  14
ATOM     14  C3  ZIN A   1      18.988   3.681  15.953  0.00  0.00     0.232 C 
BRANCH  14  15
ATOM     15  C2  ZIN A   1      19.506   2.639  16.948  0.00  0.00     0.023 C 
ATOM     16  C1  ZIN A   1      18.806   2.828  18.295  0.00  0.00     0.007 C 
ENDBRANCH  14  15
ENDBRANCH  11  14
ENDBRANCH  10  11
ENDBRANCH   9  10
BRANCH   9  17
ATOM     17  O10 ZIN A   1      20.380   3.952  12.182  0.00  0.00    -0.392 OA
ATOM     18  H38 ZIN A   1      20.493   3.146  11.659  0.00  0.00     0.210 HD
ENDBRANCH   9  17
ENDBRANCH   8   9
ENDBRANCH   7   8
ENDBRANCH   1   7
BRANCH   6  19
ATOM     19  C19 ZIN A   1      16.980  -0.113  11.218  0.00  0.00     0.162 C 
ATOM     20  O20 ZIN A   1      15.817   0.168  11.420  0.00  0.00    -0.292 OA
BRANCH  19  21
ATOM     21  C21 ZIN A   1      17.692  -1.076  12.131  0.00  0.00     0.088 C 
BRANCH  21  22
ATOM     22  C22 ZIN A   1      18.746  -0.324  12.946  0.00  0.00     0.046 C 
BRANCH  22  23
ATOM     23  C23 ZIN A   1      18.459  -0.492  14.415  0.00  0.00    -0.058 A 
ATOM     24  C28 ZIN A   1      17.409   0.194  14.997  0.00  0.00     0.007 A 
ATOM     25  C27 ZIN A   1      17.143   0.036  16.345  0.00  0.00     0.001 A 
ATOM     26  C26 ZIN A   1      17.933  -0.799  17.112  0.00  0.00     0.000 A 
ATOM     27  C25 ZIN A   1      18.987  -1.481  16.532  0.00  0.00     0.001 A 
ATOM     28  C24 ZIN A   1      19.251  -1.326  15.183  0.00  0.00     0.007 A 
ENDBRANCH  22  23
ENDBRANCH  21  22
ENDBRANCH  19  21
ENDBRANCH   6  19
TORSDOF 12
ENDMDL
MODEL 2
REMARK VINA RESULT:      -7.2      2.947      5.189
REMARK  12 active torsions:
REMARK  status: ('A' for Active; 'I' for Inactive)
REMARK    1  A    between atoms: C2_2  and  C3_3 
REMARK    2  A    between atoms: C3_3  and  N4_4 
REMARK    3  A    between atoms: N4_4  and  C7_7 
REMARK    4  A    between atoms: C7_7  and  C8_8 
REMARK    5  A    between atoms: C8_8  and  O10_9 
REMARK    6  A    between atoms: C8_8  and  C11_10 
REMARK    7  A    between atoms: C11_10  and  O12_11 
REMARK    8  A    between atoms: O12_11  and  C13_12 
REMARK    9  A    between atoms: C18_17  and  C19_18 
REMARK   10  A    between atoms: C19_18  and  C21_20 
REMARK   11  A    between atoms: C21_20  and  C22_21 
REMARK   12  A    between atoms: C22_21  and  C23_22 
ROOT
ATOM      1  C13 ZIN A   1      18.118   0.526   9.197  0.00  0.00     0.082 A 
ATOM      2  C14 ZIN A   1      18.776   1.433   8.382  0.00  0.00     0.038 A 
ATOM      3  C15 ZIN A   1      18.969   2.732   8.807  0.00  0.00     0.003 A 
ATOM      4  C16 ZIN A   1      18.507   3.142  10.047  0.00  0.00     0.001 A 
ATOM      5  C17 ZIN A   1      17.850   2.257  10.872  0.00  0.00     0.018 A 
ATOM      6  C18 ZIN A   1      17.643   0.937  10.454  0.00  0.00     0.043 A 
ENDROOT
BRANCH   1   7
ATOM      7  O12 ZIN A   1      17.927  -0.751   8.782  0.00  0.00    -0.348 OA
BRANCH   7   8
ATOM      8  C11 ZIN A   1      18.083  -1.008   7.385  0.00  0.00     0.209 C 
BRANCH   8   9
ATOM      9  C8  ZIN A   1      19.325  -1.875   7.161  0.00  0.00     0.168 C 
BRANCH   9  10
ATOM     10  C7  ZIN A   1      19.076  -3.277   7.722  0.00  0.00     0.265 C 
BRANCH  10  11
ATOM     11  N4  ZIN A   1      19.485  -3.319   9.132  0.00  0.00    -0.073 N 
ATOM     12  H5  ZIN A   1      19.561  -2.378   9.488  0.00  0.00     0.277 HD
ATOM     13  H6  ZIN A   1      20.378  -3.782   9.211  0.00  0.00     0.277 HD
BRANCH  11  14
ATOM     14  C3  ZIN A   1      18.481  -4.057   9.910  0.00  0.00     0.232 C 
BRANCH  14  15
ATOM     15  C2  ZIN A   1      19.161  -4.748  11.094  0.00  0.00     0.023 C 
ATOM     16  C1  ZIN A   1      20.293  -3.864  11.620  0.00  0.00     0.007 C 
ENDBRANCH  14  15
ENDBRANCH  11  14
ENDBRANCH  10  11
ENDBRANCH   9  10
BRANCH   9  17
ATOM     17  O10 ZIN A   1      19.599  -1.962   5.761  0.00  0.00    -0.392 OA
ATOM     18  H38 ZIN A   1      18.877  -1.647   5.199  0.00  0.00     0.210 HD
ENDBRANCH   9  17
ENDBRANCH   8   9
ENDBRANCH   7   8
ENDBRANCH   1   7
BRANCH   6  19
ATOM     19  C19 ZIN A   1      16.943  -0.013  11.327  0.00  0.00     0.162 C 
ATOM     20  O20 ZIN A   1      15.752   0.110  11.523  0.00  0.00    -0.292 OA
BRANCH  19  21
ATOM     21  C21 ZIN A   1      17.702  -1.138  11.980  0.00  0.00     0.088 C 
BRANCH  21  22
ATOM     22  C22 ZIN A   1      19.040  -0.614  12.506  0.00  0.00     0.046 C 
BRANCH  22  23
ATOM     23  C23 ZIN A   1      18.956  -0.432  13.999  0.00  0.00    -0.058 A 
ATOM     24  C28 ZIN A   1      19.099   0.828  14.551  0.00  0.00     0.007 A 
ATOM     25  C27 ZIN A   1      19.018   0.995  15.921  0.00  0.00     0.001 A 
ATOM     26  C26 ZIN A   1      18.802  -0.097  16.739  0.00  0.00     0.000 A 
ATOM     27  C25 ZIN A   1      18.664  -1.358  16.188  0.00  0.00     0.001 A 
ATOM     28  C24 ZIN A   1      18.742  -1.525  14.818  0.00  0.00     0.007 A 
ENDBRANCH  22  23
ENDBRANCH  21  22
ENDBRANCH  19  21
ENDBRANCH   6  19
TORSDOF 12
ENDMDL
MODEL 3
REMARK VINA RESULT:      -7.1      2.543      6.699
REMARK  12 active torsions:
REMARK  status: ('A' for Active; 'I' for Inactive)
REMARK    1  A    between atoms: C2_2  and  C3_3 
REMARK    2  A    between atoms: C3_3  and  N4_4 
REMARK    3  A    between atoms: N4_4  and  C7_7 
REMARK    4  A    between atoms: C7_7  and  C8_8 
REMARK    5  A    between atoms: C8_8  and  O10_9 
REMARK    6  A    between atoms: C8_8  and  C11_10 
REMARK    7  A    between atoms: C11_10  and  O12_11 
REMARK    8  A    between atoms: O12_11  and  C13_12 
REMARK    9  A    between atoms: C18_17  and  C19_18 
REMARK   10  A    between atoms: C19_18  and  C21_20 
REMARK   11  A    between atoms: C21_20  and  C22_21 
REMARK   12  A    between atoms: C22_21  and  C23_22 
ROOT
ATOM      1  C13 ZIN A   1      18.011   2.276  12.061  0.00  0.00     0.082 A 
ATOM      2  C14 ZIN A   1      17.609   3.497  12.581  0.00  0.00     0.038 A 
ATOM      3  C15 ZIN A   1      17.482   4.594  11.752  0.00  0.00     0.003 A 
ATOM      4  C16 ZIN A   1      17.756   4.487  10.398  0.00  0.00     0.001 A 
ATOM      5  C17 ZIN A   1      18.159   3.284   9.863  0.00  0.00     0.018 A 
ATOM      6  C18 ZIN A   1      18.296   2.163  10.691  0.00  0.00     0.043 A 
ENDROOT
BRANCH   1   7
ATOM      7  O12 ZIN A   1      18.136   1.197  12.874  0.00  0.00    -0.348 OA
BRANCH   7   8
ATOM      8  C11 ZIN A   1      18.989   1.339  14.013  0.00  0.00     0.209 C 
BRANCH   8   9
ATOM      9  C8  ZIN A   1      20.018   0.206  14.023  0.00  0.00     0.168 C 
BRANCH   9  10
ATOM     10  C7  ZIN A   1      19.317  -1.123  13.735  0.00  0.00     0.265 C 
BRANCH  10  11
ATOM     11  N4  ZIN A   1      19.762  -1.638  12.434  0.00  0.00    -0.073 N 
ATOM     12  H5  ZIN A   1      20.740  -1.884  12.486  0.00  0.00     0.277 HD
ATOM     13  H6  ZIN A   1      19.631  -0.929  11.727  0.00  0.00     0.277 HD
BRANCH  11  14
ATOM     14  C3  ZIN A   1      18.976  -2.829  12.084  0.00  0.00     0.232 C 
BRANCH  14  15
ATOM     15  C2  ZIN A   1      19.911  -3.922  11.562  0.00  0.00     0.023 C 
ATOM     16  C1  ZIN A   1      19.453  -4.364  10.170  0.00  0.00     0.007 C 
ENDBRANCH  14  15
ENDBRANCH  11  14
ENDBRANCH  10  11
ENDBRANCH   9  10
BRANCH   9  17
ATOM     17  O10 ZIN A   1      21.006   0.452  13.020  0.00  0.00    -0.392 OA
ATOM     18  H38 ZIN A   1      20.929   1.317  12.596  0.00  0.00     0.210 HD
ENDBRANCH   9  17
ENDBRANCH   8   9
ENDBRANCH   7   8
ENDBRANCH   1   7
BRANCH   6  19
ATOM     19  C19 ZIN A   1      18.724   0.877  10.128  0.00  0.00     0.162 C 
ATOM     20  O20 ZIN A   1      19.852   0.476  10.324  0.00  0.00    -0.292 OA
BRANCH  19  21
ATOM     21  C21 ZIN A   1      17.764   0.057   9.306  0.00  0.00     0.088 C 
BRANCH  21  22
ATOM     22  C22 ZIN A   1      18.498  -1.150   8.716  0.00  0.00     0.046 C 
BRANCH  22  23
ATOM     23  C23 ZIN A   1      18.733  -0.926   7.245  0.00  0.00    -0.058 A 
ATOM     24  C28 ZIN A   1      18.971  -2.003   6.412  0.00  0.00     0.007 A 
ATOM     25  C27 ZIN A   1      19.182  -1.798   5.061  0.00  0.00     0.001 A 
ATOM     26  C26 ZIN A   1      19.165  -0.516   4.545  0.00  0.00     0.000 A 
ATOM     27  C25 ZIN A   1      18.933   0.562   5.380  0.00  0.00     0.001 A 
ATOM     28  C24 ZIN A   1      18.718   0.357   6.730  0.00  0.00     0.007 A 
ENDBRANCH  22  23
ENDBRANCH  21  22
ENDBRANCH  19  21
ENDBRANCH   6  19
TORSDOF 12
ENDMDL
MODEL 4
REMARK VINA RESULT:      -7.1      2.265      3.637
REMARK  12 active torsions:
REMARK  status: ('A' for Active; 'I' for Inactive)
REMARK    1  A    between atoms: C2_2  and  C3_3 
REMARK    2  A    between atoms: C3_3  and  N4_4 
REMARK    3  A    between atoms: N4_4  and  C7_7 
REMARK    4  A    between atoms: C7_7  and  C8_8 
REMARK    5  A    between atoms: C8_8  and  O10_9 
REMARK    6  A    between atoms: C8_8  and  C11_10 
REMARK    7  A    between atoms: C11_10  and  O12_11 
REMARK    8  A    between atoms: O12_11  and  C13_12 
REMARK    9  A    between atoms: C18_17  and  C19_18 
REMARK   10  A    between atoms: C19_18  and  C21_20 
REMARK   11  A    between atoms: C21_20  and  C22_21 
REMARK   12  A    between atoms: C22_21  and  C23_22 
ROOT
ATOM      1  C13 ZIN A   1      18.818   1.146   9.485  0.00  0.00     0.082 A 
ATOM      2  C14 ZIN A   1      19.108   1.611   8.212  0.00  0.00     0.038 A 
ATOM      3  C15 ZIN A   1      18.633   0.937   7.104  0.00  0.00     0.003 A 
ATOM      4  C16 ZIN A   1      17.865  -0.207   7.253  0.00  0.00     0.001 A 
ATOM      5  C17 ZIN A   1      17.567  -0.686   8.509  0.00  0.00     0.018 A 
ATOM      6  C18 ZIN A   1      18.045  -0.016   9.642  0.00  0.00     0.043 A 
ENDROOT
BRANCH   1   7
ATOM      7  O12 ZIN A   1      19.284   1.806  10.574  0.00  0.00    -0.348 OA
BRANCH   7   8
ATOM      8  C11 ZIN A   1      18.703   3.082  10.857  0.00  0.00     0.209 C 
BRANCH   8   9
ATOM      9  C8  ZIN A   1      19.565   3.818  11.884  0.00  0.00     0.168 C 
BRANCH   9  10
ATOM     10  C7  ZIN A   1      19.075   3.484  13.295  0.00  0.00     0.265 C 
BRANCH  10  11
ATOM     11  N4  ZIN A   1      19.363   2.075  13.591  0.00  0.00    -0.073 N 
ATOM     12  H5  ZIN A   1      20.189   2.014  14.167  0.00  0.00     0.277 HD
ATOM     13  H6  ZIN A   1      19.516   1.573  12.729  0.00  0.00     0.277 HD
BRANCH  11  14
ATOM     14  C3  ZIN A   1      18.224   1.483  14.306  0.00  0.00     0.232 C 
BRANCH  14  15
ATOM     15  C2  ZIN A   1      18.739   0.595  15.441  0.00  0.00     0.023 C 
ATOM     16  C1  ZIN A   1      17.730  -0.522  15.714  0.00  0.00     0.007 C 
ENDBRANCH  14  15
ENDBRANCH  11  14
ENDBRANCH  10  11
ENDBRANCH   9  10
BRANCH   9  17
ATOM     17  O10 ZIN A   1      20.927   3.409  11.743  0.00  0.00    -0.392 OA
ATOM     18  H38 ZIN A   1      21.485   3.628  12.503  0.00  0.00     0.210 HD
ENDBRANCH   9  17
ENDBRANCH   8   9
ENDBRANCH   7   8
ENDBRANCH   1   7
BRANCH   6  19
ATOM     19  C19 ZIN A   1      17.731  -0.520  10.985  0.00  0.00     0.162 C 
ATOM     20  O20 ZIN A   1      16.612  -0.390  11.434  0.00  0.00    -0.292 OA
BRANCH  19  21
ATOM     21  C21 ZIN A   1      18.798  -1.196  11.805  0.00  0.00     0.088 C 
BRANCH  21  22
ATOM     22  C22 ZIN A   1      18.204  -2.418  12.510  0.00  0.00     0.046 C 
BRANCH  22  23
ATOM     23  C23 ZIN A   1      18.202  -3.591  11.565  0.00  0.00    -0.058 A 
ATOM     24  C28 ZIN A   1      17.040  -4.311  11.360  0.00  0.00     0.007 A 
ATOM     25  C27 ZIN A   1      17.037  -5.385  10.489  0.00  0.00     0.001 A 
ATOM     26  C26 ZIN A   1      18.198  -5.746   9.833  0.00  0.00     0.000 A 
ATOM     27  C25 ZIN A   1      19.362  -5.030  10.042  0.00  0.00     0.001 A 
ATOM     28  C24 ZIN A   1      19.364  -3.953  10.909  0.00  0.00     0.007 A 
ENDBRANCH  22  23
ENDBRANCH  21  22
ENDBRANCH  19  21
ENDBRANCH   6  19
TORSDOF 12
ENDMDL
MODEL 5
REMARK VINA RESULT:      -7.0      1.707      6.005
REMARK  12 active torsions:
REMARK  status: ('A' for Active; 'I' for Inactive)
REMARK    1  A    between atoms: C2_2  and  C3_3 
REMARK    2  A    between atoms: C3_3  and  N4_4 
REMARK    3  A    between atoms: N4_4  and  C7_7 
REMARK    4  A    between atoms: C7_7  and  C8_8 
REMARK    5  A    between atoms: C8_8  and  O10_9 
REMARK    6  A    between atoms: C8_8  and  C11_10 
REMARK    7  A    between atoms: C11_10  and  O12_11 
REMARK    8  A    between atoms: O12_11  and  C13_12 
REMARK    9  A    between atoms: C18_17  and  C19_18 
REMARK   10  A    between atoms: C19_18  and  C21_20 
REMARK   11  A    between atoms: C21_20  and  C22_21 
REMARK   12  A    between atoms: C22_21  and  C23_22 
ROOT
ATOM      1  C13 ZIN A   1      18.039   0.916  15.293  0.00  0.00     0.082 A 
ATOM      2  C14 ZIN A   1      17.698   0.560  16.588  0.00  0.00     0.038 A 
ATOM      3  C15 ZIN A   1      17.804  -0.756  16.994  0.00  0.00     0.003 A 
ATOM      4  C16 ZIN A   1      18.249  -1.729  16.115  0.00  0.00     0.001 A 
ATOM      5  C17 ZIN A   1      18.592  -1.396  14.823  0.00  0.00     0.018 A 
ATOM      6  C18 ZIN A   1      18.486  -0.066  14.395  0.00  0.00     0.043 A 
ENDROOT
BRANCH   1   7
ATOM      7  O12 ZIN A   1      17.936   2.208  14.893  0.00  0.00    -0.348 OA
BRANCH   7   8
ATOM      8  C11 ZIN A   1      18.785   3.158  15.541  0.00  0.00     0.209 C 
BRANCH   8   9
ATOM      9  C8  ZIN A   1      18.370   4.574  15.135  0.00  0.00     0.168 C 
BRANCH   9  10
ATOM     10  C7  ZIN A   1      19.124   4.982  13.868  0.00  0.00     0.265 C 
BRANCH  10  11
ATOM     11  N4  ZIN A   1      19.606   3.780  13.177  0.00  0.00    -0.073 N 
ATOM     12  H5  ZIN A   1      19.109   2.971  13.521  0.00  0.00     0.277 HD
ATOM     13  H6  ZIN A   1      20.594   3.665  13.348  0.00  0.00     0.277 HD
BRANCH  11  14
ATOM     14  C3  ZIN A   1      19.373   3.918  11.733  0.00  0.00     0.232 C 
BRANCH  14  15
ATOM     15  C2  ZIN A   1      17.870   3.873  11.451  0.00  0.00     0.023 C 
ATOM     16  C1  ZIN A   1      17.553   4.730  10.224  0.00  0.00     0.007 C 
ENDBRANCH  14  15
ENDBRANCH  11  14
ENDBRANCH  10  11
ENDBRANCH   9  10
BRANCH   9  17
ATOM     17  O10 ZIN A   1      16.963   4.604  14.883  0.00  0.00    -0.392 OA
ATOM     18  H38 ZIN A   1      16.459   5.122  15.526  0.00  0.00     0.210 HD
ENDBRANCH   9  17
ENDBRANCH   8   9
ENDBRANCH   7   8
ENDBRANCH   1   7
BRANCH   6  19
ATOM     19  C19 ZIN A   1      18.850   0.298  13.021  0.00  0.00     0.162 C 
ATOM     20  O20 ZIN A   1      19.995   0.601  12.758  0.00  0.00    -0.292 OA
BRANCH  19  21
ATOM     21  C21 ZIN A   1      17.803   0.296  11.938  0.00  0.00     0.088 C 
BRANCH  21  22
ATOM     22  C22 ZIN A   1      18.167  -0.745  10.877  0.00  0.00     0.046 C 
BRANCH  22  23
ATOM     23  C23 ZIN A   1      18.333  -0.065   9.543  0.00  0.00    -0.058 A 
ATOM     24  C28 ZIN A   1      17.622  -0.514   8.445  0.00  0.00     0.007 A 
ATOM     25  C27 ZIN A   1      17.771   0.113   7.222  0.00  0.00     0.001 A 
ATOM     26  C26 ZIN A   1      18.638   1.181   7.093  0.00  0.00     0.000 A 
ATOM     27  C25 ZIN A   1      19.354   1.627   8.189  0.00  0.00     0.001 A 
ATOM     28  C24 ZIN A   1      19.202   1.003   9.414  0.00  0.00     0.007 A 
ENDBRANCH  22  23
ENDBRANCH  21  22
ENDBRANCH  19  21
ENDBRANCH   6  19
TORSDOF 12
ENDMDL
MODEL 6
REMARK VINA RESULT:      -7.0      2.831      6.977
REMARK  12 active torsions:
REMARK  status: ('A' for Active; 'I' for Inactive)
REMARK    1  A    between atoms: C2_2  and  C3_3 
REMARK    2  A    between atoms: C3_3  and  N4_4 
REMARK    3  A    between atoms: N4_4  and  C7_7 
REMARK    4  A    between atoms: C7_7  and  C8_8 
REMARK    5  A    between atoms: C8_8  and  O10_9 
REMARK    6  A    between atoms: C8_8  and  C11_10 
REMARK    7  A    between atoms: C11_10  and  O12_11 
REMARK    8  A    between atoms: O12_11  and  C13_12 
REMARK    9  A    between atoms: C18_17  and  C19_18 
REMARK   10  A    between atoms: C19_18  and  C21_20 
REMARK   11  A    between atoms: C21_20  and  C22_21 
REMARK   12  A    between atoms: C22_21  and  C23_22 
ROOT
ATOM      1  C13 ZIN A   1      18.749  -1.326  12.547  0.00  0.00     0.082 A 
ATOM      2  C14 ZIN A   1      18.730  -1.615  13.903  0.00  0.00     0.038 A 
ATOM      3  C15 ZIN A   1      18.158  -0.727  14.792  0.00  0.00     0.003 A 
ATOM      4  C16 ZIN A   1      17.601   0.459  14.341  0.00  0.00     0.001 A 
ATOM      5  C17 ZIN A   1      17.611   0.765  12.998  0.00  0.00     0.018 A 
ATOM      6  C18 ZIN A   1      18.190  -0.123  12.084  0.00  0.00     0.043 A 
ENDROOT
BRANCH   1   7
ATOM      7  O12 ZIN A   1      19.310  -2.197  11.672  0.00  0.00    -0.348 OA
BRANCH   7   8
ATOM      8  C11 ZIN A   1      18.916  -3.567  11.778  0.00  0.00     0.209 C 
BRANCH   8   9
ATOM      9  C8  ZIN A   1      19.002  -4.230  10.402  0.00  0.00     0.168 C 
BRANCH   9  10
ATOM     10  C7  ZIN A   1      18.198  -3.412   9.390  0.00  0.00     0.265 C 
BRANCH  10  11
ATOM     11  N4  ZIN A   1      19.099  -2.507   8.666  0.00  0.00    -0.073 N 
ATOM     12  H5  ZIN A   1      20.000  -2.949   8.553  0.00  0.00     0.277 HD
ATOM     13  H6  ZIN A   1      19.208  -1.650   9.187  0.00  0.00     0.277 HD
BRANCH  11  14
ATOM     14  C3  ZIN A   1      18.533  -2.206   7.344  0.00  0.00     0.232 C 
BRANCH  14  15
ATOM     15  C2  ZIN A   1      19.078  -0.865   6.848  0.00  0.00     0.023 C 
ATOM     16  C1  ZIN A   1      17.912   0.065   6.505  0.00  0.00     0.007 C 
ENDBRANCH  14  15
ENDBRANCH  11  14
ENDBRANCH  10  11
ENDBRANCH   9  10
BRANCH   9  17
ATOM     17  O10 ZIN A   1      20.369  -4.291   9.988  0.00  0.00    -0.392 OA
ATOM     18  H38 ZIN A   1      20.975  -4.598  10.675  0.00  0.00     0.210 HD
ENDBRANCH   9  17
ENDBRANCH   8   9
ENDBRANCH   7   8
ENDBRANCH   1   7
BRANCH   6  19
ATOM     19  C19 ZIN A   1      18.205   0.196  10.652  0.00  0.00     0.162 C 
ATOM     20  O20 ZIN A   1      17.261  -0.110   9.954  0.00  0.00    -0.292 OA
BRANCH  19  21
ATOM     21  C21 ZIN A   1      19.391   0.903  10.049  0.00  0.00     0.088 C 
BRANCH  21  22
ATOM     22  C22 ZIN A   1      18.940   2.237   9.451  0.00  0.00     0.046 C 
BRANCH  22  23
ATOM     23  C23 ZIN A   1      18.664   3.218  10.561  0.00  0.00    -0.058 A 
ATOM     24  C28 ZIN A   1      19.639   3.486  11.504  0.00  0.00     0.007 A 
ATOM     25  C27 ZIN A   1      19.387   4.389  12.520  0.00  0.00     0.001 A 
ATOM     26  C26 ZIN A   1      18.158   5.017  12.598  0.00  0.00     0.000 A 
ATOM     27  C25 ZIN A   1      17.181   4.745  11.658  0.00  0.00     0.001 A 
ATOM     28  C24 ZIN A   1      17.434   3.844  10.639  0.00  0.00     0.007 A 
ENDBRANCH  22  23
ENDBRANCH  21  22
ENDBRANCH  19  21
ENDBRANCH   6  19
TORSDOF 12
ENDMDL
MODEL 7
REMARK VINA RESULT:      -7.0      2.725      6.078
REMARK  12 active torsions:
REMARK  status: ('A' for Active; 'I' for Inactive)
REMARK    1  A    between atoms: C2_2  and  C3_3 
REMARK    2  A    between atoms: C3_3  and  N4_4 
REMARK    3  A    between atoms: N4_4  and  C7_7 
REMARK    4  A    between atoms: C7_7  and  C8_8 
REMARK    5  A    between atoms: C8_8  and  O10_9 
REMARK    6  A    between atoms: C8_8  and  C11_10 
REMARK    7  A    between atoms: C11_10  and  O12_11 
REMARK    8  A    between atoms: O12_11  and  C13_12 
REMARK    9  A    between atoms: C18_17  and  C19_18 
REMARK   10  A    between atoms: C19_18  and  C21_20 
REMARK   11  A    between atoms: C21_20  and  C22_21 
REMARK   12  A    between atoms: C22_21  and  C23_22 
ROOT
ATOM      1  C13 ZIN A   1      18.459  -1.841  12.153  0.00  0.00     0.082 A 
ATOM      2  C14 ZIN A   1      19.095  -3.052  12.376  0.00  0.00     0.038 A 
ATOM      3  C15 ZIN A   1      18.976  -4.076  11.456  0.00  0.00     0.003 A 
ATOM      4  C16 ZIN A   1      18.221  -3.904  10.307  0.00  0.00     0.001 A 
ATOM      5  C17 ZIN A   1      17.581  -2.708  10.067  0.00  0.00     0.018 A 
ATOM      6  C18 ZIN A   1      17.689  -1.662  10.992  0.00  0.00     0.043 A 
ENDROOT
BRANCH   1   7
ATOM      7  O12 ZIN A   1      18.575  -0.834  13.054  0.00  0.00    -0.348 OA
BRANCH   7   8
ATOM      8  C11 ZIN A   1      19.896  -0.375  13.347  0.00  0.00     0.209 C 
BRANCH   8   9
ATOM      9  C8  ZIN A   1      20.348   0.603  12.259  0.00  0.00     0.168 C 
BRANCH   9  10
ATOM     10  C7  ZIN A   1      19.713   1.972  12.508  0.00  0.00     0.265 C 
BRANCH  10  11
ATOM     11  N4  ZIN A   1      20.385   2.981  11.679  0.00  0.00    -0.073 N 
ATOM     12  H5  ZIN A   1      20.304   2.725  10.706  0.00  0.00     0.277 HD
ATOM     13  H6  ZIN A   1      21.360   3.031  11.934  0.00  0.00     0.277 HD
BRANCH  11  14
ATOM     14  C3  ZIN A   1      19.755   4.290  11.895  0.00  0.00     0.232 C 
BRANCH  14  15
ATOM     15  C2  ZIN A   1      18.249   4.179  11.645  0.00  0.00     0.023 C 
ATOM     16  C1  ZIN A   1      17.982   4.153  10.138  0.00  0.00     0.007 C 
ENDBRANCH  14  15
ENDBRANCH  11  14
ENDBRANCH  10  11
ENDBRANCH   9  10
BRANCH   9  17
ATOM     17  O10 ZIN A   1      21.772   0.724  12.291  0.00  0.00    -0.392 OA
ATOM     18  H38 ZIN A   1      22.152   1.107  11.488  0.00  0.00     0.210 HD
ENDBRANCH   9  17
ENDBRANCH   8   9
ENDBRANCH   7   8
ENDBRANCH   1   7
BRANCH   6  19
ATOM     19  C19 ZIN A   1      17.009  -0.385  10.744  0.00  0.00     0.162 C 
ATOM     20  O20 ZIN A   1      16.064  -0.059  11.431  0.00  0.00    -0.292 OA
BRANCH  19  21
ATOM     21  C21 ZIN A   1      17.485   0.520   9.638  0.00  0.00     0.088 C 
BRANCH  21  22
ATOM     22  C22 ZIN A   1      18.925   0.160   9.267  0.00  0.00     0.046 C 
BRANCH  22  23
ATOM     23  C23 ZIN A   1      19.029  -0.026   7.776  0.00  0.00    -0.058 A 
ATOM     24  C28 ZIN A   1      18.945   1.068   6.935  0.00  0.00     0.007 A 
ATOM     25  C27 ZIN A   1      19.045   0.897   5.567  0.00  0.00     0.001 A 
ATOM     26  C26 ZIN A   1      19.218  -0.368   5.039  0.00  0.00     0.000 A 
ATOM     27  C25 ZIN A   1      19.296  -1.464   5.879  0.00  0.00     0.001 A 
ATOM     28  C24 ZIN A   1      19.201  -1.293   7.248  0.00  0.00     0.007 A 
ENDBRANCH  22  23
ENDBRANCH  21  22
ENDBRANCH  19  21
ENDBRANCH   6  19
TORSDOF 12
ENDMDL
MODEL 8
REMARK VINA RESULT:      -6.9      3.977      7.737
REMARK  12 active torsions:
REMARK  status: ('A' for Active; 'I' for Inactive)
REMARK    1  A    between atoms: C2_2  and  C3_3 
REMARK    2  A    between atoms: C3_3  and  N4_4 
REMARK    3  A    between atoms: N4_4  and  C7_7 
REMARK    4  A    between atoms: C7_7  and  C8_8 
REMARK    5  A    between atoms: C8_8  and  O10_9 
REMARK    6  A    between atoms: C8_8  and  C11_10 
REMARK    7  A    between atoms: C11_10  and  O12_11 
REMARK    8  A    between atoms: O12_11  and  C13_12 
REMARK    9  A    between atoms: C18_17  and  C19_18 
REMARK   10  A    between atoms: C19_18  and  C21_20 
REMARK   11  A    between atoms: C21_20  and  C22_21 
REMARK   12  A    between atoms: C22_21  and  C23_22 
ROOT
ATOM      1  C13 ZIN A   1      18.977  -2.690   9.462  0.00  0.00     0.082 A 
ATOM      2  C14 ZIN A   1      19.285  -3.845  10.164  0.00  0.00     0.038 A 
ATOM      3  C15 ZIN A   1      19.318  -3.827  11.545  0.00  0.00     0.003 A 
ATOM      4  C16 ZIN A   1      19.047  -2.659  12.239  0.00  0.00     0.001 A 
ATOM      5  C17 ZIN A   1      18.740  -1.501  11.560  0.00  0.00     0.018 A 
ATOM      6  C18 ZIN A   1      18.706  -1.502  10.160  0.00  0.00     0.043 A 
ENDROOT
BRANCH   1   7
ATOM      7  O12 ZIN A   1      18.944  -2.705   8.106  0.00  0.00    -0.348 OA
BRANCH   7   8
ATOM      8  C11 ZIN A   1      18.489  -3.908   7.483  0.00  0.00     0.209 C 
BRANCH   8   9
ATOM      9  C8  ZIN A   1      19.393  -4.239   6.293  0.00  0.00     0.168 C 
BRANCH   9  10
ATOM     10  C7  ZIN A   1      18.951  -3.425   5.075  0.00  0.00     0.265 C 
BRANCH  10  11
ATOM     11  N4  ZIN A   1      17.669  -2.769   5.364  0.00  0.00    -0.073 N 
ATOM     12  H5  ZIN A   1      17.590  -2.609   6.357  0.00  0.00     0.277 HD
ATOM     13  H6  ZIN A   1      16.911  -3.361   5.057  0.00  0.00     0.277 HD
BRANCH  11  14
ATOM     14  C3  ZIN A   1      17.606  -1.485   4.654  0.00  0.00     0.232 C 
BRANCH  14  15
ATOM     15  C2  ZIN A   1      17.970  -0.352   5.617  0.00  0.00     0.023 C 
ATOM     16  C1  ZIN A   1      19.250   0.334   5.137  0.00  0.00     0.007 C 
ENDBRANCH  14  15
ENDBRANCH  11  14
ENDBRANCH  10  11
ENDBRANCH   9  10
BRANCH   9  17
ATOM     17  O10 ZIN A   1      20.746  -3.915   6.619  0.00  0.00    -0.392 OA
ATOM     18  H38 ZIN A   1      21.114  -3.190   6.096  0.00  0.00     0.210 HD
ENDBRANCH   9  17
ENDBRANCH   8   9
ENDBRANCH   7   8
ENDBRANCH   1   7
BRANCH   6  19
ATOM     19  C19 ZIN A   1      18.380  -0.272   9.429  0.00  0.00     0.162 C 
ATOM     20  O20 ZIN A   1      17.243  -0.073   9.054  0.00  0.00    -0.292 OA
BRANCH  19  21
ATOM     21  C21 ZIN A   1      19.456   0.743   9.143  0.00  0.00     0.088 C 
BRANCH  21  22
ATOM     22  C22 ZIN A   1      18.811   2.079   8.766  0.00  0.00     0.046 C 
BRANCH  22  23
ATOM     23  C23 ZIN A   1      18.770   2.976   9.976  0.00  0.00    -0.058 A 
ATOM     24  C28 ZIN A   1      17.838   3.994  10.049  0.00  0.00     0.007 A 
ATOM     25  C27 ZIN A   1      17.797   4.815  11.162  0.00  0.00     0.001 A 
ATOM     26  C26 ZIN A   1      18.695   4.623  12.195  0.00  0.00     0.000 A 
ATOM     27  C25 ZIN A   1      19.631   3.608  12.119  0.00  0.00     0.001 A 
ATOM     28  C24 ZIN A   1      19.669   2.785  11.009  0.00  0.00     0.007 A 
ENDBRANCH  22  23
ENDBRANCH  21  22
ENDBRANCH  19  21
ENDBRANCH   6  19
TORSDOF 12
ENDMDL
MODEL 9
REMARK VINA RESULT:      -6.8      2.163      6.819
REMARK  12 active torsions:
REMARK  status: ('A' for Active; 'I' for Inactive)
REMARK    1  A    between atoms: C2_2  and  C3_3 
REMARK    2  A    between atoms: C3_3  and  N4_4 
REMARK    3  A    between atoms: N4_4  and  C7_7 
REMARK    4  A    between atoms: C7_7  and  C8_8 
REMARK    5  A    between atoms: C8_8  and  O10_9 
REMARK    6  A    between atoms: C8_8  and  C11_10 
REMARK    7  A    between atoms: C11_10  and  O12_11 
REMARK    8  A    between atoms: O12_11  and  C13_12 
REMARK    9  A    between atoms: C18_17  and  C19_18 
REMARK   10  A    between atoms: C19_18  and  C21_20 
REMARK   11  A    between atoms: C21_20  and  C22_21 
REMARK   12  A    between atoms: C22_21  and  C23_22 
ROOT
ATOM      1  C13 ZIN A   1      19.035   0.570  15.106  0.00  0.00     0.082 A 
ATOM      2  C14 ZIN A   1      18.627  -0.755  15.094  0.00  0.00     0.038 A 
ATOM      3  C15 ZIN A   1      17.886  -1.261  16.143  0.00  0.00     0.003 A 
ATOM      4  C16 ZIN A   1      17.544  -0.454  17.216  0.00  0.00     0.001 A 
ATOM      5  C17 ZIN A   1      17.940   0.865  17.248  0.00  0.00     0.018 A 
ATOM      6  C18 ZIN A   1      18.695   1.392  16.193  0.00  0.00     0.043 A 
ENDROOT
BRANCH   1   7
ATOM      7  O12 ZIN A   1      19.763   1.069  14.077  0.00  0.00    -0.348 OA
BRANCH   7   8
ATOM      8  C11 ZIN A   1      19.418   0.624  12.763  0.00  0.00     0.209 C 
BRANCH   8   9
ATOM      9  C8  ZIN A   1      20.593  -0.151  12.162  0.00  0.00     0.168 C 
BRANCH   9  10
ATOM     10  C7  ZIN A   1      20.230  -0.612  10.749  0.00  0.00     0.265 C 
BRANCH  10  11
ATOM     11  N4  ZIN A   1      19.371   0.394  10.112  0.00  0.00    -0.073 N 
ATOM     12  H5  ZIN A   1      19.943   1.052   9.604  0.00  0.00     0.277 HD
ATOM     13  H6  ZIN A   1      18.843   0.884  10.819  0.00  0.00     0.277 HD
BRANCH  11  14
ATOM     14  C3  ZIN A   1      18.446  -0.269   9.183  0.00  0.00     0.232 C 
BRANCH  14  15
ATOM     15  C2  ZIN A   1      18.324   0.563   7.904  0.00  0.00     0.023 C 
ATOM     16  C1  ZIN A   1      19.189   1.819   8.027  0.00  0.00     0.007 C 
ENDBRANCH  14  15
ENDBRANCH  11  14
ENDBRANCH  10  11
ENDBRANCH   9  10
BRANCH   9  17
ATOM     17  O10 ZIN A   1      21.743   0.695  12.107  0.00  0.00    -0.392 OA
ATOM     18  H38 ZIN A   1      22.525   0.272  11.728  0.00  0.00     0.210 HD
ENDBRANCH   9  17
ENDBRANCH   8   9
ENDBRANCH   7   8
ENDBRANCH   1   7
BRANCH   6  19
ATOM     19  C19 ZIN A   1      19.121   2.796  16.220  0.00  0.00     0.162 C 
ATOM     20  O20 ZIN A   1      20.128   3.112  16.818  0.00  0.00    -0.292 OA
BRANCH  19  21
ATOM     21  C21 ZIN A   1      18.308   3.845  15.507  0.00  0.00     0.088 C 
BRANCH  21  22
ATOM     22  C22 ZIN A   1      19.166   4.511  14.429  0.00  0.00     0.046 C 
BRANCH  22  23
ATOM     23  C23 ZIN A   1      18.386   4.588  13.142  0.00  0.00    -0.058 A 
ATOM     24  C28 ZIN A   1      17.120   5.142  13.134  0.00  0.00     0.007 A 
ATOM     25  C27 ZIN A   1      16.406   5.217  11.952  0.00  0.00     0.001 A 
ATOM     26  C26 ZIN A   1      16.954   4.729  10.781  0.00  0.00     0.000 A 
ATOM     27  C25 ZIN A   1      18.219   4.169  10.790  0.00  0.00     0.001 A 
ATOM     28  C24 ZIN A   1      18.935   4.098  11.971  0.00  0.00     0.007 A 
ENDBRANCH  22  23
ENDBRANCH  21  22
ENDBRANCH  19  21
ENDBRANCH   6  19
TORSDOF 12
ENDMDL
