MODEL 1
REMARK VINA RESULT:      -7.5      0.000      0.000
REMARK  7 active torsions:
REMARK  status: ('A' for Active; 'I' for Inactive)
REMARK    1  A    between atoms: O2_2  and  C3_3 
REMARK    2  A    between atoms: C7_7  and  C8_8 
REMARK    3  A    between atoms: C8_8  and  S9_9 
REMARK    4  A    between atoms: S9_9  and  C11_11 
REMARK    5  A    between atoms: C16_16  and  O17_17 
REMARK    6  A    between atoms: O17_17  and  C18_18 
REMARK    7  A    between atoms: C24_24  and  O25_25 
ROOT
ATOM      1  C11 ZIN A   1      18.563  -0.817  13.810  0.00  0.00     0.198 A 
ATOM      2  N12 ZIN A   1      18.577  -1.519  14.904  0.00  0.00    -0.221 NA
ATOM      3  C13 ZIN A   1      18.823  -0.706  15.965  0.00  0.00     0.086 A 
ATOM      4  C14 ZIN A   1      18.941  -0.929  17.339  0.00  0.00     0.037 A 
ATOM      5  C15 ZIN A   1      19.198   0.117  18.180  0.00  0.00     0.039 A 
ATOM      6  C16 ZIN A   1      19.344   1.408  17.680  0.00  0.00     0.077 A 
ATOM      7  C21 ZIN A   1      19.230   1.649  16.323  0.00  0.00     0.069 A 
ATOM      8  C22 ZIN A   1      18.969   0.596  15.458  0.00  0.00     0.066 A 
ATOM      9  N23 ZIN A   1      18.805   0.493  14.091  0.00  0.00    -0.331 N 
ATOM     10  H38 ZIN A   1      18.852   1.220  13.451  0.00  0.00     0.168 HD
ENDROOT
BRANCH   1  11
ATOM     11  S9  ZIN A   1      18.282  -1.467  12.196  0.00  0.00     0.092 S 
ATOM     12  O10 ZIN A   1      18.237  -2.870  12.421  0.00  0.00    -0.249 OA
BRANCH  11  13
ATOM     13  C8  ZIN A   1      19.810  -1.045  11.314  0.00  0.00     0.179 C 
BRANCH  13  14
ATOM     14  C7  ZIN A   1      19.543   0.093  10.363  0.00  0.00     0.082 A 
ATOM     15  N6  ZIN A   1      19.370   1.312  10.838  0.00  0.00    -0.262 NA
ATOM     16  C5  ZIN A   1      19.133   2.341  10.047  0.00  0.00     0.120 A 
ATOM     17  C4  ZIN A   1      19.058   2.180   8.677  0.00  0.00     0.059 A 
ATOM     18  C3  ZIN A   1      19.234   0.913   8.134  0.00  0.00     0.104 A 
ATOM     19  C24 ZIN A   1      19.477  -0.153   9.003  0.00  0.00     0.127 A 
BRANCH  18  20
ATOM     20  O2  ZIN A   1      19.167   0.715   6.791  0.00  0.00    -0.353 OA
ATOM     21  C1  ZIN A   1      17.865   0.571   6.221  0.00  0.00     0.210 C 
ENDBRANCH  18  20
BRANCH  19  22
ATOM     22  O25 ZIN A   1      19.655  -1.412   8.519  0.00  0.00    -0.351 OA
ATOM     23  C26 ZIN A   1      18.495  -2.238   8.418  0.00  0.00     0.210 C 
ENDBRANCH  19  22
ENDBRANCH  13  14
ENDBRANCH  11  13
ENDBRANCH   1  11
BRANCH   6  24
ATOM     24  O17 ZIN A   1      19.599   2.437  18.530  0.00  0.00    -0.290 OA
BRANCH  24  25
ATOM     25  C18 ZIN A   1      18.515   3.320  18.826  0.00  0.00     0.505 C 
ATOM     26  F19 ZIN A   1      18.457   4.327  17.856  0.00  0.00    -0.184 F 
ATOM     27  F20 ZIN A   1      17.314   2.602  18.822  0.00  0.00    -0.184 F 
ENDBRANCH  24  25
ENDBRANCH   6  24
TORSDOF 7
ENDMDL
MODEL 2
REMARK VINA RESULT:      -7.4      2.361      3.668
REMARK  7 active torsions:
REMARK  status: ('A' for Active; 'I' for Inactive)
REMARK    1  A    between atoms: O2_2  and  C3_3 
REMARK    2  A    between atoms: C7_7  and  C8_8 
REMARK    3  A    between atoms: C8_8  and  S9_9 
REMARK    4  A    between atoms: S9_9  and  C11_11 
REMARK    5  A    between atoms: C16_16  and  O17_17 
REMARK    6  A    between atoms: O17_17  and  C18_18 
REMARK    7  A    between atoms: C24_24  and  O25_25 
ROOT
ATOM      1  C11 ZIN A   1      19.204   0.933  11.057  0.00  0.00     0.198 A 
ATOM      2  N12 ZIN A   1      19.227  -0.307  11.450  0.00  0.00    -0.221 NA
ATOM      3  C13 ZIN A   1      19.191  -0.357  12.808  0.00  0.00     0.086 A 
ATOM      4  C14 ZIN A   1      19.192  -1.404  13.731  0.00  0.00     0.037 A 
ATOM      5  C15 ZIN A   1      19.147  -1.134  15.070  0.00  0.00     0.039 A 
ATOM      6  C16 ZIN A   1      19.099   0.180  15.525  0.00  0.00     0.077 A 
ATOM      7  C21 ZIN A   1      19.096   1.232  14.627  0.00  0.00     0.069 A 
ATOM      8  C22 ZIN A   1      19.142   0.971  13.264  0.00  0.00     0.066 A 
ATOM      9  N23 ZIN A   1      19.157   1.764  12.135  0.00  0.00    -0.331 N 
ATOM     10  H38 ZIN A   1      19.137   2.734  12.113  0.00  0.00     0.168 HD
ENDROOT
BRANCH   1  11
ATOM     11  S9  ZIN A   1      19.238   1.460   9.376  0.00  0.00     0.092 S 
ATOM     12  O10 ZIN A   1      18.872   2.832   9.465  0.00  0.00    -0.249 OA
BRANCH  11  13
ATOM     13  C8  ZIN A   1      17.880   0.521   8.625  0.00  0.00     0.179 C 
BRANCH  13  14
ATOM     14  C7  ZIN A   1      18.350  -0.093   7.332  0.00  0.00     0.082 A 
ATOM     15  N6  ZIN A   1      18.230   0.585   6.206  0.00  0.00    -0.262 NA
ATOM     16  C5  ZIN A   1      18.626   0.091   5.049  0.00  0.00     0.120 A 
ATOM     17  C4  ZIN A   1      19.187  -1.168   4.970  0.00  0.00     0.059 A 
ATOM     18  C3  ZIN A   1      19.331  -1.919   6.131  0.00  0.00     0.104 A 
ATOM     19  C24 ZIN A   1      18.896  -1.365   7.337  0.00  0.00     0.127 A 
BRANCH  18  20
ATOM     20  O2  ZIN A   1      19.879  -3.162   6.093  0.00  0.00    -0.353 OA
ATOM     21  C1  ZIN A   1      19.038  -4.228   5.647  0.00  0.00     0.210 C 
ENDBRANCH  18  20
BRANCH  19  22
ATOM     22  O25 ZIN A   1      19.016  -2.060   8.500  0.00  0.00    -0.351 OA
ATOM     23  C26 ZIN A   1      17.937  -2.928   8.851  0.00  0.00     0.210 C 
ENDBRANCH  19  22
ENDBRANCH  13  14
ENDBRANCH  11  13
ENDBRANCH   1  11
BRANCH   6  24
ATOM     24  O17 ZIN A   1      19.054   0.432  16.860  0.00  0.00    -0.290 OA
BRANCH  24  25
ATOM     25  C18 ZIN A   1      18.031  -0.225  17.611  0.00  0.00     0.505 C 
ATOM     26  F19 ZIN A   1      18.068   0.218  18.938  0.00  0.00    -0.184 F 
ATOM     27  F20 ZIN A   1      16.781   0.072  17.056  0.00  0.00    -0.184 F 
ENDBRANCH  24  25
ENDBRANCH   6  24
TORSDOF 7
ENDMDL
MODEL 3
REMARK VINA RESULT:      -7.4      4.722      9.067
REMARK  7 active torsions:
REMARK  status: ('A' for Active; 'I' for Inactive)
REMARK    1  A    between atoms: O2_2  and  C3_3 
REMARK    2  A    between atoms: C7_7  and  C8_8 
REMARK    3  A    between atoms: C8_8  and  S9_9 
REMARK    4  A    between atoms: S9_9  and  C11_11 
REMARK    5  A    between atoms: C16_16  and  O17_17 
REMARK    6  A    between atoms: O17_17  and  C18_18 
REMARK    7  A    between atoms: C24_24  and  O25_25 
ROOT
ATOM      1  C11 ZIN A   1      17.876   2.450  10.847  0.00  0.00     0.198 A 
ATOM      2  N12 ZIN A   1      17.268   1.331  10.584  0.00  0.00    -0.221 NA
ATOM      3  C13 ZIN A   1      17.656   0.877   9.363  0.00  0.00     0.086 A 
ATOM      4  C14 ZIN A   1      17.325  -0.251   8.608  0.00  0.00     0.037 A 
ATOM      5  C15 ZIN A   1      17.895  -0.441   7.381  0.00  0.00     0.039 A 
ATOM      6  C16 ZIN A   1      18.807   0.480   6.874  0.00  0.00     0.077 A 
ATOM      7  C21 ZIN A   1      19.148   1.603   7.606  0.00  0.00     0.069 A 
ATOM      8  C22 ZIN A   1      18.576   1.808   8.854  0.00  0.00     0.066 A 
ATOM      9  N23 ZIN A   1      18.691   2.795   9.812  0.00  0.00    -0.331 N 
ATOM     10  H38 ZIN A   1      19.250   3.586   9.758  0.00  0.00     0.168 HD
ENDROOT
BRANCH   1  11
ATOM     11  S9  ZIN A   1      17.669   3.390  12.324  0.00  0.00     0.092 S 
ATOM     12  O10 ZIN A   1      17.640   4.729  11.848  0.00  0.00    -0.249 OA
BRANCH  11  13
ATOM     13  C8  ZIN A   1      19.221   3.098  13.215  0.00  0.00     0.179 C 
BRANCH  13  14
ATOM     14  C7  ZIN A   1      19.128   1.801  13.975  0.00  0.00     0.082 A 
ATOM     15  N6  ZIN A   1      19.385   0.663  13.358  0.00  0.00    -0.262 NA
ATOM     16  C5  ZIN A   1      19.316  -0.499  13.979  0.00  0.00     0.120 A 
ATOM     17  C4  ZIN A   1      18.970  -0.570  15.315  0.00  0.00     0.059 A 
ATOM     18  C3  ZIN A   1      18.689   0.605  16.004  0.00  0.00     0.104 A 
ATOM     19  C24 ZIN A   1      18.767   1.815  15.311  0.00  0.00     0.127 A 
BRANCH  18  20
ATOM     20  O2  ZIN A   1      18.345   0.575  17.318  0.00  0.00    -0.353 OA
ATOM     21  C1  ZIN A   1      19.306   0.037  18.229  0.00  0.00     0.210 C 
ENDBRANCH  18  20
BRANCH  19  22
ATOM     22  O25 ZIN A   1      18.502   2.990  15.943  0.00  0.00    -0.351 OA
ATOM     23  C26 ZIN A   1      19.573   3.590  16.673  0.00  0.00     0.210 C 
ENDBRANCH  19  22
ENDBRANCH  13  14
ENDBRANCH  11  13
ENDBRANCH   1  11
BRANCH   6  24
ATOM     24  O17 ZIN A   1      19.365   0.275   5.651  0.00  0.00    -0.290 OA
BRANCH  24  25
ATOM     25  C18 ZIN A   1      18.680  -0.612   4.765  0.00  0.00     0.505 C 
ATOM     26  F19 ZIN A   1      18.287   0.087   3.618  0.00  0.00    -0.184 F 
ATOM     27  F20 ZIN A   1      19.533  -1.659   4.401  0.00  0.00    -0.184 F 
ENDBRANCH  24  25
ENDBRANCH   6  24
TORSDOF 7
ENDMDL
MODEL 4
REMARK VINA RESULT:      -7.4      5.070      9.440
REMARK  7 active torsions:
REMARK  status: ('A' for Active; 'I' for Inactive)
REMARK    1  A    between atoms: O2_2  and  C3_3 
REMARK    2  A    between atoms: C7_7  and  C8_8 
REMARK    3  A    between atoms: C8_8  and  S9_9 
REMARK    4  A    between atoms: S9_9  and  C11_11 
REMARK    5  A    between atoms: C16_16  and  O17_17 
REMARK    6  A    between atoms: O17_17  and  C18_18 
REMARK    7  A    between atoms: C24_24  and  O25_25 
ROOT
ATOM      1  C11 ZIN A   1      18.722   1.317   9.245  0.00  0.00     0.198 A 
ATOM      2  N12 ZIN A   1      18.893   1.917   8.104  0.00  0.00    -0.221 NA
ATOM      3  C13 ZIN A   1      19.051   0.993   7.120  0.00  0.00     0.086 A 
ATOM      4  C14 ZIN A   1      19.260   1.082   5.742  0.00  0.00     0.037 A 
ATOM      5  C15 ZIN A   1      19.382  -0.056   4.995  0.00  0.00     0.039 A 
ATOM      6  C16 ZIN A   1      19.299  -1.308   5.596  0.00  0.00     0.077 A 
ATOM      7  C21 ZIN A   1      19.092  -1.419   6.959  0.00  0.00     0.069 A 
ATOM      8  C22 ZIN A   1      18.966  -0.271   7.729  0.00  0.00     0.066 A 
ATOM      9  N23 ZIN A   1      18.763  -0.033   9.074  0.00  0.00    -0.331 N 
ATOM     10  H38 ZIN A   1      18.668  -0.705   9.767  0.00  0.00     0.168 HD
ENDROOT
BRANCH   1  11
ATOM     11  S9  ZIN A   1      18.482   2.131  10.789  0.00  0.00     0.092 S 
ATOM     12  O10 ZIN A   1      18.606   3.506  10.447  0.00  0.00    -0.249 OA
BRANCH  11  13
ATOM     13  C8  ZIN A   1      19.929   1.615  11.753  0.00  0.00     0.179 C 
BRANCH  13  14
ATOM     14  C7  ZIN A   1      19.538   0.501  12.688  0.00  0.00     0.082 A 
ATOM     15  N6  ZIN A   1      19.475  -0.738  12.236  0.00  0.00    -0.262 NA
ATOM     16  C5  ZIN A   1      19.138  -1.748  13.015  0.00  0.00     0.120 A 
ATOM     17  C4  ZIN A   1      18.835  -1.546  14.347  0.00  0.00     0.059 A 
ATOM     18  C3  ZIN A   1      18.887  -0.257  14.865  0.00  0.00     0.104 A 
ATOM     19  C24 ZIN A   1      19.243   0.787  14.009  0.00  0.00     0.127 A 
BRANCH  18  20
ATOM     20  O2  ZIN A   1      18.596  -0.019  16.171  0.00  0.00    -0.353 OA
ATOM     21  C1  ZIN A   1      17.262  -0.300  16.600  0.00  0.00     0.210 C 
ENDBRANCH  18  20
BRANCH  19  22
ATOM     22  O25 ZIN A   1      19.308   2.066  14.469  0.00  0.00    -0.351 OA
ATOM     23  C26 ZIN A   1      18.094   2.818  14.469  0.00  0.00     0.210 C 
ENDBRANCH  19  22
ENDBRANCH  13  14
ENDBRANCH  11  13
ENDBRANCH   1  11
BRANCH   6  24
ATOM     24  O17 ZIN A   1      19.422  -2.431   4.838  0.00  0.00    -0.290 OA
BRANCH  24  25
ATOM     25  C18 ZIN A   1      18.221  -3.142   4.532  0.00  0.00     0.505 C 
ATOM     26  F19 ZIN A   1      17.268  -2.252   4.027  0.00  0.00    -0.184 F 
ATOM     27  F20 ZIN A   1      18.493  -4.125   3.573  0.00  0.00    -0.184 F 
ENDBRANCH  24  25
ENDBRANCH   6  24
TORSDOF 7
ENDMDL
MODEL 5
REMARK VINA RESULT:      -7.3      4.796      9.481
REMARK  7 active torsions:
REMARK  status: ('A' for Active; 'I' for Inactive)
REMARK    1  A    between atoms: O2_2  and  C3_3 
REMARK    2  A    between atoms: C7_7  and  C8_8 
REMARK    3  A    between atoms: C8_8  and  S9_9 
REMARK    4  A    between atoms: S9_9  and  C11_11 
REMARK    5  A    between atoms: C16_16  and  O17_17 
REMARK    6  A    between atoms: O17_17  and  C18_18 
REMARK    7  A    between atoms: C24_24  and  O25_25 
ROOT
ATOM      1  C11 ZIN A   1      18.171   0.681   9.604  0.00  0.00     0.198 A 
ATOM      2  N12 ZIN A   1      18.291   1.510   8.609  0.00  0.00    -0.221 NA
ATOM      3  C13 ZIN A   1      18.653   0.831   7.489  0.00  0.00     0.086 A 
ATOM      4  C14 ZIN A   1      18.912   1.217   6.172  0.00  0.00     0.037 A 
ATOM      5  C15 ZIN A   1      19.264   0.280   5.243  0.00  0.00     0.039 A 
ATOM      6  C16 ZIN A   1      19.369  -1.062   5.596  0.00  0.00     0.077 A 
ATOM      7  C21 ZIN A   1      19.118  -1.465   6.895  0.00  0.00     0.069 A 
ATOM      8  C22 ZIN A   1      18.758  -0.523   7.849  0.00  0.00     0.066 A 
ATOM      9  N23 ZIN A   1      18.452  -0.586   9.193  0.00  0.00    -0.331 N 
ATOM     10  H38 ZIN A   1      18.439  -1.386   9.743  0.00  0.00     0.168 HD
ENDROOT
BRANCH   1  11
ATOM     11  S9  ZIN A   1      17.718   1.132  11.246  0.00  0.00     0.092 S 
ATOM     12  O10 ZIN A   1      17.229   2.458  11.089  0.00  0.00    -0.249 OA
BRANCH  11  13
ATOM     13  C8  ZIN A   1      19.311   1.173  12.112  0.00  0.00     0.179 C 
BRANCH  13  14
ATOM     14  C7  ZIN A   1      19.168   0.510  13.458  0.00  0.00     0.082 A 
ATOM     15  N6  ZIN A   1      19.090  -0.805  13.532  0.00  0.00    -0.262 NA
ATOM     16  C5  ZIN A   1      18.964  -1.433  14.685  0.00  0.00     0.120 A 
ATOM     17  C4  ZIN A   1      18.908  -0.730  15.873  0.00  0.00     0.059 A 
ATOM     18  C3  ZIN A   1      18.985   0.658  15.842  0.00  0.00     0.104 A 
ATOM     19  C24 ZIN A   1      19.113   1.287  14.602  0.00  0.00     0.127 A 
BRANCH  18  20
ATOM     20  O2  ZIN A   1      18.934   1.384  16.989  0.00  0.00    -0.353 OA
ATOM     21  C1  ZIN A   1      19.342   0.727  18.191  0.00  0.00     0.210 C 
ENDBRANCH  18  20
BRANCH  19  22
ATOM     22  O25 ZIN A   1      19.193   2.642  14.520  0.00  0.00    -0.351 OA
ATOM     23  C26 ZIN A   1      17.960   3.362  14.450  0.00  0.00     0.210 C 
ENDBRANCH  19  22
ENDBRANCH  13  14
ENDBRANCH  11  13
ENDBRANCH   1  11
BRANCH   6  24
ATOM     24  O17 ZIN A   1      19.721  -1.982   4.659  0.00  0.00    -0.290 OA
BRANCH  24  25
ATOM     25  C18 ZIN A   1      18.690  -2.849   4.180  0.00  0.00     0.505 C 
ATOM     26  F19 ZIN A   1      18.659  -4.010   4.960  0.00  0.00    -0.184 F 
ATOM     27  F20 ZIN A   1      17.455  -2.197   4.268  0.00  0.00    -0.184 F 
ENDBRANCH  24  25
ENDBRANCH   6  24
TORSDOF 7
ENDMDL
MODEL 6
REMARK VINA RESULT:      -7.3      4.367      8.831
REMARK  7 active torsions:
REMARK  status: ('A' for Active; 'I' for Inactive)
REMARK    1  A    between atoms: O2_2  and  C3_3 
REMARK    2  A    between atoms: C7_7  and  C8_8 
REMARK    3  A    between atoms: C8_8  and  S9_9 
REMARK    4  A    between atoms: S9_9  and  C11_11 
REMARK    5  A    between atoms: C16_16  and  O17_17 
REMARK    6  A    between atoms: O17_17  and  C18_18 
REMARK    7  A    between atoms: C24_24  and  O25_25 
ROOT
ATOM      1  C11 ZIN A   1      19.028  -0.409  11.304  0.00  0.00     0.198 A 
ATOM      2  N12 ZIN A   1      19.535   0.666  10.775  0.00  0.00    -0.221 NA
ATOM      3  C13 ZIN A   1      19.179   0.741   9.466  0.00  0.00     0.086 A 
ATOM      4  C14 ZIN A   1      19.440   1.665   8.450  0.00  0.00     0.037 A 
ATOM      5  C15 ZIN A   1      18.931   1.465   7.199  0.00  0.00     0.039 A 
ATOM      6  C16 ZIN A   1      18.149   0.347   6.923  0.00  0.00     0.077 A 
ATOM      7  C21 ZIN A   1      17.879  -0.579   7.914  0.00  0.00     0.069 A 
ATOM      8  C22 ZIN A   1      18.391  -0.389   9.190  0.00  0.00     0.066 A 
ATOM      9  N23 ZIN A   1      18.317  -1.100  10.371  0.00  0.00    -0.331 N 
ATOM     10  H38 ZIN A   1      17.845  -1.936  10.509  0.00  0.00     0.168 HD
ENDROOT
BRANCH   1  11
ATOM     11  S9  ZIN A   1      19.237  -0.904  12.982  0.00  0.00     0.092 S 
ATOM     12  O10 ZIN A   1      19.047  -2.312  12.926  0.00  0.00    -0.249 OA
BRANCH  11  13
ATOM     13  C8  ZIN A   1      17.821  -0.136  13.815  0.00  0.00     0.179 C 
BRANCH  13  14
ATOM     14  C7  ZIN A   1      18.252   1.165  14.442  0.00  0.00     0.082 A 
ATOM     15  N6  ZIN A   1      18.121   2.290  13.766  0.00  0.00    -0.262 NA
ATOM     16  C5  ZIN A   1      18.484   3.454  14.270  0.00  0.00     0.120 A 
ATOM     17  C4  ZIN A   1      19.019   3.540  15.540  0.00  0.00     0.059 A 
ATOM     18  C3  ZIN A   1      19.176   2.379  16.289  0.00  0.00     0.104 A 
ATOM     19  C24 ZIN A   1      18.786   1.165  15.719  0.00  0.00     0.127 A 
BRANCH  18  20
ATOM     20  O2  ZIN A   1      19.699   2.424  17.542  0.00  0.00    -0.353 OA
ATOM     21  C1  ZIN A   1      18.892   3.017  18.561  0.00  0.00     0.210 C 
ENDBRANCH  18  20
BRANCH  19  22
ATOM     22  O25 ZIN A   1      18.919   0.002  16.412  0.00  0.00    -0.351 OA
ATOM     23  C26 ZIN A   1      17.836  -0.371  17.266  0.00  0.00     0.210 C 
ENDBRANCH  19  22
ENDBRANCH  13  14
ENDBRANCH  11  13
ENDBRANCH   1  11
BRANCH   6  24
ATOM     24  O17 ZIN A   1      17.650   0.163   5.672  0.00  0.00    -0.290 OA
BRANCH  24  25
ATOM     25  C18 ZIN A   1      18.251  -0.861   4.876  0.00  0.00     0.505 C 
ATOM     26  F19 ZIN A   1      17.384  -1.211   3.835  0.00  0.00    -0.184 F 
ATOM     27  F20 ZIN A   1      19.454  -0.390   4.341  0.00  0.00    -0.184 F 
ENDBRANCH  24  25
ENDBRANCH   6  24
TORSDOF 7
ENDMDL
MODEL 7
REMARK VINA RESULT:      -7.2      4.911      8.194
REMARK  7 active torsions:
REMARK  status: ('A' for Active; 'I' for Inactive)
REMARK    1  A    between atoms: O2_2  and  C3_3 
REMARK    2  A    between atoms: C7_7  and  C8_8 
REMARK    3  A    between atoms: C8_8  and  S9_9 
REMARK    4  A    between atoms: S9_9  and  C11_11 
REMARK    5  A    between atoms: C16_16  and  O17_17 
REMARK    6  A    between atoms: O17_17  and  C18_18 
REMARK    7  A    between atoms: C24_24  and  O25_25 
ROOT
ATOM      1  C11 ZIN A   1      18.098   2.149  10.999  0.00  0.00     0.198 A 
ATOM      2  N12 ZIN A   1      17.316   1.197  10.583  0.00  0.00    -0.221 NA
ATOM      3  C13 ZIN A   1      17.633   0.872   9.302  0.00  0.00     0.086 A 
ATOM      4  C14 ZIN A   1      17.126  -0.060   8.393  0.00  0.00     0.037 A 
ATOM      5  C15 ZIN A   1      17.667  -0.156   7.142  0.00  0.00     0.039 A 
ATOM      6  C16 ZIN A   1      18.722   0.667   6.762  0.00  0.00     0.077 A 
ATOM      7  C21 ZIN A   1      19.238   1.597   7.647  0.00  0.00     0.069 A 
ATOM      8  C22 ZIN A   1      18.699   1.705   8.921  0.00  0.00     0.066 A 
ATOM      9  N23 ZIN A   1      18.967   2.505  10.013  0.00  0.00    -0.331 N 
ATOM     10  H38 ZIN A   1      19.649   3.193  10.068  0.00  0.00     0.168 HD
ENDROOT
BRANCH   1  11
ATOM     11  S9  ZIN A   1      18.037   2.879  12.602  0.00  0.00     0.092 S 
ATOM     12  O10 ZIN A   1      18.609   4.163  12.390  0.00  0.00    -0.249 OA
BRANCH  11  13
ATOM     13  C8  ZIN A   1      19.188   1.856  13.561  0.00  0.00     0.179 C 
BRANCH  13  14
ATOM     14  C7  ZIN A   1      19.488   0.590  12.801  0.00  0.00     0.082 A 
ATOM     15  N6  ZIN A   1      20.456   0.581  11.904  0.00  0.00    -0.262 NA
ATOM     16  C5  ZIN A   1      20.757  -0.501  11.212  0.00  0.00     0.120 A 
ATOM     17  C4  ZIN A   1      20.063  -1.680  11.403  0.00  0.00     0.059 A 
ATOM     18  C3  ZIN A   1      19.034  -1.716  12.337  0.00  0.00     0.104 A 
ATOM     19  C24 ZIN A   1      18.741  -0.549  13.046  0.00  0.00     0.127 A 
BRANCH  18  20
ATOM     20  O2  ZIN A   1      18.329  -2.857  12.552  0.00  0.00    -0.353 OA
ATOM     21  C1  ZIN A   1      17.566  -3.365  11.455  0.00  0.00     0.210 C 
ENDBRANCH  18  20
BRANCH  19  22
ATOM     22  O25 ZIN A   1      17.743  -0.534  13.970  0.00  0.00    -0.351 OA
ATOM     23  C26 ZIN A   1      18.089  -0.913  15.304  0.00  0.00     0.210 C 
ENDBRANCH  19  22
ENDBRANCH  13  14
ENDBRANCH  11  13
ENDBRANCH   1  11
BRANCH   6  24
ATOM     24  O17 ZIN A   1      19.249   0.558   5.513  0.00  0.00    -0.290 OA
BRANCH  24  25
ATOM     25  C18 ZIN A   1      18.670  -0.421   4.647  0.00  0.00     0.505 C 
ATOM     26  F19 ZIN A   1      18.314   0.182   3.436  0.00  0.00    -0.184 F 
ATOM     27  F20 ZIN A   1      19.599  -1.438   4.406  0.00  0.00    -0.184 F 
ENDBRANCH  24  25
ENDBRANCH   6  24
TORSDOF 7
ENDMDL
MODEL 8
REMARK VINA RESULT:      -7.2      5.496      9.395
REMARK  7 active torsions:
REMARK  status: ('A' for Active; 'I' for Inactive)
REMARK    1  A    between atoms: O2_2  and  C3_3 
REMARK    2  A    between atoms: C7_7  and  C8_8 
REMARK    3  A    between atoms: C8_8  and  S9_9 
REMARK    4  A    between atoms: S9_9  and  C11_11 
REMARK    5  A    between atoms: C16_16  and  O17_17 
REMARK    6  A    between atoms: O17_17  and  C18_18 
REMARK    7  A    between atoms: C24_24  and  O25_25 
ROOT
ATOM      1  C11 ZIN A   1      18.673   0.414   9.586  0.00  0.00     0.198 A 
ATOM      2  N12 ZIN A   1      18.747   1.280   8.619  0.00  0.00    -0.221 NA
ATOM      3  C13 ZIN A   1      18.923   0.632   7.437  0.00  0.00     0.086 A 
ATOM      4  C14 ZIN A   1      19.060   1.063   6.116  0.00  0.00     0.037 A 
ATOM      5  C15 ZIN A   1      19.228   0.150   5.114  0.00  0.00     0.039 A 
ATOM      6  C16 ZIN A   1      19.263  -1.212   5.397  0.00  0.00     0.077 A 
ATOM      7  C21 ZIN A   1      19.130  -1.660   6.699  0.00  0.00     0.069 A 
ATOM      8  C22 ZIN A   1      18.958  -0.743   7.726  0.00  0.00     0.066 A 
ATOM      9  N23 ZIN A   1      18.803  -0.849   9.094  0.00  0.00    -0.331 N 
ATOM     10  H38 ZIN A   1      18.788  -1.672   9.608  0.00  0.00     0.168 HD
ENDROOT
BRANCH   1  11
ATOM     11  S9  ZIN A   1      18.448   0.815  11.287  0.00  0.00     0.092 S 
ATOM     12  O10 ZIN A   1      17.044   1.020  11.383  0.00  0.00    -0.249 OA
BRANCH  11  13
ATOM     13  C8  ZIN A   1      19.304   2.406  11.449  0.00  0.00     0.179 C 
BRANCH  13  14
ATOM     14  C7  ZIN A   1      18.298   3.489  11.740  0.00  0.00     0.082 A 
ATOM     15  N6  ZIN A   1      17.628   4.042  10.746  0.00  0.00    -0.262 NA
ATOM     16  C5  ZIN A   1      16.738   4.994  10.949  0.00  0.00     0.120 A 
ATOM     17  C4  ZIN A   1      16.470   5.454  12.223  0.00  0.00     0.059 A 
ATOM     18  C3  ZIN A   1      17.153   4.902  13.300  0.00  0.00     0.104 A 
ATOM     19  C24 ZIN A   1      18.092   3.899  13.045  0.00  0.00     0.127 A 
BRANCH  18  20
ATOM     20  O2  ZIN A   1      16.917   5.328  14.568  0.00  0.00    -0.353 OA
ATOM     21  C1  ZIN A   1      16.505   6.687  14.729  0.00  0.00     0.210 C 
ENDBRANCH  18  20
BRANCH  19  22
ATOM     22  O25 ZIN A   1      18.786   3.328  14.066  0.00  0.00    -0.351 OA
ATOM     23  C26 ZIN A   1      18.155   2.246  14.753  0.00  0.00     0.210 C 
ENDBRANCH  19  22
ENDBRANCH  13  14
ENDBRANCH  11  13
ENDBRANCH   1  11
BRANCH   6  24
ATOM     24  O17 ZIN A   1      19.431  -2.108   4.389  0.00  0.00    -0.290 OA
BRANCH  24  25
ATOM     25  C18 ZIN A   1      18.435  -3.125   4.251  0.00  0.00     0.505 C 
ATOM     26  F19 ZIN A   1      17.183  -2.529   4.069  0.00  0.00    -0.184 F 
ATOM     27  F20 ZIN A   1      18.736  -3.925   3.143  0.00  0.00    -0.184 F 
ENDBRANCH  24  25
ENDBRANCH   6  24
TORSDOF 7
ENDMDL
MODEL 9
REMARK VINA RESULT:      -7.0      2.732      4.395
REMARK  7 active torsions:
REMARK  status: ('A' for Active; 'I' for Inactive)
REMARK    1  A    between atoms: O2_2  and  C3_3 
REMARK    2  A    between atoms: C7_7  and  C8_8 
REMARK    3  A    between atoms: C8_8  and  S9_9 
REMARK    4  A    between atoms: S9_9  and  C11_11 
REMARK    5  A    between atoms: C16_16  and  O17_17 
REMARK    6  A    between atoms: O17_17  and  C18_18 
REMARK    7  A    between atoms: C24_24  and  O25_25 
ROOT
ATOM      1  C11 ZIN A   1      19.227   0.836  10.450  0.00  0.00     0.198 A 
ATOM      2  N12 ZIN A   1      19.076   1.791  11.319  0.00  0.00    -0.221 NA
ATOM      3  C13 ZIN A   1      19.076   1.271  12.574  0.00  0.00     0.086 A 
ATOM      4  C14 ZIN A   1      18.953   1.833  13.847  0.00  0.00     0.037 A 
ATOM      5  C15 ZIN A   1      18.992   1.032  14.953  0.00  0.00     0.039 A 
ATOM      6  C16 ZIN A   1      19.156  -0.344  14.825  0.00  0.00     0.077 A 
ATOM      7  C21 ZIN A   1      19.280  -0.920  13.573  0.00  0.00     0.069 A 
ATOM      8  C22 ZIN A   1      19.241  -0.118  12.441  0.00  0.00     0.066 A 
ATOM      9  N23 ZIN A   1      19.329  -0.363  11.086  0.00  0.00    -0.331 N 
ATOM     10  H38 ZIN A   1      19.443  -1.230  10.666  0.00  0.00     0.168 HD
ENDROOT
BRANCH   1  11
ATOM     11  S9  ZIN A   1      19.283   1.059   8.703  0.00  0.00     0.092 S 
ATOM     12  O10 ZIN A   1      18.958   2.434   8.546  0.00  0.00    -0.249 OA
BRANCH  11  13
ATOM     13  C8  ZIN A   1      17.900   0.041   8.116  0.00  0.00     0.179 C 
BRANCH  13  14
ATOM     14  C7  ZIN A   1      18.422  -1.290   7.641  0.00  0.00     0.082 A 
ATOM     15  N6  ZIN A   1      18.713  -2.228   8.522  0.00  0.00    -0.262 NA
ATOM     16  C5  ZIN A   1      19.173  -3.410   8.157  0.00  0.00     0.120 A 
ATOM     17  C4  ZIN A   1      19.370  -3.713   6.824  0.00  0.00     0.059 A 
ATOM     18  C3  ZIN A   1      19.078  -2.753   5.861  0.00  0.00     0.104 A 
ATOM     19  C24 ZIN A   1      18.598  -1.512   6.287  0.00  0.00     0.127 A 
BRANCH  18  20
ATOM     20  O2  ZIN A   1      19.259  -3.014   4.540  0.00  0.00    -0.353 OA
ATOM     21  C1  ZIN A   1      18.242  -3.775   3.885  0.00  0.00     0.210 C 
ENDBRANCH  18  20
BRANCH  19  22
ATOM     22  O25 ZIN A   1      18.298  -0.541   5.383  0.00  0.00    -0.351 OA
ATOM     23  C26 ZIN A   1      19.386   0.240   4.885  0.00  0.00     0.210 C 
ENDBRANCH  19  22
ENDBRANCH  13  14
ENDBRANCH  11  13
ENDBRANCH   1  11
BRANCH   6  24
ATOM     24  O17 ZIN A   1      19.194  -1.127  15.935  0.00  0.00    -0.290 OA
BRANCH  24  25
ATOM     25  C18 ZIN A   1      18.661  -0.572  17.140  0.00  0.00     0.505 C 
ATOM     26  F19 ZIN A   1      17.387  -1.102  17.374  0.00  0.00    -0.184 F 
ATOM     27  F20 ZIN A   1      19.501  -0.890  18.212  0.00  0.00    -0.184 F 
ENDBRANCH  24  25
ENDBRANCH   6  24
TORSDOF 7
ENDMDL
