MODEL 1
REMARK VINA RESULT:      -6.5      0.000      0.000
REMARK  4 active torsions:
REMARK  status: ('A' for Active; 'I' for Inactive)
REMARK    1  A    between atoms: N1_1  and  C2_2 
REMARK    2  A    between atoms: C5_5  and  S6_6 
REMARK    3  A    between atoms: S6_6  and  C9_9 
REMARK    4  A    between atoms: C12_12  and  N13_13 
ROOT
ATOM      1  S6  ZIN A   1      18.379   2.542  11.106  0.00  0.00     0.206 S 
ATOM      2  O7  ZIN A   1      17.085   3.098  11.289  0.00  0.00    -0.217 OA
ATOM      3  O8  ZIN A   1      19.562   3.328  11.048  0.00  0.00    -0.217 OA
ENDROOT
BRANCH   1   4
ATOM      4  C5  ZIN A   1      18.614   1.384  12.414  0.00  0.00     0.064 A 
ATOM      5  C4  ZIN A   1      19.876   0.878  12.669  0.00  0.00     0.026 A 
ATOM      6  C3  ZIN A   1      20.063  -0.028  13.694  0.00  0.00     0.030 A 
ATOM      7  C2  ZIN A   1      18.984  -0.432  14.469  0.00  0.00     0.025 A 
ATOM      8  C17 ZIN A   1      17.716   0.075  14.206  0.00  0.00     0.030 A 
ATOM      9  C16 ZIN A   1      17.537   0.985  13.183  0.00  0.00     0.026 A 
BRANCH   7  10
ATOM     10  N1  ZIN A   1      19.170  -1.349  15.506  0.00  0.00    -0.399 N 
ATOM     11  H18 ZIN A   1      18.593  -1.322  16.286  0.00  0.00     0.156 HD
ATOM     12  H19 ZIN A   1      19.872  -2.014  15.444  0.00  0.00     0.156 HD
ENDBRANCH   7  10
ENDBRANCH   1   4
BRANCH   1  13
ATOM     13  C9  ZIN A   1      18.318   1.624   9.603  0.00  0.00     0.064 A 
ATOM     14  C15 ZIN A   1      17.484   0.525   9.499  0.00  0.00     0.026 A 
ATOM     15  C14 ZIN A   1      17.430  -0.194   8.321  0.00  0.00     0.030 A 
ATOM     16  C12 ZIN A   1      18.222   0.182   7.243  0.00  0.00     0.025 A 
ATOM     17  C11 ZIN A   1      19.064   1.282   7.353  0.00  0.00     0.030 A 
ATOM     18  C10 ZIN A   1      19.108   2.000   8.532  0.00  0.00     0.026 A 
BRANCH  16  19
ATOM     19  N13 ZIN A   1      18.174  -0.546   6.052  0.00  0.00    -0.399 N 
ATOM     20  H24 ZIN A   1      18.220  -1.514   6.073  0.00  0.00     0.156 HD
ATOM     21  H25 ZIN A   1      18.096  -0.082   5.204  0.00  0.00     0.156 HD
ENDBRANCH  16  19
ENDBRANCH   1  13
TORSDOF 4
ENDMDL
MODEL 2
REMARK VINA RESULT:      -6.5      0.014      5.796
REMARK  4 active torsions:
REMARK  status: ('A' for Active; 'I' for Inactive)
REMARK    1  A    between atoms: N1_1  and  C2_2 
REMARK    2  A    between atoms: C5_5  and  S6_6 
REMARK    3  A    between atoms: S6_6  and  C9_9 
REMARK    4  A    between atoms: C12_12  and  N13_13 
ROOT
ATOM      1  S6  ZIN A   1      18.388   2.543  11.105  0.00  0.00     0.206 S 
ATOM      2  O7  ZIN A   1      19.571   3.327  11.044  0.00  0.00    -0.217 OA
ATOM      3  O8  ZIN A   1      17.094   3.101  11.293  0.00  0.00    -0.217 OA
ENDROOT
BRANCH   1   4
ATOM      4  C5  ZIN A   1      18.320   1.627   9.601  0.00  0.00     0.064 A 
ATOM      5  C4  ZIN A   1      17.485   0.529   9.499  0.00  0.00     0.026 A 
ATOM      6  C3  ZIN A   1      17.429  -0.191   8.321  0.00  0.00     0.030 A 
ATOM      7  C2  ZIN A   1      18.213   0.188   7.239  0.00  0.00     0.025 A 
ATOM      8  C17 ZIN A   1      19.055   1.289   7.347  0.00  0.00     0.030 A 
ATOM      9  C16 ZIN A   1      19.102   2.007   8.526  0.00  0.00     0.026 A 
BRANCH   7  10
ATOM     10  N1  ZIN A   1      18.158  -0.538   6.047  0.00  0.00    -0.399 N 
ATOM     11  H18 ZIN A   1      18.961  -0.658   5.516  0.00  0.00     0.156 HD
ATOM     12  H19 ZIN A   1      17.320  -0.926   5.754  0.00  0.00     0.156 HD
ENDBRANCH   7  10
ENDBRANCH   1   4
BRANCH   1  13
ATOM     13  C9  ZIN A   1      18.625   1.384  12.410  0.00  0.00     0.064 A 
ATOM     14  C15 ZIN A   1      19.889   0.885  12.669  0.00  0.00     0.026 A 
ATOM     15  C14 ZIN A   1      20.080  -0.020  13.694  0.00  0.00     0.030 A 
ATOM     16  C12 ZIN A   1      18.998  -0.436  14.461  0.00  0.00     0.025 A 
ATOM     17  C11 ZIN A   1      17.729   0.063  14.195  0.00  0.00     0.030 A 
ATOM     18  C10 ZIN A   1      17.547   0.972  13.171  0.00  0.00     0.026 A 
BRANCH  16  19
ATOM     19  N13 ZIN A   1      19.186  -1.356  15.496  0.00  0.00    -0.399 N 
ATOM     20  H24 ZIN A   1      19.632  -1.082  16.312  0.00  0.00     0.156 HD
ATOM     21  H25 ZIN A   1      18.869  -2.267  15.397  0.00  0.00     0.156 HD
ENDBRANCH  16  19
ENDBRANCH   1  13
TORSDOF 4
ENDMDL
MODEL 3
REMARK VINA RESULT:      -6.2      1.614      2.136
REMARK  4 active torsions:
REMARK  status: ('A' for Active; 'I' for Inactive)
REMARK    1  A    between atoms: N1_1  and  C2_2 
REMARK    2  A    between atoms: C5_5  and  S6_6 
REMARK    3  A    between atoms: S6_6  and  C9_9 
REMARK    4  A    between atoms: C12_12  and  N13_13 
ROOT
ATOM      1  S6  ZIN A   1      19.955   1.218  12.123  0.00  0.00     0.206 S 
ATOM      2  O7  ZIN A   1      19.783   2.623  12.234  0.00  0.00    -0.217 OA
ATOM      3  O8  ZIN A   1      21.230   0.594  12.047  0.00  0.00    -0.217 OA
ENDROOT
BRANCH   1   4
ATOM      4  C5  ZIN A   1      19.135   0.505  13.510  0.00  0.00     0.064 A 
ATOM      5  C4  ZIN A   1      18.021   1.125  14.047  0.00  0.00     0.026 A 
ATOM      6  C3  ZIN A   1      17.375   0.567  15.134  0.00  0.00     0.030 A 
ATOM      7  C2  ZIN A   1      17.845  -0.616  15.688  0.00  0.00     0.025 A 
ATOM      8  C17 ZIN A   1      18.968  -1.234  15.149  0.00  0.00     0.030 A 
ATOM      9  C16 ZIN A   1      19.606  -0.674  14.059  0.00  0.00     0.026 A 
BRANCH   7  10
ATOM     10  N1  ZIN A   1      17.195  -1.182  16.787  0.00  0.00    -0.399 N 
ATOM     11  H18 ZIN A   1      17.537  -1.032  17.682  0.00  0.00     0.156 HD
ATOM     12  H19 ZIN A   1      16.399  -1.719  16.655  0.00  0.00     0.156 HD
ENDBRANCH   7  10
ENDBRANCH   1   4
BRANCH   1  13
ATOM     13  C9  ZIN A   1      19.070   0.720  10.683  0.00  0.00     0.064 A 
ATOM     14  C15 ZIN A   1      18.290  -0.422  10.712  0.00  0.00     0.026 A 
ATOM     15  C14 ZIN A   1      17.592  -0.812   9.587  0.00  0.00     0.030 A 
ATOM     16  C12 ZIN A   1      17.681  -0.061   8.421  0.00  0.00     0.025 A 
ATOM     17  C11 ZIN A   1      18.470   1.082   8.393  0.00  0.00     0.030 A 
ATOM     18  C10 ZIN A   1      19.162   1.469   9.524  0.00  0.00     0.026 A 
BRANCH  16  19
ATOM     19  N13 ZIN A   1      16.980  -0.456   7.278  0.00  0.00    -0.399 N 
ATOM     20  H24 ZIN A   1      16.186   0.028   7.006  0.00  0.00     0.156 HD
ATOM     21  H25 ZIN A   1      17.289  -1.214   6.759  0.00  0.00     0.156 HD
ENDBRANCH  16  19
ENDBRANCH   1  13
TORSDOF 4
ENDMDL
MODEL 4
REMARK VINA RESULT:      -6.2      3.638      4.190
REMARK  4 active torsions:
REMARK  status: ('A' for Active; 'I' for Inactive)
REMARK    1  A    between atoms: N1_1  and  C2_2 
REMARK    2  A    between atoms: C5_5  and  S6_6 
REMARK    3  A    between atoms: S6_6  and  C9_9 
REMARK    4  A    between atoms: C12_12  and  N13_13 
ROOT
ATOM      1  S6  ZIN A   1      19.267  -0.017  12.567  0.00  0.00     0.206 S 
ATOM      2  O7  ZIN A   1      18.210   0.810  12.104  0.00  0.00    -0.217 OA
ATOM      3  O8  ZIN A   1      20.635   0.230  12.271  0.00  0.00    -0.217 OA
ENDROOT
BRANCH   1   4
ATOM      4  C5  ZIN A   1      19.137  -0.054  14.324  0.00  0.00     0.064 A 
ATOM      5  C4  ZIN A   1      19.043  -1.266  14.985  0.00  0.00     0.026 A 
ATOM      6  C3  ZIN A   1      18.941  -1.298  16.362  0.00  0.00     0.030 A 
ATOM      7  C2  ZIN A   1      18.934  -0.111  17.084  0.00  0.00     0.025 A 
ATOM      8  C17 ZIN A   1      19.024   1.105  16.417  0.00  0.00     0.030 A 
ATOM      9  C16 ZIN A   1      19.130   1.129  15.040  0.00  0.00     0.026 A 
BRANCH   7  10
ATOM     10  N1  ZIN A   1      18.832  -0.140  18.477  0.00  0.00    -0.399 N 
ATOM     11  H18 ZIN A   1      18.195  -0.735  18.904  0.00  0.00     0.156 HD
ATOM     12  H19 ZIN A   1      19.401   0.430  19.016  0.00  0.00     0.156 HD
ENDBRANCH   7  10
ENDBRANCH   1   4
BRANCH   1  13
ATOM     13  C9  ZIN A   1      18.919  -1.644  11.986  0.00  0.00     0.064 A 
ATOM     14  C15 ZIN A   1      19.956  -2.525  11.738  0.00  0.00     0.026 A 
ATOM     15  C14 ZIN A   1      19.686  -3.802  11.287  0.00  0.00     0.030 A 
ATOM     16  C12 ZIN A   1      18.371  -4.198  11.072  0.00  0.00     0.025 A 
ATOM     17  C11 ZIN A   1      17.332  -3.308  11.315  0.00  0.00     0.030 A 
ATOM     18  C10 ZIN A   1      17.609  -2.034  11.772  0.00  0.00     0.026 A 
BRANCH  16  19
ATOM     19  N13 ZIN A   1      18.095  -5.487  10.610  0.00  0.00    -0.399 N 
ATOM     20  H24 ZIN A   1      18.724  -5.938  10.026  0.00  0.00     0.156 HD
ATOM     21  H25 ZIN A   1      17.274  -5.930  10.874  0.00  0.00     0.156 HD
ENDBRANCH  16  19
ENDBRANCH   1  13
TORSDOF 4
ENDMDL
MODEL 5
REMARK VINA RESULT:      -6.1      3.628      6.539
REMARK  4 active torsions:
REMARK  status: ('A' for Active; 'I' for Inactive)
REMARK    1  A    between atoms: N1_1  and  C2_2 
REMARK    2  A    between atoms: C5_5  and  S6_6 
REMARK    3  A    between atoms: S6_6  and  C9_9 
REMARK    4  A    between atoms: C12_12  and  N13_13 
ROOT
ATOM      1  S6  ZIN A   1      19.311   0.019  12.604  0.00  0.00     0.206 S 
ATOM      2  O7  ZIN A   1      20.683   0.253  12.321  0.00  0.00    -0.217 OA
ATOM      3  O8  ZIN A   1      18.266   0.861  12.137  0.00  0.00    -0.217 OA
ENDROOT
BRANCH   1   4
ATOM      4  C5  ZIN A   1      18.949  -1.600  12.010  0.00  0.00     0.064 A 
ATOM      5  C4  ZIN A   1      17.637  -1.978  11.792  0.00  0.00     0.026 A 
ATOM      6  C3  ZIN A   1      17.350  -3.246  11.325  0.00  0.00     0.030 A 
ATOM      7  C2  ZIN A   1      18.381  -4.142  11.075  0.00  0.00     0.025 A 
ATOM      8  C17 ZIN A   1      19.698  -3.761  11.300  0.00  0.00     0.030 A 
ATOM      9  C16 ZIN A   1      19.978  -2.490  11.762  0.00  0.00     0.026 A 
BRANCH   7  10
ATOM     10  N1  ZIN A   1      18.094  -5.425  10.603  0.00  0.00    -0.399 N 
ATOM     11  H18 ZIN A   1      18.161  -6.187  11.200  0.00  0.00     0.156 HD
ATOM     12  H19 ZIN A   1      17.823  -5.553   9.681  0.00  0.00     0.156 HD
ENDBRANCH   7  10
ENDBRANCH   1   4
BRANCH   1  13
ATOM     13  C9  ZIN A   1      19.166  -0.026  14.360  0.00  0.00     0.064 A 
ATOM     14  C15 ZIN A   1      19.133   1.154  15.080  0.00  0.00     0.026 A 
ATOM     15  C14 ZIN A   1      19.014   1.122  16.455  0.00  0.00     0.030 A 
ATOM     16  C12 ZIN A   1      18.938  -0.098  17.117  0.00  0.00     0.025 A 
ATOM     17  C11 ZIN A   1      18.979  -1.282  16.391  0.00  0.00     0.030 A 
ATOM     18  C10 ZIN A   1      19.092  -1.242  15.014  0.00  0.00     0.026 A 
BRANCH  16  19
ATOM     19  N13 ZIN A   1      18.824  -0.134  18.508  0.00  0.00    -0.399 N 
ATOM     20  H24 ZIN A   1      19.232  -0.857  19.010  0.00  0.00     0.156 HD
ATOM     21  H25 ZIN A   1      18.337   0.564  18.972  0.00  0.00     0.156 HD
ENDBRANCH  16  19
ENDBRANCH   1  13
TORSDOF 4
ENDMDL
MODEL 6
REMARK VINA RESULT:      -6.1      2.837      6.259
REMARK  4 active torsions:
REMARK  status: ('A' for Active; 'I' for Inactive)
REMARK    1  A    between atoms: N1_1  and  C2_2 
REMARK    2  A    between atoms: C5_5  and  S6_6 
REMARK    3  A    between atoms: S6_6  and  C9_9 
REMARK    4  A    between atoms: C12_12  and  N13_13 
ROOT
ATOM      1  S6  ZIN A   1      18.344  -2.143  11.687  0.00  0.00     0.206 S 
ATOM      2  O7  ZIN A   1      17.089  -2.792  11.543  0.00  0.00    -0.217 OA
ATOM      3  O8  ZIN A   1      19.574  -2.846  11.809  0.00  0.00    -0.217 OA
ENDROOT
BRANCH   1   4
ATOM      4  C5  ZIN A   1      18.517  -1.076  10.296  0.00  0.00     0.064 A 
ATOM      5  C4  ZIN A   1      19.736  -0.478  10.031  0.00  0.00     0.026 A 
ATOM      6  C3  ZIN A   1      19.875   0.358   8.940  0.00  0.00     0.030 A 
ATOM      7  C2  ZIN A   1      18.789   0.598   8.109  0.00  0.00     0.025 A 
ATOM      8  C17 ZIN A   1      17.564   0.000   8.381  0.00  0.00     0.030 A 
ATOM      9  C16 ZIN A   1      17.433  -0.839   9.470  0.00  0.00     0.026 A 
BRANCH   7  10
ATOM     10  N1  ZIN A   1      18.926   1.444   7.005  0.00  0.00    -0.399 N 
ATOM     11  H18 ZIN A   1      18.186   1.557   6.387  0.00  0.00     0.156 HD
ATOM     12  H19 ZIN A   1      19.757   1.921   6.860  0.00  0.00     0.156 HD
ENDBRANCH   7  10
ENDBRANCH   1   4
BRANCH   1  13
ATOM     13  C9  ZIN A   1      18.213  -1.119  13.115  0.00  0.00     0.064 A 
ATOM     14  C15 ZIN A   1      18.782  -1.524  14.309  0.00  0.00     0.026 A 
ATOM     15  C14 ZIN A   1      18.685  -0.721  15.429  0.00  0.00     0.030 A 
ATOM     16  C12 ZIN A   1      18.007   0.490  15.358  0.00  0.00     0.025 A 
ATOM     17  C11 ZIN A   1      17.432   0.891  14.158  0.00  0.00     0.030 A 
ATOM     18  C10 ZIN A   1      17.537   0.085  13.041  0.00  0.00     0.026 A 
BRANCH  16  19
ATOM     19  N13 ZIN A   1      17.902   1.301  16.490  0.00  0.00    -0.399 N 
ATOM     20  H24 ZIN A   1      18.658   1.396  17.090  0.00  0.00     0.156 HD
ATOM     21  H25 ZIN A   1      17.074   1.770  16.675  0.00  0.00     0.156 HD
ENDBRANCH  16  19
ENDBRANCH   1  13
TORSDOF 4
ENDMDL
MODEL 7
REMARK VINA RESULT:      -6.0      2.748      3.351
REMARK  4 active torsions:
REMARK  status: ('A' for Active; 'I' for Inactive)
REMARK    1  A    between atoms: N1_1  and  C2_2 
REMARK    2  A    between atoms: C5_5  and  S6_6 
REMARK    3  A    between atoms: S6_6  and  C9_9 
REMARK    4  A    between atoms: C12_12  and  N13_13 
ROOT
ATOM      1  S6  ZIN A   1      17.500   0.449  11.459  0.00  0.00     0.206 S 
ATOM      2  O7  ZIN A   1      18.461  -0.386  12.090  0.00  0.00    -0.217 OA
ATOM      3  O8  ZIN A   1      16.109   0.160  11.444  0.00  0.00    -0.217 OA
ENDROOT
BRANCH   1   4
ATOM      4  C5  ZIN A   1      17.670   2.044  12.188  0.00  0.00     0.064 A 
ATOM      5  C4  ZIN A   1      17.285   3.170  11.484  0.00  0.00     0.026 A 
ATOM      6  C3  ZIN A   1      17.415   4.421  12.053  0.00  0.00     0.030 A 
ATOM      7  C2  ZIN A   1      17.935   4.548  13.335  0.00  0.00     0.025 A 
ATOM      8  C17 ZIN A   1      18.325   3.415  14.038  0.00  0.00     0.030 A 
ATOM      9  C16 ZIN A   1      18.187   2.167  13.465  0.00  0.00     0.026 A 
BRANCH   7  10
ATOM     10  N1  ZIN A   1      18.068   5.813  13.914  0.00  0.00    -0.399 N 
ATOM     11  H18 ZIN A   1      17.781   5.960  14.829  0.00  0.00     0.156 HD
ATOM     12  H19 ZIN A   1      18.453   6.541  13.403  0.00  0.00     0.156 HD
ENDBRANCH   7  10
ENDBRANCH   1   4
BRANCH   1  13
ATOM     13  C9  ZIN A   1      17.996   0.592   9.774  0.00  0.00     0.064 A 
ATOM     14  C15 ZIN A   1      17.307  -0.095   8.791  0.00  0.00     0.026 A 
ATOM     15  C14 ZIN A   1      17.689   0.019   7.469  0.00  0.00     0.030 A 
ATOM     16  C12 ZIN A   1      18.775   0.817   7.128  0.00  0.00     0.025 A 
ATOM     17  C11 ZIN A   1      19.469   1.500   8.118  0.00  0.00     0.030 A 
ATOM     18  C10 ZIN A   1      19.077   1.386   9.438  0.00  0.00     0.026 A 
BRANCH  16  19
ATOM     19  N13 ZIN A   1      19.168   0.930   5.792  0.00  0.00    -0.399 N 
ATOM     20  H24 ZIN A   1      18.766   0.360   5.118  0.00  0.00     0.156 HD
ATOM     21  H25 ZIN A   1      19.844   1.578   5.540  0.00  0.00     0.156 HD
ENDBRANCH  16  19
ENDBRANCH   1  13
TORSDOF 4
ENDMDL
MODEL 8
REMARK VINA RESULT:      -6.0      4.743      7.193
REMARK  4 active torsions:
REMARK  status: ('A' for Active; 'I' for Inactive)
REMARK    1  A    between atoms: N1_1  and  C2_2 
REMARK    2  A    between atoms: C5_5  and  S6_6 
REMARK    3  A    between atoms: S6_6  and  C9_9 
REMARK    4  A    between atoms: C12_12  and  N13_13 
ROOT
ATOM      1  S6  ZIN A   1      18.745  -0.999   4.978  0.00  0.00     0.206 S 
ATOM      2  O7  ZIN A   1      20.098  -0.777   4.608  0.00  0.00    -0.217 OA
ATOM      3  O8  ZIN A   1      17.645  -0.656   4.145  0.00  0.00    -0.217 OA
ENDROOT
BRANCH   1   4
ATOM      4  C5  ZIN A   1      18.596  -2.722   5.314  0.00  0.00     0.064 A 
ATOM      5  C4  ZIN A   1      19.467  -3.330   6.201  0.00  0.00     0.026 A 
ATOM      6  C3  ZIN A   1      19.352  -4.680   6.467  0.00  0.00     0.030 A 
ATOM      7  C2  ZIN A   1      18.362  -5.428   5.844  0.00  0.00     0.025 A 
ATOM      8  C17 ZIN A   1      17.493  -4.816   4.949  0.00  0.00     0.030 A 
ATOM      9  C16 ZIN A   1      17.609  -3.464   4.691  0.00  0.00     0.026 A 
BRANCH   7  10
ATOM     10  N1  ZIN A   1      18.244  -6.794   6.111  0.00  0.00    -0.399 N 
ATOM     11  H18 ZIN A   1      18.788  -7.202   6.804  0.00  0.00     0.156 HD
ATOM     12  H19 ZIN A   1      17.615  -7.334   5.608  0.00  0.00     0.156 HD
ENDBRANCH   7  10
ENDBRANCH   1   4
BRANCH   1  13
ATOM     13  C9  ZIN A   1      18.499  -0.148   6.501  0.00  0.00     0.064 A 
ATOM     14  C15 ZIN A   1      19.215   1.004   6.771  0.00  0.00     0.026 A 
ATOM     15  C14 ZIN A   1      19.021   1.676   7.962  0.00  0.00     0.030 A 
ATOM     16  C12 ZIN A   1      18.114   1.188   8.894  0.00  0.00     0.025 A 
ATOM     17  C11 ZIN A   1      17.401   0.026   8.623  0.00  0.00     0.030 A 
ATOM     18  C10 ZIN A   1      17.596  -0.638   7.427  0.00  0.00     0.026 A 
BRANCH  16  19
ATOM     19  N13 ZIN A   1      17.920   1.861  10.102  0.00  0.00    -0.399 N 
ATOM     20  H24 ZIN A   1      18.242   1.474  10.931  0.00  0.00     0.156 HD
ATOM     21  H25 ZIN A   1      17.462   2.717  10.112  0.00  0.00     0.156 HD
ENDBRANCH  16  19
ENDBRANCH   1  13
TORSDOF 4
ENDMDL
MODEL 9
REMARK VINA RESULT:      -6.0      2.746      5.907
REMARK  4 active torsions:
REMARK  status: ('A' for Active; 'I' for Inactive)
REMARK    1  A    between atoms: N1_1  and  C2_2 
REMARK    2  A    between atoms: C5_5  and  S6_6 
REMARK    3  A    between atoms: S6_6  and  C9_9 
REMARK    4  A    between atoms: C12_12  and  N13_13 
ROOT
ATOM      1  S6  ZIN A   1      17.571   0.507  11.485  0.00  0.00     0.206 S 
ATOM      2  O7  ZIN A   1      16.178   0.231  11.482  0.00  0.00    -0.217 OA
ATOM      3  O8  ZIN A   1      18.529  -0.338  12.108  0.00  0.00    -0.217 OA
ENDROOT
BRANCH   1   4
ATOM      4  C5  ZIN A   1      18.055   0.649   9.797  0.00  0.00     0.064 A 
ATOM      5  C4  ZIN A   1      19.112   1.470   9.449  0.00  0.00     0.026 A 
ATOM      6  C3  ZIN A   1      19.494   1.583   8.126  0.00  0.00     0.030 A 
ATOM      7  C2  ZIN A   1      18.816   0.871   7.146  0.00  0.00     0.025 A 
ATOM      8  C17 ZIN A   1      17.751   0.051   7.498  0.00  0.00     0.030 A 
ATOM      9  C16 ZIN A   1      17.377  -0.061   8.823  0.00  0.00     0.026 A 
BRANCH   7  10
ATOM     10  N1  ZIN A   1      19.200   0.984   5.807  0.00  0.00    -0.399 N 
ATOM     11  H18 ZIN A   1      18.539   0.887   5.103  0.00  0.00     0.156 HD
ATOM     12  H19 ZIN A   1      20.126   1.163   5.582  0.00  0.00     0.156 HD
ENDBRANCH   7  10
ENDBRANCH   1   4
BRANCH   1  13
ATOM     13  C9  ZIN A   1      17.761   2.098  12.217  0.00  0.00     0.064 A 
ATOM     14  C15 ZIN A   1      17.377   3.229  11.519  0.00  0.00     0.026 A 
ATOM     15  C14 ZIN A   1      17.520   4.478  12.092  0.00  0.00     0.030 A 
ATOM     16  C12 ZIN A   1      18.059   4.598  13.367  0.00  0.00     0.025 A 
ATOM     17  C11 ZIN A   1      18.450   3.460  14.063  0.00  0.00     0.030 A 
ATOM     18  C10 ZIN A   1      18.299   2.214  13.486  0.00  0.00     0.026 A 
BRANCH  16  19
ATOM     19  N13 ZIN A   1      18.211   5.860  13.947  0.00  0.00    -0.399 N 
ATOM     20  H24 ZIN A   1      17.777   6.061  14.790  0.00  0.00     0.156 HD
ATOM     21  H25 ZIN A   1      18.751   6.533  13.506  0.00  0.00     0.156 HD
ENDBRANCH  16  19
ENDBRANCH   1  13
TORSDOF 4
ENDMDL
