MODEL 1
REMARK VINA RESULT:      -9.5      0.000      0.000
REMARK  4 active torsions:
REMARK  status: ('A' for Active; 'I' for Inactive)
REMARK    1  A    between atoms: C26_21  and  O28_22 
REMARK    2  A    between atoms: C32_26  and  C33_27 
REMARK    3  A    between atoms: C33_27  and  C35_29 
REMARK    4  A    between atoms: C35_29  and  O36_30 
ROOT
ATOM      1  C1  ZIN A   1      17.169  -7.053   8.230  0.00  0.00     0.078 C 
ATOM      2  C2  ZIN A   1      16.595  -5.833   8.954  0.00  0.00     0.159 C 
ATOM      3  C3  ZIN A   1      15.092  -5.726   8.695  0.00  0.00     0.078 C 
ATOM      4  O4  ZIN A   1      16.848  -5.933  10.366  0.00  0.00    -0.347 OA
ATOM      5  C5  ZIN A   1      18.069  -5.221  10.636  0.00  0.00     0.168 C 
ATOM      6  C7  ZIN A   1      17.738  -4.017  11.549  0.00  0.00     0.041 C 
ATOM      7  C8  ZIN A   1      17.834  -2.788  10.653  0.00  0.00     0.004 C 
ATOM      8  C10 ZIN A   1      18.304  -1.505  11.312  0.00  0.00     0.001 C 
ATOM      9  C12 ZIN A   1      17.335  -1.106  12.427  0.00  0.00     0.047 C 
ATOM     10  C13 ZIN A   1      17.838   0.165  13.117  0.00  0.00     0.200 C 
ATOM     11  F15 ZIN A   1      16.895   0.598  14.056  0.00  0.00    -0.245 F 
ATOM     12  C16 ZIN A   1      18.033   1.233  12.057  0.00  0.00    -0.030 A 
ATOM     13  C17 ZIN A   1      17.475   2.423  12.234  0.00  0.00     0.061 A 
ATOM     14  C18 ZIN A   1      17.625   3.476  11.218  0.00  0.00     0.172 A 
ATOM     15  O19 ZIN A   1      17.145   4.581  11.393  0.00  0.00    -0.289 OA
ATOM     16  C20 ZIN A   1      18.366   3.164   9.984  0.00  0.00     0.052 A 
ATOM     17  C21 ZIN A   1      18.921   1.971   9.832  0.00  0.00    -0.008 A 
ATOM     18  C22 ZIN A   1      18.856   0.886  10.852  0.00  0.00     0.006 A 
ATOM     19  C23 ZIN A   1      20.283   0.603  11.325  0.00  0.00     0.025 C 
ATOM     20  C24 ZIN A   1      18.346  -0.415  10.228  0.00  0.00     0.035 C 
ATOM     21  C26 ZIN A   1      19.255  -0.812   9.069  0.00  0.00     0.124 C 
ATOM     22  C29 ZIN A   1      18.865  -2.179   8.485  0.00  0.00     0.045 C 
ATOM     23  C30 ZIN A   1      18.904  -3.193   9.606  0.00  0.00     0.004 C 
ATOM     24  C31 ZIN A   1      20.277  -3.180  10.281  0.00  0.00     0.019 C 
ATOM     25  C32 ZIN A   1      18.503  -4.645   9.249  0.00  0.00     0.160 C 
ATOM     26  O37 ZIN A   1      17.262  -4.633   8.510  0.00  0.00    -0.334 OA
ENDROOT
BRANCH  25  27
ATOM     27  C33 ZIN A   1      19.620  -5.426   8.606  0.00  0.00     0.188 C 
ATOM     28  O34 ZIN A   1      20.258  -6.216   9.259  0.00  0.00    -0.292 OA
BRANCH  27  29
ATOM     29  C35 ZIN A   1      19.939  -5.221   7.147  0.00  0.00     0.245 C 
BRANCH  29  30
ATOM     30  O36 ZIN A   1      21.173  -4.511   7.026  0.00  0.00    -0.393 OA
ATOM     31  H62 ZIN A   1      21.069  -3.583   6.775  0.00  0.00     0.209 HD
ENDBRANCH  29  30
ENDBRANCH  27  29
ENDBRANCH  25  27
BRANCH  21  32
ATOM     32  O28 ZIN A   1      20.605  -0.873   9.535  0.00  0.00    -0.395 OA
ATOM     33  H54 ZIN A   1      21.046  -0.014   9.574  0.00  0.00     0.210 HD
ENDBRANCH  21  32
TORSDOF 4
ENDMDL
MODEL 2
REMARK VINA RESULT:      -8.9      2.760      7.318
REMARK  4 active torsions:
REMARK  status: ('A' for Active; 'I' for Inactive)
REMARK    1  A    between atoms: C26_21  and  O28_22 
REMARK    2  A    between atoms: C32_26  and  C33_27 
REMARK    3  A    between atoms: C33_27  and  C35_29 
REMARK    4  A    between atoms: C35_29  and  O36_30 
ROOT
ATOM      1  C1  ZIN A   1      18.567   2.779  12.928  0.00  0.00     0.078 C 
ATOM      2  C2  ZIN A   1      18.351   2.115  11.567  0.00  0.00     0.159 C 
ATOM      3  C3  ZIN A   1      17.459   2.994  10.689  0.00  0.00     0.078 C 
ATOM      4  O4  ZIN A   1      19.614   1.890  10.920  0.00  0.00    -0.347 OA
ATOM      5  C5  ZIN A   1      20.029   0.550  11.242  0.00  0.00     0.168 C 
ATOM      6  C7  ZIN A   1      20.071  -0.273   9.932  0.00  0.00     0.041 C 
ATOM      7  C8  ZIN A   1      18.859  -1.195   9.992  0.00  0.00     0.004 C 
ATOM      8  C10 ZIN A   1      19.006  -2.550   9.328  0.00  0.00     0.001 C 
ATOM      9  C12 ZIN A   1      19.295  -2.372   7.836  0.00  0.00     0.047 C 
ATOM     10  C13 ZIN A   1      19.486  -3.743   7.180  0.00  0.00     0.200 C 
ATOM     11  F15 ZIN A   1      19.632  -3.590   5.797  0.00  0.00    -0.245 F 
ATOM     12  C16 ZIN A   1      18.258  -4.585   7.476  0.00  0.00    -0.030 A 
ATOM     13  C17 ZIN A   1      17.630  -5.179   6.471  0.00  0.00     0.061 A 
ATOM     14  C18 ZIN A   1      16.424  -5.985   6.716  0.00  0.00     0.172 A 
ATOM     15  O19 ZIN A   1      15.865  -6.562   5.802  0.00  0.00    -0.289 OA
ATOM     16  C20 ZIN A   1      15.907  -6.076   8.093  0.00  0.00     0.052 A 
ATOM     17  C21 ZIN A   1      16.555  -5.480   9.081  0.00  0.00    -0.008 A 
ATOM     18  C22 ZIN A   1      17.814  -4.702   8.904  0.00  0.00     0.006 A 
ATOM     19  C23 ZIN A   1      18.919  -5.419   9.680  0.00  0.00     0.025 C 
ATOM     20  C24 ZIN A   1      17.685  -3.311   9.527  0.00  0.00     0.035 C 
ATOM     21  C26 ZIN A   1      17.336  -3.449  11.006  0.00  0.00     0.124 C 
ATOM     22  C29 ZIN A   1      17.318  -2.085  11.715  0.00  0.00     0.045 C 
ATOM     23  C30 ZIN A   1      18.670  -1.438  11.512  0.00  0.00     0.004 C 
ATOM     24  C31 ZIN A   1      19.780  -2.371  11.998  0.00  0.00     0.019 C 
ATOM     25  C32 ZIN A   1      18.865  -0.025  12.112  0.00  0.00     0.160 C 
ATOM     26  O37 ZIN A   1      17.749   0.814  11.740  0.00  0.00    -0.334 OA
ENDROOT
BRANCH  25  27
ATOM     27  C33 ZIN A   1      19.181  -0.046  13.586  0.00  0.00     0.188 C 
ATOM     28  O34 ZIN A   1      20.308   0.168  13.964  0.00  0.00    -0.292 OA
BRANCH  27  29
ATOM     29  C35 ZIN A   1      18.092  -0.336  14.585  0.00  0.00     0.245 C 
BRANCH  29  30
ATOM     30  O36 ZIN A   1      18.355  -1.585  15.228  0.00  0.00    -0.393 OA
ATOM     31  H62 ZIN A   1      19.195  -1.612  15.706  0.00  0.00     0.209 HD
ENDBRANCH  29  30
ENDBRANCH  27  29
ENDBRANCH  25  27
BRANCH  21  32
ATOM     32  O28 ZIN A   1      18.304  -4.289  11.638  0.00  0.00    -0.395 OA
ATOM     33  H54 ZIN A   1      18.831  -3.841  12.314  0.00  0.00     0.210 HD
ENDBRANCH  21  32
TORSDOF 4
ENDMDL
MODEL 3
REMARK VINA RESULT:      -8.8      3.032      8.734
REMARK  4 active torsions:
REMARK  status: ('A' for Active; 'I' for Inactive)
REMARK    1  A    between atoms: C26_21  and  O28_22 
REMARK    2  A    between atoms: C32_26  and  C33_27 
REMARK    3  A    between atoms: C33_27  and  C35_29 
REMARK    4  A    between atoms: C35_29  and  O36_30 
ROOT
ATOM      1  C1  ZIN A   1      16.978   7.055  15.026  0.00  0.00     0.078 C 
ATOM      2  C2  ZIN A   1      16.444   5.914  14.157  0.00  0.00     0.159 C 
ATOM      3  C3  ZIN A   1      14.928   5.791  14.325  0.00  0.00     0.078 C 
ATOM      4  O4  ZIN A   1      16.771   6.147  12.778  0.00  0.00    -0.347 OA
ATOM      5  C5  ZIN A   1      18.005   5.458  12.506  0.00  0.00     0.168 C 
ATOM      6  C7  ZIN A   1      17.723   4.349  11.464  0.00  0.00     0.041 C 
ATOM      7  C8  ZIN A   1      17.770   3.039  12.242  0.00  0.00     0.004 C 
ATOM      8  C10 ZIN A   1      18.274   1.823  11.488  0.00  0.00     0.001 C 
ATOM      9  C12 ZIN A   1      17.366   1.539  10.289  0.00  0.00     0.047 C 
ATOM     10  C13 ZIN A   1      17.904   0.337   9.508  0.00  0.00     0.200 C 
ATOM     11  F15 ZIN A   1      17.013   0.002   8.483  0.00  0.00    -0.245 F 
ATOM     12  C16 ZIN A   1      18.042  -0.829  10.469  0.00  0.00    -0.030 A 
ATOM     13  C17 ZIN A   1      17.493  -1.993  10.149  0.00  0.00     0.061 A 
ATOM     14  C18 ZIN A   1      17.588  -3.140  11.065  0.00  0.00     0.172 A 
ATOM     15  O19 ZIN A   1      17.118  -4.220  10.760  0.00  0.00    -0.289 OA
ATOM     16  C20 ZIN A   1      18.263  -2.952  12.361  0.00  0.00     0.052 A 
ATOM     17  C21 ZIN A   1      18.809  -1.782  12.656  0.00  0.00    -0.008 A 
ATOM     18  C22 ZIN A   1      18.800  -0.604  11.744  0.00  0.00     0.006 A 
ATOM     19  C23 ZIN A   1      20.250  -0.285  11.377  0.00  0.00     0.025 C 
ATOM     20  C24 ZIN A   1      18.257   0.634  12.462  0.00  0.00     0.035 C 
ATOM     21  C26 ZIN A   1      19.103   0.912  13.701  0.00  0.00     0.124 C 
ATOM     22  C29 ZIN A   1      18.684   2.218  14.393  0.00  0.00     0.045 C 
ATOM     23  C30 ZIN A   1      18.783   3.335  13.378  0.00  0.00     0.004 C 
ATOM     24  C31 ZIN A   1      20.190   3.380  12.779  0.00  0.00     0.019 C 
ATOM     25  C32 ZIN A   1      18.364   4.748  13.851  0.00  0.00     0.160 C 
ATOM     26  O37 ZIN A   1      17.085   4.672  14.519  0.00  0.00    -0.334 OA
ENDROOT
BRANCH  25  27
ATOM     27  C33 ZIN A   1      19.445   5.458  14.626  0.00  0.00     0.188 C 
ATOM     28  O34 ZIN A   1      20.115   6.307  14.087  0.00  0.00    -0.292 OA
BRANCH  27  29
ATOM     29  C35 ZIN A   1      19.689   5.108  16.071  0.00  0.00     0.245 C 
BRANCH  29  30
ATOM     30  O36 ZIN A   1      20.932   4.411  16.188  0.00  0.00    -0.393 OA
ATOM     31  H62 ZIN A   1      20.856   3.539  16.599  0.00  0.00     0.209 HD
ENDBRANCH  29  30
ENDBRANCH  27  29
ENDBRANCH  25  27
BRANCH  21  32
ATOM     32  O28 ZIN A   1      20.476   1.011  13.315  0.00  0.00    -0.395 OA
ATOM     33  H54 ZIN A   1      20.640   1.650  12.608  0.00  0.00     0.210 HD
ENDBRANCH  21  32
TORSDOF 4
ENDMDL
MODEL 4
REMARK VINA RESULT:      -8.6      1.618      2.282
REMARK  4 active torsions:
REMARK  status: ('A' for Active; 'I' for Inactive)
REMARK    1  A    between atoms: C26_21  and  O28_22 
REMARK    2  A    between atoms: C32_26  and  C33_27 
REMARK    3  A    between atoms: C33_27  and  C35_29 
REMARK    4  A    between atoms: C35_29  and  O36_30 
ROOT
ATOM      1  C1  ZIN A   1      17.553  -5.638   9.188  0.00  0.00     0.078 C 
ATOM      2  C2  ZIN A   1      17.374  -4.611  10.307  0.00  0.00     0.159 C 
ATOM      3  C3  ZIN A   1      16.196  -5.004  11.199  0.00  0.00     0.078 C 
ATOM      4  O4  ZIN A   1      18.577  -4.517  11.089  0.00  0.00    -0.347 OA
ATOM      5  C5  ZIN A   1      19.359  -3.438  10.548  0.00  0.00     0.168 C 
ATOM      6  C7  ZIN A   1      19.476  -2.334  11.625  0.00  0.00     0.041 C 
ATOM      7  C8  ZIN A   1      18.560  -1.210  11.156  0.00  0.00     0.004 C 
ATOM      8  C10 ZIN A   1      18.985   0.202  11.511  0.00  0.00     0.001 C 
ATOM      9  C12 ZIN A   1      19.057   0.359  13.032  0.00  0.00     0.047 C 
ATOM     10  C13 ZIN A   1      19.529   1.773  13.384  0.00  0.00     0.200 C 
ATOM     11  F15 ZIN A   1      19.482   1.956  14.769  0.00  0.00    -0.245 F 
ATOM     12  C16 ZIN A   1      18.602   2.763  12.704  0.00  0.00    -0.030 A 
ATOM     13  C17 ZIN A   1      18.048   3.726  13.428  0.00  0.00     0.061 A 
ATOM     14  C18 ZIN A   1      17.128   4.692  12.808  0.00  0.00     0.172 A 
ATOM     15  O19 ZIN A   1      16.646   5.599  13.460  0.00  0.00    -0.289 OA
ATOM     16  C20 ZIN A   1      16.802   4.536  11.379  0.00  0.00     0.052 A 
ATOM     17  C21 ZIN A   1      17.373   3.571  10.674  0.00  0.00    -0.008 A 
ATOM     18  C22 ZIN A   1      18.359   2.603  11.232  0.00  0.00     0.006 A 
ATOM     19  C23 ZIN A   1      19.689   2.822  10.511  0.00  0.00     0.025 C 
ATOM     20  C24 ZIN A   1      17.938   1.163  10.927  0.00  0.00     0.035 C 
ATOM     21  C26 ZIN A   1      17.796   0.986   9.418  0.00  0.00     0.124 C 
ATOM     22  C29 ZIN A   1      17.498  -0.474   9.043  0.00  0.00     0.045 C 
ATOM     23  C30 ZIN A   1      18.603  -1.335   9.611  0.00  0.00     0.004 C 
ATOM     24  C31 ZIN A   1      19.965  -0.838   9.120  0.00  0.00     0.019 C 
ATOM     25  C32 ZIN A   1      18.485  -2.862   9.387  0.00  0.00     0.160 C 
ATOM     26  O37 ZIN A   1      17.156  -3.299   9.746  0.00  0.00    -0.334 OA
ENDROOT
BRANCH  25  27
ATOM     27  C33 ZIN A   1      18.951  -3.298   8.022  0.00  0.00     0.188 C 
ATOM     28  O34 ZIN A   1      18.382  -2.898   7.034  0.00  0.00    -0.292 OA
BRANCH  27  29
ATOM     29  C35 ZIN A   1      20.126  -4.232   7.889  0.00  0.00     0.245 C 
BRANCH  29  30
ATOM     30  O36 ZIN A   1      20.844  -3.927   6.692  0.00  0.00    -0.393 OA
ATOM     31  H62 ZIN A   1      21.630  -4.473   6.556  0.00  0.00     0.209 HD
ENDBRANCH  29  30
ENDBRANCH  27  29
ENDBRANCH  25  27
BRANCH  21  32
ATOM     32  O28 ZIN A   1      19.012   1.390   8.785  0.00  0.00    -0.395 OA
ATOM     33  H54 ZIN A   1      19.042   2.329   8.554  0.00  0.00     0.210 HD
ENDBRANCH  21  32
TORSDOF 4
ENDMDL
MODEL 5
REMARK VINA RESULT:      -8.5      2.764      8.119
REMARK  4 active torsions:
REMARK  status: ('A' for Active; 'I' for Inactive)
REMARK    1  A    between atoms: C26_21  and  O28_22 
REMARK    2  A    between atoms: C32_26  and  C33_27 
REMARK    3  A    between atoms: C33_27  and  C35_29 
REMARK    4  A    between atoms: C35_29  and  O36_30 
ROOT
ATOM      1  C1  ZIN A   1      17.575   5.744  14.130  0.00  0.00     0.078 C 
ATOM      2  C2  ZIN A   1      17.437   4.827  12.913  0.00  0.00     0.159 C 
ATOM      3  C3  ZIN A   1      16.290   5.306  12.022  0.00  0.00     0.078 C 
ATOM      4  O4  ZIN A   1      18.666   4.806  12.168  0.00  0.00    -0.347 OA
ATOM      5  C5  ZIN A   1      19.431   3.679  12.632  0.00  0.00     0.168 C 
ATOM      6  C7  ZIN A   1      19.586   2.681  11.460  0.00  0.00     0.041 C 
ATOM      7  C8  ZIN A   1      18.656   1.519  11.788  0.00  0.00     0.004 C 
ATOM      8  C10 ZIN A   1      19.095   0.146  11.316  0.00  0.00     0.001 C 
ATOM      9  C12 ZIN A   1      19.220   0.134   9.791  0.00  0.00     0.047 C 
ATOM     10  C13 ZIN A   1      19.706  -1.241   9.324  0.00  0.00     0.200 C 
ATOM     11  F15 ZIN A   1      19.708  -1.293   7.926  0.00  0.00    -0.245 F 
ATOM     12  C16 ZIN A   1      18.758  -2.290   9.875  0.00  0.00    -0.030 A 
ATOM     13  C17 ZIN A   1      18.231  -3.179   9.044  0.00  0.00     0.061 A 
ATOM     14  C18 ZIN A   1      17.291  -4.197   9.538  0.00  0.00     0.172 A 
ATOM     15  O19 ZIN A   1      16.833  -5.037   8.786  0.00  0.00    -0.289 OA
ATOM     16  C20 ZIN A   1      16.915  -4.176  10.962  0.00  0.00     0.052 A 
ATOM     17  C21 ZIN A   1      17.459  -3.284  11.775  0.00  0.00    -0.008 A 
ATOM     18  C22 ZIN A   1      18.463  -2.268  11.346  0.00  0.00     0.006 A 
ATOM     19  C23 ZIN A   1      19.768  -2.558  12.089  0.00  0.00     0.025 C 
ATOM     20  C24 ZIN A   1      18.029  -0.864  11.771  0.00  0.00     0.035 C 
ATOM     21  C26 ZIN A   1      17.834  -0.830  13.284  0.00  0.00     0.124 C 
ATOM     22  C29 ZIN A   1      17.522   0.589  13.784  0.00  0.00     0.045 C 
ATOM     23  C30 ZIN A   1      18.645   1.497  13.339  0.00  0.00     0.004 C 
ATOM     24  C31 ZIN A   1      19.989   0.954  13.828  0.00  0.00     0.019 C 
ATOM     25  C32 ZIN A   1      18.517   2.997  13.702  0.00  0.00     0.160 C 
ATOM     26  O37 ZIN A   1      17.201   3.468  13.339  0.00  0.00    -0.334 OA
ENDROOT
BRANCH  25  27
ATOM     27  C33 ZIN A   1      18.934   3.301  15.118  0.00  0.00     0.188 C 
ATOM     28  O34 ZIN A   1      18.345   2.794  16.043  0.00  0.00    -0.292 OA
BRANCH  27  29
ATOM     29  C35 ZIN A   1      20.085   4.238  15.379  0.00  0.00     0.245 C 
BRANCH  29  30
ATOM     30  O36 ZIN A   1      20.608   3.996  16.687  0.00  0.00    -0.393 OA
ATOM     31  H62 ZIN A   1      20.456   3.098  17.011  0.00  0.00     0.209 HD
ENDBRANCH  29  30
ENDBRANCH  27  29
ENDBRANCH  25  27
BRANCH  21  32
ATOM     32  O28 ZIN A   1      19.028  -1.294  13.918  0.00  0.00    -0.395 OA
ATOM     33  H54 ZIN A   1      19.395  -0.676  14.566  0.00  0.00     0.210 HD
ENDBRANCH  21  32
TORSDOF 4
ENDMDL
MODEL 6
REMARK VINA RESULT:      -8.4      3.139      5.505
REMARK  4 active torsions:
REMARK  status: ('A' for Active; 'I' for Inactive)
REMARK    1  A    between atoms: C26_21  and  O28_22 
REMARK    2  A    between atoms: C32_26  and  C33_27 
REMARK    3  A    between atoms: C33_27  and  C35_29 
REMARK    4  A    between atoms: C35_29  and  O36_30 
ROOT
ATOM      1  C1  ZIN A   1      18.710  -2.526   9.952  0.00  0.00     0.078 C 
ATOM      2  C2  ZIN A   1      18.422  -1.950  11.340  0.00  0.00     0.159 C 
ATOM      3  C3  ZIN A   1      17.452  -2.859  12.096  0.00  0.00     0.078 C 
ATOM      4  O4  ZIN A   1      19.647  -1.809  12.079  0.00  0.00    -0.347 OA
ATOM      5  C5  ZIN A   1      20.118  -0.464  11.880  0.00  0.00     0.168 C 
ATOM      6  C7  ZIN A   1      20.096   0.266  13.245  0.00  0.00     0.041 C 
ATOM      7  C8  ZIN A   1      18.915   1.227  13.173  0.00  0.00     0.004 C 
ATOM      8  C10 ZIN A   1      19.055   2.528  13.939  0.00  0.00     0.001 C 
ATOM      9  C12 ZIN A   1      19.241   2.239  15.430  0.00  0.00     0.047 C 
ATOM     10  C13 ZIN A   1      19.425   3.555  16.192  0.00  0.00     0.200 C 
ATOM     11  F15 ZIN A   1      19.476   3.303  17.567  0.00  0.00    -0.245 F 
ATOM     12  C16 ZIN A   1      18.242   4.453  15.879  0.00  0.00    -0.030 A 
ATOM     13  C17 ZIN A   1      17.565   4.996  16.881  0.00  0.00     0.061 A 
ATOM     14  C18 ZIN A   1      16.400   5.855  16.617  0.00  0.00     0.172 A 
ATOM     15  O19 ZIN A   1      15.799   6.385  17.532  0.00  0.00    -0.289 OA
ATOM     16  C20 ZIN A   1      15.977   6.056  15.220  0.00  0.00     0.052 A 
ATOM     17  C21 ZIN A   1      16.672   5.509  14.235  0.00  0.00    -0.008 A 
ATOM     18  C22 ZIN A   1      17.896   4.682  14.437  0.00  0.00     0.006 A 
ATOM     19  C23 ZIN A   1      19.068   5.416  13.785  0.00  0.00     0.025 C 
ATOM     20  C24 ZIN A   1      17.771   3.341  13.710  0.00  0.00     0.035 C 
ATOM     21  C26 ZIN A   1      17.522   3.591  12.226  0.00  0.00     0.124 C 
ATOM     22  C29 ZIN A   1      17.515   2.281  11.423  0.00  0.00     0.045 C 
ATOM     23  C30 ZIN A   1      18.832   1.579  11.665  0.00  0.00     0.004 C 
ATOM     24  C31 ZIN A   1      19.997   2.508  11.317  0.00  0.00     0.019 C 
ATOM     25  C32 ZIN A   1      19.028   0.205  10.981  0.00  0.00     0.160 C 
ATOM     26  O37 ZIN A   1      17.869  -0.622  11.221  0.00  0.00    -0.334 OA
ENDROOT
BRANCH  25  27
ATOM     27  C33 ZIN A   1      19.441   0.317   9.535  0.00  0.00     0.188 C 
ATOM     28  O34 ZIN A   1      20.531  -0.069   9.187  0.00  0.00    -0.292 OA
BRANCH  27  29
ATOM     29  C35 ZIN A   1      18.493   0.912   8.526  0.00  0.00     0.245 C 
BRANCH  29  30
ATOM     30  O36 ZIN A   1      17.258   0.194   8.552  0.00  0.00    -0.393 OA
ATOM     31  H62 ZIN A   1      17.354  -0.758   8.408  0.00  0.00     0.209 HD
ENDBRANCH  29  30
ENDBRANCH  27  29
ENDBRANCH  25  27
BRANCH  21  32
ATOM     32  O28 ZIN A   1      18.552   4.442  11.718  0.00  0.00    -0.395 OA
ATOM     33  H54 ZIN A   1      18.710   5.231  12.254  0.00  0.00     0.210 HD
ENDBRANCH  21  32
TORSDOF 4
ENDMDL
MODEL 7
REMARK VINA RESULT:      -7.8      1.692      2.288
REMARK  4 active torsions:
REMARK  status: ('A' for Active; 'I' for Inactive)
REMARK    1  A    between atoms: C26_21  and  O28_22 
REMARK    2  A    between atoms: C32_26  and  C33_27 
REMARK    3  A    between atoms: C33_27  and  C35_29 
REMARK    4  A    between atoms: C35_29  and  O36_30 
ROOT
ATOM      1  C1  ZIN A   1      17.604  -5.455   7.612  0.00  0.00     0.078 C 
ATOM      2  C2  ZIN A   1      17.415  -4.640   8.893  0.00  0.00     0.159 C 
ATOM      3  C3  ZIN A   1      16.198  -5.151   9.666  0.00  0.00     0.078 C 
ATOM      4  O4  ZIN A   1      18.593  -4.726   9.712  0.00  0.00    -0.347 OA
ATOM      5  C5  ZIN A   1      19.420  -3.592   9.396  0.00  0.00     0.168 C 
ATOM      6  C7  ZIN A   1      19.528  -2.703  10.658  0.00  0.00     0.041 C 
ATOM      7  C8  ZIN A   1      18.657  -1.485  10.374  0.00  0.00     0.004 C 
ATOM      8  C10 ZIN A   1      19.106  -0.174  10.990  0.00  0.00     0.001 C 
ATOM      9  C12 ZIN A   1      19.132  -0.295  12.516  0.00  0.00     0.047 C 
ATOM     10  C13 ZIN A   1      19.628   1.017  13.130  0.00  0.00     0.200 C 
ATOM     11  F15 ZIN A   1      19.539   0.950  14.524  0.00  0.00    -0.245 F 
ATOM     12  C16 ZIN A   1      18.750   2.142  12.614  0.00  0.00    -0.030 A 
ATOM     13  C17 ZIN A   1      18.196   2.976  13.484  0.00  0.00     0.061 A 
ATOM     14  C18 ZIN A   1      17.322   4.065  13.023  0.00  0.00     0.172 A 
ATOM     15  O19 ZIN A   1      16.842   4.855  13.815  0.00  0.00    -0.289 OA
ATOM     16  C20 ZIN A   1      17.040   4.179  11.581  0.00  0.00     0.052 A 
ATOM     17  C21 ZIN A   1      17.609   3.339  10.730  0.00  0.00    -0.008 A 
ATOM     18  C22 ZIN A   1      18.551   2.256  11.131  0.00  0.00     0.006 A 
ATOM     19  C23 ZIN A   1      19.910   2.560  10.499  0.00  0.00     0.025 C 
ATOM     20  C24 ZIN A   1      18.104   0.909  10.559  0.00  0.00     0.035 C 
ATOM     21  C26 ZIN A   1      18.007   1.010   9.040  0.00  0.00     0.124 C 
ATOM     22  C29 ZIN A   1      17.685  -0.349   8.400  0.00  0.00     0.045 C 
ATOM     23  C30 ZIN A   1      18.749  -1.332   8.834  0.00  0.00     0.004 C 
ATOM     24  C31 ZIN A   1      20.138  -0.797   8.479  0.00  0.00     0.019 C 
ATOM     25  C32 ZIN A   1      18.599  -2.789   8.335  0.00  0.00     0.160 C 
ATOM     26  O37 ZIN A   1      17.248  -3.243   8.572  0.00  0.00    -0.334 OA
ENDROOT
BRANCH  25  27
ATOM     27  C33 ZIN A   1      19.099  -2.987   6.927  0.00  0.00     0.188 C 
ATOM     28  O34 ZIN A   1      19.878  -3.877   6.682  0.00  0.00    -0.292 OA
BRANCH  27  29
ATOM     29  C35 ZIN A   1      18.626  -2.074   5.825  0.00  0.00     0.245 C 
BRANCH  29  30
ATOM     30  O36 ZIN A   1      19.678  -1.890   4.875  0.00  0.00    -0.393 OA
ATOM     31  H62 ZIN A   1      19.437  -1.329   4.125  0.00  0.00     0.209 HD
ENDBRANCH  29  30
ENDBRANCH  27  29
ENDBRANCH  25  27
BRANCH  21  32
ATOM     32  O28 ZIN A   1      19.253   1.483   8.525  0.00  0.00    -0.395 OA
ATOM     33  H54 ZIN A   1      19.483   2.378   8.811  0.00  0.00     0.210 HD
ENDBRANCH  21  32
TORSDOF 4
ENDMDL
MODEL 8
REMARK VINA RESULT:      -7.3      3.857      9.649
REMARK  4 active torsions:
REMARK  status: ('A' for Active; 'I' for Inactive)
REMARK    1  A    between atoms: C26_21  and  O28_22 
REMARK    2  A    between atoms: C32_26  and  C33_27 
REMARK    3  A    between atoms: C33_27  and  C35_29 
REMARK    4  A    between atoms: C35_29  and  O36_30 
ROOT
ATOM      1  C1  ZIN A   1      15.750   7.650  16.438  0.00  0.00     0.078 C 
ATOM      2  C2  ZIN A   1      15.503   6.656  15.301  0.00  0.00     0.159 C 
ATOM      3  C3  ZIN A   1      14.001   6.503  15.054  0.00  0.00     0.078 C 
ATOM      4  O4  ZIN A   1      16.159   7.102  14.103  0.00  0.00    -0.347 OA
ATOM      5  C5  ZIN A   1      17.450   6.468  14.058  0.00  0.00     0.168 C 
ATOM      6  C7  ZIN A   1      17.489   5.533  12.825  0.00  0.00     0.041 C 
ATOM      7  C8  ZIN A   1      17.395   4.118  13.385  0.00  0.00     0.004 C 
ATOM      8  C10 ZIN A   1      18.126   3.036  12.614  0.00  0.00     0.001 C 
ATOM      9  C12 ZIN A   1      17.564   2.937  11.193  0.00  0.00     0.047 C 
ATOM     10  C13 ZIN A   1      18.335   1.873  10.406  0.00  0.00     0.200 C 
ATOM     11  F15 ZIN A   1      17.748   1.698   9.149  0.00  0.00    -0.245 F 
ATOM     12  C16 ZIN A   1      18.276   0.573  11.185  0.00  0.00    -0.030 A 
ATOM     13  C17 ZIN A   1      17.877  -0.530  10.566  0.00  0.00     0.061 A 
ATOM     14  C18 ZIN A   1      17.787  -1.805  11.294  0.00  0.00     0.172 A 
ATOM     15  O19 ZIN A   1      17.457  -2.826  10.721  0.00  0.00    -0.289 OA
ATOM     16  C20 ZIN A   1      18.102  -1.817  12.733  0.00  0.00     0.052 A 
ATOM     17  C21 ZIN A   1      18.504  -0.705  13.329  0.00  0.00    -0.008 A 
ATOM     18  C22 ZIN A   1      18.675   0.601  12.631  0.00  0.00     0.006 A 
ATOM     19  C23 ZIN A   1      20.156   0.978  12.701  0.00  0.00     0.025 C 
ATOM     20  C24 ZIN A   1      17.915   1.710  13.362  0.00  0.00     0.035 C 
ATOM     21  C26 ZIN A   1      18.407   1.796  14.804  0.00  0.00     0.124 C 
ATOM     22  C29 ZIN A   1      17.769   2.977  15.551  0.00  0.00     0.045 C 
ATOM     23  C30 ZIN A   1      18.073   4.238  14.775  0.00  0.00     0.004 C 
ATOM     24  C31 ZIN A   1      19.583   4.381  14.570  0.00  0.00     0.019 C 
ATOM     25  C32 ZIN A   1      17.487   5.559  15.329  0.00  0.00     0.160 C 
ATOM     26  O37 ZIN A   1      16.085   5.376  15.627  0.00  0.00    -0.334 OA
ENDROOT
BRANCH  25  27
ATOM     27  C33 ZIN A   1      18.305   6.145  16.452  0.00  0.00     0.188 C 
ATOM     28  O34 ZIN A   1      19.251   6.853  16.204  0.00  0.00    -0.292 OA
BRANCH  27  29
ATOM     29  C35 ZIN A   1      17.941   5.846  17.883  0.00  0.00     0.245 C 
BRANCH  29  30
ATOM     30  O36 ZIN A   1      17.136   4.666  17.933  0.00  0.00    -0.393 OA
ATOM     31  H62 ZIN A   1      16.267   4.765  17.521  0.00  0.00     0.209 HD
ENDBRANCH  29  30
ENDBRANCH  27  29
ENDBRANCH  25  27
BRANCH  21  32
ATOM     32  O28 ZIN A   1      19.827   1.958  14.803  0.00  0.00    -0.395 OA
ATOM     33  H54 ZIN A   1      20.299   1.287  15.315  0.00  0.00     0.210 HD
ENDBRANCH  21  32
TORSDOF 4
ENDMDL
MODEL 9
REMARK VINA RESULT:      -7.2      3.356      8.315
REMARK  4 active torsions:
REMARK  status: ('A' for Active; 'I' for Inactive)
REMARK    1  A    between atoms: C26_21  and  O28_22 
REMARK    2  A    between atoms: C32_26  and  C33_27 
REMARK    3  A    between atoms: C33_27  and  C35_29 
REMARK    4  A    between atoms: C35_29  and  O36_30 
ROOT
ATOM      1  C1  ZIN A   1      17.131   5.528  16.044  0.00  0.00     0.078 C 
ATOM      2  C2  ZIN A   1      16.912   5.218  14.562  0.00  0.00     0.159 C 
ATOM      3  C3  ZIN A   1      15.540   5.725  14.116  0.00  0.00     0.078 C 
ATOM      4  O4  ZIN A   1      17.946   5.827  13.771  0.00  0.00    -0.347 OA
ATOM      5  C5  ZIN A   1      18.978   4.844  13.580  0.00  0.00     0.168 C 
ATOM      6  C7  ZIN A   1      19.065   4.518  12.069  0.00  0.00     0.041 C 
ATOM      7  C8  ZIN A   1      18.444   3.134  11.915  0.00  0.00     0.004 C 
ATOM      8  C10 ZIN A   1      19.015   2.255  10.819  0.00  0.00     0.001 C 
ATOM      9  C12 ZIN A   1      18.824   2.928   9.458  0.00  0.00     0.047 C 
ATOM     10  C13 ZIN A   1      19.441   2.056   8.360  0.00  0.00     0.200 C 
ATOM     11  F15 ZIN A   1      19.165   2.609   7.106  0.00  0.00    -0.245 F 
ATOM     12  C16 ZIN A   1      18.829   0.671   8.456  0.00  0.00    -0.030 A 
ATOM     13  C17 ZIN A   1      18.309   0.121   7.367  0.00  0.00     0.061 A 
ATOM     14  C18 ZIN A   1      17.688  -1.211   7.426  0.00  0.00     0.172 A 
ATOM     15  O19 ZIN A   1      17.244  -1.734   6.422  0.00  0.00    -0.289 OA
ATOM     16  C20 ZIN A   1      17.616  -1.896   8.728  0.00  0.00     0.052 A 
ATOM     17  C21 ZIN A   1      18.147  -1.331   9.801  0.00  0.00    -0.008 A 
ATOM     18  C22 ZIN A   1      18.843  -0.014   9.791  0.00  0.00     0.006 A 
ATOM     19  C23 ZIN A   1      20.303  -0.254  10.179  0.00  0.00     0.025 C 
ATOM     20  C24 ZIN A   1      18.263   0.915  10.860  0.00  0.00     0.035 C 
ATOM     21  C26 ZIN A   1      18.380   0.248  12.228  0.00  0.00     0.124 C 
ATOM     22  C29 ZIN A   1      17.929   1.187  13.357  0.00  0.00     0.045 C 
ATOM     23  C30 ZIN A   1      18.757   2.450  13.272  0.00  0.00     0.004 C 
ATOM     24  C31 ZIN A   1      20.247   2.108  13.313  0.00  0.00     0.019 C 
ATOM     25  C32 ZIN A   1      18.440   3.564  14.298  0.00  0.00     0.160 C 
ATOM     26  O37 ZIN A   1      17.015   3.796  14.332  0.00  0.00    -0.334 OA
ENDROOT
BRANCH  25  27
ATOM     27  C33 ZIN A   1      19.078   3.328  15.644  0.00  0.00     0.188 C 
ATOM     28  O34 ZIN A   1      19.988   4.032  16.012  0.00  0.00    -0.292 OA
BRANCH  27  29
ATOM     29  C35 ZIN A   1      18.582   2.213  16.527  0.00  0.00     0.245 C 
BRANCH  29  30
ATOM     30  O36 ZIN A   1      19.499   2.016  17.605  0.00  0.00    -0.393 OA
ATOM     31  H62 ZIN A   1      20.423   2.173  17.369  0.00  0.00     0.209 HD
ENDBRANCH  29  30
ENDBRANCH  27  29
ENDBRANCH  25  27
BRANCH  21  32
ATOM     32  O28 ZIN A   1      19.742  -0.124  12.449  0.00  0.00    -0.395 OA
ATOM     33  H54 ZIN A   1      20.305  -0.040  11.667  0.00  0.00     0.210 HD
ENDBRANCH  21  32
TORSDOF 4
ENDMDL
