MODEL 1
REMARK VINA RESULT:      -9.1      0.000      0.000
REMARK  4 active torsions:
REMARK  status: ('A' for Active; 'I' for Inactive)
REMARK    1  A    between atoms: N11_10  and  N12_11 
REMARK       I    between atoms: N12_11  and  C13_12 
REMARK    2  A    between atoms: C13_12  and  C15_14 
REMARK    3  A    between atoms: C20_19  and  S21_20 
REMARK    4  A    between atoms: S21_20  and  N22_21 
ROOT
ATOM      1  N12 ZIN A   1      18.396   1.014  11.958  0.00  0.00    -0.263 N 
ATOM      2  C13 ZIN A   1      19.402   0.589  12.749  0.00  0.00     0.270 C 
ATOM      3  O14 ZIN A   1      20.500   0.377  12.274  0.00  0.00    -0.266 OA
ATOM      4  H35 ZIN A   1      17.520   1.184  12.336  0.00  0.00     0.190 HD
ENDROOT
BRANCH   2   5
ATOM      5  C15 ZIN A   1      19.168   0.382  14.194  0.00  0.00     0.035 A 
ATOM      6  C25 ZIN A   1      19.308   1.447  15.086  0.00  0.00     0.044 A 
ATOM      7  C20 ZIN A   1      19.083   1.248  16.432  0.00  0.00     0.102 A 
ATOM      8  C18 ZIN A   1      18.729  -0.007  16.900  0.00  0.00     0.057 A 
ATOM      9  C17 ZIN A   1      18.595  -1.068  16.020  0.00  0.00     0.026 A 
ATOM     10 Cl19 ZIN A   1      18.454  -0.250  18.597  0.00  0.00    -0.083 Cl
ATOM     11  C16 ZIN A   1      18.811  -0.881  14.671  0.00  0.00     0.019 A 
BRANCH   7  12
ATOM     12  S21 ZIN A   1      19.253   2.592  17.559  0.00  0.00     0.258 S 
ATOM     13  O23 ZIN A   1      19.758   2.040  18.767  0.00  0.00    -0.201 OA
ATOM     14  O24 ZIN A   1      19.907   3.633  16.847  0.00  0.00    -0.201 OA
BRANCH  12  15
ATOM     15  N22 ZIN A   1      17.729   3.142  17.898  0.00  0.00    -0.324 N 
ATOM     16  H38 ZIN A   1      17.586   4.078  18.107  0.00  0.00     0.169 HD
ATOM     17  H39 ZIN A   1      16.978   2.527  17.888  0.00  0.00     0.169 HD
ENDBRANCH  12  15
ENDBRANCH   7  12
ENDBRANCH   2   5
BRANCH   1  18
ATOM     18  N11 ZIN A   1      18.618   1.211  10.588  0.00  0.00    -0.284 N 
ATOM     19  C2  ZIN A   1      19.054   2.469   9.978  0.00  0.00     0.109 A 
ATOM     20  C1  ZIN A   1      18.025   3.570  10.237  0.00  0.00     0.034 C 
ATOM     21  C4  ZIN A   1      19.153   2.176   8.472  0.00  0.00     0.067 A 
ATOM     22  C5  ZIN A   1      18.750   0.724   8.340  0.00  0.00    -0.028 A 
ATOM     23  C10 ZIN A   1      18.455   0.233   9.602  0.00  0.00     0.057 A 
ATOM     24  C6  ZIN A   1      18.650  -0.092   7.230  0.00  0.00     0.009 A 
ATOM     25  C9  ZIN A   1      18.055  -1.098   9.735  0.00  0.00     0.031 A 
ATOM     26  C8  ZIN A   1      17.955  -1.908   8.624  0.00  0.00     0.002 A 
ATOM     27  C7  ZIN A   1      18.253  -1.409   7.370  0.00  0.00     0.001 A 
ENDBRANCH   1  18
TORSDOF 4
ENDMDL
MODEL 2
REMARK VINA RESULT:      -8.8      1.550      2.682
REMARK  4 active torsions:
REMARK  status: ('A' for Active; 'I' for Inactive)
REMARK    1  A    between atoms: N11_10  and  N12_11 
REMARK       I    between atoms: N12_11  and  C13_12 
REMARK    2  A    between atoms: C13_12  and  C15_14 
REMARK    3  A    between atoms: C20_19  and  S21_20 
REMARK    4  A    between atoms: S21_20  and  N22_21 
ROOT
ATOM      1  N12 ZIN A   1      18.934  -0.900  11.923  0.00  0.00    -0.263 N 
ATOM      2  C13 ZIN A   1      17.961  -0.541  12.784  0.00  0.00     0.270 C 
ATOM      3  O14 ZIN A   1      16.821  -0.396  12.387  0.00  0.00    -0.266 OA
ATOM      4  H35 ZIN A   1      19.843  -1.016  12.239  0.00  0.00     0.190 HD
ENDROOT
BRANCH   2   5
ATOM      5  C15 ZIN A   1      18.280  -0.325  14.211  0.00  0.00     0.035 A 
ATOM      6  C25 ZIN A   1      18.332   0.971  14.729  0.00  0.00     0.044 A 
ATOM      7  C20 ZIN A   1      18.625   1.166  16.062  0.00  0.00     0.102 A 
ATOM      8  C18 ZIN A   1      18.877   0.081  16.885  0.00  0.00     0.057 A 
ATOM      9  C17 ZIN A   1      18.833  -1.207  16.375  0.00  0.00     0.026 A 
ATOM     10 Cl19 ZIN A   1      19.251   0.335  18.561  0.00  0.00    -0.083 Cl
ATOM     11  C16 ZIN A   1      18.536  -1.415  15.045  0.00  0.00     0.019 A 
BRANCH   7  12
ATOM     12  S21 ZIN A   1      18.685   2.800  16.719  0.00  0.00     0.258 S 
ATOM     13  O23 ZIN A   1      17.838   2.805  17.860  0.00  0.00    -0.201 OA
ATOM     14  O24 ZIN A   1      20.058   3.163  16.768  0.00  0.00    -0.201 OA
BRANCH  12  15
ATOM     15  N22 ZIN A   1      17.976   3.801  15.606  0.00  0.00    -0.324 N 
ATOM     16  H38 ZIN A   1      17.370   4.500  15.898  0.00  0.00     0.169 HD
ATOM     17  H39 ZIN A   1      18.168   3.688  14.662  0.00  0.00     0.169 HD
ENDBRANCH  12  15
ENDBRANCH   7  12
ENDBRANCH   2   5
BRANCH   1  18
ATOM     18  N11 ZIN A   1      18.631  -1.105  10.570  0.00  0.00    -0.284 N 
ATOM     19  C2  ZIN A   1      18.117  -2.354  10.002  0.00  0.00     0.109 A 
ATOM     20  C1  ZIN A   1      19.119  -3.489  10.222  0.00  0.00     0.034 C 
ATOM     21  C4  ZIN A   1      17.947  -2.076   8.500  0.00  0.00     0.067 A 
ATOM     22  C5  ZIN A   1      18.394  -0.642   8.326  0.00  0.00    -0.028 A 
ATOM     23  C10 ZIN A   1      18.775  -0.146   9.563  0.00  0.00     0.057 A 
ATOM     24  C6  ZIN A   1      18.462   0.155   7.200  0.00  0.00     0.009 A 
ATOM     25  C9  ZIN A   1      19.229   1.171   9.654  0.00  0.00     0.031 A 
ATOM     26  C8  ZIN A   1      19.296   1.963   8.528  0.00  0.00     0.002 A 
ATOM     27  C7  ZIN A   1      18.913   1.459   7.299  0.00  0.00     0.001 A 
ENDBRANCH   1  18
TORSDOF 4
ENDMDL
MODEL 3
REMARK VINA RESULT:      -8.8      4.806      8.253
REMARK  4 active torsions:
REMARK  status: ('A' for Active; 'I' for Inactive)
REMARK    1  A    between atoms: N11_10  and  N12_11 
REMARK       I    between atoms: N12_11  and  C13_12 
REMARK    2  A    between atoms: C13_12  and  C15_14 
REMARK    3  A    between atoms: C20_19  and  S21_20 
REMARK    4  A    between atoms: S21_20  and  N22_21 
ROOT
ATOM      1  N12 ZIN A   1      19.053   1.303  11.094  0.00  0.00    -0.263 N 
ATOM      2  C13 ZIN A   1      18.088   0.880  10.253  0.00  0.00     0.270 C 
ATOM      3  O14 ZIN A   1      16.953   0.729  10.658  0.00  0.00    -0.266 OA
ATOM      4  H35 ZIN A   1      19.959   1.424  10.772  0.00  0.00     0.190 HD
ENDROOT
BRANCH   2   5
ATOM      5  C15 ZIN A   1      18.413   0.601   8.838  0.00  0.00     0.035 A 
ATOM      6  C25 ZIN A   1      18.392  -0.712   8.361  0.00  0.00     0.044 A 
ATOM      7  C20 ZIN A   1      18.690  -0.966   7.038  0.00  0.00     0.102 A 
ATOM      8  C18 ZIN A   1      19.018   0.077   6.187  0.00  0.00     0.057 A 
ATOM      9  C17 ZIN A   1      19.046   1.380   6.657  0.00  0.00     0.026 A 
ATOM     10 Cl19 ZIN A   1      19.398  -0.251   4.525  0.00  0.00    -0.083 Cl
ATOM     11  C16 ZIN A   1      18.745   1.647   7.975  0.00  0.00     0.019 A 
BRANCH   7  12
ATOM     12  S21 ZIN A   1      18.659  -2.620   6.432  0.00  0.00     0.258 S 
ATOM     13  O23 ZIN A   1      17.770  -2.624   5.324  0.00  0.00    -0.201 OA
ATOM     14  O24 ZIN A   1      20.013  -3.040   6.345  0.00  0.00    -0.201 OA
BRANCH  12  15
ATOM     15  N22 ZIN A   1      17.953  -3.556   7.601  0.00  0.00    -0.324 N 
ATOM     16  H38 ZIN A   1      17.369  -3.151   8.261  0.00  0.00     0.169 HD
ATOM     17  H39 ZIN A   1      18.124  -4.511   7.626  0.00  0.00     0.169 HD
ENDBRANCH  12  15
ENDBRANCH   7  12
ENDBRANCH   2   5
BRANCH   1  18
ATOM     18  N11 ZIN A   1      18.746   1.569  12.436  0.00  0.00    -0.284 N 
ATOM     19  C2  ZIN A   1      18.246   2.847  12.948  0.00  0.00     0.109 A 
ATOM     20  C1  ZIN A   1      19.265   3.958  12.688  0.00  0.00     0.034 C 
ATOM     21  C4  ZIN A   1      18.063   2.634  14.460  0.00  0.00     0.067 A 
ATOM     22  C5  ZIN A   1      18.489   1.202  14.696  0.00  0.00    -0.028 A 
ATOM     23  C10 ZIN A   1      18.870   0.650  13.483  0.00  0.00     0.057 A 
ATOM     24  C6  ZIN A   1      18.540   0.451  15.853  0.00  0.00     0.009 A 
ATOM     25  C9  ZIN A   1      19.307  -0.675  13.448  0.00  0.00     0.031 A 
ATOM     26  C8  ZIN A   1      19.357  -1.421  14.606  0.00  0.00     0.002 A 
ATOM     27  C7  ZIN A   1      18.974  -0.861  15.812  0.00  0.00     0.001 A 
ENDBRANCH   1  18
TORSDOF 4
ENDMDL
MODEL 4
REMARK VINA RESULT:      -8.6      4.950      8.316
REMARK  4 active torsions:
REMARK  status: ('A' for Active; 'I' for Inactive)
REMARK    1  A    between atoms: N11_10  and  N12_11 
REMARK       I    between atoms: N12_11  and  C13_12 
REMARK    2  A    between atoms: C13_12  and  C15_14 
REMARK    3  A    between atoms: C20_19  and  S21_20 
REMARK    4  A    between atoms: S21_20  and  N22_21 
ROOT
ATOM      1  N12 ZIN A   1      18.060   1.083  10.484  0.00  0.00    -0.263 N 
ATOM      2  C13 ZIN A   1      19.015   1.332   9.565  0.00  0.00     0.270 C 
ATOM      3  O14 ZIN A   1      19.861   2.177   9.781  0.00  0.00    -0.266 OA
ATOM      4  H35 ZIN A   1      17.386   0.409  10.312  0.00  0.00     0.190 HD
ENDROOT
BRANCH   2   5
ATOM      5  C15 ZIN A   1      19.033   0.576   8.295  0.00  0.00     0.035 A 
ATOM      6  C25 ZIN A   1      19.141  -0.816   8.310  0.00  0.00     0.044 A 
ATOM      7  C20 ZIN A   1      19.151  -1.517   7.122  0.00  0.00     0.102 A 
ATOM      8  C18 ZIN A   1      19.065  -0.841   5.916  0.00  0.00     0.057 A 
ATOM      9  C17 ZIN A   1      18.965   0.541   5.895  0.00  0.00     0.026 A 
ATOM     10 Cl19 ZIN A   1      19.086  -1.729   4.424  0.00  0.00    -0.083 Cl
ATOM     11  C16 ZIN A   1      18.947   1.252   7.076  0.00  0.00     0.019 A 
BRANCH   7  12
ATOM     12  S21 ZIN A   1      19.281  -3.274   7.138  0.00  0.00     0.258 S 
ATOM     13  O23 ZIN A   1      18.003  -3.774   6.769  0.00  0.00    -0.201 OA
ATOM     14  O24 ZIN A   1      20.474  -3.594   6.436  0.00  0.00    -0.201 OA
BRANCH  12  15
ATOM     15  N22 ZIN A   1      19.525  -3.732   8.711  0.00  0.00    -0.324 N 
ATOM     16  H38 ZIN A   1      18.789  -3.713   9.342  0.00  0.00     0.169 HD
ATOM     17  H39 ZIN A   1      20.406  -4.019   9.000  0.00  0.00     0.169 HD
ENDBRANCH  12  15
ENDBRANCH   7  12
ENDBRANCH   2   5
BRANCH   1  18
ATOM     18  N11 ZIN A   1      18.043   1.800  11.688  0.00  0.00    -0.284 N 
ATOM     19  C2  ZIN A   1      18.480   1.278  12.985  0.00  0.00     0.109 A 
ATOM     20  C1  ZIN A   1      17.628   0.072  13.386  0.00  0.00     0.034 C 
ATOM     21  C4  ZIN A   1      18.271   2.433  13.978  0.00  0.00     0.067 A 
ATOM     22  C5  ZIN A   1      17.711   3.559  13.138  0.00  0.00    -0.028 A 
ATOM     23  C10 ZIN A   1      17.607   3.121  11.827  0.00  0.00     0.057 A 
ATOM     24  C6  ZIN A   1      17.329   4.841  13.481  0.00  0.00     0.009 A 
ATOM     25  C9  ZIN A   1      17.111   3.995  10.858  0.00  0.00     0.031 A 
ATOM     26  C8  ZIN A   1      16.730   5.274  11.204  0.00  0.00     0.002 A 
ATOM     27  C7  ZIN A   1      16.838   5.701  12.515  0.00  0.00     0.001 A 
ENDBRANCH   1  18
TORSDOF 4
ENDMDL
MODEL 5
REMARK VINA RESULT:      -8.5      2.605      3.664
REMARK  4 active torsions:
REMARK  status: ('A' for Active; 'I' for Inactive)
REMARK    1  A    between atoms: N11_10  and  N12_11 
REMARK       I    between atoms: N12_11  and  C13_12 
REMARK    2  A    between atoms: C13_12  and  C15_14 
REMARK    3  A    between atoms: C20_19  and  S21_20 
REMARK    4  A    between atoms: S21_20  and  N22_21 
ROOT
ATOM      1  N12 ZIN A   1      19.209   1.153  11.030  0.00  0.00    -0.263 N 
ATOM      2  C13 ZIN A   1      18.305   1.939  11.649  0.00  0.00     0.270 C 
ATOM      3  O14 ZIN A   1      17.120   1.799  11.419  0.00  0.00    -0.266 OA
ATOM      4  H35 ZIN A   1      20.155   1.264  11.214  0.00  0.00     0.190 HD
ENDROOT
BRANCH   2   5
ATOM      5  C15 ZIN A   1      18.756   2.970  12.607  0.00  0.00     0.035 A 
ATOM      6  C25 ZIN A   1      18.562   2.786  13.978  0.00  0.00     0.044 A 
ATOM      7  C20 ZIN A   1      18.990   3.749  14.867  0.00  0.00     0.102 A 
ATOM      8  C18 ZIN A   1      19.602   4.902  14.402  0.00  0.00     0.057 A 
ATOM      9  C17 ZIN A   1      19.791   5.093  13.043  0.00  0.00     0.026 A 
ATOM     10 Cl19 ZIN A   1      20.132   6.113  15.527  0.00  0.00    -0.083 Cl
ATOM     11  C16 ZIN A   1      19.372   4.134  12.145  0.00  0.00     0.019 A 
BRANCH   7  12
ATOM     12  S21 ZIN A   1      18.753   3.516  16.597  0.00  0.00     0.258 S 
ATOM     13  O23 ZIN A   1      20.045   3.334  17.158  0.00  0.00    -0.201 OA
ATOM     14  O24 ZIN A   1      17.858   4.536  17.020  0.00  0.00    -0.201 OA
BRANCH  12  15
ATOM     15  N22 ZIN A   1      17.952   2.080  16.792  0.00  0.00    -0.324 N 
ATOM     16  H38 ZIN A   1      17.068   1.961  16.411  0.00  0.00     0.169 HD
ATOM     17  H39 ZIN A   1      18.368   1.357  17.288  0.00  0.00     0.169 HD
ENDBRANCH  12  15
ENDBRANCH   7  12
ENDBRANCH   2   5
BRANCH   1  18
ATOM     18  N11 ZIN A   1      18.782   0.175  10.122  0.00  0.00    -0.284 N 
ATOM     19  C2  ZIN A   1      18.335  -1.173  10.484  0.00  0.00     0.109 A 
ATOM     20  C1  ZIN A   1      19.462  -1.937  11.181  0.00  0.00     0.034 C 
ATOM     21  C4  ZIN A   1      17.974  -1.851   9.152  0.00  0.00     0.067 A 
ATOM     22  C5  ZIN A   1      18.256  -0.800   8.102  0.00  0.00    -0.028 A 
ATOM     23  C10 ZIN A   1      18.719   0.343   8.736  0.00  0.00     0.057 A 
ATOM     24  C6  ZIN A   1      18.121  -0.833   6.728  0.00  0.00     0.009 A 
ATOM     25  C9  ZIN A   1      19.048   1.459   7.964  0.00  0.00     0.031 A 
ATOM     26  C8  ZIN A   1      18.914   1.421   6.593  0.00  0.00     0.002 A 
ATOM     27  C7  ZIN A   1      18.450   0.277   5.971  0.00  0.00     0.001 A 
ENDBRANCH   1  18
TORSDOF 4
ENDMDL
MODEL 6
REMARK VINA RESULT:      -8.3      4.924      8.217
REMARK  4 active torsions:
REMARK  status: ('A' for Active; 'I' for Inactive)
REMARK    1  A    between atoms: N11_10  and  N12_11 
REMARK       I    between atoms: N12_11  and  C13_12 
REMARK    2  A    between atoms: C13_12  and  C15_14 
REMARK    3  A    between atoms: C20_19  and  S21_20 
REMARK    4  A    between atoms: S21_20  and  N22_21 
ROOT
ATOM      1  N12 ZIN A   1      19.083  -0.990  12.003  0.00  0.00    -0.263 N 
ATOM      2  C13 ZIN A   1      18.182  -1.791  11.398  0.00  0.00     0.270 C 
ATOM      3  O14 ZIN A   1      17.006  -1.716  11.695  0.00  0.00    -0.266 OA
ATOM      4  H35 ZIN A   1      20.021  -1.050  11.766  0.00  0.00     0.190 HD
ENDROOT
BRANCH   2   5
ATOM      5  C15 ZIN A   1      18.626  -2.760  10.374  0.00  0.00     0.035 A 
ATOM      6  C25 ZIN A   1      18.440  -2.482   9.018  0.00  0.00     0.044 A 
ATOM      7  C20 ZIN A   1      18.862  -3.387   8.068  0.00  0.00     0.102 A 
ATOM      8  C18 ZIN A   1      19.458  -4.576   8.456  0.00  0.00     0.057 A 
ATOM      9  C17 ZIN A   1      19.639  -4.860   9.799  0.00  0.00     0.026 A 
ATOM     10 Cl19 ZIN A   1      19.980  -5.715   7.253  0.00  0.00    -0.083 Cl
ATOM     11  C16 ZIN A   1      19.227  -3.960  10.759  0.00  0.00     0.019 A 
BRANCH   7  12
ATOM     12  S21 ZIN A   1      18.635  -3.035   6.356  0.00  0.00     0.258 S 
ATOM     13  O23 ZIN A   1      19.925  -2.759   5.829  0.00  0.00    -0.201 OA
ATOM     14  O24 ZIN A   1      17.788  -4.056   5.846  0.00  0.00    -0.201 OA
BRANCH  12  15
ATOM     15  N22 ZIN A   1      17.777  -1.622   6.257  0.00  0.00    -0.324 N 
ATOM     16  H38 ZIN A   1      18.030  -0.945   5.611  0.00  0.00     0.169 HD
ATOM     17  H39 ZIN A   1      17.020  -1.473   6.846  0.00  0.00     0.169 HD
ENDBRANCH  12  15
ENDBRANCH   7  12
ENDBRANCH   2   5
BRANCH   1  18
ATOM     18  N11 ZIN A   1      18.662  -0.071  12.973  0.00  0.00    -0.284 N 
ATOM     19  C2  ZIN A   1      18.227   1.301  12.701  0.00  0.00     0.109 A 
ATOM     20  C1  ZIN A   1      19.361   2.101  12.058  0.00  0.00     0.034 C 
ATOM     21  C4  ZIN A   1      17.870   1.893  14.075  0.00  0.00     0.067 A 
ATOM     22  C5  ZIN A   1      18.141   0.772  15.053  0.00  0.00    -0.028 A 
ATOM     23  C10 ZIN A   1      18.596  -0.330  14.346  0.00  0.00     0.057 A 
ATOM     24  C6  ZIN A   1      18.005   0.715  16.426  0.00  0.00     0.009 A 
ATOM     25  C9  ZIN A   1      18.915  -1.498  15.042  0.00  0.00     0.031 A 
ATOM     26  C8  ZIN A   1      18.779  -1.549  16.412  0.00  0.00     0.002 A 
ATOM     27  C7  ZIN A   1      18.324  -0.445  17.109  0.00  0.00     0.001 A 
ENDBRANCH   1  18
TORSDOF 4
ENDMDL
MODEL 7
REMARK VINA RESULT:      -8.3      2.041      3.206
REMARK  4 active torsions:
REMARK  status: ('A' for Active; 'I' for Inactive)
REMARK    1  A    between atoms: N11_10  and  N12_11 
REMARK       I    between atoms: N12_11  and  C13_12 
REMARK    2  A    between atoms: C13_12  and  C15_14 
REMARK    3  A    between atoms: C20_19  and  S21_20 
REMARK    4  A    between atoms: S21_20  and  N22_21 
ROOT
ATOM      1  N12 ZIN A   1      18.863   0.227  11.888  0.00  0.00    -0.263 N 
ATOM      2  C13 ZIN A   1      17.889   0.946  12.481  0.00  0.00     0.270 C 
ATOM      3  O14 ZIN A   1      16.784   1.002  11.979  0.00  0.00    -0.266 OA
ATOM      4  H35 ZIN A   1      19.745   0.181  12.288  0.00  0.00     0.190 HD
ENDROOT
BRANCH   2   5
ATOM      5  C15 ZIN A   1      18.166   1.667  13.741  0.00  0.00     0.035 A 
ATOM      6  C25 ZIN A   1      18.258   0.964  14.945  0.00  0.00     0.044 A 
ATOM      7  C20 ZIN A   1      18.522   1.641  16.116  0.00  0.00     0.102 A 
ATOM      8  C18 ZIN A   1      18.687   3.017  16.102  0.00  0.00     0.057 A 
ATOM      9  C17 ZIN A   1      18.591   3.720  14.913  0.00  0.00     0.026 A 
ATOM     10 Cl19 ZIN A   1      19.014   3.863  17.583  0.00  0.00    -0.083 Cl
ATOM     11  C16 ZIN A   1      18.333   3.053  13.733  0.00  0.00     0.019 A 
BRANCH   7  12
ATOM     12  S21 ZIN A   1      18.644   0.756  17.635  0.00  0.00     0.258 S 
ATOM     13  O23 ZIN A   1      19.876   1.144  18.227  0.00  0.00    -0.201 OA
ATOM     14  O24 ZIN A   1      17.389   0.900  18.285  0.00  0.00    -0.201 OA
BRANCH  12  15
ATOM     15  N22 ZIN A   1      18.793  -0.849  17.255  0.00  0.00    -0.324 N 
ATOM     16  H38 ZIN A   1      18.701  -1.140  16.335  0.00  0.00     0.169 HD
ATOM     17  H39 ZIN A   1      18.972  -1.497  17.954  0.00  0.00     0.169 HD
ENDBRANCH  12  15
ENDBRANCH   7  12
ENDBRANCH   2   5
BRANCH   1  18
ATOM     18  N11 ZIN A   1      18.600  -0.457  10.693  0.00  0.00    -0.284 N 
ATOM     19  C2  ZIN A   1      18.202  -1.864  10.597  0.00  0.00     0.109 A 
ATOM     20  C1  ZIN A   1      19.293  -2.765  11.179  0.00  0.00     0.034 C 
ATOM     21  C4  ZIN A   1      18.033  -2.135   9.093  0.00  0.00     0.067 A 
ATOM     22  C5  ZIN A   1      18.360  -0.816   8.430  0.00  0.00    -0.028 A 
ATOM     23  C10 ZIN A   1      18.678   0.106   9.415  0.00  0.00     0.057 A 
ATOM     24  C6  ZIN A   1      18.378  -0.452   7.098  0.00  0.00     0.009 A 
ATOM     25  C9  ZIN A   1      19.018   1.407   9.041  0.00  0.00     0.031 A 
ATOM     26  C8  ZIN A   1      19.036   1.766   7.711  0.00  0.00     0.002 A 
ATOM     27  C7  ZIN A   1      18.716   0.840   6.736  0.00  0.00     0.001 A 
ENDBRANCH   1  18
TORSDOF 4
ENDMDL
MODEL 8
REMARK VINA RESULT:      -8.2      4.875      8.589
REMARK  4 active torsions:
REMARK  status: ('A' for Active; 'I' for Inactive)
REMARK    1  A    between atoms: N11_10  and  N12_11 
REMARK       I    between atoms: N12_11  and  C13_12 
REMARK    2  A    between atoms: C13_12  and  C15_14 
REMARK    3  A    between atoms: C20_19  and  S21_20 
REMARK    4  A    between atoms: S21_20  and  N22_21 
ROOT
ATOM      1  N12 ZIN A   1      19.582   0.237  11.200  0.00  0.00    -0.263 N 
ATOM      2  C13 ZIN A   1      18.495   0.263  10.403  0.00  0.00     0.270 C 
ATOM      3  O14 ZIN A   1      17.384   0.320  10.892  0.00  0.00    -0.266 OA
ATOM      4  H35 ZIN A   1      20.469   0.192  10.811  0.00  0.00     0.190 HD
ENDROOT
BRANCH   2   5
ATOM      5  C15 ZIN A   1      18.655   0.222   8.935  0.00  0.00     0.035 A 
ATOM      6  C25 ZIN A   1      18.596  -0.997   8.256  0.00  0.00     0.044 A 
ATOM      7  C20 ZIN A   1      18.740  -1.027   6.885  0.00  0.00     0.102 A 
ATOM      8  C18 ZIN A   1      18.954   0.147   6.182  0.00  0.00     0.057 A 
ATOM      9  C17 ZIN A   1      19.020   1.359   6.850  0.00  0.00     0.026 A 
ATOM     10 Cl19 ZIN A   1      19.141   0.100   4.457  0.00  0.00    -0.083 Cl
ATOM     11  C16 ZIN A   1      18.871   1.403   8.220  0.00  0.00     0.019 A 
BRANCH   7  12
ATOM     12  S21 ZIN A   1      18.659  -2.564   6.027  0.00  0.00     0.258 S 
ATOM     13  O23 ZIN A   1      17.749  -2.376   4.953  0.00  0.00    -0.201 OA
ATOM     14  O24 ZIN A   1      20.002  -2.992   5.843  0.00  0.00    -0.201 OA
BRANCH  12  15
ATOM     15  N22 ZIN A   1      17.955  -3.659   7.050  0.00  0.00    -0.324 N 
ATOM     16  H38 ZIN A   1      18.099  -4.609   6.917  0.00  0.00     0.169 HD
ATOM     17  H39 ZIN A   1      17.399  -3.350   7.782  0.00  0.00     0.169 HD
ENDBRANCH  12  15
ENDBRANCH   7  12
ENDBRANCH   2   5
BRANCH   1  18
ATOM     18  N11 ZIN A   1      19.430   0.276  12.593  0.00  0.00    -0.284 N 
ATOM     19  C2  ZIN A   1      19.538  -0.882  13.485  0.00  0.00     0.109 A 
ATOM     20  C1  ZIN A   1      18.473  -1.923  13.134  0.00  0.00     0.034 C 
ATOM     21  C4  ZIN A   1      19.297  -0.328  14.899  0.00  0.00     0.067 A 
ATOM     22  C5  ZIN A   1      19.062   1.152  14.692  0.00  0.00    -0.028 A 
ATOM     23  C10 ZIN A   1      19.154   1.427  13.337  0.00  0.00     0.057 A 
ATOM     24  C6  ZIN A   1      18.795   2.161  15.596  0.00  0.00     0.009 A 
ATOM     25  C9  ZIN A   1      18.972   2.740  12.899  0.00  0.00     0.031 A 
ATOM     26  C8  ZIN A   1      18.705   3.745  13.804  0.00  0.00     0.002 A 
ATOM     27  C7  ZIN A   1      18.616   3.460  15.154  0.00  0.00     0.001 A 
ENDBRANCH   1  18
TORSDOF 4
ENDMDL
MODEL 9
REMARK VINA RESULT:      -8.2      4.601      7.509
REMARK  4 active torsions:
REMARK  status: ('A' for Active; 'I' for Inactive)
REMARK    1  A    between atoms: N11_10  and  N12_11 
REMARK       I    between atoms: N12_11  and  C13_12 
REMARK    2  A    between atoms: C13_12  and  C15_14 
REMARK    3  A    between atoms: C20_19  and  S21_20 
REMARK    4  A    between atoms: S21_20  and  N22_21 
ROOT
ATOM      1  N12 ZIN A   1      19.132  -0.151  12.083  0.00  0.00    -0.263 N 
ATOM      2  C13 ZIN A   1      18.198  -1.026  11.658  0.00  0.00     0.270 C 
ATOM      3  O14 ZIN A   1      17.020  -0.795  11.844  0.00  0.00    -0.266 OA
ATOM      4  H35 ZIN A   1      20.072  -0.335  11.936  0.00  0.00     0.190 HD
ENDROOT
BRANCH   2   5
ATOM      5  C15 ZIN A   1      18.609  -2.266  10.967  0.00  0.00     0.035 A 
ATOM      6  C25 ZIN A   1      18.529  -2.353   9.575  0.00  0.00     0.044 A 
ATOM      7  C20 ZIN A   1      18.919  -3.510   8.936  0.00  0.00     0.102 A 
ATOM      8  C18 ZIN A   1      19.380  -4.589   9.672  0.00  0.00     0.057 A 
ATOM      9  C17 ZIN A   1      19.456  -4.512  11.053  0.00  0.00     0.026 A 
ATOM     10 Cl19 ZIN A   1      19.864  -6.046   8.860  0.00  0.00    -0.083 Cl
ATOM     11  C16 ZIN A   1      19.075  -3.358  11.703  0.00  0.00     0.019 A 
BRANCH   7  12
ATOM     12  S21 ZIN A   1      18.824  -3.619   7.179  0.00  0.00     0.258 S 
ATOM     13  O23 ZIN A   1      20.163  -3.609   6.704  0.00  0.00    -0.201 OA
ATOM     14  O24 ZIN A   1      17.904  -4.663   6.892  0.00  0.00    -0.201 OA
BRANCH  12  15
ATOM     15  N22 ZIN A   1      18.126  -2.218   6.640  0.00  0.00    -0.324 N 
ATOM     16  H38 ZIN A   1      17.696  -2.193   5.771  0.00  0.00     0.169 HD
ATOM     17  H39 ZIN A   1      18.148  -1.421   7.193  0.00  0.00     0.169 HD
ENDBRANCH  12  15
ENDBRANCH   7  12
ENDBRANCH   2   5
BRANCH   1  18
ATOM     18  N11 ZIN A   1      18.742   1.025  12.739  0.00  0.00    -0.284 N 
ATOM     19  C2  ZIN A   1      18.719   1.211  14.192  0.00  0.00     0.109 A 
ATOM     20  C1  ZIN A   1      17.750   0.218  14.839  0.00  0.00     0.034 C 
ATOM     21  C4  ZIN A   1      18.228   2.652  14.408  0.00  0.00     0.067 A 
ATOM     22  C5  ZIN A   1      18.002   3.190  13.012  0.00  0.00    -0.028 A 
ATOM     23  C10 ZIN A   1      18.320   2.195  12.101  0.00  0.00     0.057 A 
ATOM     24  C6  ZIN A   1      17.564   4.425  12.577  0.00  0.00     0.009 A 
ATOM     25  C9  ZIN A   1      18.190   2.460  10.736  0.00  0.00     0.031 A 
ATOM     26  C8  ZIN A   1      17.751   3.694  10.306  0.00  0.00     0.002 A 
ATOM     27  C7  ZIN A   1      17.438   4.680  11.224  0.00  0.00     0.001 A 
ENDBRANCH   1  18
TORSDOF 4
ENDMDL
