MODEL 1
REMARK VINA RESULT:      -8.6      0.000      0.000
REMARK  5 active torsions:
REMARK  status: ('A' for Active; 'I' for Inactive)
REMARK    1  A    between atoms: C2_2  and  C3_3 
REMARK    2  A    between atoms: C3_3  and  C5_4 
REMARK    3  A    between atoms: C3_3  and  N7_6 
REMARK    4  A    between atoms: C5_4  and  O6_5 
REMARK       I    between atoms: N7_6  and  C8_7 
REMARK    5  A    between atoms: C8_7  and  C10_9 
ROOT
ATOM      1  C10 ZIN A   1      18.534  -2.542  10.986  0.00  0.00     0.127 C 
ATOM      2  C12 ZIN A   1      18.780  -1.670   9.783  0.00  0.00    -0.001 C 
ATOM      3  C13 ZIN A   1      18.449  -2.068   8.566  0.00  0.00    -0.019 C 
ATOM      4  C14 ZIN A   1      18.695  -1.165   7.425  0.00  0.00    -0.015 A 
ATOM      5  C15 ZIN A   1      18.803  -1.820   6.180  0.00  0.00     0.009 A 
ATOM      6  C16 ZIN A   1      18.708  -3.259   5.969  0.00  0.00    -0.027 A 
ATOM      7  C17 ZIN A   1      18.855  -3.427   4.658  0.00  0.00     0.096 A 
ATOM      8  N18 ZIN A   1      19.041  -2.204   4.034  0.00  0.00    -0.365 N 
ATOM      9  C19 ZIN A   1      19.019  -1.195   4.949  0.00  0.00     0.043 A 
ATOM     10  C20 ZIN A   1      19.149   0.193   4.951  0.00  0.00     0.030 A 
ATOM     11  C21 ZIN A   1      19.053   0.846   6.174  0.00  0.00     0.003 A 
ATOM     12  C22 ZIN A   1      18.832   0.204   7.391  0.00  0.00     0.013 A 
ATOM     13  C23 ZIN A   1      18.503  -4.176   7.145  0.00  0.00     0.079 C 
ATOM     14  C24 ZIN A   1      17.818  -3.405   8.282  0.00  0.00     0.225 C 
ATOM     15  N26 ZIN A   1      17.725  -4.256   9.460  0.00  0.00    -0.065 N 
ATOM     16  H27 ZIN A   1      18.614  -4.711   9.608  0.00  0.00     0.280 HD
ATOM     17  C28 ZIN A   1      16.697  -5.281   9.230  0.00  0.00     0.270 C 
ATOM     18  C29 ZIN A   1      17.376  -3.493  10.660  0.00  0.00     0.253 C 
ATOM     19  H41 ZIN A   1      19.168  -2.083   3.080  0.00  0.00     0.165 HD
ENDROOT
BRANCH   1  20
ATOM     20  C8  ZIN A   1      18.169  -1.683  12.169  0.00  0.00     0.227 C 
ATOM     21  N7  ZIN A   1      19.088  -1.420  13.120  0.00  0.00    -0.354 N 
ATOM     22  H38 ZIN A   1      19.984  -1.784  13.043  0.00  0.00     0.163 HD
ATOM     23  O9  ZIN A   1      17.049  -1.229  12.267  0.00  0.00    -0.273 OA
BRANCH  21  24
ATOM     24  C3  ZIN A   1      18.733  -0.586  14.271  0.00  0.00     0.107 C 
BRANCH  24  25
ATOM     25  C2  ZIN A   1      18.892  -1.398  15.558  0.00  0.00     0.023 C 
ATOM     26  C1  ZIN A   1      17.693  -1.143  16.474  0.00  0.00     0.007 C 
ENDBRANCH  24  25
BRANCH  24  27
ATOM     27  C5  ZIN A   1      19.655   0.633  14.320  0.00  0.00     0.189 C 
BRANCH  27  28
ATOM     28  O6  ZIN A   1      20.755   0.435  13.429  0.00  0.00    -0.399 OA
ATOM     29  H37 ZIN A   1      21.590   0.228  13.873  0.00  0.00     0.209 HD
ENDBRANCH  27  28
ENDBRANCH  24  27
ENDBRANCH  21  24
ENDBRANCH   1  20
TORSDOF 5
ENDMDL
MODEL 2
REMARK VINA RESULT:      -8.6      3.548      9.606
REMARK  5 active torsions:
REMARK  status: ('A' for Active; 'I' for Inactive)
REMARK    1  A    between atoms: C2_2  and  C3_3 
REMARK    2  A    between atoms: C3_3  and  C5_4 
REMARK    3  A    between atoms: C3_3  and  N7_6 
REMARK    4  A    between atoms: C5_4  and  O6_5 
REMARK       I    between atoms: N7_6  and  C8_7 
REMARK    5  A    between atoms: C8_7  and  C10_9 
ROOT
ATOM      1  C10 ZIN A   1      18.810   2.848  12.098  0.00  0.00     0.127 C 
ATOM      2  C12 ZIN A   1      18.967   1.863  13.226  0.00  0.00    -0.001 C 
ATOM      3  C13 ZIN A   1      18.635   2.178  14.467  0.00  0.00    -0.019 C 
ATOM      4  C14 ZIN A   1      18.791   1.166  15.530  0.00  0.00    -0.015 A 
ATOM      5  C15 ZIN A   1      18.913   1.703  16.828  0.00  0.00     0.009 A 
ATOM      6  C16 ZIN A   1      18.912   3.123  17.162  0.00  0.00    -0.027 A 
ATOM      7  C17 ZIN A   1      19.039   3.168  18.484  0.00  0.00     0.096 A 
ATOM      8  N18 ZIN A   1      19.126   1.886  19.003  0.00  0.00    -0.365 N 
ATOM      9  C19 ZIN A   1      19.056   0.962  18.004  0.00  0.00     0.043 A 
ATOM     10  C20 ZIN A   1      19.092  -0.426  17.885  0.00  0.00     0.030 A 
ATOM     11  C21 ZIN A   1      18.981  -0.964  16.608  0.00  0.00     0.003 A 
ATOM     12  C22 ZIN A   1      18.833  -0.207  15.447  0.00  0.00     0.013 A 
ATOM     13  C23 ZIN A   1      18.799   4.148  16.065  0.00  0.00     0.079 C 
ATOM     14  C24 ZIN A   1      18.090   3.527  14.853  0.00  0.00     0.225 C 
ATOM     15  N26 ZIN A   1      18.084   4.479  13.752  0.00  0.00    -0.065 N 
ATOM     16  H27 ZIN A   1      19.005   4.881  13.660  0.00  0.00     0.280 HD
ATOM     17  C28 ZIN A   1      17.123   5.550  14.051  0.00  0.00     0.270 C 
ATOM     18  C29 ZIN A   1      17.712   3.847  12.484  0.00  0.00     0.253 C 
ATOM     19  H41 ZIN A   1      19.221   1.676  19.945  0.00  0.00     0.165 HD
ENDROOT
BRANCH   1  20
ATOM     20  C8  ZIN A   1      18.416   2.121  10.839  0.00  0.00     0.227 C 
ATOM     21  N7  ZIN A   1      19.358   1.525  10.083  0.00  0.00    -0.354 N 
ATOM     22  H38 ZIN A   1      20.290   1.563  10.348  0.00  0.00     0.163 HD
ATOM     23  O9  ZIN A   1      17.251   2.073  10.506  0.00  0.00    -0.273 OA
BRANCH  21  24
ATOM     24  C3  ZIN A   1      18.975   0.818   8.858  0.00  0.00     0.107 C 
BRANCH  24  25
ATOM     25  C2  ZIN A   1      19.286   1.697   7.644  0.00  0.00     0.023 C 
ATOM     26  C1  ZIN A   1      18.916   0.946   6.362  0.00  0.00     0.007 C 
ENDBRANCH  24  25
BRANCH  24  27
ATOM     27  C5  ZIN A   1      19.763  -0.489   8.755  0.00  0.00     0.189 C 
BRANCH  27  28
ATOM     28  O6  ZIN A   1      20.877  -0.445   9.649  0.00  0.00    -0.399 OA
ATOM     29  H37 ZIN A   1      21.725  -0.277   9.214  0.00  0.00     0.209 HD
ENDBRANCH  27  28
ENDBRANCH  24  27
ENDBRANCH  21  24
ENDBRANCH   1  20
TORSDOF 5
ENDMDL
MODEL 3
REMARK VINA RESULT:      -8.4      3.191      7.300
REMARK  5 active torsions:
REMARK  status: ('A' for Active; 'I' for Inactive)
REMARK    1  A    between atoms: C2_2  and  C3_3 
REMARK    2  A    between atoms: C3_3  and  C5_4 
REMARK    3  A    between atoms: C3_3  and  N7_6 
REMARK    4  A    between atoms: C5_4  and  O6_5 
REMARK       I    between atoms: N7_6  and  C8_7 
REMARK    5  A    between atoms: C8_7  and  C10_9 
ROOT
ATOM      1  C10 ZIN A   1      18.013  -1.908   8.692  0.00  0.00     0.127 C 
ATOM      2  C12 ZIN A   1      17.940  -0.455   9.082  0.00  0.00    -0.001 C 
ATOM      3  C13 ZIN A   1      18.241  -0.055  10.306  0.00  0.00    -0.019 C 
ATOM      4  C14 ZIN A   1      18.171   1.384  10.627  0.00  0.00    -0.015 A 
ATOM      5  C15 ZIN A   1      18.000   1.664  11.999  0.00  0.00     0.009 A 
ATOM      6  C16 ZIN A   1      17.877   0.669  13.058  0.00  0.00    -0.027 A 
ATOM      7  C17 ZIN A   1      17.745   1.372  14.179  0.00  0.00     0.096 A 
ATOM      8  N18 ZIN A   1      17.768   2.729  13.902  0.00  0.00    -0.365 N 
ATOM      9  C19 ZIN A   1      17.919   2.939  12.564  0.00  0.00     0.043 A 
ATOM     10  C20 ZIN A   1      18.004   4.029  11.699  0.00  0.00     0.030 A 
ATOM     11  C21 ZIN A   1      18.165   3.762  10.344  0.00  0.00     0.003 A 
ATOM     12  C22 ZIN A   1      18.248   2.481   9.801  0.00  0.00     0.013 A 
ATOM     13  C23 ZIN A   1      17.903  -0.796  12.714  0.00  0.00     0.079 C 
ATOM     14  C24 ZIN A   1      18.666  -1.000  11.398  0.00  0.00     0.225 C 
ATOM     15  N26 ZIN A   1      18.591  -2.400  11.004  0.00  0.00    -0.065 N 
ATOM     16  H27 ZIN A   1      17.639  -2.719  11.103  0.00  0.00     0.280 HD
ATOM     17  C28 ZIN A   1      19.455  -3.193  11.891  0.00  0.00     0.270 C 
ATOM     18  C29 ZIN A   1      19.019  -2.602   9.618  0.00  0.00     0.253 C 
ATOM     19  H41 ZIN A   1      17.689   3.431  14.567  0.00  0.00     0.165 HD
ENDROOT
BRANCH   1  20
ATOM     20  C8  ZIN A   1      18.471  -2.028   7.262  0.00  0.00     0.227 C 
ATOM     21  N7  ZIN A   1      17.659  -1.639   6.260  0.00  0.00    -0.354 N 
ATOM     22  H38 ZIN A   1      16.779  -1.282   6.458  0.00  0.00     0.163 HD
ATOM     23  O9  ZIN A   1      19.570  -2.476   7.013  0.00  0.00    -0.273 OA
BRANCH  21  24
ATOM     24  C3  ZIN A   1      18.104  -1.757   4.869  0.00  0.00     0.107 C 
BRANCH  24  25
ATOM     25  C2  ZIN A   1      16.911  -2.120   3.981  0.00  0.00     0.023 C 
ATOM     26  C1  ZIN A   1      16.834  -3.640   3.826  0.00  0.00     0.007 C 
ENDBRANCH  24  25
BRANCH  24  27
ATOM     27  C5  ZIN A   1      18.695  -0.423   4.408  0.00  0.00     0.189 C 
BRANCH  27  28
ATOM     28  O6  ZIN A   1      20.105  -0.422   4.641  0.00  0.00    -0.399 OA
ATOM     29  H37 ZIN A   1      20.407  -1.123   5.236  0.00  0.00     0.209 HD
ENDBRANCH  27  28
ENDBRANCH  24  27
ENDBRANCH  21  24
ENDBRANCH   1  20
TORSDOF 5
ENDMDL
MODEL 4
REMARK VINA RESULT:      -8.3      2.154      2.933
REMARK  5 active torsions:
REMARK  status: ('A' for Active; 'I' for Inactive)
REMARK    1  A    between atoms: C2_2  and  C3_3 
REMARK    2  A    between atoms: C3_3  and  C5_4 
REMARK    3  A    between atoms: C3_3  and  N7_6 
REMARK    4  A    between atoms: C5_4  and  O6_5 
REMARK       I    between atoms: N7_6  and  C8_7 
REMARK    5  A    between atoms: C8_7  and  C10_9 
ROOT
ATOM      1  C10 ZIN A   1      20.246  -0.833  10.736  0.00  0.00     0.127 C 
ATOM      2  C12 ZIN A   1      19.980  -0.363   9.329  0.00  0.00    -0.001 C 
ATOM      3  C13 ZIN A   1      19.408  -1.153   8.436  0.00  0.00    -0.019 C 
ATOM      4  C14 ZIN A   1      19.154  -0.633   7.079  0.00  0.00    -0.015 A 
ATOM      5  C15 ZIN A   1      19.036  -1.630   6.089  0.00  0.00     0.009 A 
ATOM      6  C16 ZIN A   1      19.162  -3.066   6.313  0.00  0.00    -0.027 A 
ATOM      7  C17 ZIN A   1      18.970  -3.621   5.120  0.00  0.00     0.096 A 
ATOM      8  N18 ZIN A   1      18.741  -2.642   4.166  0.00  0.00    -0.365 N 
ATOM      9  C19 ZIN A   1      18.781  -1.405   4.734  0.00  0.00     0.043 A 
ATOM     10  C20 ZIN A   1      18.641  -0.080   4.321  0.00  0.00     0.030 A 
ATOM     11  C21 ZIN A   1      18.764   0.910   5.288  0.00  0.00     0.003 A 
ATOM     12  C22 ZIN A   1      19.013   0.663   6.638  0.00  0.00     0.013 A 
ATOM     13  C23 ZIN A   1      19.467  -3.583   7.693  0.00  0.00     0.079 C 
ATOM     14  C24 ZIN A   1      18.989  -2.566   8.739  0.00  0.00     0.225 C 
ATOM     15  N26 ZIN A   1      19.388  -3.010  10.067  0.00  0.00    -0.065 N 
ATOM     16  H27 ZIN A   1      20.353  -3.306  10.039  0.00  0.00     0.280 HD
ATOM     17  C28 ZIN A   1      18.551  -4.151  10.462  0.00  0.00     0.270 C 
ATOM     18  C29 ZIN A   1      19.246  -1.947  11.065  0.00  0.00     0.253 C 
ATOM     19  H41 ZIN A   1      18.574  -2.815   3.226  0.00  0.00     0.165 HD
ENDROOT
BRANCH   1  20
ATOM     20  C8  ZIN A   1      20.066   0.313  11.697  0.00  0.00     0.227 C 
ATOM     21  N7  ZIN A   1      19.381   1.409  11.318  0.00  0.00    -0.354 N 
ATOM     22  H38 ZIN A   1      19.002   1.461  10.426  0.00  0.00     0.163 HD
ATOM     23  O9  ZIN A   1      20.539   0.249  12.812  0.00  0.00    -0.273 OA
BRANCH  21  24
ATOM     24  C3  ZIN A   1      19.206   2.524  12.253  0.00  0.00     0.107 C 
BRANCH  24  25
ATOM     25  C2  ZIN A   1      20.086   3.697  11.817  0.00  0.00     0.023 C 
ATOM     26  C1  ZIN A   1      19.800   4.909  12.707  0.00  0.00     0.007 C 
ENDBRANCH  24  25
BRANCH  24  27
ATOM     27  C5  ZIN A   1      17.740   2.961  12.257  0.00  0.00     0.189 C 
BRANCH  27  28
ATOM     28  O6  ZIN A   1      16.992   2.126  11.372  0.00  0.00    -0.399 OA
ATOM     29  H37 ZIN A   1      16.075   2.408  11.244  0.00  0.00     0.209 HD
ENDBRANCH  27  28
ENDBRANCH  24  27
ENDBRANCH  21  24
ENDBRANCH   1  20
TORSDOF 5
ENDMDL
MODEL 5
REMARK VINA RESULT:      -8.2      3.046      8.831
REMARK  5 active torsions:
REMARK  status: ('A' for Active; 'I' for Inactive)
REMARK    1  A    between atoms: C2_2  and  C3_3 
REMARK    2  A    between atoms: C3_3  and  C5_4 
REMARK    3  A    between atoms: C3_3  and  N7_6 
REMARK    4  A    between atoms: C5_4  and  O6_5 
REMARK       I    between atoms: N7_6  and  C8_7 
REMARK    5  A    between atoms: C8_7  and  C10_9 
ROOT
ATOM      1  C10 ZIN A   1      18.574   1.521  10.608  0.00  0.00     0.127 C 
ATOM      2  C12 ZIN A   1      18.698   0.729  11.883  0.00  0.00    -0.001 C 
ATOM      3  C13 ZIN A   1      18.459   1.280  13.061  0.00  0.00    -0.019 C 
ATOM      4  C14 ZIN A   1      18.576   0.451  14.276  0.00  0.00    -0.015 A 
ATOM      5  C15 ZIN A   1      18.811   1.184  15.457  0.00  0.00     0.009 A 
ATOM      6  C16 ZIN A   1      18.956   2.633  15.541  0.00  0.00    -0.027 A 
ATOM      7  C17 ZIN A   1      19.153   2.888  16.831  0.00  0.00     0.096 A 
ATOM      8  N18 ZIN A   1      19.149   1.709  17.560  0.00  0.00    -0.365 N 
ATOM      9  C19 ZIN A   1      18.945   0.642  16.738  0.00  0.00     0.043 A 
ATOM     10  C20 ZIN A   1      18.848  -0.744  16.859  0.00  0.00     0.030 A 
ATOM     11  C21 ZIN A   1      18.624  -1.475  15.699  0.00  0.00     0.003 A 
ATOM     12  C22 ZIN A   1      18.488  -0.914  14.431  0.00  0.00     0.013 A 
ATOM     13  C23 ZIN A   1      18.882   3.465  14.289  0.00  0.00     0.079 C 
ATOM     14  C24 ZIN A   1      18.059   2.721  13.227  0.00  0.00     0.225 C 
ATOM     15  N26 ZIN A   1      18.084   3.470  11.979  0.00  0.00    -0.065 N 
ATOM     16  H27 ZIN A   1      19.033   3.759  11.788  0.00  0.00     0.280 HD
ATOM     17  C28 ZIN A   1      17.241   4.666  12.121  0.00  0.00     0.270 C 
ATOM     18  C29 ZIN A   1      17.593   2.673  10.853  0.00  0.00     0.253 C 
ATOM     19  H41 ZIN A   1      19.272   1.652  18.520  0.00  0.00     0.165 HD
ENDROOT
BRANCH   1  20
ATOM     20  C8  ZIN A   1      18.053   0.634   9.507  0.00  0.00     0.227 C 
ATOM     21  N7  ZIN A   1      18.743   0.513   8.356  0.00  0.00    -0.354 N 
ATOM     22  H38 ZIN A   1      19.576   0.996   8.235  0.00  0.00     0.163 HD
ATOM     23  O9  ZIN A   1      17.011   0.031   9.656  0.00  0.00    -0.273 OA
BRANCH  21  24
ATOM     24  C3  ZIN A   1      18.236  -0.349   7.285  0.00  0.00     0.107 C 
BRANCH  24  25
ATOM     25  C2  ZIN A   1      18.051   0.477   6.010  0.00  0.00     0.023 C 
ATOM     26  C1  ZIN A   1      19.223   0.220   5.061  0.00  0.00     0.007 C 
ENDBRANCH  24  25
BRANCH  24  27
ATOM     27  C5  ZIN A   1      19.235  -1.477   7.021  0.00  0.00     0.189 C 
BRANCH  27  28
ATOM     28  O6  ZIN A   1      19.677  -2.022   8.266  0.00  0.00    -0.399 OA
ATOM     29  H37 ZIN A   1      20.382  -2.680   8.180  0.00  0.00     0.209 HD
ENDBRANCH  27  28
ENDBRANCH  24  27
ENDBRANCH  21  24
ENDBRANCH   1  20
TORSDOF 5
ENDMDL
MODEL 6
REMARK VINA RESULT:      -8.0      3.130      8.096
REMARK  5 active torsions:
REMARK  status: ('A' for Active; 'I' for Inactive)
REMARK    1  A    between atoms: C2_2  and  C3_3 
REMARK    2  A    between atoms: C3_3  and  C5_4 
REMARK    3  A    between atoms: C3_3  and  N7_6 
REMARK    4  A    between atoms: C5_4  and  O6_5 
REMARK       I    between atoms: N7_6  and  C8_7 
REMARK    5  A    between atoms: C8_7  and  C10_9 
ROOT
ATOM      1  C10 ZIN A   1      19.690   0.101  10.494  0.00  0.00     0.127 C 
ATOM      2  C12 ZIN A   1      19.540  -0.298  11.938  0.00  0.00    -0.001 C 
ATOM      3  C13 ZIN A   1      18.946   0.495  12.814  0.00  0.00    -0.019 C 
ATOM      4  C14 ZIN A   1      18.810   0.044  14.213  0.00  0.00    -0.015 A 
ATOM      5  C15 ZIN A   1      18.654   1.089  15.146  0.00  0.00     0.009 A 
ATOM      6  C16 ZIN A   1      18.639   2.513  14.831  0.00  0.00    -0.027 A 
ATOM      7  C17 ZIN A   1      18.460   3.124  15.997  0.00  0.00     0.096 A 
ATOM      8  N18 ZIN A   1      18.369   2.193  17.020  0.00  0.00    -0.365 N 
ATOM      9  C19 ZIN A   1      18.491   0.930  16.525  0.00  0.00     0.043 A 
ATOM     10  C20 ZIN A   1      18.491  -0.372  17.023  0.00  0.00     0.030 A 
ATOM     11  C21 ZIN A   1      18.652  -1.408  16.111  0.00  0.00     0.003 A 
ATOM     12  C22 ZIN A   1      18.809  -1.228  14.737  0.00  0.00     0.013 A 
ATOM     13  C23 ZIN A   1      18.826   2.964  13.406  0.00  0.00     0.079 C 
ATOM     14  C24 ZIN A   1      18.387   1.845  12.452  0.00  0.00     0.225 C 
ATOM     15  N26 ZIN A   1      18.676   2.235  11.080  0.00  0.00    -0.065 N 
ATOM     16  H27 ZIN A   1      19.611   2.614  11.035  0.00  0.00     0.280 HD
ATOM     17  C28 ZIN A   1      17.721   3.272  10.665  0.00  0.00     0.270 C 
ATOM     18  C29 ZIN A   1      18.578   1.102  10.156  0.00  0.00     0.253 C 
ATOM     19  H41 ZIN A   1      18.237   2.411  17.956  0.00  0.00     0.165 HD
ENDROOT
BRANCH   1  20
ATOM     20  C8  ZIN A   1      19.564  -1.115   9.614  0.00  0.00     0.227 C 
ATOM     21  N7  ZIN A   1      19.331  -2.323  10.164  0.00  0.00    -0.354 N 
ATOM     22  H38 ZIN A   1      19.244  -2.410  11.127  0.00  0.00     0.163 HD
ATOM     23  O9  ZIN A   1      19.673  -1.007   8.411  0.00  0.00    -0.273 OA
BRANCH  21  24
ATOM     24  C3  ZIN A   1      19.209  -3.506   9.309  0.00  0.00     0.107 C 
BRANCH  24  25
ATOM     25  C2  ZIN A   1      19.618  -4.751  10.099  0.00  0.00     0.023 C 
ATOM     26  C1  ZIN A   1      18.991  -4.699  11.494  0.00  0.00     0.007 C 
ENDBRANCH  24  25
BRANCH  24  27
ATOM     27  C5  ZIN A   1      17.760  -3.651   8.842  0.00  0.00     0.189 C 
BRANCH  27  28
ATOM     28  O6  ZIN A   1      17.645  -3.191   7.495  0.00  0.00    -0.399 OA
ATOM     29  H37 ZIN A   1      18.062  -2.332   7.335  0.00  0.00     0.209 HD
ENDBRANCH  27  28
ENDBRANCH  24  27
ENDBRANCH  21  24
ENDBRANCH   1  20
TORSDOF 5
ENDMDL
MODEL 7
REMARK VINA RESULT:      -8.0      1.464      1.646
REMARK  5 active torsions:
REMARK  status: ('A' for Active; 'I' for Inactive)
REMARK    1  A    between atoms: C2_2  and  C3_3 
REMARK    2  A    between atoms: C3_3  and  C5_4 
REMARK    3  A    between atoms: C3_3  and  N7_6 
REMARK    4  A    between atoms: C5_4  and  O6_5 
REMARK       I    between atoms: N7_6  and  C8_7 
REMARK    5  A    between atoms: C8_7  and  C10_9 
ROOT
ATOM      1  C10 ZIN A   1      18.405  -1.342  11.970  0.00  0.00     0.127 C 
ATOM      2  C12 ZIN A   1      18.623  -0.620  10.667  0.00  0.00    -0.001 C 
ATOM      3  C13 ZIN A   1      18.427  -1.220   9.505  0.00  0.00    -0.019 C 
ATOM      4  C14 ZIN A   1      18.636  -0.458   8.259  0.00  0.00    -0.015 A 
ATOM      5  C15 ZIN A   1      18.907  -1.256   7.129  0.00  0.00     0.009 A 
ATOM      6  C16 ZIN A   1      19.005  -2.711   7.123  0.00  0.00    -0.027 A 
ATOM      7  C17 ZIN A   1      19.259  -3.036   5.860  0.00  0.00     0.096 A 
ATOM      8  N18 ZIN A   1      19.335  -1.896   5.076  0.00  0.00    -0.365 N 
ATOM      9  C19 ZIN A   1      19.127  -0.783   5.833  0.00  0.00     0.043 A 
ATOM     10  C20 ZIN A   1      19.086   0.597   5.641  0.00  0.00     0.030 A 
ATOM     11  C21 ZIN A   1      18.828   1.393   6.750  0.00  0.00     0.003 A 
ATOM     12  C22 ZIN A   1      18.606   0.900   8.035  0.00  0.00     0.013 A 
ATOM     13  C23 ZIN A   1      18.835  -3.477   8.408  0.00  0.00     0.079 C 
ATOM     14  C24 ZIN A   1      17.985  -2.654   9.387  0.00  0.00     0.225 C 
ATOM     15  N26 ZIN A   1      17.918  -3.340  10.669  0.00  0.00    -0.065 N 
ATOM     16  H27 ZIN A   1      18.845  -3.650  10.925  0.00  0.00     0.280 HD
ATOM     17  C28 ZIN A   1      17.042  -4.513  10.539  0.00  0.00     0.270 C 
ATOM     18  C29 ZIN A   1      17.397  -2.473  11.728  0.00  0.00     0.253 C 
ATOM     19  H41 ZIN A   1      19.511  -1.891   4.122  0.00  0.00     0.165 HD
ENDROOT
BRANCH   1  20
ATOM     20  C8  ZIN A   1      17.859  -0.385  12.997  0.00  0.00     0.227 C 
ATOM     21  N7  ZIN A   1      17.970  -0.670  14.309  0.00  0.00    -0.354 N 
ATOM     22  H38 ZIN A   1      18.401  -1.491  14.594  0.00  0.00     0.163 HD
ATOM     23  O9  ZIN A   1      17.318   0.641  12.642  0.00  0.00    -0.273 OA
BRANCH  21  24
ATOM     24  C3  ZIN A   1      17.438   0.261  15.308  0.00  0.00     0.107 C 
BRANCH  24  25
ATOM     25  C2  ZIN A   1      17.219  -0.480  16.630  0.00  0.00     0.023 C 
ATOM     26  C1  ZIN A   1      18.009   0.215  17.741  0.00  0.00     0.007 C 
ENDBRANCH  24  25
BRANCH  24  27
ATOM     27  C5  ZIN A   1      18.433   1.402  15.523  0.00  0.00     0.189 C 
BRANCH  27  28
ATOM     28  O6  ZIN A   1      17.867   2.623  15.040  0.00  0.00    -0.399 OA
ATOM     29  H37 ZIN A   1      18.499   3.196  14.582  0.00  0.00     0.209 HD
ENDBRANCH  27  28
ENDBRANCH  24  27
ENDBRANCH  21  24
ENDBRANCH   1  20
TORSDOF 5
ENDMDL
MODEL 8
REMARK VINA RESULT:      -8.0      3.040      8.291
REMARK  5 active torsions:
REMARK  status: ('A' for Active; 'I' for Inactive)
REMARK    1  A    between atoms: C2_2  and  C3_3 
REMARK    2  A    between atoms: C3_3  and  C5_4 
REMARK    3  A    between atoms: C3_3  and  N7_6 
REMARK    4  A    between atoms: C5_4  and  O6_5 
REMARK       I    between atoms: N7_6  and  C8_7 
REMARK    5  A    between atoms: C8_7  and  C10_9 
ROOT
ATOM      1  C10 ZIN A   1      17.474  -0.547  12.929  0.00  0.00     0.127 C 
ATOM      2  C12 ZIN A   1      17.880   0.903  12.925  0.00  0.00    -0.001 C 
ATOM      3  C13 ZIN A   1      18.506   1.446  13.956  0.00  0.00    -0.019 C 
ATOM      4  C14 ZIN A   1      18.899   2.866  13.890  0.00  0.00    -0.015 A 
ATOM      5  C15 ZIN A   1      19.075   3.478  15.148  0.00  0.00     0.009 A 
ATOM      6  C16 ZIN A   1      18.884   2.830  16.440  0.00  0.00    -0.027 A 
ATOM      7  C17 ZIN A   1      19.166   3.766  17.342  0.00  0.00     0.096 A 
ATOM      8  N18 ZIN A   1      19.511   4.951  16.713  0.00  0.00    -0.365 N 
ATOM      9  C19 ZIN A   1      19.458   4.805  15.359  0.00  0.00     0.043 A 
ATOM     10  C20 ZIN A   1      19.677   5.596  14.232  0.00  0.00     0.030 A 
ATOM     11  C21 ZIN A   1      19.497   5.003  12.988  0.00  0.00     0.003 A 
ATOM     12  C22 ZIN A   1      19.119   3.675  12.798  0.00  0.00     0.013 A 
ATOM     13  C23 ZIN A   1      18.439   1.393  16.497  0.00  0.00     0.079 C 
ATOM     14  C24 ZIN A   1      18.852   0.677  15.203  0.00  0.00     0.225 C 
ATOM     15  N26 ZIN A   1      18.320  -0.678  15.206  0.00  0.00    -0.065 N 
ATOM     16  H27 ZIN A   1      17.353  -0.652  15.495  0.00  0.00     0.280 HD
ATOM     17  C28 ZIN A   1      19.082  -1.489  16.167  0.00  0.00     0.270 C 
ATOM     18  C29 ZIN A   1      18.405  -1.303  13.884  0.00  0.00     0.253 C 
ATOM     19  H41 ZIN A   1      19.757   5.770  17.172  0.00  0.00     0.165 HD
ENDROOT
BRANCH   1  20
ATOM     20  C8  ZIN A   1      17.602  -1.114  11.539  0.00  0.00     0.227 C 
ATOM     21  N7  ZIN A   1      18.179  -0.385  10.564  0.00  0.00    -0.354 N 
ATOM     22  H38 ZIN A   1      18.513   0.505  10.756  0.00  0.00     0.163 HD
ATOM     23  O9  ZIN A   1      17.183  -2.227  11.298  0.00  0.00    -0.273 OA
BRANCH  21  24
ATOM     24  C3  ZIN A   1      18.303  -0.937   9.212  0.00  0.00     0.107 C 
BRANCH  24  25
ATOM     25  C2  ZIN A   1      17.311  -0.234   8.282  0.00  0.00     0.023 C 
ATOM     26  C1  ZIN A   1      18.055   0.309   7.060  0.00  0.00     0.007 C 
ENDBRANCH  24  25
BRANCH  24  27
ATOM     27  C5  ZIN A   1      19.727  -0.716   8.700  0.00  0.00     0.189 C 
BRANCH  27  28
ATOM     28  O6  ZIN A   1      20.592  -0.436   9.802  0.00  0.00    -0.399 OA
ATOM     29  H37 ZIN A   1      21.020  -1.219  10.176  0.00  0.00     0.209 HD
ENDBRANCH  27  28
ENDBRANCH  24  27
ENDBRANCH  21  24
ENDBRANCH   1  20
TORSDOF 5
ENDMDL
MODEL 9
REMARK VINA RESULT:      -7.9      3.334      7.992
REMARK  5 active torsions:
REMARK  status: ('A' for Active; 'I' for Inactive)
REMARK    1  A    between atoms: C2_2  and  C3_3 
REMARK    2  A    between atoms: C3_3  and  C5_4 
REMARK    3  A    between atoms: C3_3  and  N7_6 
REMARK    4  A    between atoms: C5_4  and  O6_5 
REMARK       I    between atoms: N7_6  and  C8_7 
REMARK    5  A    between atoms: C8_7  and  C10_9 
ROOT
ATOM      1  C10 ZIN A   1      19.604  -2.201  11.278  0.00  0.00     0.127 C 
ATOM      2  C12 ZIN A   1      19.452  -1.907  12.747  0.00  0.00    -0.001 C 
ATOM      3  C13 ZIN A   1      18.842  -0.813  13.171  0.00  0.00    -0.019 C 
ATOM      4  C14 ZIN A   1      18.703  -0.586  14.622  0.00  0.00    -0.015 A 
ATOM      5  C15 ZIN A   1      18.528   0.765  14.983  0.00  0.00     0.009 A 
ATOM      6  C16 ZIN A   1      18.494   1.893  14.059  0.00  0.00    -0.027 A 
ATOM      7  C17 ZIN A   1      18.300   2.963  14.823  0.00  0.00     0.096 A 
ATOM      8  N18 ZIN A   1      18.216   2.592  16.156  0.00  0.00    -0.365 N 
ATOM      9  C19 ZIN A   1      18.359   1.244  16.285  0.00  0.00     0.043 A 
ATOM     10  C20 ZIN A   1      18.375   0.307  17.318  0.00  0.00     0.030 A 
ATOM     11  C21 ZIN A   1      18.556  -1.026  16.972  0.00  0.00     0.003 A 
ATOM     12  C22 ZIN A   1      18.718  -1.484  15.665  0.00  0.00     0.013 A 
ATOM     13  C23 ZIN A   1      18.682   1.655  12.584  0.00  0.00     0.079 C 
ATOM     14  C24 ZIN A   1      18.265   0.218  12.239  0.00  0.00     0.225 C 
ATOM     15  N26 ZIN A   1      18.556  -0.049  10.838  0.00  0.00    -0.065 N 
ATOM     16  H27 ZIN A   1      19.486   0.283  10.625  0.00  0.00     0.280 HD
ATOM     17  C28 ZIN A   1      17.589   0.674  10.001  0.00  0.00     0.270 C 
ATOM     18  C29 ZIN A   1      18.479  -1.478  10.526  0.00  0.00     0.253 C 
ATOM     19  H41 ZIN A   1      18.075   3.207  16.893  0.00  0.00     0.165 HD
ENDROOT
BRANCH   1  20
ATOM     20  C8  ZIN A   1      19.500  -3.685  11.043  0.00  0.00     0.227 C 
ATOM     21  N7  ZIN A   1      18.615  -4.166  10.148  0.00  0.00    -0.354 N 
ATOM     22  H38 ZIN A   1      18.044  -3.556   9.654  0.00  0.00     0.163 HD
ATOM     23  O9  ZIN A   1      20.213  -4.448  11.661  0.00  0.00    -0.273 OA
BRANCH  21  24
ATOM     24  C3  ZIN A   1      18.514  -5.610   9.919  0.00  0.00     0.107 C 
BRANCH  24  25
ATOM     25  C2  ZIN A   1      17.042  -6.029   9.950  0.00  0.00     0.023 C 
ATOM     26  C1  ZIN A   1      16.732  -6.894   8.727  0.00  0.00     0.007 C 
ENDBRANCH  24  25
BRANCH  24  27
ATOM     27  C5  ZIN A   1      19.113  -5.954   8.555  0.00  0.00     0.189 C 
BRANCH  27  28
ATOM     28  O6  ZIN A   1      20.465  -6.385   8.723  0.00  0.00    -0.399 OA
ATOM     29  H37 ZIN A   1      20.704  -7.152   8.184  0.00  0.00     0.209 HD
ENDBRANCH  27  28
ENDBRANCH  24  27
ENDBRANCH  21  24
ENDBRANCH   1  20
TORSDOF 5
ENDMDL
