MODEL 1
REMARK VINA RESULT:      -8.3      0.000      0.000
REMARK  1 active torsions:
REMARK  status: ('A' for Active; 'I' for Inactive)
REMARK    1  A    between atoms: N15_14  and  C16_15 
ROOT
ATOM      1  O1  ZIN A   1      17.770   4.419  14.894  0.00  0.00    -0.267 OA
ATOM      2  C2  ZIN A   1      18.119   3.255  14.906  0.00  0.00     0.254 C 
ATOM      3  C3  ZIN A   1      18.503   2.605  16.178  0.00  0.00     0.039 A 
ATOM      4  C4  ZIN A   1      18.759   3.373  17.310  0.00  0.00     0.017 A 
ATOM      5  C5  ZIN A   1      19.131   2.748  18.483  0.00  0.00     0.002 A 
ATOM      6  C6  ZIN A   1      19.243   1.374  18.527  0.00  0.00     0.007 A 
ATOM      7  C7  ZIN A   1      18.983   0.595  17.402  0.00  0.00    -0.050 A 
ATOM      8  C8  ZIN A   1      18.614   1.211  16.230  0.00  0.00    -0.030 A 
ATOM      9  C9  ZIN A   1      18.303   0.420  14.986  0.00  0.00     0.038 C 
ATOM     10  C11 ZIN A   1      19.066  -0.907  15.034  0.00  0.00     0.011 C 
ATOM     11  C12 ZIN A   1      18.671  -1.654  16.305  0.00  0.00     0.005 C 
ATOM     12  C13 ZIN A   1      19.113  -0.894  17.541  0.00  0.00     0.039 C 
ATOM     13  C14 ZIN A   1      18.726   1.197  13.742  0.00  0.00     0.136 C 
ATOM     14  N15 ZIN A   1      18.155   2.546  13.762  0.00  0.00    -0.341 N 
ENDROOT
BRANCH  14  15
ATOM     15  C16 ZIN A   1      17.629   3.131  12.526  0.00  0.00     0.120 C 
ATOM     16  C22 ZIN A   1      18.522   4.300  12.092  0.00  0.00     0.014 C 
ATOM     17  C21 ZIN A   1      17.973   4.874  10.779  0.00  0.00     0.037 C 
ATOM     18  C23 ZIN A   1      19.936   3.764  11.837  0.00  0.00     0.037 C 
ATOM     19  C20 ZIN A   1      17.958   3.767   9.721  0.00  0.00     0.273 C 
ATOM     20  N19 ZIN A   1      18.474   2.523  10.309  0.00  0.00     0.090 N 
ATOM     21  C18 ZIN A   1      17.624   2.072  11.419  0.00  0.00     0.298 C 
ATOM     22  C24 ZIN A   1      19.868   2.687  10.745  0.00  0.00     0.273 C 
ENDBRANCH  14  15
TORSDOF 1
ENDMDL
MODEL 2
REMARK VINA RESULT:      -8.2      4.053      7.694
REMARK  1 active torsions:
REMARK  status: ('A' for Active; 'I' for Inactive)
REMARK    1  A    between atoms: N15_14  and  C16_15 
ROOT
ATOM      1  O1  ZIN A   1      17.182  -2.520  11.392  0.00  0.00    -0.267 OA
ATOM      2  C2  ZIN A   1      17.695  -1.659  10.705  0.00  0.00     0.254 C 
ATOM      3  C3  ZIN A   1      18.041  -1.938   9.294  0.00  0.00     0.039 A 
ATOM      4  C4  ZIN A   1      18.067  -3.247   8.823  0.00  0.00     0.017 A 
ATOM      5  C5  ZIN A   1      18.407  -3.487   7.507  0.00  0.00     0.002 A 
ATOM      6  C6  ZIN A   1      18.714  -2.434   6.670  0.00  0.00     0.007 A 
ATOM      7  C7  ZIN A   1      18.685  -1.120   7.130  0.00  0.00    -0.050 A 
ATOM      8  C8  ZIN A   1      18.348  -0.873   8.439  0.00  0.00    -0.030 A 
ATOM      9  C9  ZIN A   1      18.282   0.529   8.988  0.00  0.00     0.038 C 
ATOM     10  C11 ZIN A   1      19.223   1.425   8.178  0.00  0.00     0.011 C 
ATOM     11  C12 ZIN A   1      18.816   1.363   6.709  0.00  0.00     0.005 C 
ATOM     12  C13 ZIN A   1      19.017  -0.033   6.149  0.00  0.00     0.039 C 
ATOM     13  C14 ZIN A   1      18.710   0.547  10.453  0.00  0.00     0.136 C 
ATOM     14  N15 ZIN A   1      17.948  -0.442  11.221  0.00  0.00    -0.341 N 
ENDROOT
BRANCH  14  15
ATOM     15  C16 ZIN A   1      17.469  -0.106  12.564  0.00  0.00     0.120 C 
ATOM     16  C22 ZIN A   1      18.201  -0.969  13.601  0.00  0.00     0.014 C 
ATOM     17  C21 ZIN A   1      17.709  -0.576  14.999  0.00  0.00     0.037 C 
ATOM     18  C23 ZIN A   1      19.702  -0.670  13.509  0.00  0.00     0.037 C 
ATOM     19  C20 ZIN A   1      17.987   0.913  15.225  0.00  0.00     0.273 C 
ATOM     20  N19 ZIN A   1      18.633   1.474  14.030  0.00  0.00     0.090 N 
ATOM     21  C18 ZIN A   1      17.754   1.370  12.857  0.00  0.00     0.298 C 
ATOM     22  C24 ZIN A   1      19.927   0.825  13.778  0.00  0.00     0.273 C 
ENDBRANCH  14  15
TORSDOF 1
ENDMDL
MODEL 3
REMARK VINA RESULT:      -8.2      4.834      8.168
REMARK  1 active torsions:
REMARK  status: ('A' for Active; 'I' for Inactive)
REMARK    1  A    between atoms: N15_14  and  C16_15 
ROOT
ATOM      1  O1  ZIN A   1      19.243   2.073   8.461  0.00  0.00    -0.267 OA
ATOM      2  C2  ZIN A   1      19.094   0.868   8.398  0.00  0.00     0.254 C 
ATOM      3  C3  ZIN A   1      19.089   0.186   7.085  0.00  0.00     0.039 A 
ATOM      4  C4  ZIN A   1      18.953   0.922   5.912  0.00  0.00     0.017 A 
ATOM      5  C5  ZIN A   1      18.935   0.264   4.698  0.00  0.00     0.002 A 
ATOM      6  C6  ZIN A   1      19.055  -1.110   4.655  0.00  0.00     0.007 A 
ATOM      7  C7  ZIN A   1      19.199  -1.855   5.823  0.00  0.00    -0.050 A 
ATOM      8  C8  ZIN A   1      19.216  -1.207   7.035  0.00  0.00    -0.030 A 
ATOM      9  C9  ZIN A   1      19.386  -1.958   8.330  0.00  0.00     0.038 C 
ATOM     10  C11 ZIN A   1      18.871  -3.389   8.148  0.00  0.00     0.011 C 
ATOM     11  C12 ZIN A   1      19.633  -4.043   6.999  0.00  0.00     0.005 C 
ATOM     12  C13 ZIN A   1      19.339  -3.343   5.686  0.00  0.00     0.039 C 
ATOM     13  C14 ZIN A   1      18.597  -1.280   9.446  0.00  0.00     0.136 C 
ATOM     14  N15 ZIN A   1      18.937   0.144   9.521  0.00  0.00    -0.341 N 
ENDROOT
BRANCH  14  15
ATOM     15  C16 ZIN A   1      19.096   0.785  10.829  0.00  0.00     0.120 C 
ATOM     16  C22 ZIN A   1      17.748   1.353  11.290  0.00  0.00     0.014 C 
ATOM     17  C21 ZIN A   1      17.932   1.988  12.674  0.00  0.00     0.037 C 
ATOM     18  C23 ZIN A   1      16.749   0.196  11.411  0.00  0.00     0.037 C 
ATOM     19  C20 ZIN A   1      18.443   0.921  13.646  0.00  0.00     0.273 C 
ATOM     20  N19 ZIN A   1      18.588  -0.357  12.935  0.00  0.00     0.090 N 
ATOM     21  C18 ZIN A   1      19.576  -0.249  11.853  0.00  0.00     0.298 C 
ATOM     22  C24 ZIN A   1      17.292  -0.823  12.423  0.00  0.00     0.273 C 
ENDBRANCH  14  15
TORSDOF 1
ENDMDL
MODEL 4
REMARK VINA RESULT:      -8.1      4.545      7.940
REMARK  1 active torsions:
REMARK  status: ('A' for Active; 'I' for Inactive)
REMARK    1  A    between atoms: N15_14  and  C16_15 
ROOT
ATOM      1  O1  ZIN A   1      17.762  -1.494  10.698  0.00  0.00    -0.267 OA
ATOM      2  C2  ZIN A   1      18.144  -0.933   9.690  0.00  0.00     0.254 C 
ATOM      3  C3  ZIN A   1      18.565  -1.723   8.512  0.00  0.00     0.039 A 
ATOM      4  C4  ZIN A   1      18.814  -3.087   8.633  0.00  0.00     0.017 A 
ATOM      5  C5  ZIN A   1      19.221  -3.802   7.525  0.00  0.00     0.002 A 
ATOM      6  C6  ZIN A   1      19.373  -3.166   6.310  0.00  0.00     0.007 A 
ATOM      7  C7  ZIN A   1      19.120  -1.803   6.177  0.00  0.00    -0.050 A 
ATOM      8  C8  ZIN A   1      18.716  -1.084   7.276  0.00  0.00    -0.030 A 
ATOM      9  C9  ZIN A   1      18.411   0.389   7.188  0.00  0.00     0.038 C 
ATOM     10  C11 ZIN A   1      19.213   0.996   6.034  0.00  0.00     0.011 C 
ATOM     11  C12 ZIN A   1      18.857   0.258   4.747  0.00  0.00     0.005 C 
ATOM     12  C13 ZIN A   1      19.295  -1.193   4.816  0.00  0.00     0.039 C 
ATOM     13  C14 ZIN A   1      18.794   1.090   8.489  0.00  0.00     0.136 C 
ATOM     14  N15 ZIN A   1      18.184   0.411   9.635  0.00  0.00    -0.341 N 
ENDROOT
BRANCH  14  15
ATOM     15  C16 ZIN A   1      17.625   1.201  10.735  0.00  0.00     0.120 C 
ATOM     16  C22 ZIN A   1      18.456   0.975  12.005  0.00  0.00     0.014 C 
ATOM     17  C21 ZIN A   1      17.873   1.838  13.131  0.00  0.00     0.037 C 
ATOM     18  C23 ZIN A   1      19.894   1.432  11.732  0.00  0.00     0.037 C 
ATOM     19  C20 ZIN A   1      17.910   3.307  12.701  0.00  0.00     0.273 C 
ATOM     20  N19 ZIN A   1      18.491   3.407  11.355  0.00  0.00     0.090 N 
ATOM     21  C18 ZIN A   1      17.669   2.689  10.372  0.00  0.00     0.298 C 
ATOM     22  C24 ZIN A   1      19.876   2.917  11.343  0.00  0.00     0.273 C 
ENDBRANCH  14  15
TORSDOF 1
ENDMDL
MODEL 5
REMARK VINA RESULT:      -8.1      1.743      3.345
REMARK  1 active torsions:
REMARK  status: ('A' for Active; 'I' for Inactive)
REMARK    1  A    between atoms: N15_14  and  C16_15 
ROOT
ATOM      1  O1  ZIN A   1      19.647  -0.914  13.102  0.00  0.00    -0.267 OA
ATOM      2  C2  ZIN A   1      19.338   0.079  13.730  0.00  0.00     0.254 C 
ATOM      3  C3  ZIN A   1      19.035  -0.017  15.175  0.00  0.00     0.039 A 
ATOM      4  C4  ZIN A   1      18.807  -1.258  15.763  0.00  0.00     0.017 A 
ATOM      5  C5  ZIN A   1      18.511  -1.324  17.110  0.00  0.00     0.002 A 
ATOM      6  C6  ZIN A   1      18.446  -0.169  17.861  0.00  0.00     0.007 A 
ATOM      7  C7  ZIN A   1      18.679   1.077  17.283  0.00  0.00    -0.050 A 
ATOM      8  C8  ZIN A   1      18.973   1.151  15.943  0.00  0.00    -0.030 A 
ATOM      9  C9  ZIN A   1      19.252   2.469  15.267  0.00  0.00     0.038 C 
ATOM     10  C11 ZIN A   1      18.536   3.584  16.034  0.00  0.00     0.011 C 
ATOM     11  C12 ZIN A   1      19.014   3.568  17.483  0.00  0.00     0.005 C 
ATOM     12  C13 ZIN A   1      18.605   2.282  18.175  0.00  0.00     0.039 C 
ATOM     13  C14 ZIN A   1      18.745   2.445  13.827  0.00  0.00     0.136 C 
ATOM     14  N15 ZIN A   1      19.272   1.276  13.118  0.00  0.00    -0.341 N 
ENDROOT
BRANCH  14  15
ATOM     15  C16 ZIN A   1      19.719   1.409  11.729  0.00  0.00     0.120 C 
ATOM     16  C22 ZIN A   1      18.753   0.658  10.804  0.00  0.00     0.014 C 
ATOM     17  C21 ZIN A   1      19.222   0.841   9.355  0.00  0.00     0.037 C 
ATOM     18  C23 ZIN A   1      17.359   1.282  10.949  0.00  0.00     0.037 C 
ATOM     19  C20 ZIN A   1      19.252   2.336   9.026  0.00  0.00     0.273 C 
ATOM     20  N19 ZIN A   1      18.822   3.103  10.204  0.00  0.00     0.090 N 
ATOM     21  C18 ZIN A   1      19.736   2.889  11.335  0.00  0.00     0.298 C 
ATOM     22  C24 ZIN A   1      17.439   2.768  10.573  0.00  0.00     0.273 C 
ENDBRANCH  14  15
TORSDOF 1
ENDMDL
MODEL 6
REMARK VINA RESULT:      -8.1      1.867      2.355
REMARK  1 active torsions:
REMARK  status: ('A' for Active; 'I' for Inactive)
REMARK    1  A    between atoms: N15_14  and  C16_15 
ROOT
ATOM      1  O1  ZIN A   1      18.404   3.544  12.721  0.00  0.00    -0.267 OA
ATOM      2  C2  ZIN A   1      18.376   2.507  13.352  0.00  0.00     0.254 C 
ATOM      3  C3  ZIN A   1      18.653   2.510  14.805  0.00  0.00     0.039 A 
ATOM      4  C4  ZIN A   1      19.235   3.623  15.406  0.00  0.00     0.017 A 
ATOM      5  C5  ZIN A   1      19.500   3.601  16.761  0.00  0.00     0.002 A 
ATOM      6  C6  ZIN A   1      19.186   2.484  17.507  0.00  0.00     0.007 A 
ATOM      7  C7  ZIN A   1      18.598   1.368  16.917  0.00  0.00    -0.050 A 
ATOM      8  C8  ZIN A   1      18.333   1.382  15.569  0.00  0.00    -0.030 A 
ATOM      9  C9  ZIN A   1      17.682   0.211  14.879  0.00  0.00     0.038 C 
ATOM     10  C11 ZIN A   1      18.000  -1.067  15.659  0.00  0.00     0.011 C 
ATOM     11  C12 ZIN A   1      17.510  -0.900  17.095  0.00  0.00     0.005 C 
ATOM     12  C13 ZIN A   1      18.274   0.201  17.804  0.00  0.00     0.039 C 
ATOM     13  C14 ZIN A   1      18.211   0.073  13.453  0.00  0.00     0.136 C 
ATOM     14  N15 ZIN A   1      18.088   1.345  12.736  0.00  0.00    -0.341 N 
ENDROOT
BRANCH  14  15
ATOM     15  C16 ZIN A   1      17.659   1.351  11.335  0.00  0.00     0.120 C 
ATOM     16  C22 ZIN A   1      18.887   1.474  10.423  0.00  0.00     0.014 C 
ATOM     17  C21 ZIN A   1      18.417   1.444   8.963  0.00  0.00     0.037 C 
ATOM     18  C23 ZIN A   1      19.798   0.266  10.669  0.00  0.00     0.037 C 
ATOM     19  C20 ZIN A   1      17.670   0.131   8.709  0.00  0.00     0.273 C 
ATOM     20  N19 ZIN A   1      17.650  -0.665   9.944  0.00  0.00     0.090 N 
ATOM     21  C18 ZIN A   1      16.932   0.041  11.015  0.00  0.00     0.298 C 
ATOM     22  C24 ZIN A   1      19.013  -1.017  10.365  0.00  0.00     0.273 C 
ENDBRANCH  14  15
TORSDOF 1
ENDMDL
MODEL 7
REMARK VINA RESULT:      -8.1      6.243      9.472
REMARK  1 active torsions:
REMARK  status: ('A' for Active; 'I' for Inactive)
REMARK    1  A    between atoms: N15_14  and  C16_15 
ROOT
ATOM      1  O1  ZIN A   1      17.749  -3.771   6.952  0.00  0.00    -0.267 OA
ATOM      2  C2  ZIN A   1      18.089  -2.758   7.532  0.00  0.00     0.254 C 
ATOM      3  C3  ZIN A   1      18.563  -1.584   6.768  0.00  0.00     0.039 A 
ATOM      4  C4  ZIN A   1      18.908  -1.713   5.425  0.00  0.00     0.017 A 
ATOM      5  C5  ZIN A   1      19.363  -0.608   4.734  0.00  0.00     0.002 A 
ATOM      6  C6  ZIN A   1      19.468   0.611   5.372  0.00  0.00     0.007 A 
ATOM      7  C7  ZIN A   1      19.119   0.752   6.713  0.00  0.00    -0.050 A 
ATOM      8  C8  ZIN A   1      18.667  -0.344   7.408  0.00  0.00    -0.030 A 
ATOM      9  C9  ZIN A   1      18.258  -0.248   8.855  0.00  0.00     0.038 C 
ATOM     10  C11 ZIN A   1      19.014   0.911   9.511  0.00  0.00     0.011 C 
ATOM     11  C12 ZIN A   1      18.709   2.193   8.741  0.00  0.00     0.005 C 
ATOM     12  C13 ZIN A   1      19.248   2.116   7.325  0.00  0.00     0.039 C 
ATOM     13  C14 ZIN A   1      18.593  -1.544   9.589  0.00  0.00     0.136 C 
ATOM     14  N15 ZIN A   1      18.035  -2.696   8.876  0.00  0.00    -0.341 N 
ENDROOT
BRANCH  14  15
ATOM     15  C16 ZIN A   1      17.422  -3.792   9.631  0.00  0.00     0.120 C 
ATOM     16  C22 ZIN A   1      18.257  -5.067   9.453  0.00  0.00     0.014 C 
ATOM     17  C21 ZIN A   1      17.616  -6.189  10.280  0.00  0.00     0.037 C 
ATOM     18  C23 ZIN A   1      19.667  -4.804   9.995  0.00  0.00     0.037 C 
ATOM     19  C20 ZIN A   1      17.570  -5.761  11.749  0.00  0.00     0.273 C 
ATOM     20  N19 ZIN A   1      18.153  -4.418  11.884  0.00  0.00     0.090 N 
ATOM     21  C18 ZIN A   1      17.380  -3.429  11.119  0.00  0.00     0.298 C 
ATOM     22  C24 ZIN A   1      19.564  -4.415  11.477  0.00  0.00     0.273 C 
ENDBRANCH  14  15
TORSDOF 1
ENDMDL
MODEL 8
REMARK VINA RESULT:      -7.9      3.341      5.458
REMARK  1 active torsions:
REMARK  status: ('A' for Active; 'I' for Inactive)
REMARK    1  A    between atoms: N15_14  and  C16_15 
ROOT
ATOM      1  O1  ZIN A   1      20.509  -0.601  11.100  0.00  0.00    -0.267 OA
ATOM      2  C2  ZIN A   1      19.758   0.355  11.101  0.00  0.00     0.254 C 
ATOM      3  C3  ZIN A   1      19.423   1.038  12.370  0.00  0.00     0.039 A 
ATOM      4  C4  ZIN A   1      19.709   0.433  13.590  0.00  0.00     0.017 A 
ATOM      5  C5  ZIN A   1      19.375   1.080  14.762  0.00  0.00     0.002 A 
ATOM      6  C6  ZIN A   1      18.766   2.317  14.718  0.00  0.00     0.007 A 
ATOM      7  C7  ZIN A   1      18.481   2.934  13.503  0.00  0.00    -0.050 A 
ATOM      8  C8  ZIN A   1      18.810   2.295  12.331  0.00  0.00    -0.030 A 
ATOM      9  C9  ZIN A   1      18.542   2.921  10.987  0.00  0.00     0.038 C 
ATOM     10  C11 ZIN A   1      17.363   3.890  11.114  0.00  0.00     0.011 C 
ATOM     11  C12 ZIN A   1      17.696   4.932  12.178  0.00  0.00     0.005 C 
ATOM     12  C13 ZIN A   1      17.831   4.287  13.544  0.00  0.00     0.039 C 
ATOM     13  C14 ZIN A   1      18.200   1.847   9.958  0.00  0.00     0.136 C 
ATOM     14  N15 ZIN A   1      19.228   0.803   9.948  0.00  0.00    -0.341 N 
ENDROOT
BRANCH  14  15
ATOM     15  C16 ZIN A   1      19.674   0.234   8.673  0.00  0.00     0.120 C 
ATOM     16  C22 ZIN A   1      19.064  -1.162   8.492  0.00  0.00     0.014 C 
ATOM     17  C21 ZIN A   1      19.516  -1.721   7.137  0.00  0.00     0.037 C 
ATOM     18  C23 ZIN A   1      17.537  -1.026   8.480  0.00  0.00     0.037 C 
ATOM     19  C20 ZIN A   1      19.058  -0.770   6.028  0.00  0.00     0.273 C 
ATOM     20  N19 ZIN A   1      18.336   0.363   6.625  0.00  0.00     0.090 N 
ATOM     21  C18 ZIN A   1      19.211   1.132   7.521  0.00  0.00     0.298 C 
ATOM     22  C24 ZIN A   1      17.130  -0.094   7.329  0.00  0.00     0.273 C 
ENDBRANCH  14  15
TORSDOF 1
ENDMDL
MODEL 9
REMARK VINA RESULT:      -7.9      3.063      4.087
REMARK  1 active torsions:
REMARK  status: ('A' for Active; 'I' for Inactive)
REMARK    1  A    between atoms: N15_14  and  C16_15 
ROOT
ATOM      1  O1  ZIN A   1      17.260   1.392  11.785  0.00  0.00    -0.267 OA
ATOM      2  C2  ZIN A   1      17.736   0.781  12.721  0.00  0.00     0.254 C 
ATOM      3  C3  ZIN A   1      18.117   1.493  13.960  0.00  0.00     0.039 A 
ATOM      4  C4  ZIN A   1      18.220   2.882  13.968  0.00  0.00     0.017 A 
ATOM      5  C5  ZIN A   1      18.592   3.527  15.131  0.00  0.00     0.002 A 
ATOM      6  C6  ZIN A   1      18.855   2.797  16.272  0.00  0.00     0.007 A 
ATOM      7  C7  ZIN A   1      18.749   1.408  16.276  0.00  0.00    -0.050 A 
ATOM      8  C8  ZIN A   1      18.380   0.759  15.122  0.00  0.00    -0.030 A 
ATOM      9  C9  ZIN A   1      18.232  -0.740  15.071  0.00  0.00     0.038 C 
ATOM     10  C11 ZIN A   1      19.136  -1.367  16.136  0.00  0.00     0.011 C 
ATOM     11  C12 ZIN A   1      18.755  -0.797  17.500  0.00  0.00     0.005 C 
ATOM     12  C13 ZIN A   1      19.037   0.692  17.563  0.00  0.00     0.039 C 
ATOM     13  C14 ZIN A   1      18.637  -1.268  13.697  0.00  0.00     0.136 C 
ATOM     14  N15 ZIN A   1      17.917  -0.551  12.641  0.00  0.00    -0.341 N 
ENDROOT
BRANCH  14  15
ATOM     15  C16 ZIN A   1      17.401  -1.287  11.484  0.00  0.00     0.120 C 
ATOM     16  C22 ZIN A   1      18.291  -1.015  10.264  0.00  0.00     0.014 C 
ATOM     17  C21 ZIN A   1      17.752  -1.823   9.076  0.00  0.00     0.037 C 
ATOM     18  C23 ZIN A   1      19.711  -1.500  10.580  0.00  0.00     0.037 C 
ATOM     19  C20 ZIN A   1      17.756  -3.309   9.442  0.00  0.00     0.273 C 
ATOM     20  N19 ZIN A   1      18.275  -3.473  10.808  0.00  0.00     0.090 N 
ATOM     21  C18 ZIN A   1      17.415  -2.789  11.784  0.00  0.00     0.298 C 
ATOM     22  C24 ZIN A   1      19.662  -3.000  10.904  0.00  0.00     0.273 C 
ENDBRANCH  14  15
TORSDOF 1
ENDMDL
