MODEL 1
REMARK VINA RESULT:      -6.5      0.000      0.000
REMARK  11 active torsions:
REMARK  status: ('A' for Active; 'I' for Inactive)
REMARK    1  A    between atoms: O2_2  and  C3_3 
REMARK    2  A    between atoms: C3_3  and  C4_4 
REMARK    3  A    between atoms: C4_4  and  C5_5 
REMARK    4  A    between atoms: C5_5  and  C6_6 
REMARK    5  A    between atoms: C6_6  and  C7_7 
REMARK    6  A    between atoms: C7_7  and  C16_16 
REMARK    7  A    between atoms: N8_8  and  O9_9 
REMARK    8  A    between atoms: O9_9  and  C10_10 
REMARK    9  A    between atoms: C10_10  and  C11_11 
REMARK   10  A    between atoms: C11_11  and  N12_12 
REMARK   11  A    between atoms: C19_19  and  C20_20 
ROOT
ATOM      1  C7  <0> d   1      17.570   1.438  10.737  0.00  0.00     0.072 C 
ATOM      2  N8  <0> d   1      17.643   2.689  11.056  0.00  0.00    -0.138 NA
ENDROOT
BRANCH   1   3
ATOM      3  C6  <0> d   1      17.142   0.422  11.764  0.00  0.00     0.062 C 
BRANCH   3   4
ATOM      4  C5  <0> d   1      18.380  -0.270  12.341  0.00  0.00     0.008 C 
BRANCH   4   5
ATOM      5  C4  <0> d   1      18.320  -1.766  12.026  0.00  0.00     0.027 C 
BRANCH   5   6
ATOM      6  C3  <0> d   1      19.500  -2.147  11.131  0.00  0.00     0.167 C 
BRANCH   6   7
ATOM      7  O2  <0> d   1      20.157  -3.296  11.671  0.00  0.00    -0.396 OA
ATOM      8  C1  <0> d   1      19.776  -4.526  11.053  0.00  0.00     0.201 C 
ENDBRANCH   6   7
ENDBRANCH   5   6
ENDBRANCH   4   5
ENDBRANCH   3   4
ENDBRANCH   1   3
BRANCH   1   9
ATOM      9  C16 <0> d   1      17.907   1.005   9.366  0.00  0.00    -0.009 A 
ATOM     10  C25 <0> d   1      17.283  -0.113   8.810  0.00  0.00     0.014 A 
ATOM     11  C24 <0> d   1      17.599  -0.510   7.527  0.00  0.00     0.017 A 
ATOM     12  C19 <0> d   1      18.540   0.192   6.796  0.00  0.00     0.048 A 
ATOM     13  C18 <0> d   1      19.168   1.297   7.343  0.00  0.00     0.017 A 
ATOM     14  C17 <0> d   1      18.858   1.707   8.622  0.00  0.00     0.014 A 
BRANCH  12  15
ATOM     15  C20 <0> d   1      18.885  -0.250   5.396  0.00  0.00     0.417 C 
ATOM     16  F21 <0> d   1      17.708  -0.513   4.687  0.00  0.00    -0.166 F 
ATOM     17  F22 <0> d   1      19.602   0.763   4.752  0.00  0.00    -0.166 F 
ATOM     18  F23 <0> d   1      19.664  -1.410   5.452  0.00  0.00    -0.166 F 
ENDBRANCH  12  15
ENDBRANCH   1   9
BRANCH   2  19
ATOM     19  O9  <0> d   1      17.429   3.092  12.397  0.00  0.00    -0.255 OA
BRANCH  19  20
ATOM     20  C10 <0> d   1      18.630   3.374  13.118  0.00  0.00     0.231 C 
BRANCH  20  21
ATOM     21  C11 <0> d   1      19.590   4.158  12.221  0.00  0.00     0.258 C 
BRANCH  21  22
ATOM     22  N12 <0> d   1      20.660   3.267  11.751  0.00  0.00    -0.077 N 
ATOM     23  H13 <0> d   1      20.978   3.575  10.844  0.00  0.00     0.274 HD
ATOM     24  H14 <0> d   1      21.428   3.292  12.403  0.00  0.00     0.274 HD
ATOM     25  H15 <0> d   1      20.307   2.325  11.682  0.00  0.00     0.274 HD
ENDBRANCH  21  22
ENDBRANCH  20  21
ENDBRANCH  19  20
ENDBRANCH   2  19
TORSDOF 11
ENDMDL
MODEL 2
REMARK VINA RESULT:      -6.5      0.931      1.385
REMARK  11 active torsions:
REMARK  status: ('A' for Active; 'I' for Inactive)
REMARK    1  A    between atoms: O2_2  and  C3_3 
REMARK    2  A    between atoms: C3_3  and  C4_4 
REMARK    3  A    between atoms: C4_4  and  C5_5 
REMARK    4  A    between atoms: C5_5  and  C6_6 
REMARK    5  A    between atoms: C6_6  and  C7_7 
REMARK    6  A    between atoms: C7_7  and  C16_16 
REMARK    7  A    between atoms: N8_8  and  O9_9 
REMARK    8  A    between atoms: O9_9  and  C10_10 
REMARK    9  A    between atoms: C10_10  and  C11_11 
REMARK   10  A    between atoms: C11_11  and  N12_12 
REMARK   11  A    between atoms: C19_19  and  C20_20 
ROOT
ATOM      1  C7  <0> d   1      17.515   1.333  10.615  0.00  0.00     0.072 C 
ATOM      2  N8  <0> d   1      17.526   2.583  10.942  0.00  0.00    -0.138 NA
ENDROOT
BRANCH   1   3
ATOM      3  C6  <0> d   1      17.135   0.290  11.634  0.00  0.00     0.062 C 
BRANCH   3   4
ATOM      4  C5  <0> d   1      18.404  -0.333  12.222  0.00  0.00     0.008 C 
BRANCH   4   5
ATOM      5  C4  <0> d   1      18.148  -1.808  12.540  0.00  0.00     0.027 C 
BRANCH   5   6
ATOM      6  C3  <0> d   1      18.513  -2.662  11.325  0.00  0.00     0.167 C 
BRANCH   6   7
ATOM      7  O2  <0> d   1      17.326  -3.225  10.764  0.00  0.00    -0.396 OA
ATOM      8  C1  <0> d   1      16.953  -4.481  11.335  0.00  0.00     0.201 C 
ENDBRANCH   6   7
ENDBRANCH   5   6
ENDBRANCH   4   5
ENDBRANCH   3   4
ENDBRANCH   1   3
BRANCH   1   9
ATOM      9  C16 <0> d   1      17.877   0.926   9.242  0.00  0.00    -0.009 A 
ATOM     10  C25 <0> d   1      18.804   1.671   8.511  0.00  0.00     0.014 A 
ATOM     11  C24 <0> d   1      19.141   1.283   7.231  0.00  0.00     0.017 A 
ATOM     12  C19 <0> d   1      18.555   0.164   6.668  0.00  0.00     0.048 A 
ATOM     13  C18 <0> d   1      17.630  -0.575   7.384  0.00  0.00     0.017 A 
ATOM     14  C17 <0> d   1      17.288  -0.202   8.667  0.00  0.00     0.014 A 
BRANCH  12  15
ATOM     15  C20 <0> d   1      18.924  -0.252   5.266  0.00  0.00     0.417 C 
ATOM     16  F21 <0> d   1      17.760  -0.527   4.540  0.00  0.00    -0.166 F 
ATOM     17  F22 <0> d   1      19.627   0.784   4.644  0.00  0.00    -0.166 F 
ATOM     18  F23 <0> d   1      19.724  -1.397   5.315  0.00  0.00    -0.166 F 
ENDBRANCH  12  15
ENDBRANCH   1   9
BRANCH   2  19
ATOM     19  O9  <0> d   1      17.288   2.966  12.285  0.00  0.00    -0.255 OA
BRANCH  19  20
ATOM     20  C10 <0> d   1      18.455   3.420  12.975  0.00  0.00     0.231 C 
BRANCH  20  21
ATOM     21  C11 <0> d   1      19.441   4.017  11.970  0.00  0.00     0.258 C 
BRANCH  21  22
ATOM     22  N12 <0> d   1      20.516   3.050  11.704  0.00  0.00    -0.077 N 
ATOM     23  H13 <0> d   1      21.122   2.993  12.509  0.00  0.00     0.274 HD
ATOM     24  H14 <0> d   1      20.114   2.144  11.520  0.00  0.00     0.274 HD
ATOM     25  H15 <0> d   1      21.048   3.352  10.902  0.00  0.00     0.274 HD
ENDBRANCH  21  22
ENDBRANCH  20  21
ENDBRANCH  19  20
ENDBRANCH   2  19
TORSDOF 11
ENDMDL
MODEL 3
REMARK VINA RESULT:      -6.5      1.637      2.294
REMARK  11 active torsions:
REMARK  status: ('A' for Active; 'I' for Inactive)
REMARK    1  A    between atoms: O2_2  and  C3_3 
REMARK    2  A    between atoms: C3_3  and  C4_4 
REMARK    3  A    between atoms: C4_4  and  C5_5 
REMARK    4  A    between atoms: C5_5  and  C6_6 
REMARK    5  A    between atoms: C6_6  and  C7_7 
REMARK    6  A    between atoms: C7_7  and  C16_16 
REMARK    7  A    between atoms: N8_8  and  O9_9 
REMARK    8  A    between atoms: O9_9  and  C10_10 
REMARK    9  A    between atoms: C10_10  and  C11_11 
REMARK   10  A    between atoms: C11_11  and  N12_12 
REMARK   11  A    between atoms: C19_19  and  C20_20 
ROOT
ATOM      1  C7  <0> d   1      17.605   1.442  10.856  0.00  0.00     0.072 C 
ATOM      2  N8  <0> d   1      17.831   2.658  11.234  0.00  0.00    -0.138 NA
ENDROOT
BRANCH   1   3
ATOM      3  C6  <0> d   1      17.010   0.451  11.823  0.00  0.00     0.062 C 
BRANCH   3   4
ATOM      4  C5  <0> d   1      18.135  -0.265  12.574  0.00  0.00     0.008 C 
BRANCH   4   5
ATOM      5  C4  <0> d   1      17.884  -0.170  14.081  0.00  0.00     0.027 C 
BRANCH   5   6
ATOM      6  C3  <0> d   1      18.812  -1.139  14.815  0.00  0.00     0.167 C 
BRANCH   6   7
ATOM      7  O2  <0> d   1      18.145  -1.654  15.970  0.00  0.00    -0.396 OA
ATOM      8  C1  <0> d   1      17.374  -0.681  16.677  0.00  0.00     0.201 C 
ENDBRANCH   6   7
ENDBRANCH   5   6
ENDBRANCH   4   5
ENDBRANCH   3   4
ENDBRANCH   1   3
BRANCH   1   9
ATOM      9  C16 <0> d   1      17.930   1.025   9.478  0.00  0.00    -0.009 A 
ATOM     10  C25 <0> d   1      17.322  -0.103   8.925  0.00  0.00     0.014 A 
ATOM     11  C24 <0> d   1      17.627  -0.486   7.635  0.00  0.00     0.017 A 
ATOM     12  C19 <0> d   1      18.541   0.240   6.894  0.00  0.00     0.048 A 
ATOM     13  C18 <0> d   1      19.153   1.355   7.438  0.00  0.00     0.017 A 
ATOM     14  C17 <0> d   1      18.854   1.752   8.724  0.00  0.00     0.014 A 
BRANCH  12  15
ATOM     15  C20 <0> d   1      18.874  -0.186   5.486  0.00  0.00     0.417 C 
ATOM     16  F21 <0> d   1      19.670  -1.336   5.524  0.00  0.00    -0.166 F 
ATOM     17  F22 <0> d   1      17.692  -0.459   4.791  0.00  0.00    -0.166 F 
ATOM     18  F23 <0> d   1      19.569   0.841   4.840  0.00  0.00    -0.166 F 
ENDBRANCH  12  15
ENDBRANCH   1   9
BRANCH   2  19
ATOM     19  O9  <0> d   1      17.625   3.030  12.585  0.00  0.00    -0.255 OA
BRANCH  19  20
ATOM     20  C10 <0> d   1      18.804   3.493  13.247  0.00  0.00     0.231 C 
BRANCH  20  21
ATOM     21  C11 <0> d   1      19.715   4.192  12.236  0.00  0.00     0.258 C 
BRANCH  21  22
ATOM     22  N12 <0> d   1      20.728   3.245  11.753  0.00  0.00    -0.077 N 
ATOM     23  H13 <0> d   1      21.222   2.851  12.540  0.00  0.00     0.274 HD
ATOM     24  H14 <0> d   1      20.278   2.507  11.234  0.00  0.00     0.274 HD
ATOM     25  H15 <0> d   1      21.380   3.727  11.153  0.00  0.00     0.274 HD
ENDBRANCH  21  22
ENDBRANCH  20  21
ENDBRANCH  19  20
ENDBRANCH   2  19
TORSDOF 11
ENDMDL
MODEL 4
REMARK VINA RESULT:      -6.4      1.231      1.855
REMARK  11 active torsions:
REMARK  status: ('A' for Active; 'I' for Inactive)
REMARK    1  A    between atoms: O2_2  and  C3_3 
REMARK    2  A    between atoms: C3_3  and  C4_4 
REMARK    3  A    between atoms: C4_4  and  C5_5 
REMARK    4  A    between atoms: C5_5  and  C6_6 
REMARK    5  A    between atoms: C6_6  and  C7_7 
REMARK    6  A    between atoms: C7_7  and  C16_16 
REMARK    7  A    between atoms: N8_8  and  O9_9 
REMARK    8  A    between atoms: O9_9  and  C10_10 
REMARK    9  A    between atoms: C10_10  and  C11_11 
REMARK   10  A    between atoms: C11_11  and  N12_12 
REMARK   11  A    between atoms: C19_19  and  C20_20 
ROOT
ATOM      1  C7  <0> d   1      17.845   1.654  10.515  0.00  0.00     0.072 C 
ATOM      2  N8  <0> d   1      17.328   2.828  10.679  0.00  0.00    -0.138 NA
ENDROOT
BRANCH   1   3
ATOM      3  C6  <0> d   1      18.206   0.815  11.714  0.00  0.00     0.062 C 
BRANCH   3   4
ATOM      4  C5  <0> d   1      17.028  -0.097  12.069  0.00  0.00     0.008 C 
BRANCH   4   5
ATOM      5  C4  <0> d   1      17.458  -1.559  11.935  0.00  0.00     0.027 C 
BRANCH   5   6
ATOM      6  C3  <0> d   1      18.731  -1.795  12.750  0.00  0.00     0.167 C 
BRANCH   6   7
ATOM      7  O2  <0> d   1      18.422  -1.735  14.144  0.00  0.00    -0.396 OA
ATOM      8  C1  <0> d   1      19.349  -0.966  14.911  0.00  0.00     0.201 C 
ENDBRANCH   6   7
ENDBRANCH   5   6
ENDBRANCH   4   5
ENDBRANCH   3   4
ENDBRANCH   1   3
BRANCH   1   9
ATOM      9  C16 <0> d   1      18.085   1.137   9.153  0.00  0.00    -0.009 A 
ATOM     10  C25 <0> d   1      19.046   1.733   8.335  0.00  0.00     0.014 A 
ATOM     11  C24 <0> d   1      19.268   1.242   7.065  0.00  0.00     0.017 A 
ATOM     12  C19 <0> d   1      18.533   0.168   6.598  0.00  0.00     0.048 A 
ATOM     13  C18 <0> d   1      17.574  -0.424   7.401  0.00  0.00     0.017 A 
ATOM     14  C17 <0> d   1      17.345   0.054   8.674  0.00  0.00     0.014 A 
BRANCH  12  15
ATOM     15  C20 <0> d   1      18.777  -0.361   5.207  0.00  0.00     0.417 C 
ATOM     16  F21 <0> d   1      17.555  -0.696   4.616  0.00  0.00    -0.166 F 
ATOM     17  F22 <0> d   1      19.412   0.621   4.441  0.00  0.00    -0.166 F 
ATOM     18  F23 <0> d   1      19.589  -1.497   5.276  0.00  0.00    -0.166 F 
ENDBRANCH  12  15
ENDBRANCH   1   9
BRANCH   2  19
ATOM     19  O9  <0> d   1      17.201   3.370  11.981  0.00  0.00    -0.255 OA
BRANCH  19  20
ATOM     20  C10 <0> d   1      17.873   4.619  12.159  0.00  0.00     0.231 C 
BRANCH  20  21
ATOM     21  C11 <0> d   1      19.149   4.401  12.973  0.00  0.00     0.258 C 
BRANCH  21  22
ATOM     22  N12 <0> d   1      20.200   3.858  12.101  0.00  0.00    -0.077 N 
ATOM     23  H13 <0> d   1      19.777   3.307  11.369  0.00  0.00     0.274 HD
ATOM     24  H14 <0> d   1      20.722   4.617  11.692  0.00  0.00     0.274 HD
ATOM     25  H15 <0> d   1      20.820   3.277  12.644  0.00  0.00     0.274 HD
ENDBRANCH  21  22
ENDBRANCH  20  21
ENDBRANCH  19  20
ENDBRANCH   2  19
TORSDOF 11
ENDMDL
MODEL 5
REMARK VINA RESULT:      -6.4      2.104      3.972
REMARK  11 active torsions:
REMARK  status: ('A' for Active; 'I' for Inactive)
REMARK    1  A    between atoms: O2_2  and  C3_3 
REMARK    2  A    between atoms: C3_3  and  C4_4 
REMARK    3  A    between atoms: C4_4  and  C5_5 
REMARK    4  A    between atoms: C5_5  and  C6_6 
REMARK    5  A    between atoms: C6_6  and  C7_7 
REMARK    6  A    between atoms: C7_7  and  C16_16 
REMARK    7  A    between atoms: N8_8  and  O9_9 
REMARK    8  A    between atoms: O9_9  and  C10_10 
REMARK    9  A    between atoms: C10_10  and  C11_11 
REMARK   10  A    between atoms: C11_11  and  N12_12 
REMARK   11  A    between atoms: C19_19  and  C20_20 
ROOT
ATOM      1  C7  <0> d   1      18.630   1.473  10.013  0.00  0.00     0.072 C 
ATOM      2  N8  <0> d   1      18.383   0.717  11.033  0.00  0.00    -0.138 NA
ENDROOT
BRANCH   1   3
ATOM      3  C6  <0> d   1      19.027   2.912  10.220  0.00  0.00     0.062 C 
BRANCH   3   4
ATOM      4  C5  <0> d   1      17.780   3.798  10.161  0.00  0.00     0.008 C 
BRANCH   4   5
ATOM      5  C4  <0> d   1      17.541   4.435  11.531  0.00  0.00     0.027 C 
BRANCH   5   6
ATOM      6  C3  <0> d   1      18.886   4.746  12.190  0.00  0.00     0.167 C 
BRANCH   6   7
ATOM      7  O2  <0> d   1      18.848   4.348  13.562  0.00  0.00    -0.396 OA
ATOM      8  C1  <0> d   1      17.544   4.397  14.145  0.00  0.00     0.201 C 
ENDBRANCH   6   7
ENDBRANCH   5   6
ENDBRANCH   4   5
ENDBRANCH   3   4
ENDBRANCH   1   3
BRANCH   1   9
ATOM      9  C16 <0> d   1      18.521   0.927   8.645  0.00  0.00    -0.009 A 
ATOM     10  C25 <0> d   1      17.719  -0.189   8.398  0.00  0.00     0.014 A 
ATOM     11  C24 <0> d   1      17.618  -0.691   7.117  0.00  0.00     0.017 A 
ATOM     12  C19 <0> d   1      18.316  -0.098   6.081  0.00  0.00     0.048 A 
ATOM     13  C18 <0> d   1      19.119   1.004   6.321  0.00  0.00     0.017 A 
ATOM     14  C17 <0> d   1      19.225   1.519   7.596  0.00  0.00     0.014 A 
BRANCH  12  15
ATOM     15  C20 <0> d   1      18.205  -0.656   4.685  0.00  0.00     0.417 C 
ATOM     16  F21 <0> d   1      18.305   0.388   3.758  0.00  0.00    -0.166 F 
ATOM     17  F22 <0> d   1      19.237  -1.573   4.467  0.00  0.00    -0.166 F 
ATOM     18  F23 <0> d   1      16.971  -1.296   4.535  0.00  0.00    -0.166 F 
ENDBRANCH  12  15
ENDBRANCH   1   9
BRANCH   2  19
ATOM     19  O9  <0> d   1      18.379   1.267  12.338  0.00  0.00    -0.255 OA
BRANCH  19  20
ATOM     20  C10 <0> d   1      19.253   0.603  13.252  0.00  0.00     0.231 C 
BRANCH  20  21
ATOM     21  C11 <0> d   1      20.286  -0.210  12.470  0.00  0.00     0.258 C 
BRANCH  21  22
ATOM     22  N12 <0> d   1      21.449   0.636  12.168  0.00  0.00    -0.077 N 
ATOM     23  H13 <0> d   1      21.133   1.543  11.858  0.00  0.00     0.274 HD
ATOM     24  H14 <0> d   1      22.012   0.741  12.998  0.00  0.00     0.274 HD
ATOM     25  H15 <0> d   1      21.999   0.205  11.441  0.00  0.00     0.274 HD
ENDBRANCH  21  22
ENDBRANCH  20  21
ENDBRANCH  19  20
ENDBRANCH   2  19
TORSDOF 11
ENDMDL
MODEL 6
REMARK VINA RESULT:      -6.4      5.682      8.248
REMARK  11 active torsions:
REMARK  status: ('A' for Active; 'I' for Inactive)
REMARK    1  A    between atoms: O2_2  and  C3_3 
REMARK    2  A    between atoms: C3_3  and  C4_4 
REMARK    3  A    between atoms: C4_4  and  C5_5 
REMARK    4  A    between atoms: C5_5  and  C6_6 
REMARK    5  A    between atoms: C6_6  and  C7_7 
REMARK    6  A    between atoms: C7_7  and  C16_16 
REMARK    7  A    between atoms: N8_8  and  O9_9 
REMARK    8  A    between atoms: O9_9  and  C10_10 
REMARK    9  A    between atoms: C10_10  and  C11_11 
REMARK   10  A    between atoms: C11_11  and  N12_12 
REMARK   11  A    between atoms: C19_19  and  C20_20 
ROOT
ATOM      1  C7  <0> d   1      17.629  -0.894  12.547  0.00  0.00     0.072 C 
ATOM      2  N8  <0> d   1      17.747  -2.102  12.103  0.00  0.00    -0.138 NA
ENDROOT
BRANCH   1   3
ATOM      3  C6  <0> d   1      17.166   0.206  11.626  0.00  0.00     0.062 C 
BRANCH   3   4
ATOM      4  C5  <0> d   1      18.381   0.969  11.094  0.00  0.00     0.008 C 
BRANCH   4   5
ATOM      5  C4  <0> d   1      17.961   1.825   9.897  0.00  0.00     0.027 C 
BRANCH   5   6
ATOM      6  C3  <0> d   1      18.020   3.305  10.283  0.00  0.00     0.167 C 
BRANCH   6   7
ATOM      7  O2  <0> d   1      16.860   3.646  11.044  0.00  0.00    -0.396 OA
ATOM      8  C1  <0> d   1      16.775   5.030  11.385  0.00  0.00     0.201 C 
ENDBRANCH   6   7
ENDBRANCH   5   6
ENDBRANCH   4   5
ENDBRANCH   3   4
ENDBRANCH   1   3
BRANCH   1   9
ATOM      9  C16 <0> d   1      17.950  -0.591  13.956  0.00  0.00    -0.009 A 
ATOM     10  C25 <0> d   1      17.529   0.610  14.529  0.00  0.00     0.014 A 
ATOM     11  C24 <0> d   1      17.828   0.885  15.847  0.00  0.00     0.017 A 
ATOM     12  C19 <0> d   1      18.553  -0.022  16.598  0.00  0.00     0.048 A 
ATOM     13  C18 <0> d   1      18.979  -1.212  16.035  0.00  0.00     0.017 A 
ATOM     14  C17 <0> d   1      18.683  -1.502  14.720  0.00  0.00     0.014 A 
BRANCH  12  15
ATOM     15  C20 <0> d   1      18.881   0.287  18.037  0.00  0.00     0.417 C 
ATOM     16  F21 <0> d   1      19.744   1.386  18.092  0.00  0.00    -0.166 F 
ATOM     17  F22 <0> d   1      17.703   0.584  18.729  0.00  0.00    -0.166 F 
ATOM     18  F23 <0> d   1      19.500  -0.822  18.622  0.00  0.00    -0.166 F 
ENDBRANCH  12  15
ENDBRANCH   1   9
BRANCH   2  19
ATOM     19  O9  <0> d   1      17.548  -2.374  10.727  0.00  0.00    -0.255 OA
BRANCH  19  20
ATOM     20  C10 <0> d   1      18.625  -3.086  10.113  0.00  0.00     0.231 C 
BRANCH  20  21
ATOM     21  C11 <0> d   1      19.627  -3.517  11.185  0.00  0.00     0.258 C 
BRANCH  21  22
ATOM     22  N12 <0> d   1      20.675  -2.496  11.316  0.00  0.00    -0.077 N 
ATOM     23  H13 <0> d   1      21.559  -2.945  11.507  0.00  0.00     0.274 HD
ATOM     24  H14 <0> d   1      20.743  -1.973  10.457  0.00  0.00     0.274 HD
ATOM     25  H15 <0> d   1      20.444  -1.872  12.073  0.00  0.00     0.274 HD
ENDBRANCH  21  22
ENDBRANCH  20  21
ENDBRANCH  19  20
ENDBRANCH   2  19
TORSDOF 11
ENDMDL
MODEL 7
REMARK VINA RESULT:      -6.1      4.122      5.554
REMARK  11 active torsions:
REMARK  status: ('A' for Active; 'I' for Inactive)
REMARK    1  A    between atoms: O2_2  and  C3_3 
REMARK    2  A    between atoms: C3_3  and  C4_4 
REMARK    3  A    between atoms: C4_4  and  C5_5 
REMARK    4  A    between atoms: C5_5  and  C6_6 
REMARK    5  A    between atoms: C6_6  and  C7_7 
REMARK    6  A    between atoms: C7_7  and  C16_16 
REMARK    7  A    between atoms: N8_8  and  O9_9 
REMARK    8  A    between atoms: O9_9  and  C10_10 
REMARK    9  A    between atoms: C10_10  and  C11_11 
REMARK   10  A    between atoms: C11_11  and  N12_12 
REMARK   11  A    between atoms: C19_19  and  C20_20 
ROOT
ATOM      1  C7  <0> d   1      19.310  -1.188  12.857  0.00  0.00     0.072 C 
ATOM      2  N8  <0> d   1      19.454  -0.054  12.252  0.00  0.00    -0.138 NA
ENDROOT
BRANCH   1   3
ATOM      3  C6  <0> d   1      19.519  -1.279  14.347  0.00  0.00     0.062 C 
BRANCH   3   4
ATOM      4  C5  <0> d   1      18.164  -1.203  15.056  0.00  0.00     0.008 C 
BRANCH   4   5
ATOM      5  C4  <0> d   1      18.383  -1.126  16.568  0.00  0.00     0.027 C 
BRANCH   5   6
ATOM      6  C3  <0> d   1      17.318  -0.223  17.193  0.00  0.00     0.167 C 
BRANCH   6   7
ATOM      7  O2  <0> d   1      17.947   0.732  18.050  0.00  0.00    -0.396 OA
ATOM      8  C1  <0> d   1      19.355   0.541  18.200  0.00  0.00     0.201 C 
ENDBRANCH   6   7
ENDBRANCH   5   6
ENDBRANCH   4   5
ENDBRANCH   3   4
ENDBRANCH   1   3
BRANCH   1   9
ATOM      9  C16 <0> d   1      18.944  -2.394  12.087  0.00  0.00    -0.009 A 
ATOM     10  C25 <0> d   1      17.630  -2.577  11.654  0.00  0.00     0.014 A 
ATOM     11  C24 <0> d   1      17.295  -3.703  10.931  0.00  0.00     0.017 A 
ATOM     12  C19 <0> d   1      18.256  -4.655  10.646  0.00  0.00     0.048 A 
ATOM     13  C18 <0> d   1      19.560  -4.484  11.079  0.00  0.00     0.017 A 
ATOM     14  C17 <0> d   1      19.909  -3.360  11.797  0.00  0.00     0.014 A 
BRANCH  12  15
ATOM     15  C20 <0> d   1      17.883  -5.887   9.860  0.00  0.00     0.417 C 
ATOM     16  F21 <0> d   1      17.025  -5.530   8.815  0.00  0.00    -0.166 F 
ATOM     17  F22 <0> d   1      19.039  -6.472   9.335  0.00  0.00    -0.166 F 
ATOM     18  F23 <0> d   1      17.239  -6.799  10.702  0.00  0.00    -0.166 F 
ENDBRANCH  12  15
ENDBRANCH   1   9
BRANCH   2  19
ATOM     19  O9  <0> d   1      19.913   1.078  12.969  0.00  0.00    -0.255 OA
BRANCH  19  20
ATOM     20  C10 <0> d   1      18.983   2.163  13.001  0.00  0.00     0.231 C 
BRANCH  20  21
ATOM     21  C11 <0> d   1      19.474   3.281  12.080  0.00  0.00     0.258 C 
BRANCH  21  22
ATOM     22  N12 <0> d   1      20.821   2.958  11.591  0.00  0.00    -0.077 N 
ATOM     23  H13 <0> d   1      21.427   2.770  12.376  0.00  0.00     0.274 HD
ATOM     24  H14 <0> d   1      20.777   2.144  10.997  0.00  0.00     0.274 HD
ATOM     25  H15 <0> d   1      21.184   3.739  11.066  0.00  0.00     0.274 HD
ENDBRANCH  21  22
ENDBRANCH  20  21
ENDBRANCH  19  20
ENDBRANCH   2  19
TORSDOF 11
ENDMDL
MODEL 8
REMARK VINA RESULT:      -5.9      2.081      4.281
REMARK  11 active torsions:
REMARK  status: ('A' for Active; 'I' for Inactive)
REMARK    1  A    between atoms: O2_2  and  C3_3 
REMARK    2  A    between atoms: C3_3  and  C4_4 
REMARK    3  A    between atoms: C4_4  and  C5_5 
REMARK    4  A    between atoms: C5_5  and  C6_6 
REMARK    5  A    between atoms: C6_6  and  C7_7 
REMARK    6  A    between atoms: C7_7  and  C16_16 
REMARK    7  A    between atoms: N8_8  and  O9_9 
REMARK    8  A    between atoms: O9_9  and  C10_10 
REMARK    9  A    between atoms: C10_10  and  C11_11 
REMARK   10  A    between atoms: C11_11  and  N12_12 
REMARK   11  A    between atoms: C19_19  and  C20_20 
ROOT
ATOM      1  C7  <0> d   1      17.598  -0.449  10.028  0.00  0.00     0.072 C 
ATOM      2  N8  <0> d   1      17.525  -1.507  10.768  0.00  0.00    -0.138 NA
ENDROOT
BRANCH   1   3
ATOM      3  C6  <0> d   1      17.412   0.915  10.641  0.00  0.00     0.062 C 
BRANCH   3   4
ATOM      4  C5  <0> d   1      18.731   1.690  10.568  0.00  0.00     0.008 C 
BRANCH   4   5
ATOM      5  C4  <0> d   1      18.476   3.072   9.963  0.00  0.00     0.027 C 
BRANCH   5   6
ATOM      6  C3  <0> d   1      17.930   4.008  11.042  0.00  0.00     0.167 C 
BRANCH   6   7
ATOM      7  O2  <0> d   1      18.621   3.774  12.271  0.00  0.00    -0.396 OA
ATOM      8  C1  <0> d   1      19.686   4.693  12.523  0.00  0.00     0.201 C 
ENDBRANCH   6   7
ENDBRANCH   5   6
ENDBRANCH   4   5
ENDBRANCH   3   4
ENDBRANCH   1   3
BRANCH   1   9
ATOM      9  C16 <0> d   1      17.862  -0.578   8.581  0.00  0.00    -0.009 A 
ATOM     10  C25 <0> d   1      18.961  -1.312   8.131  0.00  0.00     0.014 A 
ATOM     11  C24 <0> d   1      19.200  -1.432   6.778  0.00  0.00     0.017 A 
ATOM     12  C19 <0> d   1      18.358  -0.819   5.867  0.00  0.00     0.048 A 
ATOM     13  C18 <0> d   1      17.271  -0.084   6.306  0.00  0.00     0.017 A 
ATOM     14  C17 <0> d   1      17.018   0.040   7.656  0.00  0.00     0.014 A 
BRANCH  12  15
ATOM     15  C20 <0> d   1      18.627  -0.950   4.390  0.00  0.00     0.417 C 
ATOM     16  F21 <0> d   1      19.494  -2.025   4.168  0.00  0.00    -0.166 F 
ATOM     17  F22 <0> d   1      17.423  -1.175   3.716  0.00  0.00    -0.166 F 
ATOM     18  F23 <0> d   1      19.215   0.227   3.916  0.00  0.00    -0.166 F 
ENDBRANCH  12  15
ENDBRANCH   1   9
BRANCH   2  19
ATOM     19  O9  <0> d   1      17.162  -1.392  12.133  0.00  0.00    -0.255 OA
BRANCH  19  20
ATOM     20  C10 <0> d   1      18.250  -1.576  13.041  0.00  0.00     0.231 C 
BRANCH  20  21
ATOM     21  C11 <0> d   1      19.270  -2.536  12.427  0.00  0.00     0.258 C 
BRANCH  21  22
ATOM     22  N12 <0> d   1      20.344  -1.766  11.786  0.00  0.00    -0.077 N 
ATOM     23  H13 <0> d   1      21.139  -1.717  12.407  0.00  0.00     0.274 HD
ATOM     24  H14 <0> d   1      20.616  -2.219  10.928  0.00  0.00     0.274 HD
ATOM     25  H15 <0> d   1      20.016  -0.833  11.585  0.00  0.00     0.274 HD
ENDBRANCH  21  22
ENDBRANCH  20  21
ENDBRANCH  19  20
ENDBRANCH   2  19
TORSDOF 11
ENDMDL
MODEL 9
REMARK VINA RESULT:      -5.9      5.035      7.555
REMARK  11 active torsions:
REMARK  status: ('A' for Active; 'I' for Inactive)
REMARK    1  A    between atoms: O2_2  and  C3_3 
REMARK    2  A    between atoms: C3_3  and  C4_4 
REMARK    3  A    between atoms: C4_4  and  C5_5 
REMARK    4  A    between atoms: C5_5  and  C6_6 
REMARK    5  A    between atoms: C6_6  and  C7_7 
REMARK    6  A    between atoms: C7_7  and  C16_16 
REMARK    7  A    between atoms: N8_8  and  O9_9 
REMARK    8  A    between atoms: O9_9  and  C10_10 
REMARK    9  A    between atoms: C10_10  and  C11_11 
REMARK   10  A    between atoms: C11_11  and  N12_12 
REMARK   11  A    between atoms: C19_19  and  C20_20 
ROOT
ATOM      1  C7  <0> d   1      19.428   0.522  11.120  0.00  0.00     0.072 C 
ATOM      2  N8  <0> d   1      19.645  -0.373  10.213  0.00  0.00    -0.138 NA
ENDROOT
BRANCH   1   3
ATOM      3  C6  <0> d   1      19.383   1.981  10.744  0.00  0.00     0.062 C 
BRANCH   3   4
ATOM      4  C5  <0> d   1      17.929   2.408  10.533  0.00  0.00     0.008 C 
BRANCH   4   5
ATOM      5  C4  <0> d   1      17.875   3.910  10.246  0.00  0.00     0.027 C 
BRANCH   5   6
ATOM      6  C3  <0> d   1      18.016   4.686  11.557  0.00  0.00     0.167 C 
BRANCH   6   7
ATOM      7  O2  <0> d   1      17.192   4.084  12.558  0.00  0.00    -0.396 OA
ATOM      8  C1  <0> d   1      17.662   4.280  13.893  0.00  0.00     0.201 C 
ENDBRANCH   6   7
ENDBRANCH   5   6
ENDBRANCH   4   5
ENDBRANCH   3   4
ENDBRANCH   1   3
BRANCH   1   9
ATOM      9  C16 <0> d   1      19.225   0.115  12.525  0.00  0.00    -0.009 A 
ATOM     10  C25 <0> d   1      18.811  -1.184  12.826  0.00  0.00     0.014 A 
ATOM     11  C24 <0> d   1      18.628  -1.559  14.141  0.00  0.00     0.017 A 
ATOM     12  C19 <0> d   1      18.843  -0.648  15.159  0.00  0.00     0.048 A 
ATOM     13  C18 <0> d   1      19.246   0.643  14.867  0.00  0.00     0.017 A 
ATOM     14  C17 <0> d   1      19.438   1.030  13.558  0.00  0.00     0.014 A 
BRANCH  12  15
ATOM     15  C20 <0> d   1      18.636  -1.063  16.594  0.00  0.00     0.417 C 
ATOM     16  F21 <0> d   1      18.825   0.042  17.430  0.00  0.00    -0.166 F 
ATOM     17  F22 <0> d   1      17.335  -1.551  16.753  0.00  0.00    -0.166 F 
ATOM     18  F23 <0> d   1      19.554  -2.063  16.927  0.00  0.00    -0.166 F 
ENDBRANCH  12  15
ENDBRANCH   1   9
BRANCH   2  19
ATOM     19  O9  <0> d   1      19.950   0.022   8.887  0.00  0.00    -0.255 OA
BRANCH  19  20
ATOM     20  C10 <0> d   1      18.965  -0.360   7.925  0.00  0.00     0.231 C 
BRANCH  20  21
ATOM     21  C11 <0> d   1      18.483  -1.780   8.227  0.00  0.00     0.258 C 
BRANCH  21  22
ATOM     22  N12 <0> d   1      19.613  -2.714   8.124  0.00  0.00    -0.077 N 
ATOM     23  H13 <0> d   1      19.827  -2.877   7.151  0.00  0.00     0.274 HD
ATOM     24  H14 <0> d   1      20.418  -2.318   8.584  0.00  0.00     0.274 HD
ATOM     25  H15 <0> d   1      19.369  -3.587   8.566  0.00  0.00     0.274 HD
ENDBRANCH  21  22
ENDBRANCH  20  21
ENDBRANCH  19  20
ENDBRANCH   2  19
TORSDOF 11
ENDMDL
