MODEL 1
REMARK VINA RESULT:      -9.1      0.000      0.000
REMARK  7 active torsions:
REMARK  status: ('A' for Active; 'I' for Inactive)
REMARK       I    between atoms: C2_2  and  N4_4 
REMARK    1  A    between atoms: N7_7  and  C8_8 
REMARK    2  A    between atoms: C11_11  and  O12_12 
REMARK    3  A    between atoms: O12_12  and  C13_13 
REMARK    4  A    between atoms: C13_13  and  C14_14 
REMARK    5  A    between atoms: C18_17  and  C19_18 
REMARK    6  A    between atoms: C18_17  and  C25_24 
REMARK    7  A    between atoms: C19_18  and  N20_19 
ROOT
ATOM      1  C14 <0> d   1      18.559  -0.356   9.016  0.00  0.00     0.173 C 
ATOM      2  C16 <0> d   1      20.007  -0.713   9.434  0.00  0.00     0.206 C 
ATOM      3  O17 <0> d   1      19.815  -1.693  10.474  0.00  0.00    -0.347 OA
ATOM      4  C18 <0> d   1      18.487  -1.519  10.983  0.00  0.00     0.212 C 
ATOM      5  O33 <0> d   1      17.860  -0.432  10.283  0.00  0.00    -0.340 OA
ENDROOT
BRANCH   1   6
ATOM      6  C13 <0> d   1      18.489   1.058   8.436  0.00  0.00     0.209 C 
BRANCH   6   7
ATOM      7  O12 <0> d   1      19.488   1.875   9.048  0.00  0.00    -0.349 OA
BRANCH   7   8
ATOM      8  C11 <0> d   1      19.085   2.692  10.058  0.00  0.00     0.069 A 
ATOM      9  C10 <0> d   1      19.617   2.539  11.329  0.00  0.00     0.039 A 
ATOM     10  C9  <0> d   1      19.209   3.369  12.354  0.00  0.00     0.032 A 
ATOM     11  C8  <0> d   1      18.263   4.356  12.112  0.00  0.00     0.030 A 
ATOM     12  C35 <0> d   1      17.726   4.505  10.841  0.00  0.00     0.032 A 
ATOM     13  C34 <0> d   1      18.140   3.678   9.815  0.00  0.00     0.039 A 
BRANCH  11  14
ATOM     14  N7  <0> d   1      17.848   5.197  13.151  0.00  0.00    -0.378 N 
ATOM     15  C6  <0> d   1      16.645   6.028  13.005  0.00  0.00     0.143 C 
ATOM     16  C5  <0> d   1      15.694   5.724  14.169  0.00  0.00     0.145 C 
ATOM     17  N4  <0> d   1      16.453   5.792  15.425  0.00  0.00    -0.349 N 
ATOM     18  C2  <0> d   1      16.054   6.603  16.426  0.00  0.00     0.215 C 
ATOM     19  C37 <0> d   1      17.660   4.964  15.570  0.00  0.00     0.145 C 
ATOM     20  C1  <0> d   1      14.815   7.445  16.263  0.00  0.00     0.117 C 
ATOM     21  O3  <0> d   1      16.692   6.653  17.456  0.00  0.00    -0.274 OA
ATOM     22  C36 <0> d   1      18.608   5.265  14.408  0.00  0.00     0.143 C 
ENDBRANCH  11  14
ENDBRANCH   7   8
ENDBRANCH   6   7
ENDBRANCH   1   6
BRANCH   4  23
ATOM     23  C19 <0> d   1      17.680  -2.802  10.767  0.00  0.00     0.203 C 
BRANCH  23  24
ATOM     24  N20 <0> d   1      18.511  -3.790  10.075  0.00  0.00    -0.345 N 
ATOM     25  C24 <0> d   1      19.419  -4.612  10.643  0.00  0.00     0.209 A 
ATOM     26  N23 <0> d   1      19.956  -5.350   9.710  0.00  0.00    -0.255 NA
ATOM     27  C22 <0> d   1      19.422  -5.022   8.525  0.00  0.00     0.135 A 
ATOM     28  C21 <0> d   1      18.516  -4.048   8.730  0.00  0.00     0.111 A 
ENDBRANCH  23  24
ENDBRANCH   4  23
BRANCH   4  29
ATOM     29  C25 <0> d   1      18.547  -1.201  12.455  0.00  0.00     0.027 A 
ATOM     30  C31 <0> d   1      17.646  -0.308  13.007  0.00  0.00     0.047 A 
ATOM     31  C30 <0> d   1      17.697  -0.021  14.360  0.00  0.00     0.048 A 
ATOM     32 Cl32 <0> d   1      16.443   0.442  12.006  0.00  0.00    -0.084 Cl
ATOM     33  C28 <0> d   1      18.657  -0.619  15.157  0.00  0.00     0.035 A 
ATOM     34  C27 <0> d   1      19.561  -1.508  14.602  0.00  0.00     0.024 A 
ATOM     35 Cl29 <0> d   1      18.728  -0.254  16.853  0.00  0.00    -0.084 Cl
ATOM     36  C26 <0> d   1      19.505  -1.798  13.252  0.00  0.00     0.016 A 
ENDBRANCH   4  29
TORSDOF 7
ENDMDL
MODEL 2
REMARK VINA RESULT:      -8.8      2.780      9.555
REMARK  7 active torsions:
REMARK  status: ('A' for Active; 'I' for Inactive)
REMARK       I    between atoms: C2_2  and  N4_4 
REMARK    1  A    between atoms: N7_7  and  C8_8 
REMARK    2  A    between atoms: C11_11  and  O12_12 
REMARK    3  A    between atoms: O12_12  and  C13_13 
REMARK    4  A    between atoms: C13_13  and  C14_14 
REMARK    5  A    between atoms: C18_17  and  C19_18 
REMARK    6  A    between atoms: C18_17  and  C25_24 
REMARK    7  A    between atoms: C19_18  and  N20_19 
ROOT
ATOM      1  C14 <0> d   1      18.675   0.247  13.642  0.00  0.00     0.173 C 
ATOM      2  C16 <0> d   1      20.099   0.670  13.204  0.00  0.00     0.206 C 
ATOM      3  O17 <0> d   1      19.848   1.705  12.232  0.00  0.00    -0.347 OA
ATOM      4  C18 <0> d   1      18.510   1.524  11.753  0.00  0.00     0.212 C 
ATOM      5  O33 <0> d   1      17.935   0.379  12.404  0.00  0.00    -0.340 OA
ENDROOT
BRANCH   1   6
ATOM      6  C13 <0> d   1      18.661  -1.201  14.137  0.00  0.00     0.209 C 
BRANCH   6   7
ATOM      7  O12 <0> d   1      19.551  -1.985  13.341  0.00  0.00    -0.349 OA
BRANCH   7   8
ATOM      8  C11 <0> d   1      19.024  -2.600  12.248  0.00  0.00     0.069 A 
ATOM      9  C10 <0> d   1      19.638  -2.463  11.012  0.00  0.00     0.039 A 
ATOM     10  C9  <0> d   1      19.104  -3.087   9.902  0.00  0.00     0.032 A 
ATOM     11  C8  <0> d   1      17.951  -3.850  10.023  0.00  0.00     0.030 A 
ATOM     12  C35 <0> d   1      17.333  -3.982  11.260  0.00  0.00     0.032 A 
ATOM     13  C34 <0> d   1      17.872  -3.362  12.370  0.00  0.00     0.039 A 
BRANCH  11  14
ATOM     14  N7  <0> d   1      17.408  -4.483   8.899  0.00  0.00    -0.378 N 
ATOM     15  C6  <0> d   1      18.049  -4.350   7.584  0.00  0.00     0.143 C 
ATOM     16  C5  <0> d   1      18.337  -5.754   7.035  0.00  0.00     0.145 C 
ATOM     17  N4  <0> d   1      17.115  -6.562   7.149  0.00  0.00    -0.349 N 
ATOM     18  C2  <0> d   1      16.591  -7.170   6.066  0.00  0.00     0.215 C 
ATOM     19  C37 <0> d   1      16.470  -6.690   8.464  0.00  0.00     0.145 C 
ATOM     20  C1  <0> d   1      17.264  -7.030   4.724  0.00  0.00     0.117 C 
ATOM     21  O3  <0> d   1      15.580  -7.831   6.172  0.00  0.00    -0.274 OA
ATOM     22  C36 <0> d   1      16.185  -5.291   9.013  0.00  0.00     0.143 C 
ENDBRANCH  11  14
ENDBRANCH   7   8
ENDBRANCH   6   7
ENDBRANCH   1   6
BRANCH   4  23
ATOM     23  C19 <0> d   1      17.676   2.767  12.071  0.00  0.00     0.203 C 
BRANCH  23  24
ATOM     24  N20 <0> d   1      18.487   3.715  12.841  0.00  0.00    -0.345 N 
ATOM     25  C24 <0> d   1      19.410   4.566  12.345  0.00  0.00     0.209 A 
ATOM     26  N23 <0> d   1      19.921   5.250  13.332  0.00  0.00    -0.255 NA
ATOM     27  C22 <0> d   1      19.353   4.858  14.482  0.00  0.00     0.135 A 
ATOM     28  C21 <0> d   1      18.453   3.897  14.197  0.00  0.00     0.111 A 
ENDBRANCH  23  24
ENDBRANCH   4  23
BRANCH   4  29
ATOM     29  C25 <0> d   1      18.532   1.298  10.263  0.00  0.00     0.027 A 
ATOM     30  C31 <0> d   1      17.626   0.428   9.682  0.00  0.00     0.047 A 
ATOM     31  C30 <0> d   1      17.642   0.225   8.313  0.00  0.00     0.048 A 
ATOM     32 Cl32 <0> d   1      16.459  -0.396  10.668  0.00  0.00    -0.084 Cl
ATOM     33  C28 <0> d   1      18.573   0.883   7.529  0.00  0.00     0.035 A 
ATOM     34  C27 <0> d   1      19.482   1.747   8.112  0.00  0.00     0.024 A 
ATOM     35 Cl29 <0> d   1      18.600   0.623   5.812  0.00  0.00    -0.084 Cl
ATOM     36  C26 <0> d   1      19.461   1.953   9.479  0.00  0.00     0.016 A 
ENDBRANCH   4  29
TORSDOF 7
ENDMDL
MODEL 3
REMARK VINA RESULT:      -8.7      3.565      8.370
REMARK  7 active torsions:
REMARK  status: ('A' for Active; 'I' for Inactive)
REMARK       I    between atoms: C2_2  and  N4_4 
REMARK    1  A    between atoms: N7_7  and  C8_8 
REMARK    2  A    between atoms: C11_11  and  O12_12 
REMARK    3  A    between atoms: O12_12  and  C13_13 
REMARK    4  A    between atoms: C13_13  and  C14_14 
REMARK    5  A    between atoms: C18_17  and  C19_18 
REMARK    6  A    between atoms: C18_17  and  C25_24 
REMARK    7  A    between atoms: C19_18  and  N20_19 
ROOT
ATOM      1  C14 <0> d   1      19.119   2.283  12.272  0.00  0.00     0.173 C 
ATOM      2  C16 <0> d   1      17.657   1.892  12.605  0.00  0.00     0.206 C 
ATOM      3  O17 <0> d   1      17.803   0.627  13.283  0.00  0.00    -0.347 OA
ATOM      4  C18 <0> d   1      19.076   0.086  12.905  0.00  0.00     0.212 C 
ATOM      5  O33 <0> d   1      19.712   0.992  11.988  0.00  0.00    -0.340 OA
ENDROOT
BRANCH   1   6
ATOM      6  C13 <0> d   1      19.177   3.195  11.046  0.00  0.00     0.209 C 
BRANCH   6   7
ATOM      7  O12 <0> d   1      18.091   2.885  10.170  0.00  0.00    -0.349 OA
BRANCH   7   8
ATOM      8  C11 <0> d   1      18.262   1.835   9.322  0.00  0.00     0.069 A 
ATOM      9  C10 <0> d   1      19.261   1.875   8.361  0.00  0.00     0.039 A 
ATOM     10  C9  <0> d   1      19.435   0.809   7.501  0.00  0.00     0.032 A 
ATOM     11  C8  <0> d   1      18.609  -0.302   7.597  0.00  0.00     0.030 A 
ATOM     12  C35 <0> d   1      17.605  -0.339   8.556  0.00  0.00     0.032 A 
ATOM     13  C34 <0> d   1      17.436   0.725   9.419  0.00  0.00     0.039 A 
BRANCH  11  14
ATOM     14  N7  <0> d   1      18.784  -1.383   6.725  0.00  0.00    -0.378 N 
ATOM     15  C6  <0> d   1      18.980  -2.742   7.247  0.00  0.00     0.143 C 
ATOM     16  C5  <0> d   1      17.920  -3.663   6.629  0.00  0.00     0.145 C 
ATOM     17  N4  <0> d   1      17.912  -3.458   5.174  0.00  0.00    -0.349 N 
ATOM     18  C2  <0> d   1      18.081  -4.498   4.334  0.00  0.00     0.215 C 
ATOM     19  C37 <0> d   1      17.722  -2.097   4.651  0.00  0.00     0.145 C 
ATOM     20  C1  <0> d   1      18.275  -5.888   4.885  0.00  0.00     0.117 C 
ATOM     21  O3  <0> d   1      18.077  -4.316   3.135  0.00  0.00    -0.274 OA
ATOM     22  C36 <0> d   1      18.776  -1.178   5.269  0.00  0.00     0.143 C 
ENDBRANCH  11  14
ENDBRANCH   7   8
ENDBRANCH   6   7
ENDBRANCH   1   6
BRANCH   4  23
ATOM     23  C19 <0> d   1      19.952  -0.086  14.148  0.00  0.00     0.203 C 
BRANCH  23  24
ATOM     24  N20 <0> d   1      19.118   0.004  15.349  0.00  0.00    -0.345 N 
ATOM     25  C24 <0> d   1      18.844   1.124  16.052  0.00  0.00     0.209 A 
ATOM     26  N23 <0> d   1      18.067   0.809  17.053  0.00  0.00    -0.255 NA
ATOM     27  C22 <0> d   1      17.826  -0.510  17.028  0.00  0.00     0.135 A 
ATOM     28  C21 <0> d   1      18.475  -1.033  15.970  0.00  0.00     0.111 A 
ENDBRANCH  23  24
ENDBRANCH   4  23
BRANCH   4  29
ATOM     29  C25 <0> d   1      18.878  -1.250  12.236  0.00  0.00     0.027 A 
ATOM     30  C31 <0> d   1      19.775  -1.682  11.275  0.00  0.00     0.047 A 
ATOM     31  C30 <0> d   1      19.598  -2.911  10.666  0.00  0.00     0.048 A 
ATOM     32 Cl32 <0> d   1      21.131  -0.687  10.845  0.00  0.00    -0.084 Cl
ATOM     33  C28 <0> d   1      18.517  -3.703  11.010  0.00  0.00     0.035 A 
ATOM     34  C27 <0> d   1      17.617  -3.267  11.967  0.00  0.00     0.024 A 
ATOM     35 Cl29 <0> d   1      18.288  -5.242  10.241  0.00  0.00    -0.084 Cl
ATOM     36  C26 <0> d   1      17.799  -2.041  12.578  0.00  0.00     0.016 A 
ENDBRANCH   4  29
TORSDOF 7
ENDMDL
MODEL 4
REMARK VINA RESULT:      -8.4      2.348      8.812
REMARK  7 active torsions:
REMARK  status: ('A' for Active; 'I' for Inactive)
REMARK       I    between atoms: C2_2  and  N4_4 
REMARK    1  A    between atoms: N7_7  and  C8_8 
REMARK    2  A    between atoms: C11_11  and  O12_12 
REMARK    3  A    between atoms: O12_12  and  C13_13 
REMARK    4  A    between atoms: C13_13  and  C14_14 
REMARK    5  A    between atoms: C18_17  and  C19_18 
REMARK    6  A    between atoms: C18_17  and  C25_24 
REMARK    7  A    between atoms: C19_18  and  N20_19 
ROOT
ATOM      1  C14 <0> d   1      18.181   4.986  12.785  0.00  0.00     0.173 C 
ATOM      2  C16 <0> d   1      16.861   4.708  13.546  0.00  0.00     0.206 C 
ATOM      3  O17 <0> d   1      17.314   4.347  14.866  0.00  0.00    -0.347 OA
ATOM      4  C18 <0> d   1      18.678   3.921  14.746  0.00  0.00     0.212 C 
ATOM      5  O33 <0> d   1      19.069   3.999  13.365  0.00  0.00    -0.340 OA
ENDROOT
BRANCH   1   6
ATOM      6  C13 <0> d   1      18.009   4.752  11.283  0.00  0.00     0.209 C 
BRANCH   6   7
ATOM      7  O12 <0> d   1      17.093   3.676  11.071  0.00  0.00    -0.349 OA
BRANCH   7   8
ATOM      8  C11 <0> d   1      17.616   2.495  10.641  0.00  0.00     0.069 A 
ATOM      9  C10 <0> d   1      18.573   2.486   9.638  0.00  0.00     0.039 A 
ATOM     10  C9  <0> d   1      19.105   1.288   9.201  0.00  0.00     0.032 A 
ATOM     11  C8  <0> d   1      18.679   0.094   9.766  0.00  0.00     0.030 A 
ATOM     12  C35 <0> d   1      17.717   0.104  10.767  0.00  0.00     0.032 A 
ATOM     13  C34 <0> d   1      17.191   1.303  11.206  0.00  0.00     0.039 A 
BRANCH  11  14
ATOM     14  N7  <0> d   1      19.217  -1.120   9.324  0.00  0.00    -0.378 N 
ATOM     15  C6  <0> d   1      19.577  -2.173  10.284  0.00  0.00     0.143 C 
ATOM     16  C5  <0> d   1      18.847  -3.464   9.893  0.00  0.00     0.145 C 
ATOM     17  N4  <0> d   1      19.062  -3.709   8.460  0.00  0.00    -0.349 N 
ATOM     18  C2  <0> d   1      19.581  -4.878   8.034  0.00  0.00     0.215 C 
ATOM     19  C37 <0> d   1      18.707  -2.654   7.500  0.00  0.00     0.145 C 
ATOM     20  C1  <0> d   1      19.940  -5.950   9.030  0.00  0.00     0.117 C 
ATOM     21  O3  <0> d   1      19.758  -5.067   6.849  0.00  0.00    -0.274 OA
ATOM     22  C36 <0> d   1      19.432  -1.365   7.891  0.00  0.00     0.143 C 
ENDBRANCH  11  14
ENDBRANCH   7   8
ENDBRANCH   6   7
ENDBRANCH   1   6
BRANCH   4  23
ATOM     23  C19 <0> d   1      19.577   4.831  15.587  0.00  0.00     0.203 C 
BRANCH  23  24
ATOM     24  N20 <0> d   1      18.953   6.151  15.712  0.00  0.00    -0.345 N 
ATOM     25  C24 <0> d   1      19.115   7.196  14.873  0.00  0.00     0.209 A 
ATOM     26  N23 <0> d   1      18.401   8.197  15.310  0.00  0.00    -0.255 NA
ATOM     27  C22 <0> d   1      17.770   7.832  16.436  0.00  0.00     0.135 A 
ATOM     28  C21 <0> d   1      18.102   6.555  16.705  0.00  0.00     0.111 A 
ENDBRANCH  23  24
ENDBRANCH   4  23
BRANCH   4  29
ATOM     29  C25 <0> d   1      18.808   2.499  15.226  0.00  0.00     0.027 A 
ATOM     30  C31 <0> d   1      18.624   2.200  16.565  0.00  0.00     0.047 A 
ATOM     31  C30 <0> d   1      18.737   0.894  17.005  0.00  0.00     0.048 A 
ATOM     32 Cl32 <0> d   1      18.237   3.465  17.690  0.00  0.00    -0.084 Cl
ATOM     33  C28 <0> d   1      19.045  -0.113  16.107  0.00  0.00     0.035 A 
ATOM     34  C27 <0> d   1      19.235   0.187  14.769  0.00  0.00     0.024 A 
ATOM     35 Cl29 <0> d   1      19.195  -1.752  16.658  0.00  0.00    -0.084 Cl
ATOM     36  C26 <0> d   1      19.116   1.493  14.330  0.00  0.00     0.016 A 
ENDBRANCH   4  29
TORSDOF 7
ENDMDL
MODEL 5
REMARK VINA RESULT:      -8.3      2.430      4.155
REMARK  7 active torsions:
REMARK  status: ('A' for Active; 'I' for Inactive)
REMARK       I    between atoms: C2_2  and  N4_4 
REMARK    1  A    between atoms: N7_7  and  C8_8 
REMARK    2  A    between atoms: C11_11  and  O12_12 
REMARK    3  A    between atoms: O12_12  and  C13_13 
REMARK    4  A    between atoms: C13_13  and  C14_14 
REMARK    5  A    between atoms: C18_17  and  C19_18 
REMARK    6  A    between atoms: C18_17  and  C25_24 
REMARK    7  A    between atoms: C19_18  and  N20_19 
ROOT
ATOM      1  C14 <0> d   1      18.167   0.460  10.781  0.00  0.00     0.173 C 
ATOM      2  C16 <0> d   1      16.814   0.094  11.440  0.00  0.00     0.206 C 
ATOM      3  O17 <0> d   1      17.072  -1.199  12.022  0.00  0.00    -0.347 OA
ATOM      4  C18 <0> d   1      18.199  -1.758  11.334  0.00  0.00     0.212 C 
ATOM      5  O33 <0> d   1      18.630  -0.833  10.322  0.00  0.00    -0.340 OA
ENDROOT
BRANCH   1   6
ATOM      6  C13 <0> d   1      17.964   1.419   9.607  0.00  0.00     0.209 C 
BRANCH   6   7
ATOM      7  O12 <0> d   1      18.836   2.541   9.751  0.00  0.00    -0.349 OA
BRANCH   7   8
ATOM      8  C11 <0> d   1      18.591   3.384  10.790  0.00  0.00     0.069 A 
ATOM      9  C10 <0> d   1      19.566   3.599  11.753  0.00  0.00     0.039 A 
ATOM     10  C9  <0> d   1      19.319   4.455  12.808  0.00  0.00     0.032 A 
ATOM     11  C8  <0> d   1      18.093   5.100  12.905  0.00  0.00     0.030 A 
ATOM     12  C35 <0> d   1      17.116   4.879  11.945  0.00  0.00     0.032 A 
ATOM     13  C34 <0> d   1      17.366   4.027  10.887  0.00  0.00     0.039 A 
BRANCH  11  14
ATOM     14  N7  <0> d   1      17.841   5.967  13.974  0.00  0.00    -0.378 N 
ATOM     15  C6  <0> d   1      16.468   6.377  14.297  0.00  0.00     0.143 C 
ATOM     16  C5  <0> d   1      16.188   6.038  15.768  0.00  0.00     0.145 C 
ATOM     17  N4  <0> d   1      17.293   6.556  16.586  0.00  0.00    -0.349 N 
ATOM     18  C2  <0> d   1      17.051   7.392  17.616  0.00  0.00     0.215 C 
ATOM     19  C37 <0> d   1      18.668   6.151  16.260  0.00  0.00     0.145 C 
ATOM     20  C1  <0> d   1      15.636   7.799  17.938  0.00  0.00     0.117 C 
ATOM     21  O3  <0> d   1      17.971   7.817  18.281  0.00  0.00    -0.274 OA
ATOM     22  C36 <0> d   1      18.947   6.485  14.793  0.00  0.00     0.143 C 
ENDBRANCH  11  14
ENDBRANCH   7   8
ENDBRANCH   6   7
ENDBRANCH   1   6
BRANCH   4  23
ATOM     23  C19 <0> d   1      19.339  -2.002  12.326  0.00  0.00     0.203 C 
BRANCH  23  24
ATOM     24  N20 <0> d   1      19.192  -1.097  13.469  0.00  0.00    -0.345 N 
ATOM     25  C24 <0> d   1      18.430  -1.306  14.563  0.00  0.00     0.209 A 
ATOM     26  N23 <0> d   1      18.558  -0.283  15.363  0.00  0.00    -0.255 NA
ATOM     27  C22 <0> d   1      19.392   0.610  14.809  0.00  0.00     0.135 A 
ATOM     28  C21 <0> d   1      19.800   0.119  13.623  0.00  0.00     0.111 A 
ENDBRANCH  23  24
ENDBRANCH   4  23
BRANCH   4  29
ATOM     29  C25 <0> d   1      17.802  -3.061  10.688  0.00  0.00     0.027 A 
ATOM     30  C31 <0> d   1      18.160  -3.321   9.377  0.00  0.00     0.047 A 
ATOM     31  C30 <0> d   1      17.801  -4.519   8.786  0.00  0.00     0.048 A 
ATOM     32 Cl32 <0> d   1      19.072  -2.149   8.478  0.00  0.00    -0.084 Cl
ATOM     33  C28 <0> d   1      17.074  -5.452   9.504  0.00  0.00     0.035 A 
ATOM     34  C27 <0> d   1      16.712  -5.189  10.813  0.00  0.00     0.024 A 
ATOM     35 Cl29 <0> d   1      16.617  -6.954   8.762  0.00  0.00    -0.084 Cl
ATOM     36  C26 <0> d   1      17.075  -3.993  11.404  0.00  0.00     0.016 A 
ENDBRANCH   4  29
TORSDOF 7
ENDMDL
MODEL 6
REMARK VINA RESULT:      -8.2      3.630      5.428
REMARK  7 active torsions:
REMARK  status: ('A' for Active; 'I' for Inactive)
REMARK       I    between atoms: C2_2  and  N4_4 
REMARK    1  A    between atoms: N7_7  and  C8_8 
REMARK    2  A    between atoms: C11_11  and  O12_12 
REMARK    3  A    between atoms: O12_12  and  C13_13 
REMARK    4  A    between atoms: C13_13  and  C14_14 
REMARK    5  A    between atoms: C18_17  and  C19_18 
REMARK    6  A    between atoms: C18_17  and  C25_24 
REMARK    7  A    between atoms: C19_18  and  N20_19 
ROOT
ATOM      1  C14 <0> d   1      18.232  -2.137   5.039  0.00  0.00     0.173 C 
ATOM      2  C16 <0> d   1      19.692  -2.114   5.556  0.00  0.00     0.206 C 
ATOM      3  O17 <0> d   1      19.881  -3.452   6.061  0.00  0.00    -0.347 OA
ATOM      4  C18 <0> d   1      18.581  -3.994   6.326  0.00  0.00     0.212 C 
ATOM      5  O33 <0> d   1      17.591  -3.003   6.006  0.00  0.00    -0.340 OA
ENDROOT
BRANCH   1   6
ATOM      6  C13 <0> d   1      17.619  -0.736   5.066  0.00  0.00     0.209 C 
BRANCH   6   7
ATOM      7  O12 <0> d   1      18.558   0.184   5.626  0.00  0.00    -0.349 OA
BRANCH   7   8
ATOM      8  C11 <0> d   1      18.383   0.526   6.932  0.00  0.00     0.069 A 
ATOM      9  C10 <0> d   1      19.154   1.532   7.493  0.00  0.00     0.039 A 
ATOM     10  C9  <0> d   1      18.978   1.881   8.818  0.00  0.00     0.032 A 
ATOM     11  C8  <0> d   1      18.028   1.222   9.588  0.00  0.00     0.030 A 
ATOM     12  C35 <0> d   1      17.261   0.210   9.026  0.00  0.00     0.032 A 
ATOM     13  C34 <0> d   1      17.435  -0.133   7.700  0.00  0.00     0.039 A 
BRANCH  11  14
ATOM     14  N7  <0> d   1      17.849   1.573  10.930  0.00  0.00    -0.378 N 
ATOM     15  C6  <0> d   1      17.739   0.538  11.967  0.00  0.00     0.143 C 
ATOM     16  C5  <0> d   1      18.800   0.806  13.043  0.00  0.00     0.145 C 
ATOM     17  N4  <0> d   1      18.717   2.218  13.441  0.00  0.00    -0.349 N 
ATOM     18  C2  <0> d   1      18.543   2.557  14.734  0.00  0.00     0.215 C 
ATOM     19  C37 <0> d   1      18.821   3.255  12.403  0.00  0.00     0.145 C 
ATOM     20  C1  <0> d   1      18.438   1.484  15.786  0.00  0.00     0.117 C 
ATOM     21  O3  <0> d   1      18.471   3.726  15.050  0.00  0.00    -0.274 OA
ATOM     22  C36 <0> d   1      17.766   2.986  11.329  0.00  0.00     0.143 C 
ENDBRANCH  11  14
ENDBRANCH   7   8
ENDBRANCH   6   7
ENDBRANCH   1   6
BRANCH   4  23
ATOM     23  C19 <0> d   1      18.358  -5.239   5.464  0.00  0.00     0.203 C 
BRANCH  23  24
ATOM     24  N20 <0> d   1      16.922  -5.420   5.231  0.00  0.00    -0.345 N 
ATOM     25  C24 <0> d   1      16.209  -4.921   4.199  0.00  0.00     0.209 A 
ATOM     26  N23 <0> d   1      14.966  -5.296   4.331  0.00  0.00    -0.255 NA
ATOM     27  C22 <0> d   1      14.841  -6.032   5.445  0.00  0.00     0.135 A 
ATOM     28  C21 <0> d   1      16.054  -6.122   6.024  0.00  0.00     0.111 A 
ENDBRANCH  23  24
ENDBRANCH   4  23
BRANCH   4  29
ATOM     29  C25 <0> d   1      18.474  -4.362   7.783  0.00  0.00     0.027 A 
ATOM     30  C31 <0> d   1      19.483  -5.089   8.389  0.00  0.00     0.047 A 
ATOM     31  C30 <0> d   1      19.388  -5.421   9.729  0.00  0.00     0.048 A 
ATOM     32 Cl32 <0> d   1      20.876  -5.572   7.472  0.00  0.00    -0.084 Cl
ATOM     33  C28 <0> d   1      18.277  -5.036  10.458  0.00  0.00     0.035 A 
ATOM     34  C27 <0> d   1      17.266  -4.314   9.850  0.00  0.00     0.024 A 
ATOM     35 Cl29 <0> d   1      18.152  -5.459  12.138  0.00  0.00    -0.084 Cl
ATOM     36  C26 <0> d   1      17.365  -3.978   8.513  0.00  0.00     0.016 A 
ENDBRANCH   4  29
TORSDOF 7
ENDMDL
MODEL 7
REMARK VINA RESULT:      -7.9      3.377      8.407
REMARK  7 active torsions:
REMARK  status: ('A' for Active; 'I' for Inactive)
REMARK       I    between atoms: C2_2  and  N4_4 
REMARK    1  A    between atoms: N7_7  and  C8_8 
REMARK    2  A    between atoms: C11_11  and  O12_12 
REMARK    3  A    between atoms: O12_12  and  C13_13 
REMARK    4  A    between atoms: C13_13  and  C14_14 
REMARK    5  A    between atoms: C18_17  and  C19_18 
REMARK    6  A    between atoms: C18_17  and  C25_24 
REMARK    7  A    between atoms: C19_18  and  N20_19 
ROOT
ATOM      1  C14 <0> d   1      18.960   4.536  14.036  0.00  0.00     0.173 C 
ATOM      2  C16 <0> d   1      19.586   5.766  14.740  0.00  0.00     0.206 C 
ATOM      3  O17 <0> d   1      19.732   5.322  16.104  0.00  0.00    -0.347 OA
ATOM      4  C18 <0> d   1      18.820   4.233  16.298  0.00  0.00     0.212 C 
ATOM      5  O33 <0> d   1      18.099   4.009  15.075  0.00  0.00    -0.340 OA
ENDROOT
BRANCH   1   6
ATOM      6  C13 <0> d   1      18.145   4.961  12.813  0.00  0.00     0.209 C 
BRANCH   6   7
ATOM      7  O12 <0> d   1      17.279   3.894  12.424  0.00  0.00    -0.349 OA
BRANCH   7   8
ATOM      8  C11 <0> d   1      17.738   3.043  11.466  0.00  0.00     0.069 A 
ATOM      9  C10 <0> d   1      17.392   1.701  11.508  0.00  0.00     0.039 A 
ATOM     10  C9  <0> d   1      17.857   0.837  10.536  0.00  0.00     0.032 A 
ATOM     11  C8  <0> d   1      18.672   1.313   9.518  0.00  0.00     0.030 A 
ATOM     12  C35 <0> d   1      19.022   2.656   9.480  0.00  0.00     0.032 A 
ATOM     13  C34 <0> d   1      18.552   3.520  10.450  0.00  0.00     0.039 A 
BRANCH  11  14
ATOM     14  N7  <0> d   1      19.144   0.438   8.533  0.00  0.00    -0.378 N 
ATOM     15  C6  <0> d   1      19.440  -0.964   8.856  0.00  0.00     0.143 C 
ATOM     16  C5  <0> d   1      18.641  -1.866   7.905  0.00  0.00     0.145 C 
ATOM     17  N4  <0> d   1      18.852  -1.398   6.529  0.00  0.00    -0.349 N 
ATOM     18  C2  <0> d   1      19.308  -2.239   5.580  0.00  0.00     0.215 C 
ATOM     19  C37 <0> d   1      18.562   0.007   6.206  0.00  0.00     0.145 C 
ATOM     20  C1  <0> d   1      19.601  -3.677   5.926  0.00  0.00     0.117 C 
ATOM     21  O3  <0> d   1      19.482  -1.840   4.448  0.00  0.00    -0.274 OA
ATOM     22  C36 <0> d   1      19.355   0.907   7.155  0.00  0.00     0.143 C 
ENDBRANCH  11  14
ENDBRANCH   7   8
ENDBRANCH   6   7
ENDBRANCH   1   6
BRANCH   4  23
ATOM     23  C19 <0> d   1      19.599   2.970  16.674  0.00  0.00     0.203 C 
BRANCH  23  24
ATOM     24  N20 <0> d   1      18.893   1.792  16.163  0.00  0.00    -0.345 N 
ATOM     25  C24 <0> d   1      18.026   1.018  16.848  0.00  0.00     0.209 A 
ATOM     26  N23 <0> d   1      17.601   0.068  16.060  0.00  0.00    -0.255 NA
ATOM     27  C22 <0> d   1      18.183   0.196  14.859  0.00  0.00     0.135 A 
ATOM     28  C21 <0> d   1      18.996   1.269  14.902  0.00  0.00     0.111 A 
ENDBRANCH  23  24
ENDBRANCH   4  23
BRANCH   4  29
ATOM     29  C25 <0> d   1      17.850   4.576  17.399  0.00  0.00     0.027 A 
ATOM     30  C31 <0> d   1      16.852   5.508  17.175  0.00  0.00     0.047 A 
ATOM     31  C30 <0> d   1      15.957   5.818  18.184  0.00  0.00     0.048 A 
ATOM     32 Cl32 <0> d   1      16.713   6.277  15.625  0.00  0.00    -0.084 Cl
ATOM     33  C28 <0> d   1      16.068   5.205  19.419  0.00  0.00     0.035 A 
ATOM     34  C27 <0> d   1      17.070   4.278  19.643  0.00  0.00     0.024 A 
ATOM     35 Cl29 <0> d   1      14.951   5.599  20.688  0.00  0.00    -0.084 Cl
ATOM     36  C26 <0> d   1      17.960   3.964  18.633  0.00  0.00     0.016 A 
ENDBRANCH   4  29
TORSDOF 7
ENDMDL
MODEL 8
REMARK VINA RESULT:      -7.9      2.775      9.155
REMARK  7 active torsions:
REMARK  status: ('A' for Active; 'I' for Inactive)
REMARK       I    between atoms: C2_2  and  N4_4 
REMARK    1  A    between atoms: N7_7  and  C8_8 
REMARK    2  A    between atoms: C11_11  and  O12_12 
REMARK    3  A    between atoms: O12_12  and  C13_13 
REMARK    4  A    between atoms: C13_13  and  C14_14 
REMARK    5  A    between atoms: C18_17  and  C19_18 
REMARK    6  A    between atoms: C18_17  and  C25_24 
REMARK    7  A    between atoms: C19_18  and  N20_19 
ROOT
ATOM      1  C14 <0> d   1      19.077   4.934  13.286  0.00  0.00     0.173 C 
ATOM      2  C16 <0> d   1      17.588   4.689  13.637  0.00  0.00     0.206 C 
ATOM      3  O17 <0> d   1      17.581   4.730  15.078  0.00  0.00    -0.347 OA
ATOM      4  C18 <0> d   1      18.920   4.467  15.518  0.00  0.00     0.212 C 
ATOM      5  O33 <0> d   1      19.752   4.246  14.367  0.00  0.00    -0.340 OA
ENDROOT
BRANCH   1   6
ATOM      6  C13 <0> d   1      19.431   4.311  11.935  0.00  0.00     0.209 C 
BRANCH   6   7
ATOM      7  O12 <0> d   1      18.237   4.100  11.179  0.00  0.00    -0.349 OA
BRANCH   7   8
ATOM      8  C11 <0> d   1      18.181   2.979  10.411  0.00  0.00     0.069 A 
ATOM      9  C10 <0> d   1      18.810   2.952   9.176  0.00  0.00     0.039 A 
ATOM     10  C9  <0> d   1      18.755   1.814   8.396  0.00  0.00     0.032 A 
ATOM     11  C8  <0> d   1      18.067   0.696   8.849  0.00  0.00     0.030 A 
ATOM     12  C35 <0> d   1      17.433   0.725  10.084  0.00  0.00     0.032 A 
ATOM     13  C34 <0> d   1      17.494   1.863  10.865  0.00  0.00     0.039 A 
BRANCH  11  14
ATOM     14  N7  <0> d   1      18.009  -0.458   8.060  0.00  0.00    -0.378 N 
ATOM     15  C6  <0> d   1      17.669  -0.373   6.633  0.00  0.00     0.143 C 
ATOM     16  C5  <0> d   1      18.786  -1.041   5.821  0.00  0.00     0.145 C 
ATOM     17  N4  <0> d   1      19.064  -2.360   6.404  0.00  0.00    -0.349 N 
ATOM     18  C2  <0> d   1      19.008  -3.473   5.644  0.00  0.00     0.215 C 
ATOM     19  C37 <0> d   1      19.400  -2.447   7.833  0.00  0.00     0.145 C 
ATOM     20  C1  <0> d   1      18.662  -3.368   4.181  0.00  0.00     0.117 C 
ATOM     21  O3  <0> d   1      19.235  -4.557   6.138  0.00  0.00    -0.274 OA
ATOM     22  C36 <0> d   1      18.288  -1.778   8.643  0.00  0.00     0.143 C 
ENDBRANCH  11  14
ENDBRANCH   7   8
ENDBRANCH   6   7
ENDBRANCH   1   6
BRANCH   4  23
ATOM     23  C19 <0> d   1      19.447   5.666  16.310  0.00  0.00     0.203 C 
BRANCH  23  24
ATOM     24  N20 <0> d   1      18.374   6.650  16.477  0.00  0.00    -0.345 N 
ATOM     25  C24 <0> d   1      17.480   6.696  17.487  0.00  0.00     0.209 A 
ATOM     26  N23 <0> d   1      16.684   7.713  17.294  0.00  0.00    -0.255 NA
ATOM     27  C22 <0> d   1      17.035   8.340  16.161  0.00  0.00     0.135 A 
ATOM     28  C21 <0> d   1      18.090   7.690  15.634  0.00  0.00     0.111 A 
ENDBRANCH  23  24
ENDBRANCH   4  23
BRANCH   4  29
ATOM     29  C25 <0> d   1      18.933   3.238  16.391  0.00  0.00     0.027 A 
ATOM     30  C31 <0> d   1      18.879   1.981  15.817  0.00  0.00     0.047 A 
ATOM     31  C30 <0> d   1      18.897   0.853  16.618  0.00  0.00     0.048 A 
ATOM     32 Cl32 <0> d   1      18.804   1.818  14.090  0.00  0.00    -0.084 Cl
ATOM     33  C28 <0> d   1      18.957   0.984  17.994  0.00  0.00     0.035 A 
ATOM     34  C27 <0> d   1      19.004   2.242  18.568  0.00  0.00     0.024 A 
ATOM     35 Cl29 <0> d   1      18.972  -0.430  19.001  0.00  0.00    -0.084 Cl
ATOM     36  C26 <0> d   1      18.991   3.368  17.766  0.00  0.00     0.016 A 
ENDBRANCH   4  29
TORSDOF 7
ENDMDL
MODEL 9
REMARK VINA RESULT:      -7.8      3.540      6.341
REMARK  7 active torsions:
REMARK  status: ('A' for Active; 'I' for Inactive)
REMARK       I    between atoms: C2_2  and  N4_4 
REMARK    1  A    between atoms: N7_7  and  C8_8 
REMARK    2  A    between atoms: C11_11  and  O12_12 
REMARK    3  A    between atoms: O12_12  and  C13_13 
REMARK    4  A    between atoms: C13_13  and  C14_14 
REMARK    5  A    between atoms: C18_17  and  C19_18 
REMARK    6  A    between atoms: C18_17  and  C25_24 
REMARK    7  A    between atoms: C19_18  and  N20_19 
ROOT
ATOM      1  C14 <0> d   1      19.043  -5.194   7.635  0.00  0.00     0.173 C 
ATOM      2  C16 <0> d   1      17.529  -4.886   7.743  0.00  0.00     0.206 C 
ATOM      3  O17 <0> d   1      17.380  -3.694   6.947  0.00  0.00    -0.347 OA
ATOM      4  C18 <0> d   1      18.671  -3.076   6.860  0.00  0.00     0.212 C 
ATOM      5  O33 <0> d   1      19.613  -3.863   7.607  0.00  0.00    -0.340 OA
ENDROOT
BRANCH   1   6
ATOM      6  C13 <0> d   1      19.533  -5.974   8.856  0.00  0.00     0.209 C 
BRANCH   6   7
ATOM      7  O12 <0> d   1      18.603  -5.814   9.928  0.00  0.00    -0.349 OA
BRANCH   7   8
ATOM      8  C11 <0> d   1      18.764  -4.726  10.728  0.00  0.00     0.069 A 
ATOM      9  C10 <0> d   1      17.656  -4.104  11.284  0.00  0.00     0.039 A 
ATOM     10  C9  <0> d   1      17.819  -3.000  12.097  0.00  0.00     0.032 A 
ATOM     11  C8  <0> d   1      19.092  -2.512  12.357  0.00  0.00     0.030 A 
ATOM     12  C35 <0> d   1      20.201  -3.132  11.797  0.00  0.00     0.032 A 
ATOM     13  C34 <0> d   1      20.037  -4.239  10.988  0.00  0.00     0.039 A 
BRANCH  11  14
ATOM     14  N7  <0> d   1      19.259  -1.392  13.181  0.00  0.00    -0.378 N 
ATOM     15  C6  <0> d   1      19.584  -0.081  12.604  0.00  0.00     0.143 C 
ATOM     16  C5  <0> d   1      18.534   0.935  13.073  0.00  0.00     0.145 C 
ATOM     17  N4  <0> d   1      18.387   0.819  14.530  0.00  0.00    -0.349 N 
ATOM     18  C2  <0> d   1      18.548   1.897  15.323  0.00  0.00     0.215 C 
ATOM     19  C37 <0> d   1      18.067  -0.494  15.108  0.00  0.00     0.145 C 
ATOM     20  C1  <0> d   1      18.875   3.237  14.716  0.00  0.00     0.117 C 
ATOM     21  O3  <0> d   1      18.428   1.788  16.526  0.00  0.00    -0.274 OA
ATOM     22  C36 <0> d   1      19.112  -1.508  14.639  0.00  0.00     0.143 C 
ENDBRANCH  11  14
ENDBRANCH   7   8
ENDBRANCH   6   7
ENDBRANCH   1   6
BRANCH   4  23
ATOM     23  C19 <0> d   1      19.109  -3.003   5.395  0.00  0.00     0.203 C 
BRANCH  23  24
ATOM     24  N20 <0> d   1      18.043  -3.532   4.540  0.00  0.00    -0.345 N 
ATOM     25  C24 <0> d   1      17.913  -4.808   4.118  0.00  0.00     0.209 A 
ATOM     26  N23 <0> d   1      16.841  -4.896   3.379  0.00  0.00    -0.255 NA
ATOM     27  C22 <0> d   1      16.260  -3.691   3.297  0.00  0.00     0.135 A 
ATOM     28  C21 <0> d   1      16.996  -2.822   4.016  0.00  0.00     0.111 A 
ENDBRANCH  23  24
ENDBRANCH   4  23
BRANCH   4  29
ATOM     29  C25 <0> d   1      18.606  -1.686   7.438  0.00  0.00     0.027 A 
ATOM     30  C31 <0> d   1      19.032  -0.604   6.688  0.00  0.00     0.047 A 
ATOM     31  C30 <0> d   1      18.967   0.673   7.216  0.00  0.00     0.048 A 
ATOM     32 Cl32 <0> d   1      19.634  -0.848   5.078  0.00  0.00    -0.084 Cl
ATOM     33  C28 <0> d   1      18.487   0.866   8.499  0.00  0.00     0.035 A 
ATOM     34  C27 <0> d   1      18.067  -0.218   9.251  0.00  0.00     0.024 A 
ATOM     35 Cl29 <0> d   1      18.412   2.467   9.167  0.00  0.00    -0.084 Cl
ATOM     36  C26 <0> d   1      18.128  -1.492   8.720  0.00  0.00     0.016 A 
ENDBRANCH   4  29
TORSDOF 7
ENDMDL
