MODEL 1
REMARK VINA RESULT:      -5.6      0.000      0.000
REMARK  4 active torsions:
REMARK  status: ('A' for Active; 'I' for Inactive)
REMARK    1  A    between atoms: N1_1  and  N2_2 
REMARK    2  A    between atoms: N2_2  and  C3_3 
REMARK    3  A    between atoms: C3_3  and  C4_4 
REMARK    4  A    between atoms: C4_4  and  C5_5 
ROOT
ATOM      1  C4  <0> d   1      19.391   0.568  10.373  0.00  0.00     0.054 C 
ENDROOT
BRANCH   1   2
ATOM      2  C3  <0> d   1      20.123  -0.748  10.649  0.00  0.00     0.109 C 
BRANCH   2   3
ATOM      3  N2  <0> d   1      21.510  -0.464  11.037  0.00  0.00    -0.263 NA
ATOM      4  H13 <0> d   1      22.061  -0.190  10.238  0.00  0.00     0.140 HD
BRANCH   3   5
ATOM      5  N1  <0> d   1      21.563   0.550  12.078  0.00  0.00    -0.271 NA
ATOM      6  H11 <0> d   1      21.607   1.476  11.679  0.00  0.00     0.137 HD
ATOM      7  H12 <0> d   1      20.778   0.464  12.705  0.00  0.00     0.137 HD
ENDBRANCH   3   5
ENDBRANCH   2   3
ENDBRANCH   1   2
BRANCH   1   8
ATOM      8  C5  <0> d   1      18.846   0.554   8.968  0.00  0.00    -0.057 A 
ATOM      9  C10 <0> d   1      19.434   1.338   7.991  0.00  0.00     0.007 A 
ATOM     10  C9  <0> d   1      18.937   1.321   6.702  0.00  0.00     0.001 A 
ATOM     11  C8  <0> d   1      17.847   0.530   6.390  0.00  0.00     0.000 A 
ATOM     12  C7  <0> d   1      17.257  -0.250   7.367  0.00  0.00     0.001 A 
ATOM     13  C6  <0> d   1      17.756  -0.238   8.656  0.00  0.00     0.007 A 
ENDBRANCH   1   8
TORSDOF 4
ENDMDL
MODEL 2
REMARK VINA RESULT:      -5.6      4.218      6.419
REMARK  4 active torsions:
REMARK  status: ('A' for Active; 'I' for Inactive)
REMARK    1  A    between atoms: N1_1  and  N2_2 
REMARK    2  A    between atoms: N2_2  and  C3_3 
REMARK    3  A    between atoms: C3_3  and  C4_4 
REMARK    4  A    between atoms: C4_4  and  C5_5 
ROOT
ATOM      1  C4  <0> d   1      19.428  -0.512  12.703  0.00  0.00     0.054 C 
ENDROOT
BRANCH   1   2
ATOM      2  C3  <0> d   1      20.190   0.804  12.534  0.00  0.00     0.109 C 
BRANCH   2   3
ATOM      3  N2  <0> d   1      21.550   0.525  12.056  0.00  0.00    -0.263 NA
ATOM      4  H13 <0> d   1      22.158   0.273  12.822  0.00  0.00     0.140 HD
BRANCH   3   5
ATOM      5  N1  <0> d   1      21.541  -0.511  11.036  0.00  0.00    -0.271 NA
ATOM      6  H11 <0> d   1      21.542  -1.430  11.454  0.00  0.00     0.137 HD
ATOM      7  H12 <0> d   1      20.757  -0.398  10.413  0.00  0.00     0.137 HD
ENDBRANCH   3   5
ENDBRANCH   2   3
ENDBRANCH   1   2
BRANCH   1   8
ATOM      8  C5  <0> d   1      18.866  -0.591  14.100  0.00  0.00    -0.057 A 
ATOM      9  C10 <0> d   1      17.810   0.223  14.466  0.00  0.00     0.007 A 
ATOM     10  C9  <0> d   1      17.292   0.148  15.746  0.00  0.00     0.001 A 
ATOM     11  C8  <0> d   1      17.836  -0.734  16.661  0.00  0.00     0.000 A 
ATOM     12  C7  <0> d   1      18.894  -1.544  16.296  0.00  0.00     0.001 A 
ATOM     13  C6  <0> d   1      19.410  -1.472  15.015  0.00  0.00     0.007 A 
ENDBRANCH   1   8
TORSDOF 4
ENDMDL
MODEL 3
REMARK VINA RESULT:      -5.6      1.132      2.002
REMARK  4 active torsions:
REMARK  status: ('A' for Active; 'I' for Inactive)
REMARK    1  A    between atoms: N1_1  and  N2_2 
REMARK    2  A    between atoms: N2_2  and  C3_3 
REMARK    3  A    between atoms: C3_3  and  C4_4 
REMARK    4  A    between atoms: C4_4  and  C5_5 
ROOT
ATOM      1  C4  <0> d   1      19.186   2.368  10.115  0.00  0.00     0.054 C 
ENDROOT
BRANCH   1   2
ATOM      2  C3  <0> d   1      19.469   1.457  11.312  0.00  0.00     0.109 C 
BRANCH   2   3
ATOM      3  N2  <0> d   1      20.777   1.799  11.887  0.00  0.00    -0.263 NA
ATOM      4  H13 <0> d   1      20.671   2.345  12.728  0.00  0.00     0.140 HD
BRANCH   3   5
ATOM      5  N1  <0> d   1      21.564   0.602  12.139  0.00  0.00    -0.271 NA
ATOM      6  H11 <0> d   1      21.934   0.604  13.078  0.00  0.00     0.137 HD
ATOM      7  H12 <0> d   1      21.020  -0.230  11.967  0.00  0.00     0.137 HD
ENDBRANCH   3   5
ENDBRANCH   2   3
ENDBRANCH   1   2
BRANCH   1   8
ATOM      8  C5  <0> d   1      18.688   1.537   8.960  0.00  0.00    -0.057 A 
ATOM      9  C10 <0> d   1      17.725   0.568   9.171  0.00  0.00     0.007 A 
ATOM     10  C9  <0> d   1      17.264  -0.191   8.111  0.00  0.00     0.001 A 
ATOM     11  C8  <0> d   1      17.773   0.014   6.842  0.00  0.00     0.000 A 
ATOM     12  C7  <0> d   1      18.739   0.980   6.632  0.00  0.00     0.001 A 
ATOM     13  C6  <0> d   1      19.197   1.742   7.691  0.00  0.00     0.007 A 
ENDBRANCH   1   8
TORSDOF 4
ENDMDL
MODEL 4
REMARK VINA RESULT:      -5.5      3.485      4.450
REMARK  4 active torsions:
REMARK  status: ('A' for Active; 'I' for Inactive)
REMARK    1  A    between atoms: N1_1  and  N2_2 
REMARK    2  A    between atoms: N2_2  and  C3_3 
REMARK    3  A    between atoms: C3_3  and  C4_4 
REMARK    4  A    between atoms: C4_4  and  C5_5 
ROOT
ATOM      1  C4  <0> d   1      18.109  -0.453   6.191  0.00  0.00     0.054 C 
ENDROOT
BRANCH   1   2
ATOM      2  C3  <0> d   1      18.914   0.268   5.108  0.00  0.00     0.109 C 
BRANCH   2   3
ATOM      3  N2  <0> d   1      19.976  -0.619   4.615  0.00  0.00    -0.263 NA
ATOM      4  H13 <0> d   1      20.695  -0.745   5.312  0.00  0.00     0.140 HD
BRANCH   3   5
ATOM      5  N1  <0> d   1      19.431  -1.899   4.192  0.00  0.00    -0.271 NA
ATOM      6  H11 <0> d   1      20.138  -2.618   4.216  0.00  0.00     0.137 HD
ATOM      7  H12 <0> d   1      18.634  -2.156   4.755  0.00  0.00     0.137 HD
ENDBRANCH   3   5
ENDBRANCH   2   3
ENDBRANCH   1   2
BRANCH   1   8
ATOM      8  C5  <0> d   1      18.193   0.325   7.480  0.00  0.00    -0.057 A 
ATOM      9  C10 <0> d   1      19.023   1.427   7.568  0.00  0.00     0.007 A 
ATOM     10  C9  <0> d   1      19.096   2.144   8.748  0.00  0.00     0.001 A 
ATOM     11  C8  <0> d   1      18.347   1.753   9.842  0.00  0.00     0.000 A 
ATOM     12  C7  <0> d   1      17.520   0.649   9.755  0.00  0.00     0.001 A 
ATOM     13  C6  <0> d   1      17.443  -0.066   8.573  0.00  0.00     0.007 A 
ENDBRANCH   1   8
TORSDOF 4
ENDMDL
MODEL 5
REMARK VINA RESULT:      -5.5      3.485      4.680
REMARK  4 active torsions:
REMARK  status: ('A' for Active; 'I' for Inactive)
REMARK    1  A    between atoms: N1_1  and  N2_2 
REMARK    2  A    between atoms: N2_2  and  C3_3 
REMARK    3  A    between atoms: C3_3  and  C4_4 
REMARK    4  A    between atoms: C4_4  and  C5_5 
ROOT
ATOM      1  C4  <0> d   1      18.192  -0.462   6.279  0.00  0.00     0.054 C 
ENDROOT
BRANCH   1   2
ATOM      2  C3  <0> d   1      18.961   0.301   5.198  0.00  0.00     0.109 C 
BRANCH   2   3
ATOM      3  N2  <0> d   1      19.994  -0.571   4.624  0.00  0.00    -0.263 NA
ATOM      4  H13 <0> d   1      20.755  -0.707   5.272  0.00  0.00     0.140 HD
BRANCH   3   5
ATOM      5  N1  <0> d   1      19.429  -1.846   4.212  0.00  0.00    -0.271 NA
ATOM      6  H11 <0> d   1      19.482  -1.958   3.211  0.00  0.00     0.137 HD
ATOM      7  H12 <0> d   1      19.881  -2.612   4.686  0.00  0.00     0.137 HD
ENDBRANCH   3   5
ENDBRANCH   2   3
ENDBRANCH   1   2
BRANCH   1   8
ATOM      8  C5  <0> d   1      18.225   0.322   7.566  0.00  0.00    -0.057 A 
ATOM      9  C10 <0> d   1      17.430  -0.064   8.630  0.00  0.00     0.007 A 
ATOM     10  C9  <0> d   1      17.464   0.652   9.812  0.00  0.00     0.001 A 
ATOM     11  C8  <0> d   1      18.284   1.759   9.927  0.00  0.00     0.000 A 
ATOM     12  C7  <0> d   1      19.075   2.147   8.862  0.00  0.00     0.001 A 
ATOM     13  C6  <0> d   1      19.045   1.429   7.681  0.00  0.00     0.007 A 
ENDBRANCH   1   8
TORSDOF 4
ENDMDL
MODEL 6
REMARK VINA RESULT:      -5.2      1.277      1.754
REMARK  4 active torsions:
REMARK  status: ('A' for Active; 'I' for Inactive)
REMARK    1  A    between atoms: N1_1  and  N2_2 
REMARK    2  A    between atoms: N2_2  and  C3_3 
REMARK    3  A    between atoms: C3_3  and  C4_4 
REMARK    4  A    between atoms: C4_4  and  C5_5 
ROOT
ATOM      1  C4  <0> d   1      19.448  -1.209   9.455  0.00  0.00     0.054 C 
ENDROOT
BRANCH   1   2
ATOM      2  C3  <0> d   1      19.918  -0.117  10.418  0.00  0.00     0.109 C 
BRANCH   2   3
ATOM      3  N2  <0> d   1      21.265  -0.441  10.906  0.00  0.00    -0.263 NA
ATOM      4  H13 <0> d   1      21.942  -0.390  10.161  0.00  0.00     0.140 HD
BRANCH   3   5
ATOM      5  N1  <0> d   1      21.640   0.425  12.013  0.00  0.00    -0.271 NA
ATOM      6  H11 <0> d   1      22.281   1.141  11.708  0.00  0.00     0.137 HD
ATOM      7  H12 <0> d   1      20.825   0.829  12.447  0.00  0.00     0.137 HD
ENDBRANCH   3   5
ENDBRANCH   2   3
ENDBRANCH   1   2
BRANCH   1   8
ATOM      8  C5  <0> d   1      19.214  -0.609   8.092  0.00  0.00    -0.057 A 
ATOM      9  C10 <0> d   1      19.246  -1.415   6.968  0.00  0.00     0.007 A 
ATOM     10  C9  <0> d   1      19.026  -0.865   5.719  0.00  0.00     0.001 A 
ATOM     11  C8  <0> d   1      18.784   0.490   5.592  0.00  0.00     0.000 A 
ATOM     12  C7  <0> d   1      18.756   1.295   6.715  0.00  0.00     0.001 A 
ATOM     13  C6  <0> d   1      18.971   0.746   7.965  0.00  0.00     0.007 A 
ENDBRANCH   1   8
TORSDOF 4
ENDMDL
MODEL 7
REMARK VINA RESULT:      -5.2      2.881      4.059
REMARK  4 active torsions:
REMARK  status: ('A' for Active; 'I' for Inactive)
REMARK    1  A    between atoms: N1_1  and  N2_2 
REMARK    2  A    between atoms: N2_2  and  C3_3 
REMARK    3  A    between atoms: C3_3  and  C4_4 
REMARK    4  A    between atoms: C4_4  and  C5_5 
ROOT
ATOM      1  C4  <0> d   1      19.194   0.806  11.414  0.00  0.00     0.054 C 
ENDROOT
BRANCH   1   2
ATOM      2  C3  <0> d   1      20.169   0.630  12.581  0.00  0.00     0.109 C 
BRANCH   2   3
ATOM      3  N2  <0> d   1      21.538   0.513  12.060  0.00  0.00    -0.263 NA
ATOM      4  H13 <0> d   1      22.194   0.331  12.805  0.00  0.00     0.140 HD
BRANCH   3   5
ATOM      5  N1  <0> d   1      21.619  -0.512  11.032  0.00  0.00    -0.271 NA
ATOM      6  H11 <0> d   1      21.109  -1.338  11.305  0.00  0.00     0.137 HD
ATOM      7  H12 <0> d   1      21.291  -0.160  10.146  0.00  0.00     0.137 HD
ENDBRANCH   3   5
ENDBRANCH   2   3
ENDBRANCH   1   2
BRANCH   1   8
ATOM      8  C5  <0> d   1      18.761   2.248  11.337  0.00  0.00    -0.057 A 
ATOM      9  C10 <0> d   1      18.230   2.748  10.162  0.00  0.00     0.007 A 
ATOM     10  C9  <0> d   1      17.828   4.068  10.093  0.00  0.00     0.001 A 
ATOM     11  C8  <0> d   1      17.966   4.892  11.194  0.00  0.00     0.000 A 
ATOM     12  C7  <0> d   1      18.501   4.394  12.367  0.00  0.00     0.001 A 
ATOM     13  C6  <0> d   1      18.899   3.072  12.439  0.00  0.00     0.007 A 
ENDBRANCH   1   8
TORSDOF 4
ENDMDL
MODEL 8
REMARK VINA RESULT:      -4.6      2.392      2.948
REMARK  4 active torsions:
REMARK  status: ('A' for Active; 'I' for Inactive)
REMARK    1  A    between atoms: N1_1  and  N2_2 
REMARK    2  A    between atoms: N2_2  and  C3_3 
REMARK    3  A    between atoms: C3_3  and  C4_4 
REMARK    4  A    between atoms: C4_4  and  C5_5 
ROOT
ATOM      1  C4  <0> d   1      18.269  -0.177  10.069  0.00  0.00     0.054 C 
ENDROOT
BRANCH   1   2
ATOM      2  C3  <0> d   1      18.274   1.120  10.882  0.00  0.00     0.109 C 
BRANCH   2   3
ATOM      3  N2  <0> d   1      16.927   1.369  11.413  0.00  0.00    -0.263 NA
ATOM      4  H13 <0> d   1      16.418   2.009  10.822  0.00  0.00     0.140 HD
BRANCH   3   5
ATOM      5  N1  <0> d   1      16.196   0.124  11.584  0.00  0.00    -0.271 NA
ATOM      6  H11 <0> d   1      15.745  -0.151  10.725  0.00  0.00     0.137 HD
ATOM      7  H12 <0> d   1      16.802  -0.607  11.925  0.00  0.00     0.137 HD
ENDBRANCH   3   5
ENDBRANCH   2   3
ENDBRANCH   1   2
BRANCH   1   8
ATOM      8  C5  <0> d   1      18.203   0.153   8.599  0.00  0.00    -0.057 A 
ATOM      9  C10 <0> d   1      17.243  -0.440   7.801  0.00  0.00     0.007 A 
ATOM     10  C9  <0> d   1      17.180  -0.134   6.454  0.00  0.00     0.001 A 
ATOM     11  C8  <0> d   1      18.082   0.757   5.904  0.00  0.00     0.000 A 
ATOM     12  C7  <0> d   1      19.045   1.346   6.702  0.00  0.00     0.001 A 
ATOM     13  C6  <0> d   1      19.106   1.044   8.050  0.00  0.00     0.007 A 
ENDBRANCH   1   8
TORSDOF 4
ENDMDL
MODEL 9
REMARK VINA RESULT:      -4.6      3.509      4.847
REMARK  4 active torsions:
REMARK  status: ('A' for Active; 'I' for Inactive)
REMARK    1  A    between atoms: N1_1  and  N2_2 
REMARK    2  A    between atoms: N2_2  and  C3_3 
REMARK    3  A    between atoms: C3_3  and  C4_4 
REMARK    4  A    between atoms: C4_4  and  C5_5 
ROOT
ATOM      1  C4  <0> d   1      19.894  -1.236  11.121  0.00  0.00     0.054 C 
ENDROOT
BRANCH   1   2
ATOM      2  C3  <0> d   1      19.388  -0.308  12.227  0.00  0.00     0.109 C 
BRANCH   2   3
ATOM      3  N2  <0> d   1      20.519   0.126  13.057  0.00  0.00    -0.263 NA
ATOM      4  H13 <0> d   1      20.829  -0.618  13.665  0.00  0.00     0.140 HD
BRANCH   3   5
ATOM      5  N1  <0> d   1      21.613   0.615  12.233  0.00  0.00    -0.271 NA
ATOM      6  H11 <0> d   1      21.951  -0.108  11.616  0.00  0.00     0.137 HD
ATOM      7  H12 <0> d   1      21.335   1.433  11.713  0.00  0.00     0.137 HD
ENDBRANCH   3   5
ENDBRANCH   2   3
ENDBRANCH   1   2
BRANCH   1   8
ATOM      8  C5  <0> d   1      19.227  -2.582  11.250  0.00  0.00    -0.057 A 
ATOM      9  C10 <0> d   1      17.873  -2.658  11.518  0.00  0.00     0.007 A 
ATOM     10  C9  <0> d   1      17.260  -3.892  11.632  0.00  0.00     0.001 A 
ATOM     11  C8  <0> d   1      18.003  -5.049  11.487  0.00  0.00     0.000 A 
ATOM     12  C7  <0> d   1      19.357  -4.973  11.224  0.00  0.00     0.001 A 
ATOM     13  C6  <0> d   1      19.970  -3.739  11.105  0.00  0.00     0.007 A 
ENDBRANCH   1   8
TORSDOF 4
ENDMDL
