MODEL 1
REMARK VINA RESULT:      -8.3      0.000      0.000
REMARK  11 active torsions:
REMARK  status: ('A' for Active; 'I' for Inactive)
REMARK    1  A    between atoms: O2_2  and  C3_3 
REMARK    2  A    between atoms: C8_8  and  O9_9 
REMARK    3  A    between atoms: O9_9  and  C10_10 
REMARK    4  A    between atoms: C10_10  and  C11_11 
REMARK    5  A    between atoms: C11_11  and  N12_12 
REMARK    6  A    between atoms: N12_12  and  C13_13 
REMARK    7  A    between atoms: C13_13  and  C14_14 
REMARK    8  A    between atoms: C14_14  and  O16_15 
REMARK    9  A    between atoms: C14_14  and  C17_16 
REMARK   10  A    between atoms: C17_16  and  O18_17 
REMARK   11  A    between atoms: O18_17  and  C19_18 
ROOT
ATOM      1  C14 ZIN A   1      19.896  -3.314  11.959  0.00  0.00     0.170 C 
ENDROOT
BRANCH   1   2
ATOM      2  C13 ZIN A   1      19.215  -4.436  11.173  0.00  0.00     0.303 C 
BRANCH   2   3
ATOM      3  N12 ZIN A   1      19.779  -4.498   9.818  0.00  0.00     0.088 N 
ATOM      4  H43 ZIN A   1      20.326  -5.335   9.692  0.00  0.00     0.316 HD
BRANCH   3   5
ATOM      5  C11 ZIN A   1      18.722  -4.402   8.803  0.00  0.00     0.296 C 
BRANCH   5   6
ATOM      6  C10 ZIN A   1      18.265  -2.946   8.678  0.00  0.00     0.205 C 
BRANCH   6   7
ATOM      7  O9  ZIN A   1      19.407  -2.098   8.558  0.00  0.00    -0.347 OA
BRANCH   7   8
ATOM      8  C8  ZIN A   1      19.232  -0.915   7.910  0.00  0.00     0.102 A 
ATOM      9  C3  ZIN A   1      19.282  -0.869   6.519  0.00  0.00     0.101 A 
ATOM     10  C4  ZIN A   1      19.102   0.338   5.863  0.00  0.00     0.039 A 
ATOM     11  C5  ZIN A   1      18.881   1.493   6.589  0.00  0.00     0.003 A 
ATOM     12  C6  ZIN A   1      18.837   1.449   7.969  0.00  0.00     0.003 A 
ATOM     13  C7  ZIN A   1      19.016   0.247   8.631  0.00  0.00     0.039 A 
BRANCH   9  14
ATOM     14  O2  ZIN A   1      19.500  -2.006   5.806  0.00  0.00    -0.353 OA
ATOM     15  C1  ZIN A   1      19.024  -2.029   4.459  0.00  0.00     0.210 C 
ENDBRANCH   9  14
ENDBRANCH   7   8
ENDBRANCH   6   7
ENDBRANCH   5   6
ENDBRANCH   3   5
ENDBRANCH   2   3
ENDBRANCH   1   2
BRANCH   1  16
ATOM     16  O16 ZIN A   1      20.811  -2.623  11.106  0.00  0.00    -0.392 OA
ATOM     17  H46 ZIN A   1      21.675  -2.456  11.508  0.00  0.00     0.210 HD
ENDBRANCH   1  16
BRANCH   1  18
ATOM     18  C17 ZIN A   1      18.838  -2.335  12.471  0.00  0.00     0.209 C 
BRANCH  18  19
ATOM     19  O18 ZIN A   1      19.481  -1.193  13.039  0.00  0.00    -0.348 OA
BRANCH  19  20
ATOM     20  C19 ZIN A   1      18.916  -0.657  14.153  0.00  0.00     0.082 A 
ATOM     21  C24 ZIN A   1      18.737   0.725  14.253  0.00  0.00     0.036 A 
ATOM     22  C23 ZIN A   1      18.148   1.273  15.401  0.00  0.00     0.046 A 
ATOM     23  C25 ZIN A   1      19.031   1.854  13.354  0.00  0.00     0.006 A 
ATOM     24  C22 ZIN A   1      17.759   0.429  16.439  0.00  0.00     0.030 A 
ATOM     25  N31 ZIN A   1      18.079   2.645  15.244  0.00  0.00    -0.355 N 
ATOM     26  C21 ZIN A   1      17.947  -0.931  16.332  0.00  0.00     0.005 A 
ATOM     27  C20 ZIN A   1      18.523  -1.477  15.196  0.00  0.00     0.038 A 
ATOM     28  C26 ZIN A   1      18.601   3.013  14.016  0.00  0.00     0.043 A 
ATOM     29  H56 ZIN A   1      17.713   3.261  15.897  0.00  0.00     0.166 HD
ATOM     30  C27 ZIN A   1      18.755   4.250  13.396  0.00  0.00     0.030 A 
ATOM     31  C28 ZIN A   1      19.325   4.327  12.144  0.00  0.00     0.002 A 
ATOM     32  C29 ZIN A   1      19.750   3.180  11.489  0.00  0.00     0.001 A 
ATOM     33  C30 ZIN A   1      19.606   1.948  12.088  0.00  0.00     0.014 A 
ENDBRANCH  19  20
ENDBRANCH  18  19
ENDBRANCH   1  18
TORSDOF 11
ENDMDL
MODEL 2
REMARK VINA RESULT:      -8.2      1.327      3.645
REMARK  11 active torsions:
REMARK  status: ('A' for Active; 'I' for Inactive)
REMARK    1  A    between atoms: O2_2  and  C3_3 
REMARK    2  A    between atoms: C8_8  and  O9_9 
REMARK    3  A    between atoms: O9_9  and  C10_10 
REMARK    4  A    between atoms: C10_10  and  C11_11 
REMARK    5  A    between atoms: C11_11  and  N12_12 
REMARK    6  A    between atoms: N12_12  and  C13_13 
REMARK    7  A    between atoms: C13_13  and  C14_14 
REMARK    8  A    between atoms: C14_14  and  O16_15 
REMARK    9  A    between atoms: C14_14  and  C17_16 
REMARK   10  A    between atoms: C17_16  and  O18_17 
REMARK   11  A    between atoms: O18_17  and  C19_18 
ROOT
ATOM      1  C14 ZIN A   1      20.844  -0.722  11.187  0.00  0.00     0.170 C 
ENDROOT
BRANCH   1   2
ATOM      2  C13 ZIN A   1      19.524  -1.473  11.368  0.00  0.00     0.303 C 
BRANCH   2   3
ATOM      3  N12 ZIN A   1      19.514  -2.662  10.505  0.00  0.00     0.088 N 
ATOM      4  H43 ZIN A   1      19.900  -3.460  10.985  0.00  0.00     0.316 HD
BRANCH   3   5
ATOM      5  C11 ZIN A   1      18.158  -2.946  10.016  0.00  0.00     0.296 C 
BRANCH   5   6
ATOM      6  C10 ZIN A   1      18.152  -2.920   8.486  0.00  0.00     0.205 C 
BRANCH   6   7
ATOM      7  O9  ZIN A   1      19.318  -2.242   8.017  0.00  0.00    -0.347 OA
BRANCH   7   8
ATOM      8  C8  ZIN A   1      19.177  -1.463   6.910  0.00  0.00     0.102 A 
ATOM      9  C3  ZIN A   1      19.015  -0.087   7.043  0.00  0.00     0.101 A 
ATOM     10  C4  ZIN A   1      18.871   0.702   5.913  0.00  0.00     0.039 A 
ATOM     11  C5  ZIN A   1      18.882   0.122   4.659  0.00  0.00     0.003 A 
ATOM     12  C6  ZIN A   1      19.037  -1.245   4.527  0.00  0.00     0.003 A 
ATOM     13  C7  ZIN A   1      19.181  -2.039   5.650  0.00  0.00     0.039 A 
BRANCH   9  14
ATOM     14  O2  ZIN A   1      19.004   0.482   8.278  0.00  0.00    -0.353 OA
ATOM     15  C1  ZIN A   1      19.111   1.906   8.337  0.00  0.00     0.210 C 
ENDBRANCH   9  14
ENDBRANCH   7   8
ENDBRANCH   6   7
ENDBRANCH   5   6
ENDBRANCH   3   5
ENDBRANCH   2   3
ENDBRANCH   1   2
BRANCH   1  16
ATOM     16  O16 ZIN A   1      21.060  -0.465   9.797  0.00  0.00    -0.392 OA
ATOM     17  H46 ZIN A   1      21.780   0.154   9.619  0.00  0.00     0.210 HD
ENDBRANCH   1  16
BRANCH   1  18
ATOM     18  C17 ZIN A   1      20.785   0.604  11.947  0.00  0.00     0.209 C 
BRANCH  18  19
ATOM     19  O18 ZIN A   1      19.435   1.072  11.984  0.00  0.00    -0.348 OA
BRANCH  19  20
ATOM     20  C19 ZIN A   1      19.183   2.170  12.743  0.00  0.00     0.082 A 
ATOM     21  C24 ZIN A   1      18.772   2.027  14.071  0.00  0.00     0.036 A 
ATOM     22  C23 ZIN A   1      18.519   3.163  14.852  0.00  0.00     0.046 A 
ATOM     23  C25 ZIN A   1      18.530   0.860  14.938  0.00  0.00     0.006 A 
ATOM     24  C22 ZIN A   1      18.668   4.427  14.287  0.00  0.00     0.030 A 
ATOM     25  N31 ZIN A   1      18.140   2.748  16.116  0.00  0.00    -0.355 N 
ATOM     26  C21 ZIN A   1      19.067   4.557  12.975  0.00  0.00     0.005 A 
ATOM     27  C20 ZIN A   1      19.324   3.436  12.202  0.00  0.00     0.038 A 
ATOM     28  C26 ZIN A   1      18.146   1.366  16.188  0.00  0.00     0.043 A 
ATOM     29  H56 ZIN A   1      17.909   3.340  16.848  0.00  0.00     0.166 HD
ATOM     30  C27 ZIN A   1      17.850   0.480  17.220  0.00  0.00     0.030 A 
ATOM     31  C28 ZIN A   1      17.935  -0.878  17.009  0.00  0.00     0.002 A 
ATOM     32  C29 ZIN A   1      18.315  -1.378  15.772  0.00  0.00     0.001 A 
ATOM     33  C30 ZIN A   1      18.611  -0.517  14.738  0.00  0.00     0.014 A 
ENDBRANCH  19  20
ENDBRANCH  18  19
ENDBRANCH   1  18
TORSDOF 11
ENDMDL
MODEL 3
REMARK VINA RESULT:      -8.2      2.290      8.132
REMARK  11 active torsions:
REMARK  status: ('A' for Active; 'I' for Inactive)
REMARK    1  A    between atoms: O2_2  and  C3_3 
REMARK    2  A    between atoms: C8_8  and  O9_9 
REMARK    3  A    between atoms: O9_9  and  C10_10 
REMARK    4  A    between atoms: C10_10  and  C11_11 
REMARK    5  A    between atoms: C11_11  and  N12_12 
REMARK    6  A    between atoms: N12_12  and  C13_13 
REMARK    7  A    between atoms: C13_13  and  C14_14 
REMARK    8  A    between atoms: C14_14  and  O16_15 
REMARK    9  A    between atoms: C14_14  and  C17_16 
REMARK   10  A    between atoms: C17_16  and  O18_17 
REMARK   11  A    between atoms: O18_17  and  C19_18 
ROOT
ATOM      1  C14 ZIN A   1      19.683   3.232  11.397  0.00  0.00     0.170 C 
ENDROOT
BRANCH   1   2
ATOM      2  C13 ZIN A   1      19.083   4.347  12.256  0.00  0.00     0.303 C 
BRANCH   2   3
ATOM      3  N12 ZIN A   1      19.910   4.542  13.454  0.00  0.00     0.088 N 
ATOM      4  H43 ZIN A   1      20.661   5.189  13.273  0.00  0.00     0.316 HD
BRANCH   3   5
ATOM      5  C11 ZIN A   1      19.093   4.987  14.591  0.00  0.00     0.296 C 
BRANCH   5   6
ATOM      6  C10 ZIN A   1      18.368   3.785  15.200  0.00  0.00     0.205 C 
BRANCH   6   7
ATOM      7  O9  ZIN A   1      19.294   2.715  15.387  0.00  0.00    -0.347 OA
BRANCH   7   8
ATOM      8  C8  ZIN A   1      18.807   1.563  15.921  0.00  0.00     0.102 A 
ATOM      9  C3  ZIN A   1      19.011   1.278  17.268  0.00  0.00     0.101 A 
ATOM     10  C4  ZIN A   1      18.512   0.104  17.808  0.00  0.00     0.039 A 
ATOM     11  C5  ZIN A   1      17.819  -0.785  17.008  0.00  0.00     0.003 A 
ATOM     12  C6  ZIN A   1      17.622  -0.506  15.668  0.00  0.00     0.003 A 
ATOM     13  C7  ZIN A   1      18.117   0.665  15.123  0.00  0.00     0.039 A 
BRANCH   9  14
ATOM     14  O2  ZIN A   1      19.693   2.154  18.054  0.00  0.00    -0.353 OA
ATOM     15  C1  ZIN A   1      18.917   3.063  18.838  0.00  0.00     0.210 C 
ENDBRANCH   9  14
ENDBRANCH   7   8
ENDBRANCH   6   7
ENDBRANCH   5   6
ENDBRANCH   3   5
ENDBRANCH   2   3
ENDBRANCH   1   2
BRANCH   1  16
ATOM     16  O16 ZIN A   1      21.074   3.097  11.696  0.00  0.00    -0.392 OA
ATOM     17  H46 ZIN A   1      21.520   2.405  11.190  0.00  0.00     0.210 HD
ENDBRANCH   1  16
BRANCH   1  18
ATOM     18  C17 ZIN A   1      18.966   1.915  11.700  0.00  0.00     0.209 C 
BRANCH  18  19
ATOM     19  O18 ZIN A   1      19.781   0.821  11.273  0.00  0.00    -0.348 OA
BRANCH  19  20
ATOM     20  C19 ZIN A   1      19.168  -0.381  11.115  0.00  0.00     0.082 A 
ATOM     21  C24 ZIN A   1      18.666  -0.755   9.866  0.00  0.00     0.036 A 
ATOM     22  C23 ZIN A   1      18.040  -1.999   9.707  0.00  0.00     0.046 A 
ATOM     23  C25 ZIN A   1      18.645  -0.103   8.545  0.00  0.00     0.006 A 
ATOM     24  C22 ZIN A   1      17.913  -2.845  10.805  0.00  0.00     0.030 A 
ATOM     25  N31 ZIN A   1      17.646  -2.123   8.386  0.00  0.00    -0.355 N 
ATOM     26  C21 ZIN A   1      18.405  -2.464  12.033  0.00  0.00     0.005 A 
ATOM     27  C20 ZIN A   1      19.031  -1.238  12.193  0.00  0.00     0.038 A 
ATOM     28  C26 ZIN A   1      18.007  -0.995   7.671  0.00  0.00     0.043 A 
ATOM     29  H56 ZIN A   1      17.189  -2.893   8.014  0.00  0.00     0.166 HD
ATOM     30  C27 ZIN A   1      17.842  -0.640   6.335  0.00  0.00     0.030 A 
ATOM     31  C28 ZIN A   1      18.304   0.576   5.882  0.00  0.00     0.002 A 
ATOM     32  C29 ZIN A   1      18.935   1.458   6.747  0.00  0.00     0.001 A 
ATOM     33  C30 ZIN A   1      19.107   1.124   8.073  0.00  0.00     0.014 A 
ENDBRANCH  19  20
ENDBRANCH  18  19
ENDBRANCH   1  18
TORSDOF 11
ENDMDL
MODEL 4
REMARK VINA RESULT:      -8.2      2.099      7.015
REMARK  11 active torsions:
REMARK  status: ('A' for Active; 'I' for Inactive)
REMARK    1  A    between atoms: O2_2  and  C3_3 
REMARK    2  A    between atoms: C8_8  and  O9_9 
REMARK    3  A    between atoms: O9_9  and  C10_10 
REMARK    4  A    between atoms: C10_10  and  C11_11 
REMARK    5  A    between atoms: C11_11  and  N12_12 
REMARK    6  A    between atoms: N12_12  and  C13_13 
REMARK    7  A    between atoms: C13_13  and  C14_14 
REMARK    8  A    between atoms: C14_14  and  O16_15 
REMARK    9  A    between atoms: C14_14  and  C17_16 
REMARK   10  A    between atoms: C17_16  and  O18_17 
REMARK   11  A    between atoms: O18_17  and  C19_18 
ROOT
ATOM      1  C14 ZIN A   1      20.462  -0.400  11.412  0.00  0.00     0.170 C 
ENDROOT
BRANCH   1   2
ATOM      2  C13 ZIN A   1      20.656   0.237  12.789  0.00  0.00     0.303 C 
BRANCH   2   3
ATOM      3  N12 ZIN A   1      20.029  -0.608  13.813  0.00  0.00     0.088 N 
ATOM      4  H43 ZIN A   1      20.719  -1.162  14.296  0.00  0.00     0.316 HD
BRANCH   3   5
ATOM      5  C11 ZIN A   1      19.247   0.201  14.757  0.00  0.00     0.296 C 
BRANCH   5   6
ATOM      6  C10 ZIN A   1      17.825   0.378  14.221  0.00  0.00     0.205 C 
BRANCH   6   7
ATOM      7  O9  ZIN A   1      17.572   1.765  13.993  0.00  0.00    -0.347 OA
BRANCH   7   8
ATOM      8  C8  ZIN A   1      17.898   2.258  12.767  0.00  0.00     0.102 A 
ATOM      9  C3  ZIN A   1      18.668   3.413  12.663  0.00  0.00     0.101 A 
ATOM     10  C4  ZIN A   1      18.997   3.911  11.413  0.00  0.00     0.039 A 
ATOM     11  C5  ZIN A   1      18.556   3.265  10.273  0.00  0.00     0.003 A 
ATOM     12  C6  ZIN A   1      17.786   2.122  10.377  0.00  0.00     0.003 A 
ATOM     13  C7  ZIN A   1      17.454   1.619  11.621  0.00  0.00     0.039 A 
BRANCH   9  14
ATOM     14  O2  ZIN A   1      19.101   4.047  13.785  0.00  0.00    -0.353 OA
ATOM     15  C1  ZIN A   1      19.764   5.301  13.607  0.00  0.00     0.210 C 
ENDBRANCH   9  14
ENDBRANCH   7   8
ENDBRANCH   6   7
ENDBRANCH   5   6
ENDBRANCH   3   5
ENDBRANCH   2   3
ENDBRANCH   1   2
BRANCH   1  16
ATOM     16  O16 ZIN A   1      21.738  -0.648  10.817  0.00  0.00    -0.392 OA
ATOM     17  H46 ZIN A   1      21.833  -0.288   9.925  0.00  0.00     0.210 HD
ENDBRANCH   1  16
BRANCH   1  18
ATOM     18  C17 ZIN A   1      19.707  -1.722  11.564  0.00  0.00     0.209 C 
BRANCH  18  19
ATOM     19  O18 ZIN A   1      18.789  -1.873  10.479  0.00  0.00    -0.348 OA
BRANCH  19  20
ATOM     20  C19 ZIN A   1      19.012  -2.903   9.621  0.00  0.00     0.082 A 
ATOM     21  C24 ZIN A   1      19.132  -2.661   8.250  0.00  0.00     0.036 A 
ATOM     22  C23 ZIN A   1      19.368  -3.726   7.370  0.00  0.00     0.046 A 
ATOM     23  C25 ZIN A   1      19.079  -1.440   7.427  0.00  0.00     0.006 A 
ATOM     24  C22 ZIN A   1      19.467  -5.020   7.873  0.00  0.00     0.030 A 
ATOM     25  N31 ZIN A   1      19.453  -3.219   6.085  0.00  0.00    -0.355 N 
ATOM     26  C21 ZIN A   1      19.341  -5.248   9.226  0.00  0.00     0.005 A 
ATOM     27  C20 ZIN A   1      19.113  -4.197  10.100  0.00  0.00     0.038 A 
ATOM     28  C26 ZIN A   1      19.288  -1.845   6.101  0.00  0.00     0.043 A 
ATOM     29  H56 ZIN A   1      19.612  -3.749   5.289  0.00  0.00     0.166 HD
ATOM     30  C27 ZIN A   1      19.290  -0.889   5.089  0.00  0.00     0.030 A 
ATOM     31  C28 ZIN A   1      19.090   0.439   5.393  0.00  0.00     0.002 A 
ATOM     32  C29 ZIN A   1      18.884   0.839   6.706  0.00  0.00     0.001 A 
ATOM     33  C30 ZIN A   1      18.878  -0.093   7.721  0.00  0.00     0.014 A 
ENDBRANCH  19  20
ENDBRANCH  18  19
ENDBRANCH   1  18
TORSDOF 11
ENDMDL
MODEL 5
REMARK VINA RESULT:      -8.2      0.921      1.840
REMARK  11 active torsions:
REMARK  status: ('A' for Active; 'I' for Inactive)
REMARK    1  A    between atoms: O2_2  and  C3_3 
REMARK    2  A    between atoms: C8_8  and  O9_9 
REMARK    3  A    between atoms: O9_9  and  C10_10 
REMARK    4  A    between atoms: C10_10  and  C11_11 
REMARK    5  A    between atoms: C11_11  and  N12_12 
REMARK    6  A    between atoms: N12_12  and  C13_13 
REMARK    7  A    between atoms: C13_13  and  C14_14 
REMARK    8  A    between atoms: C14_14  and  O16_15 
REMARK    9  A    between atoms: C14_14  and  C17_16 
REMARK   10  A    between atoms: C17_16  and  O18_17 
REMARK   11  A    between atoms: O18_17  and  C19_18 
ROOT
ATOM      1  C14 ZIN A   1      19.884  -3.056  11.798  0.00  0.00     0.170 C 
ENDROOT
BRANCH   1   2
ATOM      2  C13 ZIN A   1      19.078  -3.879  10.792  0.00  0.00     0.303 C 
BRANCH   2   3
ATOM      3  N12 ZIN A   1      19.771  -3.886   9.497  0.00  0.00     0.088 N 
ATOM      4  H43 ZIN A   1      20.620  -4.427   9.545  0.00  0.00     0.316 HD
BRANCH   3   5
ATOM      5  C11 ZIN A   1      18.890  -4.379   8.431  0.00  0.00     0.296 C 
BRANCH   5   6
ATOM      6  C10 ZIN A   1      18.663  -3.269   7.402  0.00  0.00     0.205 C 
BRANCH   6   7
ATOM      7  O9  ZIN A   1      17.903  -2.217   7.997  0.00  0.00    -0.347 OA
BRANCH   7   8
ATOM      8  C8  ZIN A   1      18.297  -0.943   7.728  0.00  0.00     0.102 A 
ATOM      9  C3  ZIN A   1      18.468  -0.032   8.767  0.00  0.00     0.101 A 
ATOM     10  C4  ZIN A   1      18.869   1.264   8.488  0.00  0.00     0.039 A 
ATOM     11  C5  ZIN A   1      19.094   1.652   7.180  0.00  0.00     0.003 A 
ATOM     12  C6  ZIN A   1      18.918   0.749   6.148  0.00  0.00     0.003 A 
ATOM     13  C7  ZIN A   1      18.518  -0.546   6.419  0.00  0.00     0.039 A 
BRANCH   9  14
ATOM     14  O2  ZIN A   1      18.247  -0.415  10.053  0.00  0.00    -0.353 OA
ATOM     15  C1  ZIN A   1      17.007  -0.020  10.644  0.00  0.00     0.210 C 
ENDBRANCH   9  14
ENDBRANCH   7   8
ENDBRANCH   6   7
ENDBRANCH   5   6
ENDBRANCH   3   5
ENDBRANCH   2   3
ENDBRANCH   1   2
BRANCH   1  16
ATOM     16  O16 ZIN A   1      20.640  -2.062  11.103  0.00  0.00    -0.392 OA
ATOM     17  H46 ZIN A   1      21.193  -1.514  11.678  0.00  0.00     0.210 HD
ENDBRANCH   1  16
BRANCH   1  18
ATOM     18  C17 ZIN A   1      18.929  -2.375  12.781  0.00  0.00     0.209 C 
BRANCH  18  19
ATOM     19  O18 ZIN A   1      19.642  -1.390  13.533  0.00  0.00    -0.348 OA
BRANCH  19  20
ATOM     20  C19 ZIN A   1      18.980  -0.802  14.563  0.00  0.00     0.082 A 
ATOM     21  C24 ZIN A   1      18.746   0.575  14.552  0.00  0.00     0.036 A 
ATOM     22  C23 ZIN A   1      18.057   1.177  15.614  0.00  0.00     0.046 A 
ATOM     23  C25 ZIN A   1      19.065   1.651  13.597  0.00  0.00     0.006 A 
ATOM     24  C22 ZIN A   1      17.624   0.392  16.680  0.00  0.00     0.030 A 
ATOM     25  N31 ZIN A   1      17.952   2.532  15.355  0.00  0.00    -0.355 N 
ATOM     26  C21 ZIN A   1      17.867  -0.964  16.684  0.00  0.00     0.005 A 
ATOM     27  C20 ZIN A   1      18.542  -1.563  15.632  0.00  0.00     0.038 A 
ATOM     28  C26 ZIN A   1      18.547   2.835  14.143  0.00  0.00     0.043 A 
ATOM     29  H56 ZIN A   1      17.518   3.176  15.936  0.00  0.00     0.166 HD
ATOM     30  C27 ZIN A   1      18.703   4.031  13.448  0.00  0.00     0.030 A 
ATOM     31  C28 ZIN A   1      19.358   4.045  12.237  0.00  0.00     0.002 A 
ATOM     32  C29 ZIN A   1      19.869   2.874  11.697  0.00  0.00     0.001 A 
ATOM     33  C30 ZIN A   1      19.726   1.680  12.370  0.00  0.00     0.014 A 
ENDBRANCH  19  20
ENDBRANCH  18  19
ENDBRANCH   1  18
TORSDOF 11
ENDMDL
MODEL 6
REMARK VINA RESULT:      -8.2      2.261      8.537
REMARK  11 active torsions:
REMARK  status: ('A' for Active; 'I' for Inactive)
REMARK    1  A    between atoms: O2_2  and  C3_3 
REMARK    2  A    between atoms: C8_8  and  O9_9 
REMARK    3  A    between atoms: O9_9  and  C10_10 
REMARK    4  A    between atoms: C10_10  and  C11_11 
REMARK    5  A    between atoms: C11_11  and  N12_12 
REMARK    6  A    between atoms: N12_12  and  C13_13 
REMARK    7  A    between atoms: C13_13  and  C14_14 
REMARK    8  A    between atoms: C14_14  and  O16_15 
REMARK    9  A    between atoms: C14_14  and  C17_16 
REMARK   10  A    between atoms: C17_16  and  O18_17 
REMARK   11  A    between atoms: O18_17  and  C19_18 
ROOT
ATOM      1  C14 ZIN A   1      19.570   3.310  11.325  0.00  0.00     0.170 C 
ENDROOT
BRANCH   1   2
ATOM      2  C13 ZIN A   1      18.847   4.228  12.312  0.00  0.00     0.303 C 
BRANCH   2   3
ATOM      3  N12 ZIN A   1      19.813   4.764  13.281  0.00  0.00     0.088 N 
ATOM      4  H43 ZIN A   1      20.100   5.696  13.026  0.00  0.00     0.316 HD
BRANCH   3   5
ATOM      5  C11 ZIN A   1      19.263   4.736  14.642  0.00  0.00     0.296 C 
BRANCH   5   6
ATOM      6  C10 ZIN A   1      18.565   3.396  14.883  0.00  0.00     0.205 C 
BRANCH   6   7
ATOM      7  O9  ZIN A   1      19.479   2.487  15.498  0.00  0.00    -0.347 OA
BRANCH   7   8
ATOM      8  C8  ZIN A   1      18.982   1.283  15.890  0.00  0.00     0.102 A 
ATOM      9  C3  ZIN A   1      19.131   0.863  17.209  0.00  0.00     0.101 A 
ATOM     10  C4  ZIN A   1      18.623  -0.364  17.603  0.00  0.00     0.039 A 
ATOM     11  C5  ZIN A   1      17.975  -1.171  16.686  0.00  0.00     0.003 A 
ATOM     12  C6  ZIN A   1      17.832  -0.757  15.375  0.00  0.00     0.003 A 
ATOM     13  C7  ZIN A   1      18.336   0.467  14.975  0.00  0.00     0.039 A 
BRANCH   9  14
ATOM     14  O2  ZIN A   1      19.768   1.658  18.109  0.00  0.00    -0.353 OA
ATOM     15  C1  ZIN A   1      18.975   2.628  18.795  0.00  0.00     0.210 C 
ENDBRANCH   9  14
ENDBRANCH   7   8
ENDBRANCH   6   7
ENDBRANCH   5   6
ENDBRANCH   3   5
ENDBRANCH   2   3
ENDBRANCH   1   2
BRANCH   1  16
ATOM     16  O16 ZIN A   1      20.960   3.255  11.657  0.00  0.00    -0.392 OA
ATOM     17  H46 ZIN A   1      21.537   3.072  10.903  0.00  0.00     0.210 HD
ENDBRANCH   1  16
BRANCH   1  18
ATOM     18  C17 ZIN A   1      18.972   1.904  11.404  0.00  0.00     0.209 C 
BRANCH  18  19
ATOM     19  O18 ZIN A   1      19.780   0.999  10.650  0.00  0.00    -0.348 OA
BRANCH  19  20
ATOM     20  C19 ZIN A   1      19.294   0.590   9.449  0.00  0.00     0.082 A 
ATOM     21  C24 ZIN A   1      18.713  -0.674   9.321  0.00  0.00     0.036 A 
ATOM     22  C23 ZIN A   1      18.206  -1.089   8.082  0.00  0.00     0.046 A 
ATOM     23  C25 ZIN A   1      18.467  -1.779  10.265  0.00  0.00     0.006 A 
ATOM     24  C22 ZIN A   1      18.301  -0.237   6.985  0.00  0.00     0.030 A 
ATOM     25  N31 ZIN A   1      17.684  -2.362   8.228  0.00  0.00    -0.355 N 
ATOM     26  C21 ZIN A   1      18.881   1.005   7.121  0.00  0.00     0.005 A 
ATOM     27  C20 ZIN A   1      19.377   1.421   8.346  0.00  0.00     0.038 A 
ATOM     28  C26 ZIN A   1      17.827  -2.791   9.536  0.00  0.00     0.043 A 
ATOM     29  H56 ZIN A   1      17.272  -2.878   7.518  0.00  0.00     0.166 HD
ATOM     30  C27 ZIN A   1      17.469  -3.972  10.179  0.00  0.00     0.030 A 
ATOM     31  C28 ZIN A   1      17.743  -4.139  11.519  0.00  0.00     0.002 A 
ATOM     32  C29 ZIN A   1      18.376  -3.136  12.240  0.00  0.00     0.001 A 
ATOM     33  C30 ZIN A   1      18.738  -1.961  11.620  0.00  0.00     0.014 A 
ENDBRANCH  19  20
ENDBRANCH  18  19
ENDBRANCH   1  18
TORSDOF 11
ENDMDL
MODEL 7
REMARK VINA RESULT:      -8.1      2.198      7.581
REMARK  11 active torsions:
REMARK  status: ('A' for Active; 'I' for Inactive)
REMARK    1  A    between atoms: O2_2  and  C3_3 
REMARK    2  A    between atoms: C8_8  and  O9_9 
REMARK    3  A    between atoms: O9_9  and  C10_10 
REMARK    4  A    between atoms: C10_10  and  C11_11 
REMARK    5  A    between atoms: C11_11  and  N12_12 
REMARK    6  A    between atoms: N12_12  and  C13_13 
REMARK    7  A    between atoms: C13_13  and  C14_14 
REMARK    8  A    between atoms: C14_14  and  O16_15 
REMARK    9  A    between atoms: C14_14  and  C17_16 
REMARK   10  A    between atoms: C17_16  and  O18_17 
REMARK   11  A    between atoms: O18_17  and  C19_18 
ROOT
ATOM      1  C14 ZIN A   1      17.864   3.166  11.386  0.00  0.00     0.170 C 
ENDROOT
BRANCH   1   2
ATOM      2  C13 ZIN A   1      19.061   4.075  11.671  0.00  0.00     0.303 C 
BRANCH   2   3
ATOM      3  N12 ZIN A   1      19.664   3.701  12.958  0.00  0.00     0.088 N 
ATOM      4  H43 ZIN A   1      20.653   3.898  12.964  0.00  0.00     0.316 HD
BRANCH   3   5
ATOM      5  C11 ZIN A   1      18.985   4.375  14.073  0.00  0.00     0.296 C 
BRANCH   5   6
ATOM      6  C10 ZIN A   1      18.277   3.334  14.943  0.00  0.00     0.205 C 
BRANCH   6   7
ATOM      7  O9  ZIN A   1      19.247   2.454  15.515  0.00  0.00    -0.347 OA
BRANCH   7   8
ATOM      8  C8  ZIN A   1      18.947   1.127  15.523  0.00  0.00     0.102 A 
ATOM      9  C3  ZIN A   1      19.525   0.276  14.585  0.00  0.00     0.101 A 
ATOM     10  C4  ZIN A   1      19.217  -1.074  14.597  0.00  0.00     0.039 A 
ATOM     11  C5  ZIN A   1      18.332  -1.573  15.535  0.00  0.00     0.003 A 
ATOM     12  C6  ZIN A   1      17.753  -0.727  16.462  0.00  0.00     0.003 A 
ATOM     13  C7  ZIN A   1      18.057   0.622  16.456  0.00  0.00     0.039 A 
BRANCH   9  14
ATOM     14  O2  ZIN A   1      20.395   0.768  13.663  0.00  0.00    -0.353 OA
ATOM     15  C1  ZIN A   1      20.374   0.170  12.365  0.00  0.00     0.210 C 
ENDBRANCH   9  14
ENDBRANCH   7   8
ENDBRANCH   6   7
ENDBRANCH   5   6
ENDBRANCH   3   5
ENDBRANCH   2   3
ENDBRANCH   1   2
BRANCH   1  16
ATOM     16  O16 ZIN A   1      16.715   3.967  11.101  0.00  0.00    -0.392 OA
ATOM     17  H46 ZIN A   1      16.903   4.912  11.027  0.00  0.00     0.210 HD
ENDBRANCH   1  16
BRANCH   1  18
ATOM     18  C17 ZIN A   1      18.176   2.276  10.181  0.00  0.00     0.209 C 
BRANCH  18  19
ATOM     19  O18 ZIN A   1      17.094   1.367   9.967  0.00  0.00    -0.348 OA
BRANCH  19  20
ATOM     20  C19 ZIN A   1      17.335   0.052  10.209  0.00  0.00     0.082 A 
ATOM     21  C24 ZIN A   1      17.885  -0.756   9.211  0.00  0.00     0.036 A 
ATOM     22  C23 ZIN A   1      18.138  -2.111   9.467  0.00  0.00     0.046 A 
ATOM     23  C25 ZIN A   1      18.319  -0.503   7.825  0.00  0.00     0.006 A 
ATOM     24  C22 ZIN A   1      17.824  -2.640  10.716  0.00  0.00     0.030 A 
ATOM     25  N31 ZIN A   1      18.686  -2.675   8.329  0.00  0.00    -0.355 N 
ATOM     26  C21 ZIN A   1      17.275  -1.836  11.690  0.00  0.00     0.005 A 
ATOM     27  C20 ZIN A   1      17.030  -0.495  11.443  0.00  0.00     0.038 A 
ATOM     28  C26 ZIN A   1      18.807  -1.722   7.333  0.00  0.00     0.043 A 
ATOM     29  H56 ZIN A   1      18.952  -3.604   8.243  0.00  0.00     0.166 HD
ATOM     30  C27 ZIN A   1      19.292  -1.785   6.029  0.00  0.00     0.030 A 
ATOM     31  C28 ZIN A   1      19.290  -0.658   5.237  0.00  0.00     0.002 A 
ATOM     32  C29 ZIN A   1      18.808   0.547   5.726  0.00  0.00     0.001 A 
ATOM     33  C30 ZIN A   1      18.323   0.629   7.013  0.00  0.00     0.014 A 
ENDBRANCH  19  20
ENDBRANCH  18  19
ENDBRANCH   1  18
TORSDOF 11
ENDMDL
MODEL 8
REMARK VINA RESULT:      -7.9      2.023      5.083
REMARK  11 active torsions:
REMARK  status: ('A' for Active; 'I' for Inactive)
REMARK    1  A    between atoms: O2_2  and  C3_3 
REMARK    2  A    between atoms: C8_8  and  O9_9 
REMARK    3  A    between atoms: O9_9  and  C10_10 
REMARK    4  A    between atoms: C10_10  and  C11_11 
REMARK    5  A    between atoms: C11_11  and  N12_12 
REMARK    6  A    between atoms: N12_12  and  C13_13 
REMARK    7  A    between atoms: C13_13  and  C14_14 
REMARK    8  A    between atoms: C14_14  and  O16_15 
REMARK    9  A    between atoms: C14_14  and  C17_16 
REMARK   10  A    between atoms: C17_16  and  O18_17 
REMARK   11  A    between atoms: O18_17  and  C19_18 
ROOT
ATOM      1  C14 ZIN A   1      20.432   0.299  11.815  0.00  0.00     0.170 C 
ENDROOT
BRANCH   1   2
ATOM      2  C13 ZIN A   1      20.488  -0.497  10.510  0.00  0.00     0.303 C 
BRANCH   2   3
ATOM      3  N12 ZIN A   1      19.200  -0.387   9.813  0.00  0.00     0.088 N 
ATOM      4  H43 ZIN A   1      18.814   0.539   9.912  0.00  0.00     0.316 HD
BRANCH   3   5
ATOM      5  C11 ZIN A   1      19.334  -0.753   8.397  0.00  0.00     0.296 C 
BRANCH   5   6
ATOM      6  C10 ZIN A   1      19.100  -2.257   8.235  0.00  0.00     0.205 C 
BRANCH   6   7
ATOM      7  O9  ZIN A   1      17.768  -2.577   8.638  0.00  0.00    -0.347 OA
BRANCH   7   8
ATOM      8  C8  ZIN A   1      17.601  -3.713   9.369  0.00  0.00     0.102 A 
ATOM      9  C3  ZIN A   1      17.539  -3.645  10.758  0.00  0.00     0.101 A 
ATOM     10  C4  ZIN A   1      17.369  -4.804  11.498  0.00  0.00     0.039 A 
ATOM     11  C5  ZIN A   1      17.266  -6.024  10.856  0.00  0.00     0.003 A 
ATOM     12  C6  ZIN A   1      17.333  -6.092   9.477  0.00  0.00     0.003 A 
ATOM     13  C7  ZIN A   1      17.503  -4.939   8.733  0.00  0.00     0.039 A 
BRANCH   9  14
ATOM     14  O2  ZIN A   1      17.641  -2.444  11.387  0.00  0.00    -0.353 OA
ATOM     15  C1  ZIN A   1      18.205  -2.444  12.701  0.00  0.00     0.210 C 
ENDBRANCH   9  14
ENDBRANCH   7   8
ENDBRANCH   6   7
ENDBRANCH   5   6
ENDBRANCH   3   5
ENDBRANCH   2   3
ENDBRANCH   1   2
BRANCH   1  16
ATOM     16  O16 ZIN A   1      21.756   0.682  12.196  0.00  0.00    -0.392 OA
ATOM     17  H46 ZIN A   1      22.449   0.319  11.629  0.00  0.00     0.210 HD
ENDBRANCH   1  16
BRANCH   1  18
ATOM     18  C17 ZIN A   1      19.578   1.552  11.611  0.00  0.00     0.209 C 
BRANCH  18  19
ATOM     19  O18 ZIN A   1      18.662   1.685  12.700  0.00  0.00    -0.348 OA
BRANCH  19  20
ATOM     20  C19 ZIN A   1      18.852   2.735  13.541  0.00  0.00     0.082 A 
ATOM     21  C24 ZIN A   1      18.998   2.516  14.914  0.00  0.00     0.036 A 
ATOM     22  C23 ZIN A   1      19.201   3.602  15.778  0.00  0.00     0.046 A 
ATOM     23  C25 ZIN A   1      19.005   1.305  15.753  0.00  0.00     0.006 A 
ATOM     24  C22 ZIN A   1      19.240   4.892  15.256  0.00  0.00     0.030 A 
ATOM     25  N31 ZIN A   1      19.321   3.116  17.067  0.00  0.00    -0.355 N 
ATOM     26  C21 ZIN A   1      19.089   5.096  13.902  0.00  0.00     0.005 A 
ATOM     27  C20 ZIN A   1      18.895   4.025  13.044  0.00  0.00     0.038 A 
ATOM     28  C26 ZIN A   1      19.212   1.736  17.072  0.00  0.00     0.043 A 
ATOM     29  H56 ZIN A   1      19.468   3.663  17.855  0.00  0.00     0.166 HD
ATOM     30  C27 ZIN A   1      19.266   0.796  18.096  0.00  0.00     0.030 A 
ATOM     31  C28 ZIN A   1      19.117  -0.544  17.811  0.00  0.00     0.002 A 
ATOM     32  C29 ZIN A   1      18.913  -0.969  16.506  0.00  0.00     0.001 A 
ATOM     33  C30 ZIN A   1      18.856  -0.053  15.479  0.00  0.00     0.014 A 
ENDBRANCH  19  20
ENDBRANCH  18  19
ENDBRANCH   1  18
TORSDOF 11
ENDMDL
MODEL 9
REMARK VINA RESULT:      -7.7      1.960      7.955
REMARK  11 active torsions:
REMARK  status: ('A' for Active; 'I' for Inactive)
REMARK    1  A    between atoms: O2_2  and  C3_3 
REMARK    2  A    between atoms: C8_8  and  O9_9 
REMARK    3  A    between atoms: O9_9  and  C10_10 
REMARK    4  A    between atoms: C10_10  and  C11_11 
REMARK    5  A    between atoms: C11_11  and  N12_12 
REMARK    6  A    between atoms: N12_12  and  C13_13 
REMARK    7  A    between atoms: C13_13  and  C14_14 
REMARK    8  A    between atoms: C14_14  and  O16_15 
REMARK    9  A    between atoms: C14_14  and  C17_16 
REMARK   10  A    between atoms: C17_16  and  O18_17 
REMARK   11  A    between atoms: O18_17  and  C19_18 
ROOT
ATOM      1  C14 ZIN A   1      20.107   0.251  11.859  0.00  0.00     0.170 C 
ENDROOT
BRANCH   1   2
ATOM      2  C13 ZIN A   1      19.675   1.617  11.320  0.00  0.00     0.303 C 
BRANCH   2   3
ATOM      3  N12 ZIN A   1      18.292   1.891  11.733  0.00  0.00     0.088 N 
ATOM      4  H43 ZIN A   1      17.917   1.125  12.270  0.00  0.00     0.316 HD
BRANCH   3   5
ATOM      5  C11 ZIN A   1      18.205   3.152  12.480  0.00  0.00     0.296 C 
BRANCH   5   6
ATOM      6  C10 ZIN A   1      17.943   2.852  13.958  0.00  0.00     0.205 C 
BRANCH   6   7
ATOM      7  O9  ZIN A   1      19.175   2.518  14.601  0.00  0.00    -0.347 OA
BRANCH   7   8
ATOM      8  C8  ZIN A   1      19.121   2.246  15.933  0.00  0.00     0.102 A 
ATOM      9  C3  ZIN A   1      19.079   0.926  16.373  0.00  0.00     0.101 A 
ATOM     10  C4  ZIN A   1      19.025   0.654  17.731  0.00  0.00     0.039 A 
ATOM     11  C5  ZIN A   1      19.007   1.692  18.643  0.00  0.00     0.003 A 
ATOM     12  C6  ZIN A   1      19.043   3.003  18.206  0.00  0.00     0.003 A 
ATOM     13  C7  ZIN A   1      19.097   3.281  16.852  0.00  0.00     0.039 A 
BRANCH   9  14
ATOM     14  O2  ZIN A   1      19.096  -0.094  15.474  0.00  0.00    -0.353 OA
ATOM     15  C1  ZIN A   1      18.945  -1.418  15.991  0.00  0.00     0.210 C 
ENDBRANCH   9  14
ENDBRANCH   7   8
ENDBRANCH   6   7
ENDBRANCH   5   6
ENDBRANCH   3   5
ENDBRANCH   2   3
ENDBRANCH   1   2
BRANCH   1  16
ATOM     16  O16 ZIN A   1      20.761   0.421  13.118  0.00  0.00    -0.392 OA
ATOM     17  H46 ZIN A   1      21.546   0.984  13.081  0.00  0.00     0.210 HD
ENDBRANCH   1  16
BRANCH   1  18
ATOM     18  C17 ZIN A   1      18.876  -0.638  12.040  0.00  0.00     0.209 C 
BRANCH  18  19
ATOM     19  O18 ZIN A   1      18.268  -0.874  10.768  0.00  0.00    -0.348 OA
BRANCH  19  20
ATOM     20  C19 ZIN A   1      18.559  -2.050  10.153  0.00  0.00     0.082 A 
ATOM     21  C24 ZIN A   1      18.824  -2.078   8.781  0.00  0.00     0.036 A 
ATOM     22  C23 ZIN A   1      19.131  -3.293   8.152  0.00  0.00     0.046 A 
ATOM     23  C25 ZIN A   1      18.878  -1.040   7.737  0.00  0.00     0.006 A 
ATOM     24  C22 ZIN A   1      19.155  -4.465   8.904  0.00  0.00     0.030 A 
ATOM     25  N31 ZIN A   1      19.357  -3.044   6.810  0.00  0.00    -0.355 N 
ATOM     26  C21 ZIN A   1      18.885  -4.426  10.254  0.00  0.00     0.005 A 
ATOM     27  C20 ZIN A   1      18.588  -3.226  10.881  0.00  0.00     0.038 A 
ATOM     28  C26 ZIN A   1      19.215  -1.694   6.543  0.00  0.00     0.043 A 
ATOM     29  H56 ZIN A   1      19.587  -3.719   6.152  0.00  0.00     0.166 HD
ATOM     30  C27 ZIN A   1      19.338  -0.953   5.371  0.00  0.00     0.030 A 
ATOM     31  C28 ZIN A   1      19.132   0.409   5.391  0.00  0.00     0.002 A 
ATOM     32  C29 ZIN A   1      18.800   1.055   6.573  0.00  0.00     0.001 A 
ATOM     33  C30 ZIN A   1      18.672   0.338   7.742  0.00  0.00     0.014 A 
ENDBRANCH  19  20
ENDBRANCH  18  19
ENDBRANCH   1  18
TORSDOF 11
ENDMDL
