MODEL 1
REMARK VINA RESULT:      -5.4      0.000      0.000
REMARK  2 active torsions:
REMARK  status: ('A' for Active; 'I' for Inactive)
REMARK    1  A    between atoms: N1_1  and  C5_5 
REMARK    2  A    between atoms: C8_7  and  C10_8 
ROOT
ATOM      1  C5  <0> d   1      19.276   2.148  10.857  0.00  0.00     0.192 A 
ATOM      2  C7  <0> d   1      18.488   3.305  10.239  0.00  0.00     0.045 A 
ATOM      3  C8  <0> d   1      19.393   2.438   9.359  0.00  0.00     0.051 A 
ENDROOT
BRANCH   3   4
ATOM      4  C10 <0> d   1      18.726   1.476   8.409  0.00  0.00    -0.052 A 
ATOM      5  C15 <0> d   1      18.982   1.556   7.053  0.00  0.00     0.007 A 
ATOM      6  C14 <0> d   1      18.373   0.672   6.183  0.00  0.00     0.001 A 
ATOM      7  C13 <0> d   1      17.502  -0.287   6.667  0.00  0.00     0.000 A 
ATOM      8  C12 <0> d   1      17.243  -0.362   8.022  0.00  0.00     0.001 A 
ATOM      9  C11 <0> d   1      17.856   0.520   8.894  0.00  0.00     0.007 A 
ENDBRANCH   3   4
BRANCH   1  10
ATOM     10  N1  <0> d   1      20.425   2.488  11.705  0.00  0.00    -0.074 N 
ATOM     11  H2  <0> d   1      21.243   2.619  11.129  0.00  0.00     0.274 HD
ATOM     12  H3  <0> d   1      20.593   1.740  12.361  0.00  0.00     0.274 HD
ATOM     13  H4  <0> d   1      20.230   3.340  12.210  0.00  0.00     0.274 HD
ENDBRANCH   1  10
TORSDOF 2
ENDMDL
MODEL 2
REMARK VINA RESULT:      -5.3      2.505      4.407
REMARK  2 active torsions:
REMARK  status: ('A' for Active; 'I' for Inactive)
REMARK    1  A    between atoms: N1_1  and  C5_5 
REMARK    2  A    between atoms: C8_7  and  C10_8 
ROOT
ATOM      1  C5  <0> d   1      18.674   0.735   5.817  0.00  0.00     0.192 A 
ATOM      2  C7  <0> d   1      17.413  -0.070   6.138  0.00  0.00     0.045 A 
ATOM      3  C8  <0> d   1      18.574  -0.038   7.135  0.00  0.00     0.051 A 
ENDROOT
BRANCH   3   4
ATOM      4  C10 <0> d   1      18.384   0.763   8.397  0.00  0.00    -0.052 A 
ATOM      5  C15 <0> d   1      17.584   0.272   9.413  0.00  0.00     0.007 A 
ATOM      6  C14 <0> d   1      17.413   1.005  10.572  0.00  0.00     0.001 A 
ATOM      7  C13 <0> d   1      18.034   2.233  10.713  0.00  0.00     0.000 A 
ATOM      8  C12 <0> d   1      18.828   2.725   9.695  0.00  0.00     0.001 A 
ATOM      9  C11 <0> d   1      19.003   1.990   8.537  0.00  0.00     0.007 A 
ENDBRANCH   3   4
BRANCH   1  10
ATOM     10  N1  <0> d   1      19.574   0.202   4.786  0.00  0.00    -0.074 N 
ATOM     11  H2  <0> d   1      19.180   0.374   3.873  0.00  0.00     0.274 HD
ATOM     12  H3  <0> d   1      19.689  -0.792   4.920  0.00  0.00     0.274 HD
ATOM     13  H4  <0> d   1      20.472   0.656   4.856  0.00  0.00     0.274 HD
ENDBRANCH   1  10
TORSDOF 2
ENDMDL
MODEL 3
REMARK VINA RESULT:      -5.3      5.002      7.331
REMARK  2 active torsions:
REMARK  status: ('A' for Active; 'I' for Inactive)
REMARK    1  A    between atoms: N1_1  and  C5_5 
REMARK    2  A    between atoms: C8_7  and  C10_8 
ROOT
ATOM      1  C5  <0> d   1      20.222   0.622  12.865  0.00  0.00     0.192 A 
ATOM      2  C7  <0> d   1      19.118  -0.314  12.367  0.00  0.00     0.045 A 
ATOM      3  C8  <0> d   1      19.815  -0.593  13.701  0.00  0.00     0.051 A 
ENDROOT
BRANCH   3   4
ATOM      4  C10 <0> d   1      19.031  -0.339  14.963  0.00  0.00    -0.052 A 
ATOM      5  C15 <0> d   1      18.297  -1.360  15.537  0.00  0.00     0.007 A 
ATOM      6  C14 <0> d   1      17.580  -1.128  16.696  0.00  0.00     0.001 A 
ATOM      7  C13 <0> d   1      17.590   0.128  17.276  0.00  0.00     0.000 A 
ATOM      8  C12 <0> d   1      18.319   1.149  16.697  0.00  0.00     0.001 A 
ATOM      9  C11 <0> d   1      19.040   0.916  15.540  0.00  0.00     0.007 A 
ENDBRANCH   3   4
BRANCH   1  10
ATOM     10  N1  <0> d   1      21.517   0.569  12.176  0.00  0.00    -0.074 N 
ATOM     11  H2  <0> d   1      21.745   1.483  11.814  0.00  0.00     0.274 HD
ATOM     12  H3  <0> d   1      21.467  -0.091  11.414  0.00  0.00     0.274 HD
ATOM     13  H4  <0> d   1      22.232   0.277  12.826  0.00  0.00     0.274 HD
ENDBRANCH   1  10
TORSDOF 2
ENDMDL
MODEL 4
REMARK VINA RESULT:      -5.1      3.486      4.475
REMARK  2 active torsions:
REMARK  status: ('A' for Active; 'I' for Inactive)
REMARK    1  A    between atoms: N1_1  and  C5_5 
REMARK    2  A    between atoms: C8_7  and  C10_8 
ROOT
ATOM      1  C5  <0> d   1      20.143   1.043  11.701  0.00  0.00     0.192 A 
ATOM      2  C7  <0> d   1      18.926   0.583  12.507  0.00  0.00     0.045 A 
ATOM      3  C8  <0> d   1      19.396   2.037  12.593  0.00  0.00     0.051 A 
ENDROOT
BRANCH   3   4
ATOM      4  C10 <0> d   1      18.550   3.083  11.913  0.00  0.00    -0.052 A 
ATOM      5  C15 <0> d   1      18.684   3.304  10.555  0.00  0.00     0.007 A 
ATOM      6  C14 <0> d   1      17.906   4.260   9.930  0.00  0.00     0.001 A 
ATOM      7  C13 <0> d   1      17.000   5.002  10.665  0.00  0.00     0.000 A 
ATOM      8  C12 <0> d   1      16.871   4.786  12.024  0.00  0.00     0.001 A 
ATOM      9  C11 <0> d   1      17.646   3.825  12.648  0.00  0.00     0.007 A 
ENDBRANCH   3   4
BRANCH   1  10
ATOM     10  N1  <0> d   1      21.464   0.589  12.151  0.00  0.00    -0.074 N 
ATOM     11  H2  <0> d   1      21.504  -0.419  12.118  0.00  0.00     0.274 HD
ATOM     12  H3  <0> d   1      21.623   0.900  13.098  0.00  0.00     0.274 HD
ATOM     13  H4  <0> d   1      22.176   0.974  11.548  0.00  0.00     0.274 HD
ENDBRANCH   1  10
TORSDOF 2
ENDMDL
MODEL 5
REMARK VINA RESULT:      -5.1      3.101      4.679
REMARK  2 active torsions:
REMARK  status: ('A' for Active; 'I' for Inactive)
REMARK    1  A    between atoms: N1_1  and  C5_5 
REMARK    2  A    between atoms: C8_7  and  C10_8 
ROOT
ATOM      1  C5  <0> d   1      18.918  -1.289   5.145  0.00  0.00     0.192 A 
ATOM      2  C7  <0> d   1      19.402   0.096   4.709  0.00  0.00     0.045 A 
ATOM      3  C8  <0> d   1      18.117  -0.043   5.529  0.00  0.00     0.051 A 
ENDROOT
BRANCH   3   4
ATOM      4  C10 <0> d   1      18.161   0.396   6.971  0.00  0.00    -0.052 A 
ATOM      5  C15 <0> d   1      18.984   1.439   7.351  0.00  0.00     0.007 A 
ATOM      6  C14 <0> d   1      19.022   1.844   8.672  0.00  0.00     0.001 A 
ATOM      7  C13 <0> d   1      18.243   1.199   9.615  0.00  0.00     0.000 A 
ATOM      8  C12 <0> d   1      17.425   0.152   9.236  0.00  0.00     0.001 A 
ATOM      9  C11 <0> d   1      17.384  -0.250   7.913  0.00  0.00     0.007 A 
ENDBRANCH   3   4
BRANCH   1  10
ATOM     10  N1  <0> d   1      18.354  -2.166   4.112  0.00  0.00    -0.074 N 
ATOM     11  H2  <0> d   1      17.584  -1.698   3.656  0.00  0.00     0.274 HD
ATOM     12  H3  <0> d   1      18.024  -3.019   4.538  0.00  0.00     0.274 HD
ATOM     13  H4  <0> d   1      19.066  -2.384   3.430  0.00  0.00     0.274 HD
ENDBRANCH   1  10
TORSDOF 2
ENDMDL
MODEL 6
REMARK VINA RESULT:      -5.0      5.093      7.064
REMARK  2 active torsions:
REMARK  status: ('A' for Active; 'I' for Inactive)
REMARK    1  A    between atoms: N1_1  and  C5_5 
REMARK    2  A    between atoms: C8_7  and  C10_8 
ROOT
ATOM      1  C5  <0> d   1      19.530  -1.263  11.924  0.00  0.00     0.192 A 
ATOM      2  C7  <0> d   1      18.776  -2.565  12.203  0.00  0.00     0.045 A 
ATOM      3  C8  <0> d   1      19.555  -1.876  13.326  0.00  0.00     0.051 A 
ENDROOT
BRANCH   3   4
ATOM      4  C10 <0> d   1      18.758  -1.184  14.402  0.00  0.00    -0.052 A 
ATOM      5  C15 <0> d   1      18.177   0.045  14.149  0.00  0.00     0.007 A 
ATOM      6  C14 <0> d   1      17.444   0.678  15.135  0.00  0.00     0.001 A 
ATOM      7  C13 <0> d   1      17.298   0.087  16.377  0.00  0.00     0.000 A 
ATOM      8  C12 <0> d   1      17.884  -1.139  16.630  0.00  0.00     0.001 A 
ATOM      9  C11 <0> d   1      18.614  -1.775  15.643  0.00  0.00     0.007 A 
ENDBRANCH   3   4
BRANCH   1  10
ATOM     10  N1  <0> d   1      20.758  -1.349  11.125  0.00  0.00    -0.074 N 
ATOM     11  H2  <0> d   1      20.575  -1.022  10.188  0.00  0.00     0.274 HD
ATOM     12  H3  <0> d   1      21.071  -2.308  11.090  0.00  0.00     0.274 HD
ATOM     13  H4  <0> d   1      21.475  -0.777  11.546  0.00  0.00     0.274 HD
ENDBRANCH   1  10
TORSDOF 2
ENDMDL
MODEL 7
REMARK VINA RESULT:      -4.9      2.146      4.600
REMARK  2 active torsions:
REMARK  status: ('A' for Active; 'I' for Inactive)
REMARK    1  A    between atoms: N1_1  and  C5_5 
REMARK    2  A    between atoms: C8_7  and  C10_8 
ROOT
ATOM      1  C5  <0> d   1      19.632   0.692   9.030  0.00  0.00     0.192 A 
ATOM      2  C7  <0> d   1      19.190   1.711   7.978  0.00  0.00     0.045 A 
ATOM      3  C8  <0> d   1      18.417   1.585   9.293  0.00  0.00     0.051 A 
ENDROOT
BRANCH   3   4
ATOM      4  C10 <0> d   1      18.575   2.694  10.302  0.00  0.00    -0.052 A 
ATOM      5  C15 <0> d   1      19.666   2.705  11.151  0.00  0.00     0.007 A 
ATOM      6  C14 <0> d   1      19.813   3.723  12.074  0.00  0.00     0.001 A 
ATOM      7  C13 <0> d   1      18.864   4.726  12.154  0.00  0.00     0.000 A 
ATOM      8  C12 <0> d   1      17.771   4.711  11.309  0.00  0.00     0.001 A 
ATOM      9  C11 <0> d   1      17.626   3.694  10.383  0.00  0.00     0.007 A 
ENDBRANCH   3   4
BRANCH   1  10
ATOM     10  N1  <0> d   1      19.381  -0.727   8.745  0.00  0.00    -0.074 N 
ATOM     11  H2  <0> d   1      18.386  -0.890   8.697  0.00  0.00     0.274 HD
ATOM     12  H3  <0> d   1      19.779  -1.293   9.480  0.00  0.00     0.274 HD
ATOM     13  H4  <0> d   1      19.805  -0.974   7.863  0.00  0.00     0.274 HD
ENDBRANCH   1  10
TORSDOF 2
ENDMDL
MODEL 8
REMARK VINA RESULT:      -4.8      5.331      6.096
REMARK  2 active torsions:
REMARK  status: ('A' for Active; 'I' for Inactive)
REMARK    1  A    between atoms: N1_1  and  C5_5 
REMARK    2  A    between atoms: C8_7  and  C10_8 
ROOT
ATOM      1  C5  <0> d   1      19.229  -2.111  12.678  0.00  0.00     0.192 A 
ATOM      2  C7  <0> d   1      19.851  -1.770  11.322  0.00  0.00     0.045 A 
ATOM      3  C8  <0> d   1      19.938  -3.198  11.866  0.00  0.00     0.051 A 
ENDROOT
BRANCH   3   4
ATOM      4  C10 <0> d   1      19.078  -4.247  11.208  0.00  0.00    -0.052 A 
ATOM      5  C15 <0> d   1      19.530  -4.900  10.077  0.00  0.00     0.007 A 
ATOM      6  C14 <0> d   1      18.743  -5.864   9.476  0.00  0.00     0.001 A 
ATOM      7  C13 <0> d   1      17.501  -6.169  10.000  0.00  0.00     0.000 A 
ATOM      8  C12 <0> d   1      17.047  -5.511  11.128  0.00  0.00     0.001 A 
ATOM      9  C11 <0> d   1      17.836  -4.550  11.732  0.00  0.00     0.007 A 
ENDBRANCH   3   4
BRANCH   1  10
ATOM     10  N1  <0> d   1      19.909  -1.611  13.880  0.00  0.00    -0.074 N 
ATOM     11  H2  <0> d   1      19.976  -0.605  13.835  0.00  0.00     0.274 HD
ATOM     12  H3  <0> d   1      20.835  -2.008  13.933  0.00  0.00     0.274 HD
ATOM     13  H4  <0> d   1      19.382  -1.876  14.699  0.00  0.00     0.274 HD
ENDBRANCH   1  10
TORSDOF 2
ENDMDL
MODEL 9
REMARK VINA RESULT:      -4.8      1.826      2.518
REMARK  2 active torsions:
REMARK  status: ('A' for Active; 'I' for Inactive)
REMARK    1  A    between atoms: N1_1  and  C5_5 
REMARK    2  A    between atoms: C8_7  and  C10_8 
ROOT
ATOM      1  C5  <0> d   1      17.339  -0.196  10.923  0.00  0.00     0.192 A 
ATOM      2  C7  <0> d   1      17.563   1.317  10.967  0.00  0.00     0.045 A 
ATOM      3  C8  <0> d   1      18.480   0.431  10.119  0.00  0.00     0.051 A 
ENDROOT
BRANCH   3   4
ATOM      4  C10 <0> d   1      18.322   0.497   8.622  0.00  0.00    -0.052 A 
ATOM      5  C15 <0> d   1      17.388  -0.303   7.990  0.00  0.00     0.007 A 
ATOM      6  C14 <0> d   1      17.240  -0.240   6.617  0.00  0.00     0.001 A 
ATOM      7  C13 <0> d   1      18.033   0.617   5.875  0.00  0.00     0.000 A 
ATOM      8  C12 <0> d   1      18.971   1.411   6.507  0.00  0.00     0.001 A 
ATOM      9  C11 <0> d   1      19.115   1.352   7.881  0.00  0.00     0.007 A 
ENDBRANCH   3   4
BRANCH   1  10
ATOM     10  N1  <0> d   1      17.697  -0.969  12.119  0.00  0.00    -0.074 N 
ATOM     11  H2  <0> d   1      18.531  -1.507  11.936  0.00  0.00     0.274 HD
ATOM     12  H3  <0> d   1      16.940  -1.592  12.357  0.00  0.00     0.274 HD
ATOM     13  H4  <0> d   1      17.867  -0.338  12.889  0.00  0.00     0.274 HD
ENDBRANCH   1  10
TORSDOF 2
ENDMDL
