MODEL 1
REMARK VINA RESULT:      -9.1      0.000      0.000
REMARK  11 active torsions:
REMARK  status: ('A' for Active; 'I' for Inactive)
REMARK    1  A    between atoms: S2_2  and  C5_5 
REMARK    2  A    between atoms: C5_5  and  C6_6 
REMARK    3  A    between atoms: C6_6  and  N7_7 
REMARK    4  A    between atoms: N7_7  and  C10_10 
REMARK    5  A    between atoms: C10_10  and  C11_11 
REMARK    6  A    between atoms: C14_14  and  C15_15 
REMARK    7  A    between atoms: C22_22  and  N23_23 
REMARK    8  A    between atoms: N23_23  and  C24_24 
REMARK    9  A    between atoms: C27_27  and  O28_28 
REMARK   10  A    between atoms: O28_28  and  C29_29 
REMARK   11  A    between atoms: C29_29  and  C30_30 
ROOT
ATOM      1  C15 ZIN A   1      18.327  -1.191  12.435  0.00  0.00    -0.001 A 
ATOM      2  C16 ZIN A   1      17.655  -2.262  11.822  0.00  0.00     0.016 A 
ATOM      3  C17 ZIN A   1      17.516  -2.317  10.470  0.00  0.00     0.033 A 
ATOM      4  C18 ZIN A   1      18.048  -1.295   9.670  0.00  0.00     0.072 A 
ATOM      5  N19 ZIN A   1      17.932  -1.311   8.334  0.00  0.00    -0.241 NA
ATOM      6  C20 ZIN A   1      18.439  -0.343   7.608  0.00  0.00     0.236 A 
ATOM      7  N21 ZIN A   1      19.081   0.689   8.131  0.00  0.00    -0.224 NA
ATOM      8  C22 ZIN A   1      19.253   0.806   9.441  0.00  0.00     0.142 A 
ATOM      9  C40 ZIN A   1      18.728  -0.211  10.279  0.00  0.00     0.040 A 
ATOM     10  C41 ZIN A   1      18.859  -0.164  11.668  0.00  0.00     0.032 A 
ENDROOT
BRANCH   8  11
ATOM     11  N23 ZIN A   1      19.924   1.886   9.975  0.00  0.00    -0.340 N 
ATOM     12  H57 ZIN A   1      20.890   1.942   9.905  0.00  0.00     0.167 HD
BRANCH  11  13
ATOM     13  C24 ZIN A   1      19.210   2.905  10.617  0.00  0.00     0.035 A 
ATOM     14  C39 ZIN A   1      19.743   3.526  11.739  0.00  0.00     0.056 A 
ATOM     15  C37 ZIN A   1      19.039   4.533  12.370  0.00  0.00     0.069 A 
ATOM     16  C27 ZIN A   1      17.795   4.918  11.889  0.00  0.00     0.091 A 
ATOM     17 Cl38 ZIN A   1      19.708   5.315  13.769  0.00  0.00    -0.081 Cl
ATOM     18  C26 ZIN A   1      17.260   4.293  10.773  0.00  0.00     0.041 A 
ATOM     19  C25 ZIN A   1      17.965   3.289  10.137  0.00  0.00     0.032 A 
BRANCH  16  20
ATOM     20  O28 ZIN A   1      17.101   5.906  12.513  0.00  0.00    -0.345 OA
BRANCH  20  21
ATOM     21  C29 ZIN A   1      15.943   5.516  13.256  0.00  0.00     0.214 C 
BRANCH  21  22
ATOM     22  C30 ZIN A   1      15.855   6.337  14.516  0.00  0.00    -0.031 A 
ATOM     23  C36 ZIN A   1      16.917   7.135  14.897  0.00  0.00     0.051 A 
ATOM     24  C34 ZIN A   1      16.835   7.894  16.052  0.00  0.00     0.117 A 
ATOM     25  C33 ZIN A   1      15.691   7.843  16.831  0.00  0.00     0.042 A 
ATOM     26  F35 ZIN A   1      17.870   8.678  16.422  0.00  0.00    -0.206 F 
ATOM     27  C32 ZIN A   1      14.632   7.039  16.452  0.00  0.00     0.004 A 
ATOM     28  C31 ZIN A   1      14.714   6.287  15.296  0.00  0.00     0.009 A 
ENDBRANCH  21  22
ENDBRANCH  20  21
ENDBRANCH  16  20
ENDBRANCH  11  13
ENDBRANCH   8  11
BRANCH   1  29
ATOM     29  C14 ZIN A   1      18.464  -1.157  13.906  0.00  0.00     0.086 A 
ATOM     30  C13 ZIN A   1      19.568  -1.515  14.614  0.00  0.00     0.040 A 
ATOM     31  C12 ZIN A   1      19.256  -1.326  15.976  0.00  0.00     0.037 A 
ATOM     32  C11 ZIN A   1      17.990  -0.867  16.031  0.00  0.00     0.079 A 
ATOM     33  O42 ZIN A   1      17.513  -0.772  14.779  0.00  0.00    -0.313 OA
BRANCH  32  34
ATOM     34  C10 ZIN A   1      17.235  -0.523  17.287  0.00  0.00     0.296 C 
BRANCH  34  35
ATOM     35  N7  ZIN A   1      17.063   0.934  17.374  0.00  0.00    -0.069 N 
ATOM     36  H8  ZIN A   1      16.081   1.151  17.461  0.00  0.00     0.277 HD
ATOM     37  H9  ZIN A   1      17.431   1.365  16.540  0.00  0.00     0.277 HD
BRANCH  35  38
ATOM     38  C6  ZIN A   1      17.784   1.443  18.548  0.00  0.00     0.247 C 
BRANCH  38  39
ATOM     39  C5  ZIN A   1      19.201   1.850  18.138  0.00  0.00     0.167 C 
BRANCH  39  40
ATOM     40  S2  ZIN A   1      19.115   3.174  16.901  0.00  0.00     0.142 S 
ATOM     41  C1  ZIN A   1      17.974   4.346  17.686  0.00  0.00     0.161 C 
ATOM     42  O3  ZIN A   1      18.499   2.659  15.729  0.00  0.00    -0.228 OA
ATOM     43  O4  ZIN A   1      20.395   3.785  16.801  0.00  0.00    -0.228 OA
ENDBRANCH  39  40
ENDBRANCH  38  39
ENDBRANCH  35  38
ENDBRANCH  34  35
ENDBRANCH  32  34
ENDBRANCH   1  29
TORSDOF 11
ENDMDL
MODEL 2
REMARK VINA RESULT:      -9.1      4.422      9.639
REMARK  11 active torsions:
REMARK  status: ('A' for Active; 'I' for Inactive)
REMARK    1  A    between atoms: S2_2  and  C5_5 
REMARK    2  A    between atoms: C5_5  and  C6_6 
REMARK    3  A    between atoms: C6_6  and  N7_7 
REMARK    4  A    between atoms: N7_7  and  C10_10 
REMARK    5  A    between atoms: C10_10  and  C11_11 
REMARK    6  A    between atoms: C14_14  and  C15_15 
REMARK    7  A    between atoms: C22_22  and  N23_23 
REMARK    8  A    between atoms: N23_23  and  C24_24 
REMARK    9  A    between atoms: C27_27  and  O28_28 
REMARK   10  A    between atoms: O28_28  and  C29_29 
REMARK   11  A    between atoms: C29_29  and  C30_30 
ROOT
ATOM      1  C15 ZIN A   1      18.681   3.668  13.905  0.00  0.00    -0.001 A 
ATOM      2  C16 ZIN A   1      19.349   4.658  14.644  0.00  0.00     0.016 A 
ATOM      3  C17 ZIN A   1      19.620   4.481  15.965  0.00  0.00     0.033 A 
ATOM      4  C18 ZIN A   1      19.230   3.296  16.606  0.00  0.00     0.072 A 
ATOM      5  N19 ZIN A   1      19.479   3.082  17.907  0.00  0.00    -0.241 NA
ATOM      6  C20 ZIN A   1      19.103   1.965  18.483  0.00  0.00     0.236 A 
ATOM      7  N21 ZIN A   1      18.471   0.999  17.837  0.00  0.00    -0.224 NA
ATOM      8  C22 ZIN A   1      18.174   1.105  16.549  0.00  0.00     0.142 A 
ATOM      9  C40 ZIN A   1      18.555   2.291  15.870  0.00  0.00     0.040 A 
ATOM     10  C41 ZIN A   1      18.279   2.488  14.516  0.00  0.00     0.032 A 
ENDROOT
BRANCH   8  11
ATOM     11  N23 ZIN A   1      17.514   0.091  15.887  0.00  0.00    -0.340 N 
ATOM     12  H57 ZIN A   1      16.633  -0.188  16.180  0.00  0.00     0.167 HD
BRANCH  11  13
ATOM     13  C24 ZIN A   1      18.117  -0.534  14.788  0.00  0.00     0.035 A 
ATOM     14  C39 ZIN A   1      17.518  -0.469  13.537  0.00  0.00     0.056 A 
ATOM     15  C37 ZIN A   1      18.115  -1.083  12.453  0.00  0.00     0.069 A 
ATOM     16  C27 ZIN A   1      19.309  -1.773  12.617  0.00  0.00     0.091 A 
ATOM     17 Cl38 ZIN A   1      17.371  -0.997  10.888  0.00  0.00    -0.081 Cl
ATOM     18  C26 ZIN A   1      19.904  -1.843  13.868  0.00  0.00     0.041 A 
ATOM     19  C25 ZIN A   1      19.310  -1.225  14.952  0.00  0.00     0.032 A 
BRANCH  16  20
ATOM     20  O28 ZIN A   1      19.894  -2.381  11.551  0.00  0.00    -0.345 OA
BRANCH  20  21
ATOM     21  C29 ZIN A   1      19.875  -3.811  11.528  0.00  0.00     0.214 C 
BRANCH  21  22
ATOM     22  C30 ZIN A   1      18.676  -4.286  10.751  0.00  0.00    -0.031 A 
ATOM     23  C36 ZIN A   1      18.691  -4.254   9.369  0.00  0.00     0.051 A 
ATOM     24  C34 ZIN A   1      17.590  -4.695   8.654  0.00  0.00     0.117 A 
ATOM     25  C33 ZIN A   1      16.471  -5.158   9.326  0.00  0.00     0.042 A 
ATOM     26  F35 ZIN A   1      17.606  -4.669   7.304  0.00  0.00    -0.206 F 
ATOM     27  C32 ZIN A   1      16.456  -5.183  10.707  0.00  0.00     0.004 A 
ATOM     28  C31 ZIN A   1      17.557  -4.747  11.420  0.00  0.00     0.009 A 
ENDBRANCH  21  22
ENDBRANCH  20  21
ENDBRANCH  16  20
ENDBRANCH  11  13
ENDBRANCH   8  11
BRANCH   1  29
ATOM     29  C14 ZIN A   1      18.399   3.887  12.472  0.00  0.00     0.086 A 
ATOM     30  C13 ZIN A   1      17.653   4.897  11.950  0.00  0.00     0.040 A 
ATOM     31  C12 ZIN A   1      17.648   4.718  10.552  0.00  0.00     0.037 A 
ATOM     32  C11 ZIN A   1      18.383   3.619  10.292  0.00  0.00     0.079 A 
ATOM     33  O42 ZIN A   1      18.830   3.116  11.455  0.00  0.00    -0.313 OA
BRANCH  32  34
ATOM     34  C10 ZIN A   1      18.654   3.046   8.926  0.00  0.00     0.296 C 
BRANCH  34  35
ATOM     35  N7  ZIN A   1      19.631   1.954   9.036  0.00  0.00    -0.069 N 
ATOM     36  H8  ZIN A   1      19.717   1.677  10.003  0.00  0.00     0.277 HD
ATOM     37  H9  ZIN A   1      20.527   2.270   8.695  0.00  0.00     0.277 HD
BRANCH  35  38
ATOM     38  C6  ZIN A   1      19.179   0.809   8.236  0.00  0.00     0.247 C 
BRANCH  38  39
ATOM     39  C5  ZIN A   1      19.050   1.230   6.770  0.00  0.00     0.167 C 
BRANCH  39  40
ATOM     40  S2  ZIN A   1      18.258  -0.102   5.827  0.00  0.00     0.142 S 
ATOM     41  C1  ZIN A   1      19.051  -1.577   6.524  0.00  0.00     0.161 C 
ATOM     42  O3  ZIN A   1      18.642   0.018   4.464  0.00  0.00    -0.228 OA
ATOM     43  O4  ZIN A   1      16.876  -0.131   6.158  0.00  0.00    -0.228 OA
ENDBRANCH  39  40
ENDBRANCH  38  39
ENDBRANCH  35  38
ENDBRANCH  34  35
ENDBRANCH  32  34
ENDBRANCH   1  29
TORSDOF 11
ENDMDL
MODEL 3
REMARK VINA RESULT:      -9.0      4.948      9.814
REMARK  11 active torsions:
REMARK  status: ('A' for Active; 'I' for Inactive)
REMARK    1  A    between atoms: S2_2  and  C5_5 
REMARK    2  A    between atoms: C5_5  and  C6_6 
REMARK    3  A    between atoms: C6_6  and  N7_7 
REMARK    4  A    between atoms: N7_7  and  C10_10 
REMARK    5  A    between atoms: C10_10  and  C11_11 
REMARK    6  A    between atoms: C14_14  and  C15_15 
REMARK    7  A    between atoms: C22_22  and  N23_23 
REMARK    8  A    between atoms: N23_23  and  C24_24 
REMARK    9  A    between atoms: C27_27  and  O28_28 
REMARK   10  A    between atoms: O28_28  and  C29_29 
REMARK   11  A    between atoms: C29_29  and  C30_30 
ROOT
ATOM      1  C15 ZIN A   1      17.787   3.241  11.292  0.00  0.00    -0.001 A 
ATOM      2  C16 ZIN A   1      16.900   4.326  11.197  0.00  0.00     0.016 A 
ATOM      3  C17 ZIN A   1      16.606   5.085  12.287  0.00  0.00     0.033 A 
ATOM      4  C18 ZIN A   1      17.192   4.786  13.526  0.00  0.00     0.072 A 
ATOM      5  N19 ZIN A   1      16.929   5.509  14.624  0.00  0.00    -0.241 NA
ATOM      6  C20 ZIN A   1      17.490   5.209  15.772  0.00  0.00     0.236 A 
ATOM      7  N21 ZIN A   1      18.331   4.199  15.919  0.00  0.00    -0.224 NA
ATOM      8  C22 ZIN A   1      18.662   3.418  14.900  0.00  0.00     0.142 A 
ATOM      9  C40 ZIN A   1      18.088   3.693  13.632  0.00  0.00     0.040 A 
ATOM     10  C41 ZIN A   1      18.377   2.919  12.506  0.00  0.00     0.032 A 
ENDROOT
BRANCH   8  11
ATOM     11  N23 ZIN A   1      19.540   2.367  15.066  0.00  0.00    -0.340 N 
ATOM     12  H57 ZIN A   1      20.354   2.490  15.580  0.00  0.00     0.167 HD
BRANCH  11  13
ATOM     13  C24 ZIN A   1      19.256   1.122  14.492  0.00  0.00     0.035 A 
ATOM     14  C39 ZIN A   1      19.918   0.721  13.339  0.00  0.00     0.056 A 
ATOM     15  C37 ZIN A   1      19.640  -0.510  12.777  0.00  0.00     0.069 A 
ATOM     16  C27 ZIN A   1      18.692  -1.341  13.358  0.00  0.00     0.091 A 
ATOM     17 Cl38 ZIN A   1      20.471  -1.015  11.339  0.00  0.00    -0.081 Cl
ATOM     18  C26 ZIN A   1      18.027  -0.938  14.506  0.00  0.00     0.041 A 
ATOM     19  C25 ZIN A   1      18.307   0.291  15.073  0.00  0.00     0.032 A 
BRANCH  16  20
ATOM     20  O28 ZIN A   1      18.415  -2.550  12.801  0.00  0.00    -0.345 OA
BRANCH  20  21
ATOM     21  C29 ZIN A   1      17.581  -2.554  11.640  0.00  0.00     0.214 C 
BRANCH  21  22
ATOM     22  C30 ZIN A   1      17.885  -3.773  10.808  0.00  0.00    -0.031 A 
ATOM     23  C36 ZIN A   1      16.860  -4.612  10.412  0.00  0.00     0.051 A 
ATOM     24  C34 ZIN A   1      17.137  -5.729   9.643  0.00  0.00     0.117 A 
ATOM     25  C33 ZIN A   1      18.444  -6.011   9.281  0.00  0.00     0.042 A 
ATOM     26  F35 ZIN A   1      16.136  -6.546   9.251  0.00  0.00    -0.206 F 
ATOM     27  C32 ZIN A   1      19.468  -5.174   9.683  0.00  0.00     0.004 A 
ATOM     28  C31 ZIN A   1      19.189  -4.057  10.446  0.00  0.00     0.009 A 
ENDBRANCH  21  22
ENDBRANCH  20  21
ENDBRANCH  16  20
ENDBRANCH  11  13
ENDBRANCH   8  11
BRANCH   1  29
ATOM     29  C14 ZIN A   1      18.088   2.433  10.092  0.00  0.00     0.086 A 
ATOM     30  C13 ZIN A   1      19.000   2.740   9.131  0.00  0.00     0.040 A 
ATOM     31  C12 ZIN A   1      18.955   1.699   8.181  0.00  0.00     0.037 A 
ATOM     32  C11 ZIN A   1      18.028   0.818   8.605  0.00  0.00     0.079 A 
ATOM     33  O42 ZIN A   1      17.502   1.268   9.756  0.00  0.00    -0.313 OA
BRANCH  32  34
ATOM     34  C10 ZIN A   1      17.642  -0.456   7.901  0.00  0.00     0.296 C 
BRANCH  34  35
ATOM     35  N7  ZIN A   1      18.673  -0.804   6.914  0.00  0.00    -0.069 N 
ATOM     36  H8  ZIN A   1      19.403  -0.107   6.931  0.00  0.00     0.277 HD
ATOM     37  H9  ZIN A   1      18.259  -0.835   5.993  0.00  0.00     0.277 HD
BRANCH  35  38
ATOM     38  C6  ZIN A   1      19.241  -2.118   7.240  0.00  0.00     0.247 C 
BRANCH  38  39
ATOM     39  C5  ZIN A   1      18.618  -3.182   6.333  0.00  0.00     0.167 C 
BRANCH  39  40
ATOM     40  S2  ZIN A   1      18.443  -2.516   4.654  0.00  0.00     0.142 S 
ATOM     41  C1  ZIN A   1      18.258  -4.029   3.669  0.00  0.00     0.161 C 
ATOM     42  O3  ZIN A   1      19.661  -1.884   4.288  0.00  0.00    -0.228 OA
ATOM     43  O4  ZIN A   1      17.230  -1.779   4.584  0.00  0.00    -0.228 OA
ENDBRANCH  39  40
ENDBRANCH  38  39
ENDBRANCH  35  38
ENDBRANCH  34  35
ENDBRANCH  32  34
ENDBRANCH   1  29
TORSDOF 11
ENDMDL
MODEL 4
REMARK VINA RESULT:      -8.8      4.251      8.248
REMARK  11 active torsions:
REMARK  status: ('A' for Active; 'I' for Inactive)
REMARK    1  A    between atoms: S2_2  and  C5_5 
REMARK    2  A    between atoms: C5_5  and  C6_6 
REMARK    3  A    between atoms: C6_6  and  N7_7 
REMARK    4  A    between atoms: N7_7  and  C10_10 
REMARK    5  A    between atoms: C10_10  and  C11_11 
REMARK    6  A    between atoms: C14_14  and  C15_15 
REMARK    7  A    between atoms: C22_22  and  N23_23 
REMARK    8  A    between atoms: N23_23  and  C24_24 
REMARK    9  A    between atoms: C27_27  and  O28_28 
REMARK   10  A    between atoms: O28_28  and  C29_29 
REMARK   11  A    between atoms: C29_29  and  C30_30 
ROOT
ATOM      1  C15 ZIN A   1      18.023  -2.415   5.031  0.00  0.00    -0.001 A 
ATOM      2  C16 ZIN A   1      17.134  -2.544   3.951  0.00  0.00     0.016 A 
ATOM      3  C17 ZIN A   1      16.674  -3.765   3.567  0.00  0.00     0.033 A 
ATOM      4  C18 ZIN A   1      17.088  -4.916   4.252  0.00  0.00     0.072 A 
ATOM      5  N19 ZIN A   1      16.658  -6.138   3.904  0.00  0.00    -0.241 NA
ATOM      6  C20 ZIN A   1      17.061  -7.200   4.562  0.00  0.00     0.236 A 
ATOM      7  N21 ZIN A   1      17.897  -7.138   5.585  0.00  0.00    -0.224 NA
ATOM      8  C22 ZIN A   1      18.385  -5.982   6.013  0.00  0.00     0.142 A 
ATOM      9  C40 ZIN A   1      17.986  -4.797   5.343  0.00  0.00     0.040 A 
ATOM     10  C41 ZIN A   1      18.454  -3.539   5.723  0.00  0.00     0.032 A 
ENDROOT
BRANCH   8  11
ATOM     11  N23 ZIN A   1      19.256  -5.930   7.081  0.00  0.00    -0.340 N 
ATOM     12  H57 ZIN A   1      20.139  -6.326   7.008  0.00  0.00     0.167 HD
BRANCH  11  13
ATOM     13  C24 ZIN A   1      18.867  -5.305   8.272  0.00  0.00     0.035 A 
ATOM     14  C39 ZIN A   1      19.823  -4.946   9.213  0.00  0.00     0.056 A 
ATOM     15  C37 ZIN A   1      19.437  -4.325  10.386  0.00  0.00     0.069 A 
ATOM     16  C27 ZIN A   1      18.094  -4.069  10.627  0.00  0.00     0.091 A 
ATOM     17 Cl38 ZIN A   1      20.632  -3.870  11.560  0.00  0.00    -0.081 Cl
ATOM     18  C26 ZIN A   1      17.139  -4.433   9.690  0.00  0.00     0.041 A 
ATOM     19  C25 ZIN A   1      17.524  -5.050   8.514  0.00  0.00     0.032 A 
BRANCH  16  20
ATOM     20  O28 ZIN A   1      17.715  -3.462  11.783  0.00  0.00    -0.345 OA
BRANCH  20  21
ATOM     21  C29 ZIN A   1      17.414  -2.066  11.716  0.00  0.00     0.214 C 
BRANCH  21  22
ATOM     22  C30 ZIN A   1      17.969  -1.373  12.932  0.00  0.00    -0.031 A 
ATOM     23  C36 ZIN A   1      17.426  -0.173  13.353  0.00  0.00     0.051 A 
ATOM     24  C34 ZIN A   1      17.933   0.461  14.474  0.00  0.00     0.117 A 
ATOM     25  C33 ZIN A   1      18.991  -0.102  15.167  0.00  0.00     0.042 A 
ATOM     26  F35 ZIN A   1      17.400   1.630  14.888  0.00  0.00    -0.206 F 
ATOM     27  C32 ZIN A   1      19.537  -1.299  14.742  0.00  0.00     0.004 A 
ATOM     28  C31 ZIN A   1      19.027  -1.934  13.625  0.00  0.00     0.009 A 
ENDBRANCH  21  22
ENDBRANCH  20  21
ENDBRANCH  16  20
ENDBRANCH  11  13
ENDBRANCH   8  11
BRANCH   1  29
ATOM     29  C14 ZIN A   1      18.507  -1.077   5.427  0.00  0.00     0.086 A 
ATOM     30  C13 ZIN A   1      19.097  -0.166   4.608  0.00  0.00     0.040 A 
ATOM     31  C12 ZIN A   1      19.396   0.960   5.401  0.00  0.00     0.037 A 
ATOM     32  C11 ZIN A   1      18.978   0.684   6.651  0.00  0.00     0.079 A 
ATOM     33  O42 ZIN A   1      18.448  -0.550   6.665  0.00  0.00    -0.313 OA
BRANCH  32  34
ATOM     34  C10 ZIN A   1      19.093   1.604   7.838  0.00  0.00     0.296 C 
BRANCH  34  35
ATOM     35  N7  ZIN A   1      19.890   0.954   8.888  0.00  0.00    -0.069 N 
ATOM     36  H8  ZIN A   1      20.676   1.541   9.124  0.00  0.00     0.277 HD
ATOM     37  H9  ZIN A   1      20.225   0.063   8.552  0.00  0.00     0.277 HD
BRANCH  35  38
ATOM     38  C6  ZIN A   1      19.057   0.746  10.079  0.00  0.00     0.247 C 
BRANCH  38  39
ATOM     39  C5  ZIN A   1      17.896   1.743  10.069  0.00  0.00     0.167 C 
BRANCH  39  40
ATOM     40  S2  ZIN A   1      18.333   3.190  11.072  0.00  0.00     0.142 S 
ATOM     41  C1  ZIN A   1      17.791   4.558  10.011  0.00  0.00     0.161 C 
ATOM     42  O3  ZIN A   1      19.748   3.245  11.194  0.00  0.00    -0.228 OA
ATOM     43  O4  ZIN A   1      17.535   3.184  12.248  0.00  0.00    -0.228 OA
ENDBRANCH  39  40
ENDBRANCH  38  39
ENDBRANCH  35  38
ENDBRANCH  34  35
ENDBRANCH  32  34
ENDBRANCH   1  29
TORSDOF 11
ENDMDL
MODEL 5
REMARK VINA RESULT:      -8.8      3.658      6.976
REMARK  11 active torsions:
REMARK  status: ('A' for Active; 'I' for Inactive)
REMARK    1  A    between atoms: S2_2  and  C5_5 
REMARK    2  A    between atoms: C5_5  and  C6_6 
REMARK    3  A    between atoms: C6_6  and  N7_7 
REMARK    4  A    between atoms: N7_7  and  C10_10 
REMARK    5  A    between atoms: C10_10  and  C11_11 
REMARK    6  A    between atoms: C14_14  and  C15_15 
REMARK    7  A    between atoms: C22_22  and  N23_23 
REMARK    8  A    between atoms: N23_23  and  C24_24 
REMARK    9  A    between atoms: C27_27  and  O28_28 
REMARK   10  A    between atoms: O28_28  and  C29_29 
REMARK   11  A    between atoms: C29_29  and  C30_30 
ROOT
ATOM      1  C15 ZIN A   1      18.861  -2.192   7.226  0.00  0.00    -0.001 A 
ATOM      2  C16 ZIN A   1      19.464  -2.863   6.149  0.00  0.00     0.016 A 
ATOM      3  C17 ZIN A   1      19.447  -4.221   6.075  0.00  0.00     0.033 A 
ATOM      4  C18 ZIN A   1      18.822  -4.969   7.083  0.00  0.00     0.072 A 
ATOM      5  N19 ZIN A   1      18.784  -6.310   7.046  0.00  0.00    -0.241 NA
ATOM      6  C20 ZIN A   1      18.193  -6.986   8.002  0.00  0.00     0.236 A 
ATOM      7  N21 ZIN A   1      17.609  -6.408   9.039  0.00  0.00    -0.224 NA
ATOM      8  C22 ZIN A   1      17.588  -5.089   9.176  0.00  0.00     0.142 A 
ATOM      9  C40 ZIN A   1      18.211  -4.302   8.173  0.00  0.00     0.040 A 
ATOM     10  C41 ZIN A   1      18.240  -2.908   8.240  0.00  0.00     0.032 A 
ENDROOT
BRANCH   8  11
ATOM     11  N23 ZIN A   1      16.977  -4.498  10.262  0.00  0.00    -0.340 N 
ATOM     12  H57 ZIN A   1      16.054  -4.708  10.475  0.00  0.00     0.167 HD
BRANCH  11  13
ATOM     13  C24 ZIN A   1      17.691  -3.594  11.058  0.00  0.00     0.035 A 
ATOM     14  C39 ZIN A   1      17.100  -2.400  11.454  0.00  0.00     0.056 A 
ATOM     15  C37 ZIN A   1      17.804  -1.511  12.243  0.00  0.00     0.069 A 
ATOM     16  C27 ZIN A   1      19.103  -1.806  12.632  0.00  0.00     0.091 A 
ATOM     17 Cl38 ZIN A   1      17.065  -0.022  12.743  0.00  0.00    -0.081 Cl
ATOM     18  C26 ZIN A   1      19.695  -2.995  12.232  0.00  0.00     0.041 A 
ATOM     19  C25 ZIN A   1      18.991  -3.887  11.447  0.00  0.00     0.032 A 
BRANCH  16  20
ATOM     20  O28 ZIN A   1      19.797  -0.928  13.405  0.00  0.00    -0.345 OA
BRANCH  20  21
ATOM     21  C29 ZIN A   1      20.082  -1.328  14.748  0.00  0.00     0.214 C 
BRANCH  21  22
ATOM     22  C30 ZIN A   1      19.013  -0.799  15.667  0.00  0.00    -0.031 A 
ATOM     23  C36 ZIN A   1      17.958  -1.611  16.041  0.00  0.00     0.051 A 
ATOM     24  C34 ZIN A   1      16.979  -1.127  16.891  0.00  0.00     0.117 A 
ATOM     25  C33 ZIN A   1      17.051   0.175  17.357  0.00  0.00     0.042 A 
ATOM     26  F35 ZIN A   1      15.951  -1.921  17.261  0.00  0.00    -0.206 F 
ATOM     27  C32 ZIN A   1      18.103   0.987  16.977  0.00  0.00     0.004 A 
ATOM     28  C31 ZIN A   1      19.083   0.501  16.133  0.00  0.00     0.009 A 
ENDBRANCH  21  22
ENDBRANCH  20  21
ENDBRANCH  16  20
ENDBRANCH  11  13
ENDBRANCH   8  11
BRANCH   1  29
ATOM     29  C14 ZIN A   1      18.894  -0.716   7.282  0.00  0.00     0.086 A 
ATOM     30  C13 ZIN A   1      18.913   0.123   6.213  0.00  0.00     0.040 A 
ATOM     31  C12 ZIN A   1      18.943   1.435   6.727  0.00  0.00     0.037 A 
ATOM     32  C11 ZIN A   1      18.941   1.333   8.071  0.00  0.00     0.079 A 
ATOM     33  O42 ZIN A   1      18.917   0.031   8.402  0.00  0.00    -0.313 OA
BRANCH  32  34
ATOM     34  C10 ZIN A   1      18.967   2.486   9.039  0.00  0.00     0.296 C 
BRANCH  34  35
ATOM     35  N7  ZIN A   1      18.398   2.060  10.325  0.00  0.00    -0.069 N 
ATOM     36  H8  ZIN A   1      17.951   1.162  10.213  0.00  0.00     0.277 HD
ATOM     37  H9  ZIN A   1      17.717   2.738  10.632  0.00  0.00     0.277 HD
BRANCH  35  38
ATOM     38  C6  ZIN A   1      19.469   1.955  11.325  0.00  0.00     0.247 C 
BRANCH  38  39
ATOM     39  C5  ZIN A   1      20.142   3.318  11.495  0.00  0.00     0.167 C 
BRANCH  39  40
ATOM     40  S2  ZIN A   1      19.099   4.382  12.530  0.00  0.00     0.142 S 
ATOM     41  C1  ZIN A   1      18.417   3.194  13.720  0.00  0.00     0.161 C 
ATOM     42  O3  ZIN A   1      18.036   4.886  11.734  0.00  0.00    -0.228 OA
ATOM     43  O4  ZIN A   1      19.935   5.295  13.229  0.00  0.00    -0.228 OA
ENDBRANCH  39  40
ENDBRANCH  38  39
ENDBRANCH  35  38
ENDBRANCH  34  35
ENDBRANCH  32  34
ENDBRANCH   1  29
TORSDOF 11
ENDMDL
MODEL 6
REMARK VINA RESULT:      -8.6      5.941      9.857
REMARK  11 active torsions:
REMARK  status: ('A' for Active; 'I' for Inactive)
REMARK    1  A    between atoms: S2_2  and  C5_5 
REMARK    2  A    between atoms: C5_5  and  C6_6 
REMARK    3  A    between atoms: C6_6  and  N7_7 
REMARK    4  A    between atoms: N7_7  and  C10_10 
REMARK    5  A    between atoms: C10_10  and  C11_11 
REMARK    6  A    between atoms: C14_14  and  C15_15 
REMARK    7  A    between atoms: C22_22  and  N23_23 
REMARK    8  A    between atoms: N23_23  and  C24_24 
REMARK    9  A    between atoms: C27_27  and  O28_28 
REMARK   10  A    between atoms: O28_28  and  C29_29 
REMARK   11  A    between atoms: C29_29  and  C30_30 
ROOT
ATOM      1  C15 ZIN A   1      19.173   0.229   9.631  0.00  0.00    -0.001 A 
ATOM      2  C16 ZIN A   1      18.975   1.412   8.899  0.00  0.00     0.016 A 
ATOM      3  C17 ZIN A   1      18.948   1.397   7.540  0.00  0.00     0.033 A 
ATOM      4  C18 ZIN A   1      19.119   0.187   6.850  0.00  0.00     0.072 A 
ATOM      5  N19 ZIN A   1      19.099   0.129   5.510  0.00  0.00    -0.241 NA
ATOM      6  C20 ZIN A   1      19.263  -1.015   4.889  0.00  0.00     0.236 A 
ATOM      7  N21 ZIN A   1      19.453  -2.159   5.526  0.00  0.00    -0.224 NA
ATOM      8  C22 ZIN A   1      19.491  -2.217   6.850  0.00  0.00     0.142 A 
ATOM      9  C40 ZIN A   1      19.320  -1.012   7.579  0.00  0.00     0.040 A 
ATOM     10  C41 ZIN A   1      19.351  -0.981   8.974  0.00  0.00     0.032 A 
ENDROOT
BRANCH   8  11
ATOM     11  N23 ZIN A   1      19.691  -3.415   7.503  0.00  0.00    -0.340 N 
ATOM     12  H57 ZIN A   1      20.567  -3.637   7.855  0.00  0.00     0.167 HD
BRANCH  11  13
ATOM     13  C24 ZIN A   1      18.627  -4.313   7.658  0.00  0.00     0.035 A 
ATOM     14  C39 ZIN A   1      18.489  -5.384   6.785  0.00  0.00     0.056 A 
ATOM     15  C37 ZIN A   1      17.441  -6.271   6.942  0.00  0.00     0.069 A 
ATOM     16  C27 ZIN A   1      16.521  -6.085   7.965  0.00  0.00     0.091 A 
ATOM     17 Cl38 ZIN A   1      17.271  -7.614   5.856  0.00  0.00    -0.081 Cl
ATOM     18  C26 ZIN A   1      16.655  -5.011   8.832  0.00  0.00     0.041 A 
ATOM     19  C25 ZIN A   1      17.706  -4.126   8.680  0.00  0.00     0.032 A 
BRANCH  16  20
ATOM     20  O28 ZIN A   1      15.487  -6.955   8.116  0.00  0.00    -0.345 OA
BRANCH  20  21
ATOM     21  C29 ZIN A   1      14.178  -6.468   7.809  0.00  0.00     0.214 C 
BRANCH  21  22
ATOM     22  C30 ZIN A   1      13.747  -6.997   6.467  0.00  0.00    -0.031 A 
ATOM     23  C36 ZIN A   1      13.917  -6.226   5.332  0.00  0.00     0.051 A 
ATOM     24  C34 ZIN A   1      13.525  -6.715   4.097  0.00  0.00     0.117 A 
ATOM     25  C33 ZIN A   1      12.953  -7.972   4.002  0.00  0.00     0.042 A 
ATOM     26  F35 ZIN A   1      13.696  -5.964   2.988  0.00  0.00    -0.206 F 
ATOM     27  C32 ZIN A   1      12.779  -8.739   5.138  0.00  0.00     0.004 A 
ATOM     28  C31 ZIN A   1      13.174  -8.252   6.370  0.00  0.00     0.009 A 
ENDBRANCH  21  22
ENDBRANCH  20  21
ENDBRANCH  16  20
ENDBRANCH  11  13
ENDBRANCH   8  11
BRANCH   1  29
ATOM     29  C14 ZIN A   1      19.198   0.275  11.107  0.00  0.00     0.086 A 
ATOM     30  C13 ZIN A   1      19.391   1.385  11.868  0.00  0.00     0.040 A 
ATOM     31  C12 ZIN A   1      19.339   0.969  13.214  0.00  0.00     0.037 A 
ATOM     32  C11 ZIN A   1      19.120  -0.361  13.207  0.00  0.00     0.079 A 
ATOM     33  O42 ZIN A   1      19.041  -0.777  11.933  0.00  0.00    -0.313 OA
BRANCH  32  34
ATOM     34  C10 ZIN A   1      18.990  -1.235  14.427  0.00  0.00     0.296 C 
BRANCH  34  35
ATOM     35  N7  ZIN A   1      19.201  -0.426  15.635  0.00  0.00    -0.069 N 
ATOM     36  H8  ZIN A   1      19.124   0.552  15.402  0.00  0.00     0.277 HD
ATOM     37  H9  ZIN A   1      20.121  -0.612  16.008  0.00  0.00     0.277 HD
BRANCH  35  38
ATOM     38  C6  ZIN A   1      18.187  -0.773  16.640  0.00  0.00     0.247 C 
BRANCH  38  39
ATOM     39  C5  ZIN A   1      17.613   0.509  17.247  0.00  0.00     0.167 C 
BRANCH  39  40
ATOM     40  S2  ZIN A   1      18.967   1.655  17.631  0.00  0.00     0.142 S 
ATOM     41  C1  ZIN A   1      18.128   2.894  18.658  0.00  0.00     0.161 C 
ATOM     42  O3  ZIN A   1      19.389   2.276  16.425  0.00  0.00    -0.228 OA
ATOM     43  O4  ZIN A   1      19.923   0.973  18.433  0.00  0.00    -0.228 OA
ENDBRANCH  39  40
ENDBRANCH  38  39
ENDBRANCH  35  38
ENDBRANCH  34  35
ENDBRANCH  32  34
ENDBRANCH   1  29
TORSDOF 11
ENDMDL
MODEL 7
REMARK VINA RESULT:      -8.6      3.328      6.206
REMARK  11 active torsions:
REMARK  status: ('A' for Active; 'I' for Inactive)
REMARK    1  A    between atoms: S2_2  and  C5_5 
REMARK    2  A    between atoms: C5_5  and  C6_6 
REMARK    3  A    between atoms: C6_6  and  N7_7 
REMARK    4  A    between atoms: N7_7  and  C10_10 
REMARK    5  A    between atoms: C10_10  and  C11_11 
REMARK    6  A    between atoms: C14_14  and  C15_15 
REMARK    7  A    between atoms: C22_22  and  N23_23 
REMARK    8  A    between atoms: N23_23  and  C24_24 
REMARK    9  A    between atoms: C27_27  and  O28_28 
REMARK   10  A    between atoms: O28_28  and  C29_29 
REMARK   11  A    between atoms: C29_29  and  C30_30 
ROOT
ATOM      1  C15 ZIN A   1      18.645   1.301   8.324  0.00  0.00    -0.001 A 
ATOM      2  C16 ZIN A   1      19.303   1.737   7.162  0.00  0.00     0.016 A 
ATOM      3  C17 ZIN A   1      19.559   0.877   6.139  0.00  0.00     0.033 A 
ATOM      4  C18 ZIN A   1      19.163  -0.465   6.238  0.00  0.00     0.072 A 
ATOM      5  N19 ZIN A   1      19.397  -1.344   5.253  0.00  0.00    -0.241 NA
ATOM      6  C20 ZIN A   1      19.017  -2.595   5.371  0.00  0.00     0.236 A 
ATOM      7  N21 ZIN A   1      18.394  -3.060   6.441  0.00  0.00    -0.224 NA
ATOM      8  C22 ZIN A   1      18.114  -2.279   7.475  0.00  0.00     0.142 A 
ATOM      9  C40 ZIN A   1      18.499  -0.915   7.407  0.00  0.00     0.040 A 
ATOM     10  C41 ZIN A   1      18.247  -0.023   8.451  0.00  0.00     0.032 A 
ENDROOT
BRANCH   8  11
ATOM     11  N23 ZIN A   1      17.465  -2.776   8.585  0.00  0.00    -0.340 N 
ATOM     12  H57 ZIN A   1      16.636  -3.270   8.484  0.00  0.00     0.167 HD
BRANCH  11  13
ATOM     13  C24 ZIN A   1      18.003  -2.567   9.861  0.00  0.00     0.035 A 
ATOM     14  C39 ZIN A   1      19.164  -3.227  10.242  0.00  0.00     0.056 A 
ATOM     15  C37 ZIN A   1      19.695  -3.017  11.500  0.00  0.00     0.069 A 
ATOM     16  C27 ZIN A   1      19.065  -2.154  12.385  0.00  0.00     0.091 A 
ATOM     17 Cl38 ZIN A   1      21.150  -3.838  11.975  0.00  0.00    -0.081 Cl
ATOM     18  C26 ZIN A   1      17.903  -1.499  12.007  0.00  0.00     0.041 A 
ATOM     19  C25 ZIN A   1      17.372  -1.704  10.747  0.00  0.00     0.032 A 
BRANCH  16  20
ATOM     20  O28 ZIN A   1      19.586  -1.951  13.625  0.00  0.00    -0.345 OA
BRANCH  20  21
ATOM     21  C29 ZIN A   1      19.782  -0.595  14.033  0.00  0.00     0.214 C 
BRANCH  21  22
ATOM     22  C30 ZIN A   1      18.937  -0.310  15.247  0.00  0.00    -0.031 A 
ATOM     23  C36 ZIN A   1      18.035  -1.255  15.700  0.00  0.00     0.051 A 
ATOM     24  C34 ZIN A   1      17.263  -0.995  16.819  0.00  0.00     0.117 A 
ATOM     25  C33 ZIN A   1      17.386   0.217  17.477  0.00  0.00     0.042 A 
ATOM     26  F35 ZIN A   1      16.386  -1.920  17.265  0.00  0.00    -0.206 F 
ATOM     27  C32 ZIN A   1      18.284   1.163  17.019  0.00  0.00     0.004 A 
ATOM     28  C31 ZIN A   1      19.058   0.900  15.905  0.00  0.00     0.009 A 
ENDBRANCH  21  22
ENDBRANCH  20  21
ENDBRANCH  16  20
ENDBRANCH  11  13
ENDBRANCH   8  11
BRANCH   1  29
ATOM     29  C14 ZIN A   1      18.380   2.256   9.419  0.00  0.00     0.086 A 
ATOM     30  C13 ZIN A   1      18.113   3.581   9.276  0.00  0.00     0.040 A 
ATOM     31  C12 ZIN A   1      17.928   4.101  10.573  0.00  0.00     0.037 A 
ATOM     32  C11 ZIN A   1      18.089   3.078  11.435  0.00  0.00     0.079 A 
ATOM     33  O42 ZIN A   1      18.368   1.966  10.734  0.00  0.00    -0.313 OA
BRANCH  32  34
ATOM     34  C10 ZIN A   1      17.981   3.168  12.934  0.00  0.00     0.296 C 
BRANCH  34  35
ATOM     35  N7  ZIN A   1      19.302   3.461  13.505  0.00  0.00    -0.069 N 
ATOM     36  H8  ZIN A   1      19.999   2.891  13.049  0.00  0.00     0.277 HD
ATOM     37  H9  ZIN A   1      19.294   3.256  14.494  0.00  0.00     0.277 HD
BRANCH  35  38
ATOM     38  C6  ZIN A   1      19.620   4.881  13.302  0.00  0.00     0.247 C 
BRANCH  38  39
ATOM     39  C5  ZIN A   1      18.742   5.736  14.219  0.00  0.00     0.167 C 
BRANCH  39  40
ATOM     40  S2  ZIN A   1      19.459   5.767  15.885  0.00  0.00     0.142 S 
ATOM     41  C1  ZIN A   1      21.233   5.900  15.525  0.00  0.00     0.161 C 
ATOM     42  O3  ZIN A   1      19.216   4.513  16.507  0.00  0.00    -0.228 OA
ATOM     43  O4  ZIN A   1      19.039   6.958  16.537  0.00  0.00    -0.228 OA
ENDBRANCH  39  40
ENDBRANCH  38  39
ENDBRANCH  35  38
ENDBRANCH  34  35
ENDBRANCH  32  34
ENDBRANCH   1  29
TORSDOF 11
ENDMDL
MODEL 8
REMARK VINA RESULT:      -8.6      2.480      5.728
REMARK  11 active torsions:
REMARK  status: ('A' for Active; 'I' for Inactive)
REMARK    1  A    between atoms: S2_2  and  C5_5 
REMARK    2  A    between atoms: C5_5  and  C6_6 
REMARK    3  A    between atoms: C6_6  and  N7_7 
REMARK    4  A    between atoms: N7_7  and  C10_10 
REMARK    5  A    between atoms: C10_10  and  C11_11 
REMARK    6  A    between atoms: C14_14  and  C15_15 
REMARK    7  A    between atoms: C22_22  and  N23_23 
REMARK    8  A    between atoms: N23_23  and  C24_24 
REMARK    9  A    between atoms: C27_27  and  O28_28 
REMARK   10  A    between atoms: O28_28  and  C29_29 
REMARK   11  A    between atoms: C29_29  and  C30_30 
ROOT
ATOM      1  C15 ZIN A   1      18.550   1.701   9.302  0.00  0.00    -0.001 A 
ATOM      2  C16 ZIN A   1      19.124   2.044   8.066  0.00  0.00     0.016 A 
ATOM      3  C17 ZIN A   1      19.299   1.110   7.093  0.00  0.00     0.033 A 
ATOM      4  C18 ZIN A   1      18.903  -0.217   7.319  0.00  0.00     0.072 A 
ATOM      5  N19 ZIN A   1      19.058  -1.169   6.386  0.00  0.00    -0.241 NA
ATOM      6  C20 ZIN A   1      18.680  -2.402   6.623  0.00  0.00     0.236 A 
ATOM      7  N21 ZIN A   1      18.134  -2.782   7.767  0.00  0.00    -0.224 NA
ATOM      8  C22 ZIN A   1      17.935  -1.924   8.758  0.00  0.00     0.142 A 
ATOM      9  C40 ZIN A   1      18.323  -0.573   8.562  0.00  0.00     0.040 A 
ATOM     10  C41 ZIN A   1      18.155   0.395   9.553  0.00  0.00     0.032 A 
ENDROOT
BRANCH   8  11
ATOM     11  N23 ZIN A   1      17.366  -2.331   9.946  0.00  0.00    -0.340 N 
ATOM     12  H57 ZIN A   1      16.559  -2.869   9.939  0.00  0.00     0.167 HD
BRANCH  11  13
ATOM     13  C24 ZIN A   1      17.955  -1.968  11.164  0.00  0.00     0.035 A 
ATOM     14  C39 ZIN A   1      17.445  -0.900  11.891  0.00  0.00     0.056 A 
ATOM     15  C37 ZIN A   1      18.024  -0.545  13.094  0.00  0.00     0.069 A 
ATOM     16  C27 ZIN A   1      19.121  -1.250  13.571  0.00  0.00     0.091 A 
ATOM     17 Cl38 ZIN A   1      17.384   0.785  14.006  0.00  0.00    -0.081 Cl
ATOM     18  C26 ZIN A   1      19.634  -2.312  12.842  0.00  0.00     0.041 A 
ATOM     19  C25 ZIN A   1      19.053  -2.671  11.640  0.00  0.00     0.032 A 
BRANCH  16  20
ATOM     20  O28 ZIN A   1      19.694  -0.897  14.752  0.00  0.00    -0.345 OA
BRANCH  20  21
ATOM     21  C29 ZIN A   1      19.203  -1.542  15.930  0.00  0.00     0.214 C 
BRANCH  21  22
ATOM     22  C30 ZIN A   1      18.580  -0.517  16.841  0.00  0.00    -0.031 A 
ATOM     23  C36 ZIN A   1      19.378   0.399  17.500  0.00  0.00     0.051 A 
ATOM     24  C34 ZIN A   1      18.804   1.344  18.333  0.00  0.00     0.117 A 
ATOM     25  C33 ZIN A   1      17.432   1.364  18.514  0.00  0.00     0.042 A 
ATOM     26  F35 ZIN A   1      19.583   2.244  18.972  0.00  0.00    -0.206 F 
ATOM     27  C32 ZIN A   1      16.636   0.443  17.859  0.00  0.00     0.004 A 
ATOM     28  C31 ZIN A   1      17.209  -0.497  17.024  0.00  0.00     0.009 A 
ENDBRANCH  21  22
ENDBRANCH  20  21
ENDBRANCH  16  20
ENDBRANCH  11  13
ENDBRANCH   8  11
BRANCH   1  29
ATOM     29  C14 ZIN A   1      18.373   2.737  10.340  0.00  0.00     0.086 A 
ATOM     30  C13 ZIN A   1      19.345   3.226  11.154  0.00  0.00     0.040 A 
ATOM     31  C12 ZIN A   1      18.734   4.188  11.984  0.00  0.00     0.037 A 
ATOM     32  C11 ZIN A   1      17.433   4.237  11.639  0.00  0.00     0.079 A 
ATOM     33  O42 ZIN A   1      17.217   3.355  10.650  0.00  0.00    -0.313 OA
BRANCH  32  34
ATOM     34  C10 ZIN A   1      16.392   5.129  12.264  0.00  0.00     0.296 C 
BRANCH  34  35
ATOM     35  N7  ZIN A   1      16.999   5.901  13.357  0.00  0.00    -0.069 N 
ATOM     36  H8  ZIN A   1      16.845   6.886  13.199  0.00  0.00     0.277 HD
ATOM     37  H9  ZIN A   1      17.991   5.716  13.388  0.00  0.00     0.277 HD
BRANCH  35  38
ATOM     38  C6  ZIN A   1      16.388   5.507  14.633  0.00  0.00     0.247 C 
BRANCH  38  39
ATOM     39  C5  ZIN A   1      16.417   6.693  15.600  0.00  0.00     0.167 C 
BRANCH  39  40
ATOM     40  S2  ZIN A   1      18.097   6.896  16.256  0.00  0.00     0.142 S 
ATOM     41  C1  ZIN A   1      18.556   5.184  16.644  0.00  0.00     0.161 C 
ATOM     42  O3  ZIN A   1      18.023   7.631  17.470  0.00  0.00    -0.228 OA
ATOM     43  O4  ZIN A   1      18.938   7.365  15.211  0.00  0.00    -0.228 OA
ENDBRANCH  39  40
ENDBRANCH  38  39
ENDBRANCH  35  38
ENDBRANCH  34  35
ENDBRANCH  32  34
ENDBRANCH   1  29
TORSDOF 11
ENDMDL
MODEL 9
REMARK VINA RESULT:      -8.5      1.703      2.121
REMARK  11 active torsions:
REMARK  status: ('A' for Active; 'I' for Inactive)
REMARK    1  A    between atoms: S2_2  and  C5_5 
REMARK    2  A    between atoms: C5_5  and  C6_6 
REMARK    3  A    between atoms: C6_6  and  N7_7 
REMARK    4  A    between atoms: N7_7  and  C10_10 
REMARK    5  A    between atoms: C10_10  and  C11_11 
REMARK    6  A    between atoms: C14_14  and  C15_15 
REMARK    7  A    between atoms: C22_22  and  N23_23 
REMARK    8  A    between atoms: N23_23  and  C24_24 
REMARK    9  A    between atoms: C27_27  and  O28_28 
REMARK   10  A    between atoms: O28_28  and  C29_29 
REMARK   11  A    between atoms: C29_29  and  C30_30 
ROOT
ATOM      1  C15 ZIN A   1      18.589  -0.817  13.240  0.00  0.00    -0.001 A 
ATOM      2  C16 ZIN A   1      18.016  -2.013  12.778  0.00  0.00     0.016 A 
ATOM      3  C17 ZIN A   1      17.909  -2.268  11.447  0.00  0.00     0.033 A 
ATOM      4  C18 ZIN A   1      18.376  -1.329  10.515  0.00  0.00     0.072 A 
ATOM      5  N19 ZIN A   1      18.289  -1.542   9.194  0.00  0.00    -0.241 NA
ATOM      6  C20 ZIN A   1      18.733  -0.648   8.343  0.00  0.00     0.236 A 
ATOM      7  N21 ZIN A   1      19.282   0.495   8.721  0.00  0.00    -0.224 NA
ATOM      8  C22 ZIN A   1      19.417   0.809  10.002  0.00  0.00     0.142 A 
ATOM      9  C40 ZIN A   1      18.956  -0.119  10.971  0.00  0.00     0.040 A 
ATOM     10  C41 ZIN A   1      19.055   0.132  12.340  0.00  0.00     0.032 A 
ENDROOT
BRANCH   8  11
ATOM     11  N23 ZIN A   1      19.990   2.004  10.384  0.00  0.00    -0.340 N 
ATOM     12  H57 ZIN A   1      20.942   2.148  10.259  0.00  0.00     0.167 HD
BRANCH  11  13
ATOM     13  C24 ZIN A   1      19.198   3.009  10.952  0.00  0.00     0.035 A 
ATOM     14  C39 ZIN A   1      19.658   3.715  12.056  0.00  0.00     0.056 A 
ATOM     15  C37 ZIN A   1      18.877   4.710  12.612  0.00  0.00     0.069 A 
ATOM     16  C27 ZIN A   1      17.630   4.996  12.074  0.00  0.00     0.091 A 
ATOM     17 Cl38 ZIN A   1      19.453   5.597  13.989  0.00  0.00    -0.081 Cl
ATOM     18  C26 ZIN A   1      17.168   4.287  10.976  0.00  0.00     0.041 A 
ATOM     19  C25 ZIN A   1      17.950   3.295  10.415  0.00  0.00     0.032 A 
BRANCH  16  20
ATOM     20  O28 ZIN A   1      16.859   5.972  12.626  0.00  0.00    -0.345 OA
BRANCH  20  21
ATOM     21  C29 ZIN A   1      15.921   5.570  13.627  0.00  0.00     0.214 C 
BRANCH  21  22
ATOM     22  C30 ZIN A   1      15.658   6.722  14.560  0.00  0.00    -0.031 A 
ATOM     23  C36 ZIN A   1      14.432   6.836  15.190  0.00  0.00     0.051 A 
ATOM     24  C34 ZIN A   1      14.191   7.892  16.052  0.00  0.00     0.117 A 
ATOM     25  C33 ZIN A   1      15.176   8.840  16.274  0.00  0.00     0.042 A 
ATOM     26  F35 ZIN A   1      12.996   8.001  16.671  0.00  0.00    -0.206 F 
ATOM     27  C32 ZIN A   1      16.399   8.728  15.639  0.00  0.00     0.004 A 
ATOM     28  C31 ZIN A   1      16.639   7.670  14.783  0.00  0.00     0.009 A 
ENDBRANCH  21  22
ENDBRANCH  20  21
ENDBRANCH  16  20
ENDBRANCH  11  13
ENDBRANCH   8  11
BRANCH   1  29
ATOM     29  C14 ZIN A   1      18.692  -0.566  14.692  0.00  0.00     0.086 A 
ATOM     30  C13 ZIN A   1      18.576  -1.499  15.674  0.00  0.00     0.040 A 
ATOM     31  C12 ZIN A   1      18.740  -0.822  16.900  0.00  0.00     0.037 A 
ATOM     32  C11 ZIN A   1      18.947   0.477  16.608  0.00  0.00     0.079 A 
ATOM     33  O42 ZIN A   1      18.911   0.629  15.274  0.00  0.00    -0.313 OA
BRANCH  32  34
ATOM     34  C10 ZIN A   1      19.173   1.577  17.612  0.00  0.00     0.296 C 
BRANCH  34  35
ATOM     35  N7  ZIN A   1      18.098   2.572  17.501  0.00  0.00    -0.069 N 
ATOM     36  H8  ZIN A   1      17.508   2.522  18.318  0.00  0.00     0.277 HD
ATOM     37  H9  ZIN A   1      17.547   2.381  16.676  0.00  0.00     0.277 HD
BRANCH  35  38
ATOM     38  C6  ZIN A   1      18.681   3.916  17.398  0.00  0.00     0.247 C 
BRANCH  38  39
ATOM     39  C5  ZIN A   1      17.579   4.928  17.078  0.00  0.00     0.167 C 
BRANCH  39  40
ATOM     40  S2  ZIN A   1      16.670   5.331  18.596  0.00  0.00     0.142 S 
ATOM     41  C1  ZIN A   1      17.199   7.039  18.905  0.00  0.00     0.161 C 
ATOM     42  O3  ZIN A   1      17.158   4.509  19.647  0.00  0.00    -0.228 OA
ATOM     43  O4  ZIN A   1      15.279   5.333  18.304  0.00  0.00    -0.228 OA
ENDBRANCH  39  40
ENDBRANCH  38  39
ENDBRANCH  35  38
ENDBRANCH  34  35
ENDBRANCH  32  34
ENDBRANCH   1  29
TORSDOF 11
ENDMDL
