MODEL 1
REMARK VINA RESULT:      -9.8      0.000      0.000
REMARK  5 active torsions:
REMARK  status: ('A' for Active; 'I' for Inactive)
REMARK    1  A    between atoms: C2_2  and  C4_4 
REMARK    2  A    between atoms: C7_7  and  N8_8 
REMARK    3  A    between atoms: C10_10  and  C11_11 
REMARK    4  A    between atoms: C19_19  and  C20_20 
REMARK    5  A    between atoms: C25_25  and  O26_26 
ROOT
ATOM      1  N8  ZIN A   1      18.684  -0.690  12.058  0.00  0.00    -0.213 N 
ATOM      2  N9  ZIN A   1      18.811   0.197  13.139  0.00  0.00    -0.144 NA
ATOM      3  C10 ZIN A   1      18.839  -0.533  14.233  0.00  0.00     0.185 A 
ATOM      4  N18 ZIN A   1      18.736  -1.826  13.903  0.00  0.00    -0.206 NA
ATOM      5  C19 ZIN A   1      18.635  -1.943  12.595  0.00  0.00     0.166 A 
ENDROOT
BRANCH   1   6
ATOM      6  C7  ZIN A   1      18.614  -0.357  10.705  0.00  0.00     0.060 A 
ATOM      7  C6  ZIN A   1      17.376  -0.131  10.109  0.00  0.00     0.032 A 
ATOM      8  C5  ZIN A   1      17.303   0.198   8.776  0.00  0.00     0.021 A 
ATOM      9  C4  ZIN A   1      18.473   0.305   8.018  0.00  0.00     0.041 A 
ATOM     10  C28 ZIN A   1      19.715   0.071   8.618  0.00  0.00     0.021 A 
ATOM     11  C27 ZIN A   1      19.780  -0.251   9.954  0.00  0.00     0.032 A 
BRANCH   9  12
ATOM     12  C2  ZIN A   1      18.399   0.658   6.589  0.00  0.00     0.209 C 
ATOM     13  O1  ZIN A   1      19.287   1.325   6.076  0.00  0.00    -0.644 OA
ATOM     14  O3  ZIN A   1      17.453   0.277   5.914  0.00  0.00    -0.644 OA
ENDBRANCH   9  12
ENDBRANCH   1   6
BRANCH   5  15
ATOM     15  C20 ZIN A   1      18.503  -3.208  11.843  0.00  0.00     0.045 A 
ATOM     16  C25 ZIN A   1      19.637  -3.834  11.313  0.00  0.00     0.079 A 
ATOM     17  C24 ZIN A   1      19.504  -5.023  10.614  0.00  0.00     0.037 A 
ATOM     18  C23 ZIN A   1      18.253  -5.582  10.431  0.00  0.00     0.003 A 
ATOM     19  C22 ZIN A   1      17.128  -4.963  10.949  0.00  0.00     0.001 A 
ATOM     20  C21 ZIN A   1      17.245  -3.781  11.651  0.00  0.00     0.018 A 
BRANCH  16  21
ATOM     21  O26 ZIN A   1      20.867  -3.284  11.493  0.00  0.00    -0.360 OA
ATOM     22  H39 ZIN A   1      20.846  -2.356  11.765  0.00  0.00     0.217 HD
ENDBRANCH  16  21
ENDBRANCH   5  15
BRANCH   3  23
ATOM     23  C11 ZIN A   1      18.964  -0.006  15.615  0.00  0.00     0.050 A 
ATOM     24  C16 ZIN A   1      19.054   1.372  15.836  0.00  0.00     0.121 A 
ATOM     25  C15 ZIN A   1      19.165   1.855  17.129  0.00  0.00     0.041 A 
ATOM     26  O17 ZIN A   1      19.022   2.233  14.786  0.00  0.00    -0.191 OA
ATOM     27  C14 ZIN A   1      19.198   0.977  18.197  0.00  0.00     0.003 A 
ATOM     28  C13 ZIN A   1      19.114  -0.387  17.980  0.00  0.00     0.001 A 
ATOM     29  C12 ZIN A   1      18.998  -0.882  16.697  0.00  0.00     0.018 A 
ENDBRANCH   3  23
TORSDOF 5
ENDMDL
MODEL 2
REMARK VINA RESULT:      -9.7      2.974      8.243
REMARK  5 active torsions:
REMARK  status: ('A' for Active; 'I' for Inactive)
REMARK    1  A    between atoms: C2_2  and  C4_4 
REMARK    2  A    between atoms: C7_7  and  N8_8 
REMARK    3  A    between atoms: C10_10  and  C11_11 
REMARK    4  A    between atoms: C19_19  and  C20_20 
REMARK    5  A    between atoms: C25_25  and  O26_26 
ROOT
ATOM      1  N8  ZIN A   1      18.678   0.301  10.745  0.00  0.00    -0.213 N 
ATOM      2  N9  ZIN A   1      18.773  -0.551   9.633  0.00  0.00    -0.144 NA
ATOM      3  C10 ZIN A   1      18.847   0.216   8.567  0.00  0.00     0.185 A 
ATOM      4  N18 ZIN A   1      18.805   1.500   8.945  0.00  0.00    -0.206 NA
ATOM      5  C19 ZIN A   1      18.696   1.574  10.255  0.00  0.00     0.166 A 
ENDROOT
BRANCH   1   6
ATOM      6  C7  ZIN A   1      18.579  -0.078  12.084  0.00  0.00     0.060 A 
ATOM      7  C6  ZIN A   1      17.503   0.360  12.852  0.00  0.00     0.032 A 
ATOM      8  C5  ZIN A   1      17.401  -0.011  14.172  0.00  0.00     0.021 A 
ATOM      9  C4  ZIN A   1      18.380  -0.831  14.744  0.00  0.00     0.041 A 
ATOM     10  C28 ZIN A   1      19.462  -1.264  13.971  0.00  0.00     0.021 A 
ATOM     11  C27 ZIN A   1      19.554  -0.893  12.650  0.00  0.00     0.032 A 
BRANCH   9  12
ATOM     12  C2  ZIN A   1      18.274  -1.232  16.158  0.00  0.00     0.209 C 
ATOM     13  O1  ZIN A   1      19.267  -1.613  16.762  0.00  0.00    -0.644 OA
ATOM     14  O3  ZIN A   1      17.194  -1.178  16.729  0.00  0.00    -0.644 OA
ENDBRANCH   9  12
ENDBRANCH   1   6
BRANCH   5  15
ATOM     15  C20 ZIN A   1      18.618   2.815  11.053  0.00  0.00     0.045 A 
ATOM     16  C25 ZIN A   1      19.746   3.283  11.738  0.00  0.00     0.079 A 
ATOM     17  C24 ZIN A   1      19.665   4.451  12.479  0.00  0.00     0.037 A 
ATOM     18  C23 ZIN A   1      18.472   5.145  12.550  0.00  0.00     0.003 A 
ATOM     19  C22 ZIN A   1      17.353   4.682  11.879  0.00  0.00     0.001 A 
ATOM     20  C21 ZIN A   1      17.419   3.523  11.133  0.00  0.00     0.018 A 
BRANCH  16  21
ATOM     21  O26 ZIN A   1      20.919   2.601  11.667  0.00  0.00    -0.360 OA
ATOM     22  H39 ZIN A   1      21.045   1.960  12.380  0.00  0.00     0.217 HD
ENDBRANCH  16  21
ENDBRANCH   5  15
BRANCH   3  23
ATOM     23  C11 ZIN A   1      18.961  -0.264   7.168  0.00  0.00     0.050 A 
ATOM     24  C16 ZIN A   1      19.123  -1.628   6.905  0.00  0.00     0.121 A 
ATOM     25  C15 ZIN A   1      19.222  -2.068   5.595  0.00  0.00     0.041 A 
ATOM     26  O17 ZIN A   1      19.173  -2.518   7.929  0.00  0.00    -0.191 OA
ATOM     27  C14 ZIN A   1      19.171  -1.162   4.553  0.00  0.00     0.003 A 
ATOM     28  C13 ZIN A   1      19.016   0.189   4.811  0.00  0.00     0.001 A 
ATOM     29  C12 ZIN A   1      18.910   0.641   6.111  0.00  0.00     0.018 A 
ENDBRANCH   3  23
TORSDOF 5
ENDMDL
MODEL 3
REMARK VINA RESULT:      -9.6      3.053      3.940
REMARK  5 active torsions:
REMARK  status: ('A' for Active; 'I' for Inactive)
REMARK    1  A    between atoms: C2_2  and  C4_4 
REMARK    2  A    between atoms: C7_7  and  N8_8 
REMARK    3  A    between atoms: C10_10  and  C11_11 
REMARK    4  A    between atoms: C19_19  and  C20_20 
REMARK    5  A    between atoms: C25_25  and  O26_26 
ROOT
ATOM      1  N8  ZIN A   1      18.265   1.565  10.185  0.00  0.00    -0.213 N 
ATOM      2  N9  ZIN A   1      18.073   2.909  10.543  0.00  0.00    -0.144 NA
ATOM      3  C10 ZIN A   1      18.084   2.961  11.858  0.00  0.00     0.185 A 
ATOM      4  N18 ZIN A   1      18.272   1.729  12.345  0.00  0.00    -0.206 NA
ATOM      5  C19 ZIN A   1      18.377   0.869  11.353  0.00  0.00     0.166 A 
ENDROOT
BRANCH   1   6
ATOM      6  C7  ZIN A   1      18.322   1.043   8.892  0.00  0.00     0.060 A 
ATOM      7  C6  ZIN A   1      19.265   1.527   7.989  0.00  0.00     0.032 A 
ATOM      8  C5  ZIN A   1      19.325   1.016   6.714  0.00  0.00     0.021 A 
ATOM      9  C4  ZIN A   1      18.438   0.007   6.324  0.00  0.00     0.041 A 
ATOM     10  C28 ZIN A   1      17.488  -0.473   7.232  0.00  0.00     0.021 A 
ATOM     11  C27 ZIN A   1      17.438   0.039   8.508  0.00  0.00     0.032 A 
BRANCH   9  12
ATOM     12  C2  ZIN A   1      18.498  -0.545   4.959  0.00  0.00     0.209 C 
ATOM     13  O1  ZIN A   1      19.565  -0.587   4.362  0.00  0.00    -0.644 OA
ATOM     14  O3  ZIN A   1      17.482  -0.967   4.425  0.00  0.00    -0.644 OA
ENDBRANCH   9  12
ENDBRANCH   1   6
BRANCH   5  15
ATOM     15  C20 ZIN A   1      18.589  -0.587  11.482  0.00  0.00     0.045 A 
ATOM     16  C25 ZIN A   1      19.879  -1.121  11.389  0.00  0.00     0.079 A 
ATOM     17  C24 ZIN A   1      20.069  -2.488  11.517  0.00  0.00     0.037 A 
ATOM     18  C23 ZIN A   1      18.986  -3.321  11.724  0.00  0.00     0.003 A 
ATOM     19  C22 ZIN A   1      17.707  -2.797  11.811  0.00  0.00     0.001 A 
ATOM     20  C21 ZIN A   1      17.503  -1.438  11.690  0.00  0.00     0.018 A 
BRANCH  16  21
ATOM     21  O26 ZIN A   1      20.944  -0.302  11.185  0.00  0.00    -0.360 OA
ATOM     22  H39 ZIN A   1      20.833   0.586  11.552  0.00  0.00     0.217 HD
ENDBRANCH  16  21
ENDBRANCH   5  15
BRANCH   3  23
ATOM     23  C11 ZIN A   1      17.916   4.190  12.671  0.00  0.00     0.050 A 
ATOM     24  C16 ZIN A   1      16.850   5.060  12.418  0.00  0.00     0.121 A 
ATOM     25  C15 ZIN A   1      16.698   6.202  13.186  0.00  0.00     0.041 A 
ATOM     26  O17 ZIN A   1      15.962   4.779  11.430  0.00  0.00    -0.191 OA
ATOM     27  C14 ZIN A   1      17.602   6.487  14.192  0.00  0.00     0.003 A 
ATOM     28  C13 ZIN A   1      18.661   5.631  14.440  0.00  0.00     0.001 A 
ATOM     29  C12 ZIN A   1      18.822   4.487  13.687  0.00  0.00     0.018 A 
ENDBRANCH   3  23
TORSDOF 5
ENDMDL
MODEL 4
REMARK VINA RESULT:      -9.5      2.744      7.716
REMARK  5 active torsions:
REMARK  status: ('A' for Active; 'I' for Inactive)
REMARK    1  A    between atoms: C2_2  and  C4_4 
REMARK    2  A    between atoms: C7_7  and  N8_8 
REMARK    3  A    between atoms: C10_10  and  C11_11 
REMARK    4  A    between atoms: C19_19  and  C20_20 
REMARK    5  A    between atoms: C25_25  and  O26_26 
ROOT
ATOM      1  N8  ZIN A   1      18.599  -1.375  13.011  0.00  0.00    -0.213 N 
ATOM      2  N9  ZIN A   1      18.499  -2.740  12.693  0.00  0.00    -0.144 NA
ATOM      3  C10 ZIN A   1      18.516  -2.830  11.381  0.00  0.00     0.185 A 
ATOM      4  N18 ZIN A   1      18.621  -1.603  10.856  0.00  0.00    -0.206 NA
ATOM      5  C19 ZIN A   1      18.666  -0.709  11.823  0.00  0.00     0.166 A 
ENDROOT
BRANCH   1   6
ATOM      6  C7  ZIN A   1      18.619  -0.812  14.288  0.00  0.00     0.060 A 
ATOM      7  C6  ZIN A   1      19.301  -1.453  15.318  0.00  0.00     0.032 A 
ATOM      8  C5  ZIN A   1      19.323  -0.901  16.578  0.00  0.00     0.021 A 
ATOM      9  C4  ZIN A   1      18.659   0.305  16.823  0.00  0.00     0.041 A 
ATOM     10  C28 ZIN A   1      17.969   0.943  15.787  0.00  0.00     0.021 A 
ATOM     11  C27 ZIN A   1      17.957   0.388  14.528  0.00  0.00     0.032 A 
BRANCH   9  12
ATOM     12  C2  ZIN A   1      18.680   0.900  18.171  0.00  0.00     0.209 C 
ATOM     13  O1  ZIN A   1      17.672   0.885  18.864  0.00  0.00    -0.644 OA
ATOM     14  O3  ZIN A   1      19.709   1.404  18.600  0.00  0.00    -0.644 OA
ENDBRANCH   9  12
ENDBRANCH   1   6
BRANCH   5  15
ATOM     15  C20 ZIN A   1      18.780   0.754  11.650  0.00  0.00     0.045 A 
ATOM     16  C25 ZIN A   1      20.013   1.390  11.835  0.00  0.00     0.079 A 
ATOM     17  C24 ZIN A   1      20.112   2.762  11.665  0.00  0.00     0.037 A 
ATOM     18  C23 ZIN A   1      18.993   3.500  11.326  0.00  0.00     0.003 A 
ATOM     19  C22 ZIN A   1      17.771   2.874  11.148  0.00  0.00     0.001 A 
ATOM     20  C21 ZIN A   1      17.658   1.509  11.309  0.00  0.00     0.018 A 
BRANCH  16  21
ATOM     21  O26 ZIN A   1      21.112   0.665  12.169  0.00  0.00    -0.360 OA
ATOM     22  H39 ZIN A   1      21.787   0.632  11.476  0.00  0.00     0.217 HD
ENDBRANCH  16  21
ENDBRANCH   5  15
BRANCH   3  23
ATOM     23  C11 ZIN A   1      18.433  -4.092  10.605  0.00  0.00     0.050 A 
ATOM     24  C16 ZIN A   1      17.273  -4.872  10.655  0.00  0.00     0.121 A 
ATOM     25  C15 ZIN A   1      17.202  -6.045   9.922  0.00  0.00     0.041 A 
ATOM     26  O17 ZIN A   1      16.217  -4.474  11.411  0.00  0.00    -0.191 OA
ATOM     27  C14 ZIN A   1      18.277  -6.449   9.153  0.00  0.00     0.003 A 
ATOM     28  C13 ZIN A   1      19.427  -5.681   9.106  0.00  0.00     0.001 A 
ATOM     29  C12 ZIN A   1      19.510  -4.507   9.827  0.00  0.00     0.018 A 
ENDBRANCH   3  23
TORSDOF 5
ENDMDL
MODEL 5
REMARK VINA RESULT:      -9.5      1.693      4.368
REMARK  5 active torsions:
REMARK  status: ('A' for Active; 'I' for Inactive)
REMARK    1  A    between atoms: C2_2  and  C4_4 
REMARK    2  A    between atoms: C7_7  and  N8_8 
REMARK    3  A    between atoms: C10_10  and  C11_11 
REMARK    4  A    between atoms: C19_19  and  C20_20 
REMARK    5  A    between atoms: C25_25  and  O26_26 
ROOT
ATOM      1  N8  ZIN A   1      18.665  -1.981  12.401  0.00  0.00    -0.213 N 
ATOM      2  N9  ZIN A   1      18.735  -1.964  13.804  0.00  0.00    -0.144 NA
ATOM      3  C10 ZIN A   1      18.887  -0.709  14.165  0.00  0.00     0.185 A 
ATOM      4  N18 ZIN A   1      18.916   0.064  13.072  0.00  0.00    -0.206 NA
ATOM      5  C19 ZIN A   1      18.790  -0.686  11.996  0.00  0.00     0.166 A 
ENDROOT
BRANCH   1   6
ATOM      6  C7  ZIN A   1      18.507  -3.102  11.584  0.00  0.00     0.060 A 
ATOM      7  C6  ZIN A   1      19.626  -3.741  11.058  0.00  0.00     0.032 A 
ATOM      8  C5  ZIN A   1      19.474  -4.845  10.252  0.00  0.00     0.021 A 
ATOM      9  C4  ZIN A   1      18.193  -5.327   9.962  0.00  0.00     0.041 A 
ATOM     10  C28 ZIN A   1      17.070  -4.678  10.488  0.00  0.00     0.021 A 
ATOM     11  C27 ZIN A   1      17.231  -3.578  11.298  0.00  0.00     0.032 A 
BRANCH   9  12
ATOM     12  C2  ZIN A   1      18.025  -6.510   9.100  0.00  0.00     0.209 C 
ATOM     13  O1  ZIN A   1      16.949  -7.089   9.057  0.00  0.00    -0.644 OA
ATOM     14  O3  ZIN A   1      18.962  -6.909   8.422  0.00  0.00    -0.644 OA
ENDBRANCH   9  12
ENDBRANCH   1   6
BRANCH   5  15
ATOM     15  C20 ZIN A   1      18.776  -0.205  10.598  0.00  0.00     0.045 A 
ATOM     16  C25 ZIN A   1      19.976  -0.065   9.890  0.00  0.00     0.079 A 
ATOM     17  C24 ZIN A   1      19.953   0.380   8.579  0.00  0.00     0.037 A 
ATOM     18  C23 ZIN A   1      18.749   0.696   7.976  0.00  0.00     0.003 A 
ATOM     19  C22 ZIN A   1      17.562   0.564   8.675  0.00  0.00     0.001 A 
ATOM     20  C21 ZIN A   1      17.568   0.117   9.980  0.00  0.00     0.018 A 
BRANCH  16  21
ATOM     21  O26 ZIN A   1      21.158  -0.376  10.483  0.00  0.00    -0.360 OA
ATOM     22  H39 ZIN A   1      21.100  -0.488  11.442  0.00  0.00     0.217 HD
ENDBRANCH  16  21
ENDBRANCH   5  15
BRANCH   3  23
ATOM     23  C11 ZIN A   1      19.006  -0.224  15.562  0.00  0.00     0.050 A 
ATOM     24  C16 ZIN A   1      19.067   1.148  15.827  0.00  0.00     0.121 A 
ATOM     25  C15 ZIN A   1      19.171   1.591  17.135  0.00  0.00     0.041 A 
ATOM     26  O17 ZIN A   1      19.012   2.041  14.806  0.00  0.00    -0.191 OA
ATOM     27  C14 ZIN A   1      19.227   0.680  18.174  0.00  0.00     0.003 A 
ATOM     28  C13 ZIN A   1      19.172  -0.678  17.914  0.00  0.00     0.001 A 
ATOM     29  C12 ZIN A   1      19.062  -1.134  16.616  0.00  0.00     0.018 A 
ENDBRANCH   3  23
TORSDOF 5
ENDMDL
MODEL 6
REMARK VINA RESULT:      -9.5      3.157      4.083
REMARK  5 active torsions:
REMARK  status: ('A' for Active; 'I' for Inactive)
REMARK    1  A    between atoms: C2_2  and  C4_4 
REMARK    2  A    between atoms: C7_7  and  N8_8 
REMARK    3  A    between atoms: C10_10  and  C11_11 
REMARK    4  A    between atoms: C19_19  and  C20_20 
REMARK    5  A    between atoms: C25_25  and  O26_26 
ROOT
ATOM      1  N8  ZIN A   1      18.268   1.688  10.202  0.00  0.00    -0.213 N 
ATOM      2  N9  ZIN A   1      18.076   3.028  10.574  0.00  0.00    -0.144 NA
ATOM      3  C10 ZIN A   1      18.129   3.074  11.888  0.00  0.00     0.185 A 
ATOM      4  N18 ZIN A   1      18.344   1.840  12.362  0.00  0.00    -0.206 NA
ATOM      5  C19 ZIN A   1      18.425   0.987  11.361  0.00  0.00     0.166 A 
ENDROOT
BRANCH   1   6
ATOM      6  C7  ZIN A   1      18.288   1.173   8.905  0.00  0.00     0.060 A 
ATOM      7  C6  ZIN A   1      17.402   0.162   8.546  0.00  0.00     0.032 A 
ATOM      8  C5  ZIN A   1      17.419  -0.348   7.269  0.00  0.00     0.021 A 
ATOM      9  C4  ZIN A   1      18.327   0.151   6.330  0.00  0.00     0.041 A 
ATOM     10  C28 ZIN A   1      19.220   1.164   6.696  0.00  0.00     0.021 A 
ATOM     11  C27 ZIN A   1      19.193   1.673   7.973  0.00  0.00     0.032 A 
BRANCH   9  12
ATOM     12  C2  ZIN A   1      18.347  -0.391   4.960  0.00  0.00     0.209 C 
ATOM     13  O1  ZIN A   1      19.254  -0.091   4.195  0.00  0.00    -0.644 OA
ATOM     14  O3  ZIN A   1      17.460  -1.148   4.589  0.00  0.00    -0.644 OA
ENDBRANCH   9  12
ENDBRANCH   1   6
BRANCH   5  15
ATOM     15  C20 ZIN A   1      18.654  -0.468  11.475  0.00  0.00     0.045 A 
ATOM     16  C25 ZIN A   1      17.610  -1.317  11.861  0.00  0.00     0.079 A 
ATOM     17  C24 ZIN A   1      17.834  -2.681  11.959  0.00  0.00     0.037 A 
ATOM     18  C23 ZIN A   1      19.086  -3.199  11.688  0.00  0.00     0.003 A 
ATOM     19  C22 ZIN A   1      20.123  -2.361  11.312  0.00  0.00     0.001 A 
ATOM     20  C21 ZIN A   1      19.915  -1.002  11.205  0.00  0.00     0.018 A 
BRANCH  16  21
ATOM     21  O26 ZIN A   1      16.379  -0.808  12.126  0.00  0.00    -0.360 OA
ATOM     22  H39 ZIN A   1      15.759  -0.871  11.387  0.00  0.00     0.217 HD
ENDBRANCH  16  21
ENDBRANCH   5  15
BRANCH   3  23
ATOM     23  C11 ZIN A   1      17.977   4.297  12.713  0.00  0.00     0.050 A 
ATOM     24  C16 ZIN A   1      16.879   5.142  12.519  0.00  0.00     0.121 A 
ATOM     25  C15 ZIN A   1      16.742   6.279  13.299  0.00  0.00     0.041 A 
ATOM     26  O17 ZIN A   1      15.948   4.843  11.578  0.00  0.00    -0.191 OA
ATOM     27  C14 ZIN A   1      17.691   6.582  14.257  0.00  0.00     0.003 A 
ATOM     28  C13 ZIN A   1      18.780   5.750  14.446  0.00  0.00     0.001 A 
ATOM     29  C12 ZIN A   1      18.928   4.611  13.681  0.00  0.00     0.018 A 
ENDBRANCH   3  23
TORSDOF 5
ENDMDL
MODEL 7
REMARK VINA RESULT:      -9.2      2.601      7.697
REMARK  5 active torsions:
REMARK  status: ('A' for Active; 'I' for Inactive)
REMARK    1  A    between atoms: C2_2  and  C4_4 
REMARK    2  A    between atoms: C7_7  and  N8_8 
REMARK    3  A    between atoms: C10_10  and  C11_11 
REMARK    4  A    between atoms: C19_19  and  C20_20 
REMARK    5  A    between atoms: C25_25  and  O26_26 
ROOT
ATOM      1  N8  ZIN A   1      18.382  -1.616  12.767  0.00  0.00    -0.213 N 
ATOM      2  N9  ZIN A   1      18.177  -2.960  12.411  0.00  0.00    -0.144 NA
ATOM      3  C10 ZIN A   1      18.133  -3.007  11.097  0.00  0.00     0.185 A 
ATOM      4  N18 ZIN A   1      18.298  -1.772  10.607  0.00  0.00    -0.206 NA
ATOM      5  C19 ZIN A   1      18.444  -0.917  11.598  0.00  0.00     0.166 A 
ENDROOT
BRANCH   1   6
ATOM      6  C7  ZIN A   1      18.493  -1.099  14.058  0.00  0.00     0.060 A 
ATOM      7  C6  ZIN A   1      17.659  -0.061  14.464  0.00  0.00     0.032 A 
ATOM      8  C5  ZIN A   1      17.766   0.452  15.735  0.00  0.00     0.021 A 
ATOM      9  C4  ZIN A   1      18.712  -0.072  16.622  0.00  0.00     0.041 A 
ATOM     10  C28 ZIN A   1      19.552  -1.112  16.209  0.00  0.00     0.021 A 
ATOM     11  C27 ZIN A   1      19.435  -1.623  14.937  0.00  0.00     0.032 A 
BRANCH   9  12
ATOM     12  C2  ZIN A   1      18.829   0.473  17.986  0.00  0.00     0.209 C 
ATOM     13  O1  ZIN A   1      18.103   0.057  18.877  0.00  0.00    -0.644 OA
ATOM     14  O3  ZIN A   1      19.659   1.340  18.228  0.00  0.00    -0.644 OA
ENDBRANCH   9  12
ENDBRANCH   1   6
BRANCH   5  15
ATOM     15  C20 ZIN A   1      18.649   0.540  11.466  0.00  0.00     0.045 A 
ATOM     16  C25 ZIN A   1      19.922   1.092  11.651  0.00  0.00     0.079 A 
ATOM     17  C24 ZIN A   1      20.106   2.459  11.519  0.00  0.00     0.037 A 
ATOM     18  C23 ZIN A   1      19.032   3.276  11.217  0.00  0.00     0.003 A 
ATOM     19  C22 ZIN A   1      17.770   2.735  11.038  0.00  0.00     0.001 A 
ATOM     20  C21 ZIN A   1      17.573   1.375  11.161  0.00  0.00     0.018 A 
BRANCH  16  21
ATOM     21  O26 ZIN A   1      20.977   0.289  11.948  0.00  0.00    -0.360 OA
ATOM     22  H39 ZIN A   1      21.346   0.435  12.830  0.00  0.00     0.217 HD
ENDBRANCH  16  21
ENDBRANCH   5  15
BRANCH   3  23
ATOM     23  C11 ZIN A   1      17.932  -4.233  10.288  0.00  0.00     0.050 A 
ATOM     24  C16 ZIN A   1      19.033  -5.000   9.889  0.00  0.00     0.121 A 
ATOM     25  C15 ZIN A   1      18.835  -6.147   9.139  0.00  0.00     0.041 A 
ATOM     26  O17 ZIN A   1      20.288  -4.626  10.247  0.00  0.00    -0.191 OA
ATOM     27  C14 ZIN A   1      17.557  -6.527   8.775  0.00  0.00     0.003 A 
ATOM     28  C13 ZIN A   1      16.467  -5.767   9.163  0.00  0.00     0.001 A 
ATOM     29  C12 ZIN A   1      16.648  -4.625   9.916  0.00  0.00     0.018 A 
ENDBRANCH   3  23
TORSDOF 5
ENDMDL
MODEL 8
REMARK VINA RESULT:      -9.1      2.078      4.601
REMARK  5 active torsions:
REMARK  status: ('A' for Active; 'I' for Inactive)
REMARK    1  A    between atoms: C2_2  and  C4_4 
REMARK    2  A    between atoms: C7_7  and  N8_8 
REMARK    3  A    between atoms: C10_10  and  C11_11 
REMARK    4  A    between atoms: C19_19  and  C20_20 
REMARK    5  A    between atoms: C25_25  and  O26_26 
ROOT
ATOM      1  N8  ZIN A   1      18.706  -1.473  12.784  0.00  0.00    -0.213 N 
ATOM      2  N9  ZIN A   1      18.656  -1.451  14.187  0.00  0.00    -0.144 NA
ATOM      3  C10 ZIN A   1      18.725  -0.190  14.554  0.00  0.00     0.185 A 
ATOM      4  N18 ZIN A   1      18.815   0.582  13.464  0.00  0.00    -0.206 NA
ATOM      5  C19 ZIN A   1      18.812  -0.173  12.384  0.00  0.00     0.166 A 
ENDROOT
BRANCH   1   6
ATOM      6  C7  ZIN A   1      18.664  -2.599  11.962  0.00  0.00     0.060 A 
ATOM      7  C6  ZIN A   1      17.478  -2.946  11.320  0.00  0.00     0.032 A 
ATOM      8  C5  ZIN A   1      17.432  -4.056  10.509  0.00  0.00     0.021 A 
ATOM      9  C4  ZIN A   1      18.578  -4.837  10.329  0.00  0.00     0.041 A 
ATOM     10  C28 ZIN A   1      19.767  -4.489  10.980  0.00  0.00     0.021 A 
ATOM     11  C27 ZIN A   1      19.806  -3.374  11.784  0.00  0.00     0.032 A 
BRANCH   9  12
ATOM     12  C2  ZIN A   1      18.534  -6.026   9.460  0.00  0.00     0.209 C 
ATOM     13  O1  ZIN A   1      19.558  -6.442   8.938  0.00  0.00    -0.644 OA
ATOM     14  O3  ZIN A   1      17.472  -6.603   9.267  0.00  0.00    -0.644 OA
ENDBRANCH   9  12
ENDBRANCH   1   6
BRANCH   5  15
ATOM     15  C20 ZIN A   1      18.897   0.304  10.989  0.00  0.00     0.045 A 
ATOM     16  C25 ZIN A   1      18.018   1.291  10.527  0.00  0.00     0.079 A 
ATOM     17  C24 ZIN A   1      18.109   1.737   9.219  0.00  0.00     0.037 A 
ATOM     18  C23 ZIN A   1      19.059   1.200   8.369  0.00  0.00     0.003 A 
ATOM     19  C22 ZIN A   1      19.926   0.220   8.820  0.00  0.00     0.001 A 
ATOM     20  C21 ZIN A   1      19.851  -0.231  10.121  0.00  0.00     0.018 A 
BRANCH  16  21
ATOM     21  O26 ZIN A   1      17.086   1.819  11.363  0.00  0.00    -0.360 OA
ATOM     22  H39 ZIN A   1      16.887   1.265  12.131  0.00  0.00     0.217 HD
ENDBRANCH  16  21
ENDBRANCH   5  15
BRANCH   3  23
ATOM     23  C11 ZIN A   1      18.704   0.301  15.954  0.00  0.00     0.050 A 
ATOM     24  C16 ZIN A   1      18.142  -0.485  16.965  0.00  0.00     0.121 A 
ATOM     25  C15 ZIN A   1      18.133  -0.022  18.271  0.00  0.00     0.041 A 
ATOM     26  O17 ZIN A   1      17.616  -1.701  16.669  0.00  0.00    -0.191 OA
ATOM     27  C14 ZIN A   1      18.669   1.217  18.571  0.00  0.00     0.003 A 
ATOM     28  C13 ZIN A   1      19.221   1.998  17.571  0.00  0.00     0.001 A 
ATOM     29  C12 ZIN A   1      19.242   1.547  16.267  0.00  0.00     0.018 A 
ENDBRANCH   3  23
TORSDOF 5
ENDMDL
MODEL 9
REMARK VINA RESULT:      -8.8      1.942      2.579
REMARK  5 active torsions:
REMARK  status: ('A' for Active; 'I' for Inactive)
REMARK    1  A    between atoms: C2_2  and  C4_4 
REMARK    2  A    between atoms: C7_7  and  N8_8 
REMARK    3  A    between atoms: C10_10  and  C11_11 
REMARK    4  A    between atoms: C19_19  and  C20_20 
REMARK    5  A    between atoms: C25_25  and  O26_26 
ROOT
ATOM      1  N8  ZIN A   1      18.396  -0.055  10.420  0.00  0.00    -0.213 N 
ATOM      2  N9  ZIN A   1      18.369   1.229  10.987  0.00  0.00    -0.144 NA
ATOM      3  C10 ZIN A   1      18.360   1.072  12.293  0.00  0.00     0.185 A 
ATOM      4  N18 ZIN A   1      18.379  -0.235  12.579  0.00  0.00    -0.206 NA
ATOM      5  C19 ZIN A   1      18.395  -0.934  11.463  0.00  0.00     0.166 A 
ENDROOT
BRANCH   1   6
ATOM      6  C7  ZIN A   1      18.413  -0.370   9.061  0.00  0.00     0.060 A 
ATOM      7  C6  ZIN A   1      17.350   0.010   8.246  0.00  0.00     0.032 A 
ATOM      8  C5  ZIN A   1      17.363  -0.298   6.906  0.00  0.00     0.021 A 
ATOM      9  C4  ZIN A   1      18.446  -0.995   6.361  0.00  0.00     0.041 A 
ATOM     10  C28 ZIN A   1      19.510  -1.381   7.183  0.00  0.00     0.021 A 
ATOM     11  C27 ZIN A   1      19.492  -1.063   8.522  0.00  0.00     0.032 A 
BRANCH   9  12
ATOM     12  C2  ZIN A   1      18.465  -1.327   4.926  0.00  0.00     0.209 C 
ATOM     13  O1  ZIN A   1      19.531  -1.467   4.343  0.00  0.00    -0.644 OA
ATOM     14  O3  ZIN A   1      17.412  -1.470   4.318  0.00  0.00    -0.644 OA
ENDBRANCH   9  12
ENDBRANCH   1   6
BRANCH   5  15
ATOM     15  C20 ZIN A   1      18.417  -2.408  11.359  0.00  0.00     0.045 A 
ATOM     16  C25 ZIN A   1      19.637  -3.095  11.364  0.00  0.00     0.079 A 
ATOM     17  C24 ZIN A   1      19.649  -4.477  11.272  0.00  0.00     0.037 A 
ATOM     18  C23 ZIN A   1      18.459  -5.174  11.165  0.00  0.00     0.003 A 
ATOM     19  C22 ZIN A   1      17.251  -4.497  11.154  0.00  0.00     0.001 A 
ATOM     20  C21 ZIN A   1      17.224  -3.121  11.249  0.00  0.00     0.018 A 
BRANCH  16  21
ATOM     21  O26 ZIN A   1      20.806  -2.410  11.470  0.00  0.00    -0.360 OA
ATOM     22  H39 ZIN A   1      20.884  -1.668  10.854  0.00  0.00     0.217 HD
ENDBRANCH  16  21
ENDBRANCH   5  15
BRANCH   3  23
ATOM     23  C11 ZIN A   1      18.332   2.170  13.291  0.00  0.00     0.050 A 
ATOM     24  C16 ZIN A   1      18.935   1.997  14.541  0.00  0.00     0.121 A 
ATOM     25  C15 ZIN A   1      18.910   3.030  15.464  0.00  0.00     0.041 A 
ATOM     26  O17 ZIN A   1      19.551   0.825  14.844  0.00  0.00    -0.191 OA
ATOM     27  C14 ZIN A   1      18.283   4.222  15.155  0.00  0.00     0.003 A 
ATOM     28  C13 ZIN A   1      17.682   4.393  13.920  0.00  0.00     0.001 A 
ATOM     29  C12 ZIN A   1      17.703   3.375  12.989  0.00  0.00     0.018 A 
ENDBRANCH   3  23
TORSDOF 5
ENDMDL
