MODEL 1
REMARK VINA RESULT:      -8.8      0.000      0.000
REMARK  8 active torsions:
REMARK  status: ('A' for Active; 'I' for Inactive)
REMARK       I    between atoms: N2_2  and  C4_4 
REMARK    1  A    between atoms: C4_4  and  C6_6 
REMARK    2  A    between atoms: C6_6  and  C7_7 
REMARK    3  A    between atoms: C6_6  and  C24_24 
REMARK    4  A    between atoms: C6_6  and  C30_30 
REMARK    5  A    between atoms: C7_7  and  C8_8 
REMARK    6  A    between atoms: C8_8  and  N9_9 
REMARK    7  A    between atoms: C13_13  and  O14_14 
REMARK    8  A    between atoms: C13_13  and  C15_15 
ROOT
ATOM      1  C6  <0> d   1      18.113   4.788  13.828  0.00  0.00     0.096 C 
ENDROOT
BRANCH   1   2
ATOM      2  C4  <0> d   1      19.528   5.190  14.159  0.00  0.00     0.237 C 
ATOM      3  N2  <0> d   1      19.903   5.337  15.445  0.00  0.00    -0.360 N 
ATOM      4  C1  <0> d   1      21.241   5.840  15.763  0.00  0.00     0.152 C 
ATOM      5  C3  <0> d   1      18.974   4.991  16.523  0.00  0.00     0.152 C 
ATOM      6  O5  <0> d   1      20.327   5.383  13.267  0.00  0.00    -0.272 OA
ENDBRANCH   1   2
BRANCH   1   7
ATOM      7  C7  <0> d   1      17.790   3.454  14.505  0.00  0.00     0.057 C 
BRANCH   7   8
ATOM      8  C8  <0> d   1      19.046   2.581  14.536  0.00  0.00     0.236 C 
BRANCH   8   9
ATOM      9  N9  <0> d   1      18.817   1.365  13.744  0.00  0.00    -0.071 N 
ATOM     10  H10 <0> d   1      18.173   1.570  12.994  0.00  0.00     0.279 HD
ATOM     11  C23 <0> d   1      20.091   0.902  13.181  0.00  0.00     0.238 C 
ATOM     12  C22 <0> d   1      19.846  -0.317  12.288  0.00  0.00     0.071 C 
ATOM     13  C13 <0> d   1      19.220  -1.435  13.124  0.00  0.00     0.088 C 
ATOM     14  C12 <0> d   1      17.930  -0.919  13.769  0.00  0.00     0.071 C 
ATOM     15  C11 <0> d   1      18.246   0.322  14.606  0.00  0.00     0.238 C 
BRANCH  13  16
ATOM     16  O14 <0> d   1      20.135  -1.838  14.146  0.00  0.00    -0.385 OA
ATOM     17  H50 <0> d   1      21.062  -1.657  13.936  0.00  0.00     0.211 HD
ENDBRANCH  13  16
BRANCH  13  18
ATOM     18  C15 <0> d   1      18.904  -2.613  12.239  0.00  0.00    -0.024 A 
ATOM     19  C21 <0> d   1      17.594  -2.887  11.893  0.00  0.00     0.012 A 
ATOM     20  C20 <0> d   1      17.304  -3.964  11.078  0.00  0.00     0.024 A 
ATOM     21  C18 <0> d   1      18.325  -4.775  10.616  0.00  0.00     0.034 A 
ATOM     22  C17 <0> d   1      19.636  -4.504  10.966  0.00  0.00     0.024 A 
ATOM     23 Cl19 <0> d   1      17.961  -6.133   9.596  0.00  0.00    -0.084 Cl
ATOM     24  C16 <0> d   1      19.924  -3.424  11.777  0.00  0.00     0.012 A 
ENDBRANCH  13  18
ENDBRANCH   8   9
ENDBRANCH   7   8
ENDBRANCH   1   7
BRANCH   1  25
ATOM     25  C24 <0> d   1      17.161   5.846  14.324  0.00  0.00    -0.036 A 
ATOM     26  C29 <0> d   1      17.558   7.170  14.358  0.00  0.00     0.009 A 
ATOM     27  C28 <0> d   1      16.683   8.141  14.809  0.00  0.00     0.001 A 
ATOM     28  C27 <0> d   1      15.416   7.788  15.232  0.00  0.00     0.000 A 
ATOM     29  C26 <0> d   1      15.021   6.464  15.202  0.00  0.00     0.001 A 
ATOM     30  C25 <0> d   1      15.894   5.492  14.748  0.00  0.00     0.009 A 
ENDBRANCH   1  25
BRANCH   1  31
ATOM     31  C30 <0> d   1      17.968   4.642  12.335  0.00  0.00    -0.036 A 
ATOM     32  C35 <0> d   1      17.094   5.458  11.642  0.00  0.00     0.009 A 
ATOM     33  C34 <0> d   1      16.966   5.327  10.272  0.00  0.00     0.001 A 
ATOM     34  C33 <0> d   1      17.705   4.373   9.597  0.00  0.00     0.000 A 
ATOM     35  C32 <0> d   1      18.574   3.553  10.290  0.00  0.00     0.001 A 
ATOM     36  C31 <0> d   1      18.706   3.687  11.660  0.00  0.00     0.009 A 
ENDBRANCH   1  31
TORSDOF 8
ENDMDL
MODEL 2
REMARK VINA RESULT:      -8.6      3.079      5.090
REMARK  8 active torsions:
REMARK  status: ('A' for Active; 'I' for Inactive)
REMARK       I    between atoms: N2_2  and  C4_4 
REMARK    1  A    between atoms: C4_4  and  C6_6 
REMARK    2  A    between atoms: C6_6  and  C7_7 
REMARK    3  A    between atoms: C6_6  and  C24_24 
REMARK    4  A    between atoms: C6_6  and  C30_30 
REMARK    5  A    between atoms: C7_7  and  C8_8 
REMARK    6  A    between atoms: C8_8  and  N9_9 
REMARK    7  A    between atoms: C13_13  and  O14_14 
REMARK    8  A    between atoms: C13_13  and  C15_15 
ROOT
ATOM      1  C6  <0> d   1      18.545   3.835  15.316  0.00  0.00     0.096 C 
ENDROOT
BRANCH   1   2
ATOM      2  C4  <0> d   1      19.870   4.377  15.790  0.00  0.00     0.237 C 
ATOM      3  N2  <0> d   1      20.402   5.466  15.200  0.00  0.00    -0.360 N 
ATOM      4  C1  <0> d   1      21.741   5.923  15.579  0.00  0.00     0.152 C 
ATOM      5  C3  <0> d   1      19.641   6.192  14.180  0.00  0.00     0.152 C 
ATOM      6  O5  <0> d   1      20.457   3.832  16.702  0.00  0.00    -0.272 OA
ENDBRANCH   1   2
BRANCH   1   7
ATOM      7  C7  <0> d   1      18.594   3.621  13.802  0.00  0.00     0.057 C 
BRANCH   7   8
ATOM      8  C8  <0> d   1      19.688   2.607  13.465  0.00  0.00     0.236 C 
BRANCH   8   9
ATOM      9  N9  <0> d   1      19.577   2.218  12.052  0.00  0.00    -0.071 N 
ATOM     10  H10 <0> d   1      20.438   2.440  11.575  0.00  0.00     0.279 HD
ATOM     11  C23 <0> d   1      19.325   0.775  11.962  0.00  0.00     0.238 C 
ATOM     12  C22 <0> d   1      19.290   0.351  10.492  0.00  0.00     0.071 C 
ATOM     13  C13 <0> d   1      18.171   1.110   9.775  0.00  0.00     0.088 C 
ATOM     14  C12 <0> d   1      18.401   2.616   9.940  0.00  0.00     0.071 C 
ATOM     15  C11 <0> d   1      18.471   2.956  11.429  0.00  0.00     0.238 C 
BRANCH  13  16
ATOM     16  O14 <0> d   1      16.910   0.756  10.347  0.00  0.00    -0.385 OA
ATOM     17  H50 <0> d   1      16.226   0.552   9.693  0.00  0.00     0.211 HD
ENDBRANCH  13  16
BRANCH  13  18
ATOM     18  C15 <0> d   1      18.177   0.757   8.310  0.00  0.00    -0.024 A 
ATOM     19  C21 <0> d   1      17.271  -0.164   7.817  0.00  0.00     0.012 A 
ATOM     20  C20 <0> d   1      17.273  -0.485   6.473  0.00  0.00     0.024 A 
ATOM     21  C18 <0> d   1      18.189   0.107   5.623  0.00  0.00     0.034 A 
ATOM     22  C17 <0> d   1      19.100   1.025   6.117  0.00  0.00     0.024 A 
ATOM     23 Cl19 <0> d   1      18.197  -0.301   3.935  0.00  0.00    -0.084 Cl
ATOM     24  C16 <0> d   1      19.093   1.348   7.460  0.00  0.00     0.012 A 
ENDBRANCH  13  18
ENDBRANCH   8   9
ENDBRANCH   7   8
ENDBRANCH   1   7
BRANCH   1  25
ATOM     25  C24 <0> d   1      18.267   2.522  16.001  0.00  0.00    -0.036 A 
ATOM     26  C29 <0> d   1      17.766   1.457  15.276  0.00  0.00     0.009 A 
ATOM     27  C28 <0> d   1      17.515   0.251  15.903  0.00  0.00     0.001 A 
ATOM     28  C27 <0> d   1      17.758   0.112  17.257  0.00  0.00     0.000 A 
ATOM     29  C26 <0> d   1      18.255   1.178  17.983  0.00  0.00     0.001 A 
ATOM     30  C25 <0> d   1      18.509   2.383  17.355  0.00  0.00     0.009 A 
ENDBRANCH   1  25
BRANCH   1  31
ATOM     31  C30 <0> d   1      17.453   4.818  15.651  0.00  0.00    -0.036 A 
ATOM     32  C35 <0> d   1      17.371   5.354  16.923  0.00  0.00     0.009 A 
ATOM     33  C34 <0> d   1      16.372   6.259  17.228  0.00  0.00     0.001 A 
ATOM     34  C33 <0> d   1      15.448   6.619  16.264  0.00  0.00     0.000 A 
ATOM     35  C32 <0> d   1      15.526   6.079  14.995  0.00  0.00     0.001 A 
ATOM     36  C31 <0> d   1      16.528   5.177  14.688  0.00  0.00     0.009 A 
ENDBRANCH   1  31
TORSDOF 8
ENDMDL
MODEL 3
REMARK VINA RESULT:      -8.6      4.616      9.371
REMARK  8 active torsions:
REMARK  status: ('A' for Active; 'I' for Inactive)
REMARK       I    between atoms: N2_2  and  C4_4 
REMARK    1  A    between atoms: C4_4  and  C6_6 
REMARK    2  A    between atoms: C6_6  and  C7_7 
REMARK    3  A    between atoms: C6_6  and  C24_24 
REMARK    4  A    between atoms: C6_6  and  C30_30 
REMARK    5  A    between atoms: C7_7  and  C8_8 
REMARK    6  A    between atoms: C8_8  and  N9_9 
REMARK    7  A    between atoms: C13_13  and  O14_14 
REMARK    8  A    between atoms: C13_13  and  C15_15 
ROOT
ATOM      1  C6  <0> d   1      18.570  -3.657   8.135  0.00  0.00     0.096 C 
ENDROOT
BRANCH   1   2
ATOM      2  C4  <0> d   1      19.852  -4.177   7.536  0.00  0.00     0.237 C 
ATOM      3  N2  <0> d   1      20.465  -5.246   8.081  0.00  0.00    -0.360 N 
ATOM      4  C1  <0> d   1      21.769  -5.680   7.573  0.00  0.00     0.152 C 
ATOM      5  C3  <0> d   1      19.828  -5.974   9.181  0.00  0.00     0.152 C 
ATOM      6  O5  <0> d   1      20.330  -3.632   6.563  0.00  0.00    -0.272 OA
ENDBRANCH   1   2
BRANCH   1   7
ATOM      7  C7  <0> d   1      18.756  -3.452   9.640  0.00  0.00     0.057 C 
BRANCH   7   8
ATOM      8  C8  <0> d   1      19.865  -2.426   9.882  0.00  0.00     0.236 C 
BRANCH   8   9
ATOM      9  N9  <0> d   1      19.716  -1.852  11.226  0.00  0.00    -0.071 N 
ATOM     10  H10 <0> d   1      20.536  -2.068  11.775  0.00  0.00     0.279 HD
ATOM     11  C23 <0> d   1      19.568  -0.396  11.122  0.00  0.00     0.238 C 
ATOM     12  C22 <0> d   1      19.495   0.215  12.523  0.00  0.00     0.071 C 
ATOM     13  C13 <0> d   1      18.291  -0.370  13.265  0.00  0.00     0.088 C 
ATOM     14  C12 <0> d   1      18.417  -1.896  13.303  0.00  0.00     0.071 C 
ATOM     15  C11 <0> d   1      18.531  -2.428  11.873  0.00  0.00     0.238 C 
BRANCH  13  16
ATOM     16  O14 <0> d   1      17.088  -0.008  12.585  0.00  0.00    -0.385 OA
ATOM     17  H50 <0> d   1      16.327  -0.562  12.811  0.00  0.00     0.211 HD
ENDBRANCH  13  16
BRANCH  13  18
ATOM     18  C15 <0> d   1      18.254   0.168  14.673  0.00  0.00    -0.024 A 
ATOM     19  C21 <0> d   1      18.817   1.397  14.959  0.00  0.00     0.012 A 
ATOM     20  C20 <0> d   1      18.780   1.892  16.248  0.00  0.00     0.024 A 
ATOM     21  C18 <0> d   1      18.188   1.152  17.256  0.00  0.00     0.034 A 
ATOM     22  C17 <0> d   1      17.629  -0.082  16.971  0.00  0.00     0.024 A 
ATOM     23 Cl19 <0> d   1      18.147   1.770  18.878  0.00  0.00    -0.084 Cl
ATOM     24  C16 <0> d   1      17.663  -0.573  15.680  0.00  0.00     0.012 A 
ENDBRANCH  13  18
ENDBRANCH   8   9
ENDBRANCH   7   8
ENDBRANCH   1   7
BRANCH   1  25
ATOM     25  C24 <0> d   1      18.211  -2.343   7.490  0.00  0.00    -0.036 A 
ATOM     26  C29 <0> d   1      18.484  -2.134   6.151  0.00  0.00     0.009 A 
ATOM     27  C28 <0> d   1      18.150  -0.930   5.558  0.00  0.00     0.001 A 
ATOM     28  C27 <0> d   1      17.551   0.066   6.306  0.00  0.00     0.000 A 
ATOM     29  C26 <0> d   1      17.282  -0.142   7.645  0.00  0.00     0.001 A 
ATOM     30  C25 <0> d   1      17.612  -1.346   8.238  0.00  0.00     0.009 A 
ENDBRANCH   1  25
BRANCH   1  31
ATOM     31  C30 <0> d   1      17.464  -4.653   7.896  0.00  0.00    -0.036 A 
ATOM     32  C35 <0> d   1      16.561  -4.939   8.903  0.00  0.00     0.009 A 
ATOM     33  C34 <0> d   1      15.544  -5.849   8.681  0.00  0.00     0.001 A 
ATOM     34  C33 <0> d   1      15.437  -6.480   7.456  0.00  0.00     0.000 A 
ATOM     35  C32 <0> d   1      16.343  -6.199   6.451  0.00  0.00     0.001 A 
ATOM     36  C31 <0> d   1      17.357  -5.285   6.671  0.00  0.00     0.009 A 
ENDBRANCH   1  31
TORSDOF 8
ENDMDL
MODEL 4
REMARK VINA RESULT:      -8.5      3.812      8.700
REMARK  8 active torsions:
REMARK  status: ('A' for Active; 'I' for Inactive)
REMARK       I    between atoms: N2_2  and  C4_4 
REMARK    1  A    between atoms: C4_4  and  C6_6 
REMARK    2  A    between atoms: C6_6  and  C7_7 
REMARK    3  A    between atoms: C6_6  and  C24_24 
REMARK    4  A    between atoms: C6_6  and  C30_30 
REMARK    5  A    between atoms: C7_7  and  C8_8 
REMARK    6  A    between atoms: C8_8  and  N9_9 
REMARK    7  A    between atoms: C13_13  and  O14_14 
REMARK    8  A    between atoms: C13_13  and  C15_15 
ROOT
ATOM      1  C6  <0> d   1      18.634  -1.715   9.500  0.00  0.00     0.096 C 
ENDROOT
BRANCH   1   2
ATOM      2  C4  <0> d   1      17.638  -0.936  10.323  0.00  0.00     0.237 C 
ATOM      3  N2  <0> d   1      17.587  -1.111  11.658  0.00  0.00    -0.360 N 
ATOM      4  C1  <0> d   1      16.545  -0.445  12.443  0.00  0.00     0.152 C 
ATOM      5  C3  <0> d   1      18.572  -1.965  12.324  0.00  0.00     0.152 C 
ATOM      6  O5  <0> d   1      16.885  -0.154   9.783  0.00  0.00    -0.272 OA
ENDBRANCH   1   2
BRANCH   1   7
ATOM      7  C7  <0> d   1      20.050  -1.410   9.990  0.00  0.00     0.057 C 
BRANCH   7   8
ATOM      8  C8  <0> d   1      20.414   0.033   9.635  0.00  0.00     0.236 C 
BRANCH   8   9
ATOM      9  N9  <0> d   1      19.611   0.955  10.450  0.00  0.00    -0.071 N 
ATOM     10  H10 <0> d   1      18.684   0.576  10.569  0.00  0.00     0.279 HD
ATOM     11  C23 <0> d   1      20.244   1.121  11.764  0.00  0.00     0.238 C 
ATOM     12  C22 <0> d   1      19.369   2.016  12.646  0.00  0.00     0.071 C 
ATOM     13  C13 <0> d   1      19.212   3.384  11.976  0.00  0.00     0.088 C 
ATOM     14  C12 <0> d   1      18.622   3.193  10.576  0.00  0.00     0.071 C 
ATOM     15  C11 <0> d   1      19.523   2.254   9.772  0.00  0.00     0.238 C 
BRANCH  13  16
ATOM     16  O14 <0> d   1      20.490   4.014  11.872  0.00  0.00    -0.385 OA
ATOM     17  H50 <0> d   1      20.678   4.380  10.996  0.00  0.00     0.211 HD
ENDBRANCH  13  16
BRANCH  13  18
ATOM     18  C15 <0> d   1      18.290   4.247  12.799  0.00  0.00    -0.024 A 
ATOM     19  C21 <0> d   1      17.164   4.801  12.221  0.00  0.00     0.012 A 
ATOM     20  C20 <0> d   1      16.316   5.589  12.976  0.00  0.00     0.024 A 
ATOM     21  C18 <0> d   1      16.600   5.832  14.307  0.00  0.00     0.034 A 
ATOM     22  C17 <0> d   1      17.731   5.281  14.884  0.00  0.00     0.024 A 
ATOM     23 Cl19 <0> d   1      15.539   6.827  15.254  0.00  0.00    -0.084 Cl
ATOM     24  C16 <0> d   1      18.575   4.489  14.130  0.00  0.00     0.012 A 
ENDBRANCH  13  18
ENDBRANCH   8   9
ENDBRANCH   7   8
ENDBRANCH   1   7
BRANCH   1  25
ATOM     25  C24 <0> d   1      18.358  -3.190   9.642  0.00  0.00    -0.036 A 
ATOM     26  C29 <0> d   1      19.383  -4.055   9.978  0.00  0.00     0.009 A 
ATOM     27  C28 <0> d   1      19.128  -5.406  10.113  0.00  0.00     0.001 A 
ATOM     28  C27 <0> d   1      17.852  -5.895   9.906  0.00  0.00     0.000 A 
ATOM     29  C26 <0> d   1      16.829  -5.030   9.566  0.00  0.00     0.001 A 
ATOM     30  C25 <0> d   1      17.081  -3.677   9.434  0.00  0.00     0.009 A 
ENDBRANCH   1  25
BRANCH   1  31
ATOM     31  C30 <0> d   1      18.506  -1.318   8.052  0.00  0.00    -0.036 A 
ATOM     32  C35 <0> d   1      17.561  -0.383   7.672  0.00  0.00     0.009 A 
ATOM     33  C34 <0> d   1      17.448  -0.015   6.343  0.00  0.00     0.001 A 
ATOM     34  C33 <0> d   1      18.273  -0.591   5.395  0.00  0.00     0.000 A 
ATOM     35  C32 <0> d   1      19.213  -1.530   5.774  0.00  0.00     0.001 A 
ATOM     36  C31 <0> d   1      19.330  -1.894   7.102  0.00  0.00     0.009 A 
ENDBRANCH   1  31
TORSDOF 8
ENDMDL
MODEL 5
REMARK VINA RESULT:      -8.2      3.016      5.076
REMARK  8 active torsions:
REMARK  status: ('A' for Active; 'I' for Inactive)
REMARK       I    between atoms: N2_2  and  C4_4 
REMARK    1  A    between atoms: C4_4  and  C6_6 
REMARK    2  A    between atoms: C6_6  and  C7_7 
REMARK    3  A    between atoms: C6_6  and  C24_24 
REMARK    4  A    between atoms: C6_6  and  C30_30 
REMARK    5  A    between atoms: C7_7  and  C8_8 
REMARK    6  A    between atoms: C8_8  and  N9_9 
REMARK    7  A    between atoms: C13_13  and  O14_14 
REMARK    8  A    between atoms: C13_13  and  C15_15 
ROOT
ATOM      1  C6  <0> d   1      18.577   3.961  15.761  0.00  0.00     0.096 C 
ENDROOT
BRANCH   1   2
ATOM      2  C4  <0> d   1      19.973   4.483  15.988  0.00  0.00     0.237 C 
ATOM      3  N2  <0> d   1      20.454   5.478  15.217  0.00  0.00    -0.360 N 
ATOM      4  C1  <0> d   1      21.848   5.906  15.359  0.00  0.00     0.152 C 
ATOM      5  C3  <0> d   1      19.583   6.131  14.237  0.00  0.00     0.152 C 
ATOM      6  O5  <0> d   1      20.663   4.008  16.866  0.00  0.00    -0.272 OA
ENDBRANCH   1   2
BRANCH   1   7
ATOM      7  C7  <0> d   1      18.463   3.415  14.336  0.00  0.00     0.057 C 
BRANCH   7   8
ATOM      8  C8  <0> d   1      19.632   2.468  14.057  0.00  0.00     0.236 C 
BRANCH   8   9
ATOM      9  N9  <0> d   1      19.574   2.017  12.660  0.00  0.00    -0.071 N 
ATOM     10  H10 <0> d   1      20.484   1.686  12.376  0.00  0.00     0.279 HD
ATOM     11  C23 <0> d   1      18.600   0.926  12.541  0.00  0.00     0.238 C 
ATOM     12  C22 <0> d   1      18.594   0.396  11.105  0.00  0.00     0.071 C 
ATOM     13  C13 <0> d   1      18.211   1.531  10.151  0.00  0.00     0.088 C 
ATOM     14  C12 <0> d   1      19.188   2.695  10.338  0.00  0.00     0.071 C 
ATOM     15  C11 <0> d   1      19.173   3.138  11.802  0.00  0.00     0.238 C 
BRANCH  13  16
ATOM     16  O14 <0> d   1      16.883   1.972  10.443  0.00  0.00    -0.385 OA
ATOM     17  H50 <0> d   1      16.213   1.634   9.832  0.00  0.00     0.211 HD
ENDBRANCH  13  16
BRANCH  13  18
ATOM     18  C15 <0> d   1      18.277   1.040   8.728  0.00  0.00    -0.024 A 
ATOM     19  C21 <0> d   1      19.055   1.708   7.802  0.00  0.00     0.012 A 
ATOM     20  C20 <0> d   1      19.119   1.256   6.497  0.00  0.00     0.024 A 
ATOM     21  C18 <0> d   1      18.395   0.141   6.116  0.00  0.00     0.034 A 
ATOM     22  C17 <0> d   1      17.611  -0.525   7.043  0.00  0.00     0.024 A 
ATOM     23 Cl19 <0> d   1      18.470  -0.424   4.476  0.00  0.00    -0.084 Cl
ATOM     24  C16 <0> d   1      17.552  -0.074   8.347  0.00  0.00     0.012 A 
ENDBRANCH  13  18
ENDBRANCH   8   9
ENDBRANCH   7   8
ENDBRANCH   1   7
BRANCH   1  25
ATOM     25  C24 <0> d   1      18.288   2.858  16.747  0.00  0.00    -0.036 A 
ATOM     26  C29 <0> d   1      18.396   1.536  16.356  0.00  0.00     0.009 A 
ATOM     27  C28 <0> d   1      18.135   0.526  17.262  0.00  0.00     0.001 A 
ATOM     28  C27 <0> d   1      17.758   0.836  18.555  0.00  0.00     0.000 A 
ATOM     29  C26 <0> d   1      17.646   2.157  18.944  0.00  0.00     0.001 A 
ATOM     30  C25 <0> d   1      17.910   3.169  18.040  0.00  0.00     0.009 A 
ENDBRANCH   1  25
BRANCH   1  31
ATOM     31  C30 <0> d   1      17.586   5.079  15.952  0.00  0.00    -0.036 A 
ATOM     32  C35 <0> d   1      16.557   5.254  15.046  0.00  0.00     0.009 A 
ATOM     33  C34 <0> d   1      15.645   6.277  15.225  0.00  0.00     0.001 A 
ATOM     34  C33 <0> d   1      15.768   7.132  16.305  0.00  0.00     0.000 A 
ATOM     35  C32 <0> d   1      16.800   6.961  17.208  0.00  0.00     0.001 A 
ATOM     36  C31 <0> d   1      17.710   5.935  17.031  0.00  0.00     0.009 A 
ENDBRANCH   1  31
TORSDOF 8
ENDMDL
MODEL 6
REMARK VINA RESULT:      -8.2      3.357      8.419
REMARK  8 active torsions:
REMARK  status: ('A' for Active; 'I' for Inactive)
REMARK       I    between atoms: N2_2  and  C4_4 
REMARK    1  A    between atoms: C4_4  and  C6_6 
REMARK    2  A    between atoms: C6_6  and  C7_7 
REMARK    3  A    between atoms: C6_6  and  C24_24 
REMARK    4  A    between atoms: C6_6  and  C30_30 
REMARK    5  A    between atoms: C7_7  and  C8_8 
REMARK    6  A    between atoms: C8_8  and  N9_9 
REMARK    7  A    between atoms: C13_13  and  O14_14 
REMARK    8  A    between atoms: C13_13  and  C15_15 
ROOT
ATOM      1  C6  <0> d   1      18.619  -1.759  10.965  0.00  0.00     0.096 C 
ENDROOT
BRANCH   1   2
ATOM      2  C4  <0> d   1      17.759  -0.978  10.003  0.00  0.00     0.237 C 
ATOM      3  N2  <0> d   1      17.837  -1.222   8.681  0.00  0.00    -0.360 N 
ATOM      4  C1  <0> d   1      17.090  -0.386   7.737  0.00  0.00     0.152 C 
ATOM      5  C3  <0> d   1      18.666  -2.323   8.186  0.00  0.00     0.152 C 
ATOM      6  O5  <0> d   1      16.999  -0.130  10.422  0.00  0.00    -0.272 OA
ENDBRANCH   1   2
BRANCH   1   7
ATOM      7  C7  <0> d   1      20.094  -1.533  10.629  0.00  0.00     0.057 C 
BRANCH   7   8
ATOM      8  C8  <0> d   1      20.252  -0.201   9.893  0.00  0.00     0.236 C 
BRANCH   8   9
ATOM      9  N9  <0> d   1      19.672   0.878  10.705  0.00  0.00    -0.071 N 
ATOM     10  H10 <0> d   1      18.743   0.614  10.998  0.00  0.00     0.279 HD
ATOM     11  C23 <0> d   1      20.511   1.105  11.887  0.00  0.00     0.238 C 
ATOM     12  C22 <0> d   1      19.867   2.171  12.777  0.00  0.00     0.071 C 
ATOM     13  C13 <0> d   1      19.736   3.474  11.987  0.00  0.00     0.088 C 
ATOM     14  C12 <0> d   1      18.922   3.211  10.716  0.00  0.00     0.071 C 
ATOM     15  C11 <0> d   1      19.600   2.106   9.903  0.00  0.00     0.238 C 
BRANCH  13  16
ATOM     16  O14 <0> d   1      21.035   3.951  11.630  0.00  0.00    -0.385 OA
ATOM     17  H50 <0> d   1      21.457   4.491  12.314  0.00  0.00     0.211 HD
ENDBRANCH  13  16
BRANCH  13  18
ATOM     18  C15 <0> d   1      19.034   4.509  12.829  0.00  0.00    -0.024 A 
ATOM     19  C21 <0> d   1      19.740   5.219  13.781  0.00  0.00     0.012 A 
ATOM     20  C20 <0> d   1      19.097   6.171  14.551  0.00  0.00     0.024 A 
ATOM     21  C18 <0> d   1      17.745   6.404  14.376  0.00  0.00     0.034 A 
ATOM     22  C17 <0> d   1      17.037   5.688  13.425  0.00  0.00     0.024 A 
ATOM     23 Cl19 <0> d   1      16.936   7.594  15.346  0.00  0.00    -0.084 Cl
ATOM     24  C16 <0> d   1      17.682   4.741  12.653  0.00  0.00     0.012 A 
ENDBRANCH  13  18
ENDBRANCH   8   9
ENDBRANCH   7   8
ENDBRANCH   1   7
BRANCH   1  25
ATOM     25  C24 <0> d   1      18.347  -1.294  12.373  0.00  0.00    -0.036 A 
ATOM     26  C29 <0> d   1      17.323  -0.398  12.618  0.00  0.00     0.009 A 
ATOM     27  C28 <0> d   1      17.071   0.024  13.910  0.00  0.00     0.001 A 
ATOM     28  C27 <0> d   1      17.847  -0.442  14.954  0.00  0.00     0.000 A 
ATOM     29  C26 <0> d   1      18.873  -1.334  14.708  0.00  0.00     0.001 A 
ATOM     30  C25 <0> d   1      19.124  -1.760  13.417  0.00  0.00     0.009 A 
ENDBRANCH   1  25
BRANCH   1  31
ATOM     31  C30 <0> d   1      18.295  -3.226  10.849  0.00  0.00    -0.036 A 
ATOM     32  C35 <0> d   1      17.015  -3.675  11.117  0.00  0.00     0.009 A 
ATOM     33  C34 <0> d   1      16.718  -5.021  11.006  0.00  0.00     0.001 A 
ATOM     34  C33 <0> d   1      17.703  -5.918  10.637  0.00  0.00     0.000 A 
ATOM     35  C32 <0> d   1      18.984  -5.470  10.375  0.00  0.00     0.001 A 
ATOM     36  C31 <0> d   1      19.280  -4.124  10.481  0.00  0.00     0.009 A 
ENDBRANCH   1  31
TORSDOF 8
ENDMDL
MODEL 7
REMARK VINA RESULT:      -8.2      7.624     13.190
REMARK  8 active torsions:
REMARK  status: ('A' for Active; 'I' for Inactive)
REMARK       I    between atoms: N2_2  and  C4_4 
REMARK    1  A    between atoms: C4_4  and  C6_6 
REMARK    2  A    between atoms: C6_6  and  C7_7 
REMARK    3  A    between atoms: C6_6  and  C24_24 
REMARK    4  A    between atoms: C6_6  and  C30_30 
REMARK    5  A    between atoms: C7_7  and  C8_8 
REMARK    6  A    between atoms: C8_8  and  N9_9 
REMARK    7  A    between atoms: C13_13  and  O14_14 
REMARK    8  A    between atoms: C13_13  and  C15_15 
ROOT
ATOM      1  C6  <0> d   1      16.013  -5.895   3.776  0.00  0.00     0.096 C 
ENDROOT
BRANCH   1   2
ATOM      2  C4  <0> d   1      17.180  -6.728   3.309  0.00  0.00     0.237 C 
ATOM      3  N2  <0> d   1      17.559  -6.690   2.017  0.00  0.00    -0.360 N 
ATOM      4  C1  <0> d   1      18.615  -7.586   1.538  0.00  0.00     0.152 C 
ATOM      5  C3  <0> d   1      16.917  -5.753   1.092  0.00  0.00     0.152 C 
ATOM      6  O5  <0> d   1      17.775  -7.433   4.097  0.00  0.00    -0.272 OA
ENDBRANCH   1   2
BRANCH   1   7
ATOM      7  C7  <0> d   1      16.296  -4.418   3.495  0.00  0.00     0.057 C 
BRANCH   7   8
ATOM      8  C8  <0> d   1      17.729  -4.084   3.915  0.00  0.00     0.236 C 
BRANCH   8   9
ATOM      9  N9  <0> d   1      17.702  -3.099   5.005  0.00  0.00    -0.071 N 
ATOM     10  H10 <0> d   1      17.003  -3.367   5.682  0.00  0.00     0.279 HD
ATOM     11  C23 <0> d   1      19.018  -3.053   5.653  0.00  0.00     0.238 C 
ATOM     12  C22 <0> d   1      18.972  -2.089   6.841  0.00  0.00     0.071 C 
ATOM     13  C13 <0> d   1      18.600  -0.691   6.341  0.00  0.00     0.088 C 
ATOM     14  C12 <0> d   1      17.262  -0.763   5.600  0.00  0.00     0.071 C 
ATOM     15  C11 <0> d   1      17.371  -1.777   4.460  0.00  0.00     0.238 C 
BRANCH  13  16
ATOM     16  O14 <0> d   1      19.613  -0.216   5.451  0.00  0.00    -0.385 OA
ATOM     17  H50 <0> d   1      20.036  -0.913   4.930  0.00  0.00     0.211 HD
ENDBRANCH  13  16
BRANCH  13  18
ATOM     18  C15 <0> d   1      18.478   0.249   7.512  0.00  0.00    -0.024 A 
ATOM     19  C21 <0> d   1      17.675  -0.085   8.586  0.00  0.00     0.012 A 
ATOM     20  C20 <0> d   1      17.566   0.776   9.662  0.00  0.00     0.024 A 
ATOM     21  C18 <0> d   1      18.252   1.977   9.659  0.00  0.00     0.034 A 
ATOM     22  C17 <0> d   1      19.052   2.314   8.581  0.00  0.00     0.024 A 
ATOM     23 Cl19 <0> d   1      18.110   3.061  11.008  0.00  0.00    -0.084 Cl
ATOM     24  C16 <0> d   1      19.164   1.450   7.509  0.00  0.00     0.012 A 
ENDBRANCH  13  18
ENDBRANCH   8   9
ENDBRANCH   7   8
ENDBRANCH   1   7
BRANCH   1  25
ATOM     25  C24 <0> d   1      14.768  -6.317   3.040  0.00  0.00    -0.036 A 
ATOM     26  C29 <0> d   1      13.956  -5.365   2.452  0.00  0.00     0.009 A 
ATOM     27  C28 <0> d   1      12.817  -5.754   1.773  0.00  0.00     0.001 A 
ATOM     28  C27 <0> d   1      12.485  -7.093   1.688  0.00  0.00     0.000 A 
ATOM     29  C26 <0> d   1      13.294  -8.044   2.281  0.00  0.00     0.001 A 
ATOM     30  C25 <0> d   1      14.435  -7.657   2.957  0.00  0.00     0.009 A 
ENDBRANCH   1  25
BRANCH   1  31
ATOM     31  C30 <0> d   1      15.814  -6.096   5.256  0.00  0.00    -0.036 A 
ATOM     32  C35 <0> d   1      14.536  -6.160   5.780  0.00  0.00     0.009 A 
ATOM     33  C34 <0> d   1      14.355  -6.350   7.138  0.00  0.00     0.001 A 
ATOM     34  C33 <0> d   1      15.451  -6.464   7.972  0.00  0.00     0.000 A 
ATOM     35  C32 <0> d   1      16.728  -6.393   7.450  0.00  0.00     0.001 A 
ATOM     36  C31 <0> d   1      16.910  -6.209   6.092  0.00  0.00     0.009 A 
ENDBRANCH   1  31
TORSDOF 8
ENDMDL
MODEL 8
REMARK VINA RESULT:      -7.8      2.462      4.586
REMARK  8 active torsions:
REMARK  status: ('A' for Active; 'I' for Inactive)
REMARK       I    between atoms: N2_2  and  C4_4 
REMARK    1  A    between atoms: C4_4  and  C6_6 
REMARK    2  A    between atoms: C6_6  and  C7_7 
REMARK    3  A    between atoms: C6_6  and  C24_24 
REMARK    4  A    between atoms: C6_6  and  C30_30 
REMARK    5  A    between atoms: C7_7  and  C8_8 
REMARK    6  A    between atoms: C8_8  and  N9_9 
REMARK    7  A    between atoms: C13_13  and  O14_14 
REMARK    8  A    between atoms: C13_13  and  C15_15 
ROOT
ATOM      1  C6  <0> d   1      18.695   1.848  13.319  0.00  0.00     0.096 C 
ENDROOT
BRANCH   1   2
ATOM      2  C4  <0> d   1      17.782   1.233  12.289  0.00  0.00     0.237 C 
ATOM      3  N2  <0> d   1      17.958   1.510  10.982  0.00  0.00    -0.360 N 
ATOM      4  C1  <0> d   1      17.002   1.008   9.992  0.00  0.00     0.152 C 
ATOM      5  C3  <0> d   1      19.106   2.312  10.551  0.00  0.00     0.152 C 
ATOM      6  O5  <0> d   1      16.888   0.490  12.637  0.00  0.00    -0.272 OA
ENDBRANCH   1   2
BRANCH   1   7
ATOM      7  C7  <0> d   1      20.152   1.586  12.930  0.00  0.00     0.057 C 
BRANCH   7   8
ATOM      8  C8  <0> d   1      20.503   0.126  13.222  0.00  0.00     0.236 C 
BRANCH   8   9
ATOM      9  N9  <0> d   1      19.678  -0.753  12.382  0.00  0.00    -0.071 N 
ATOM     10  H10 <0> d   1      18.797  -0.301  12.187  0.00  0.00     0.279 HD
ATOM     11  C23 <0> d   1      20.378  -1.020  11.120  0.00  0.00     0.238 C 
ATOM     12  C22 <0> d   1      19.488  -1.868  10.208  0.00  0.00     0.071 C 
ATOM     13  C13 <0> d   1      19.169  -3.192  10.906  0.00  0.00     0.088 C 
ATOM     14  C12 <0> d   1      18.507  -2.901  12.256  0.00  0.00     0.071 C 
ATOM     15  C11 <0> d   1      19.432  -2.015  13.091  0.00  0.00     0.238 C 
BRANCH  13  16
ATOM     16  O14 <0> d   1      20.377  -3.926  11.116  0.00  0.00    -0.385 OA
ATOM     17  H50 <0> d   1      21.170  -3.479  10.788  0.00  0.00     0.211 HD
ENDBRANCH  13  16
BRANCH  13  18
ATOM     18  C15 <0> d   1      18.231  -4.003  10.048  0.00  0.00    -0.024 A 
ATOM     19  C21 <0> d   1      17.150  -4.645  10.622  0.00  0.00     0.012 A 
ATOM     20  C20 <0> d   1      16.287  -5.385   9.836  0.00  0.00     0.024 A 
ATOM     21  C18 <0> d   1      16.512  -5.491   8.475  0.00  0.00     0.034 A 
ATOM     22  C17 <0> d   1      17.597  -4.852   7.901  0.00  0.00     0.024 A 
ATOM     23 Cl19 <0> d   1      15.432  -6.426   7.487  0.00  0.00    -0.084 Cl
ATOM     24  C16 <0> d   1      18.456  -4.109   8.688  0.00  0.00     0.012 A 
ENDBRANCH  13  18
ENDBRANCH   8   9
ENDBRANCH   7   8
ENDBRANCH   1   7
BRANCH   1  25
ATOM     25  C24 <0> d   1      18.451   3.334  13.382  0.00  0.00    -0.036 A 
ATOM     26  C29 <0> d   1      17.158   3.822  13.394  0.00  0.00     0.009 A 
ATOM     27  C28 <0> d   1      16.935   5.184  13.457  0.00  0.00     0.001 A 
ATOM     28  C27 <0> d   1      18.004   6.059  13.501  0.00  0.00     0.000 A 
ATOM     29  C26 <0> d   1      19.297   5.571  13.485  0.00  0.00     0.001 A 
ATOM     30  C25 <0> d   1      19.521   4.209  13.425  0.00  0.00     0.009 A 
ENDBRANCH   1  25
BRANCH   1  31
ATOM     31  C30 <0> d   1      18.416   1.235  14.666  0.00  0.00    -0.036 A 
ATOM     32  C35 <0> d   1      17.377   0.334  14.815  0.00  0.00     0.009 A 
ATOM     33  C34 <0> d   1      17.124  -0.231  16.051  0.00  0.00     0.001 A 
ATOM     34  C33 <0> d   1      17.904   0.112  17.140  0.00  0.00     0.000 A 
ATOM     35  C32 <0> d   1      18.938   1.016  16.993  0.00  0.00     0.001 A 
ATOM     36  C31 <0> d   1      19.194   1.578  15.757  0.00  0.00     0.009 A 
ENDBRANCH   1  31
TORSDOF 8
ENDMDL
MODEL 9
REMARK VINA RESULT:      -7.7      6.035     12.130
REMARK  8 active torsions:
REMARK  status: ('A' for Active; 'I' for Inactive)
REMARK       I    between atoms: N2_2  and  C4_4 
REMARK    1  A    between atoms: C4_4  and  C6_6 
REMARK    2  A    between atoms: C6_6  and  C7_7 
REMARK    3  A    between atoms: C6_6  and  C24_24 
REMARK    4  A    between atoms: C6_6  and  C30_30 
REMARK    5  A    between atoms: C7_7  and  C8_8 
REMARK    6  A    between atoms: C8_8  and  N9_9 
REMARK    7  A    between atoms: C13_13  and  O14_14 
REMARK    8  A    between atoms: C13_13  and  C15_15 
ROOT
ATOM      1  C6  <0> d   1      16.518  -6.893   5.990  0.00  0.00     0.096 C 
ENDROOT
BRANCH   1   2
ATOM      2  C4  <0> d   1      16.957  -8.289   5.628  0.00  0.00     0.237 C 
ATOM      3  N2  <0> d   1      17.213  -9.187   6.600  0.00  0.00    -0.360 N 
ATOM      4  C1  <0> d   1      17.751 -10.506   6.254  0.00  0.00     0.152 C 
ATOM      5  C3  <0> d   1      16.953  -8.846   8.000  0.00  0.00     0.152 C 
ATOM      6  O5  <0> d   1      17.080  -8.603   4.463  0.00  0.00    -0.272 OA
ENDBRANCH   1   2
BRANCH   1   7
ATOM      7  C7  <0> d   1      17.460  -6.321   7.051  0.00  0.00     0.057 C 
BRANCH   7   8
ATOM      8  C8  <0> d   1      17.769  -4.858   6.726  0.00  0.00     0.236 C 
BRANCH   8   9
ATOM      9  N9  <0> d   1      17.607  -4.043   7.937  0.00  0.00    -0.071 N 
ATOM     10  H10 <0> d   1      16.656  -3.711   7.994  0.00  0.00     0.279 HD
ATOM     11  C23 <0> d   1      17.911  -4.859   9.118  0.00  0.00     0.238 C 
ATOM     12  C22 <0> d   1      17.666  -4.038  10.387  0.00  0.00     0.071 C 
ATOM     13  C13 <0> d   1      18.572  -2.804  10.371  0.00  0.00     0.088 C 
ATOM     14  C12 <0> d   1      18.301  -1.999   9.097  0.00  0.00     0.071 C 
ATOM     15  C11 <0> d   1      18.521  -2.895   7.877  0.00  0.00     0.238 C 
BRANCH  13  16
ATOM     16  O14 <0> d   1      19.940  -3.215  10.393  0.00  0.00    -0.385 OA
ATOM     17  H50 <0> d   1      20.495  -2.767   9.738  0.00  0.00     0.211 HD
ENDBRANCH  13  16
BRANCH  13  18
ATOM     18  C15 <0> d   1      18.283  -1.949  11.578  0.00  0.00    -0.024 A 
ATOM     19  C21 <0> d   1      18.914  -2.214  12.779  0.00  0.00     0.012 A 
ATOM     20  C20 <0> d   1      18.653  -1.427  13.885  0.00  0.00     0.024 A 
ATOM     21  C18 <0> d   1      17.752  -0.382  13.793  0.00  0.00     0.034 A 
ATOM     22  C17 <0> d   1      17.117  -0.120  12.592  0.00  0.00     0.024 A 
ATOM     23 Cl19 <0> d   1      17.419   0.602  15.184  0.00  0.00    -0.084 Cl
ATOM     24  C16 <0> d   1      17.382  -0.905  11.486  0.00  0.00     0.012 A 
ENDBRANCH  13  18
ENDBRANCH   8   9
ENDBRANCH   7   8
ENDBRANCH   1   7
BRANCH   1  25
ATOM     25  C24 <0> d   1      16.557  -6.021   4.761  0.00  0.00    -0.036 A 
ATOM     26  C29 <0> d   1      17.743  -5.850   4.072  0.00  0.00     0.009 A 
ATOM     27  C28 <0> d   1      17.777  -5.054   2.943  0.00  0.00     0.001 A 
ATOM     28  C27 <0> d   1      16.628  -4.423   2.507  0.00  0.00     0.000 A 
ATOM     29  C26 <0> d   1      15.443  -4.590   3.198  0.00  0.00     0.001 A 
ATOM     30  C25 <0> d   1      15.407  -5.389   4.326  0.00  0.00     0.009 A 
ENDBRANCH   1  25
BRANCH   1  31
ATOM     31  C30 <0> d   1      15.114  -6.934   6.533  0.00  0.00    -0.036 A 
ATOM     32  C35 <0> d   1      14.171  -7.763   5.953  0.00  0.00     0.009 A 
ATOM     33  C34 <0> d   1      12.884  -7.803   6.455  0.00  0.00     0.001 A 
ATOM     34  C33 <0> d   1      12.536  -7.006   7.530  0.00  0.00     0.000 A 
ATOM     35  C32 <0> d   1      13.476  -6.173   8.106  0.00  0.00     0.001 A 
ATOM     36  C31 <0> d   1      14.765  -6.136   7.607  0.00  0.00     0.009 A 
ENDBRANCH   1  31
TORSDOF 8
ENDMDL
