MODEL 1
REMARK VINA RESULT:      -7.6      0.000      0.000
REMARK  9 active torsions:
REMARK  status: ('A' for Active; 'I' for Inactive)
REMARK    1  A    between atoms: C2_2  and  C4_3 
REMARK    2  A    between atoms: C2_2  and  N12_11 
REMARK    3  A    between atoms: C4_3  and  C5_4 
REMARK    4  A    between atoms: C5_4  and  C6_5 
REMARK    5  A    between atoms: N12_11  and  C15_14 
REMARK    6  A    between atoms: C15_14  and  C16_15 
REMARK    7  A    between atoms: C16_15  and  O18_16 
REMARK    8  A    between atoms: C16_15  and  C19_17 
REMARK    9  A    between atoms: C24_22  and  C25_23 
REMARK       I    between atoms: C25_23  and  N26_24 
ROOT
ATOM      1  C16 ZIN A   1      20.682  -0.218  11.031  0.00  0.00     0.176 C 
ENDROOT
BRANCH   1   2
ATOM      2  C15 ZIN A   1      20.610   0.646  12.290  0.00  0.00     0.269 C 
BRANCH   2   3
ATOM      3  N12 ZIN A   1      20.549   2.064  11.909  0.00  0.00    -0.069 N 
ATOM      4  H13 ZIN A   1      20.607   2.146  10.906  0.00  0.00     0.277 HD
ATOM      5  H14 ZIN A   1      21.321   2.559  12.333  0.00  0.00     0.277 HD
BRANCH   3   6
ATOM      6  C2  ZIN A   1      19.282   2.642  12.376  0.00  0.00     0.182 C 
ATOM      7  C1  ZIN A   1      18.781   1.858  13.590  0.00  0.00     0.040 C 
BRANCH   6   8
ATOM      8  C4  ZIN A   1      18.243   2.566  11.256  0.00  0.00     0.037 C 
BRANCH   8   9
ATOM      9  C5  ZIN A   1      18.924   2.827   9.911  0.00  0.00     0.040 C 
BRANCH   9  10
ATOM     10  C6  ZIN A   1      18.532   1.751   8.931  0.00  0.00    -0.058 A 
ATOM     11  C11 ZIN A   1      17.566   0.824   9.273  0.00  0.00     0.007 A 
ATOM     12  C10 ZIN A   1      17.203  -0.161   8.373  0.00  0.00     0.001 A 
ATOM     13  C9  ZIN A   1      17.813  -0.224   7.134  0.00  0.00     0.000 A 
ATOM     14  C8  ZIN A   1      18.783   0.700   6.795  0.00  0.00     0.001 A 
ATOM     15  C7  ZIN A   1      19.144   1.688   7.693  0.00  0.00     0.007 A 
ENDBRANCH   9  10
ENDBRANCH   8   9
ENDBRANCH   6   8
ENDBRANCH   3   6
ENDBRANCH   2   3
ENDBRANCH   1   2
BRANCH   1  16
ATOM     16  O18 ZIN A   1      21.977  -0.816  10.937  0.00  0.00    -0.389 OA
ATOM     17  H43 ZIN A   1      22.686  -0.279  11.315  0.00  0.00     0.210 HD
ENDBRANCH   1  16
BRANCH   1  18
ATOM     18  C19 ZIN A   1      19.633  -1.298  11.101  0.00  0.00    -0.027 A 
ATOM     19  C28 ZIN A   1      19.482  -2.176  10.049  0.00  0.00     0.029 A 
ATOM     20  C24 ZIN A   1      18.514  -3.180  10.115  0.00  0.00     0.068 A 
ATOM     21  C22 ZIN A   1      17.695  -3.280  11.249  0.00  0.00     0.122 A 
ATOM     22  C21 ZIN A   1      17.858  -2.385  12.296  0.00  0.00     0.041 A 
ATOM     23  O23 ZIN A   1      16.748  -4.248  11.323  0.00  0.00    -0.191 OA
ATOM     24  C20 ZIN A   1      18.822  -1.399  12.219  0.00  0.00     0.012 A 
BRANCH  20  25
ATOM     25  C25 ZIN A   1      18.349  -4.128   8.996  0.00  0.00     0.252 C 
ATOM     26  N26 ZIN A   1      17.205  -4.137   8.284  0.00  0.00    -0.366 N 
ATOM     27  H46 ZIN A   1      16.490  -3.520   8.508  0.00  0.00     0.159 HD
ATOM     28  H47 ZIN A   1      17.096  -4.758   7.548  0.00  0.00     0.159 HD
ATOM     29  O27 ZIN A   1      19.245  -4.900   8.717  0.00  0.00    -0.268 OA
ENDBRANCH  20  25
ENDBRANCH   1  18
TORSDOF 9
ENDMDL
MODEL 2
REMARK VINA RESULT:      -7.4      2.142      4.438
REMARK  9 active torsions:
REMARK  status: ('A' for Active; 'I' for Inactive)
REMARK    1  A    between atoms: C2_2  and  C4_3 
REMARK    2  A    between atoms: C2_2  and  N12_11 
REMARK    3  A    between atoms: C4_3  and  C5_4 
REMARK    4  A    between atoms: C5_4  and  C6_5 
REMARK    5  A    between atoms: N12_11  and  C15_14 
REMARK    6  A    between atoms: C15_14  and  C16_15 
REMARK    7  A    between atoms: C16_15  and  O18_16 
REMARK    8  A    between atoms: C16_15  and  C19_17 
REMARK    9  A    between atoms: C24_22  and  C25_23 
REMARK       I    between atoms: C25_23  and  N26_24 
ROOT
ATOM      1  C16 ZIN A   1      19.911   1.603  11.633  0.00  0.00     0.176 C 
ENDROOT
BRANCH   1   2
ATOM      2  C15 ZIN A   1      20.890   0.528  12.108  0.00  0.00     0.269 C 
BRANCH   2   3
ATOM      3  N12 ZIN A   1      20.702   0.294  13.546  0.00  0.00    -0.069 N 
ATOM      4  H13 ZIN A   1      21.180   1.012  14.069  0.00  0.00     0.277 HD
ATOM      5  H14 ZIN A   1      21.081  -0.609  13.792  0.00  0.00     0.277 HD
BRANCH   3   6
ATOM      6  C2  ZIN A   1      19.269   0.327  13.864  0.00  0.00     0.182 C 
ATOM      7  C1  ZIN A   1      19.060   1.042  15.201  0.00  0.00     0.040 C 
BRANCH   6   8
ATOM      8  C4  ZIN A   1      18.736  -1.103  13.963  0.00  0.00     0.037 C 
BRANCH   8   9
ATOM      9  C5  ZIN A   1      17.782  -1.373  12.796  0.00  0.00     0.040 C 
BRANCH   9  10
ATOM     10  C6  ZIN A   1      18.271  -2.563  12.012  0.00  0.00    -0.058 A 
ATOM     11  C11 ZIN A   1      19.594  -2.953  12.100  0.00  0.00     0.007 A 
ATOM     12  C10 ZIN A   1      20.042  -4.047  11.384  0.00  0.00     0.001 A 
ATOM     13  C9  ZIN A   1      19.168  -4.747  10.573  0.00  0.00     0.000 A 
ATOM     14  C8  ZIN A   1      17.846  -4.354  10.481  0.00  0.00     0.001 A 
ATOM     15  C7  ZIN A   1      17.397  -3.262  11.200  0.00  0.00     0.007 A 
ENDBRANCH   9  10
ENDBRANCH   8   9
ENDBRANCH   6   8
ENDBRANCH   3   6
ENDBRANCH   2   3
ENDBRANCH   1   2
BRANCH   1  16
ATOM     16  O18 ZIN A   1      20.545   2.883  11.689  0.00  0.00    -0.389 OA
ATOM     17  H43 ZIN A   1      19.927   3.627  11.702  0.00  0.00     0.210 HD
ENDBRANCH   1  16
BRANCH   1  18
ATOM     18  C19 ZIN A   1      19.492   1.311  10.215  0.00  0.00    -0.027 A 
ATOM     19  C28 ZIN A   1      19.362   0.005   9.793  0.00  0.00     0.029 A 
ATOM     20  C24 ZIN A   1      18.969  -0.267   8.481  0.00  0.00     0.068 A 
ATOM     21  C22 ZIN A   1      18.720   0.794   7.599  0.00  0.00     0.122 A 
ATOM     22  C21 ZIN A   1      18.861   2.102   8.039  0.00  0.00     0.041 A 
ATOM     23  O23 ZIN A   1      18.343   0.543   6.321  0.00  0.00    -0.191 OA
ATOM     24  C20 ZIN A   1      19.246   2.356   9.340  0.00  0.00     0.012 A 
BRANCH  20  25
ATOM     25  C25 ZIN A   1      18.821  -1.662   8.024  0.00  0.00     0.252 C 
ATOM     26  N26 ZIN A   1      17.609  -2.128   7.663  0.00  0.00    -0.366 N 
ATOM     27  H46 ZIN A   1      16.834  -1.546   7.706  0.00  0.00     0.159 HD
ATOM     28  H47 ZIN A   1      17.511  -3.044   7.363  0.00  0.00     0.159 HD
ATOM     29  O27 ZIN A   1      19.792  -2.390   7.971  0.00  0.00    -0.268 OA
ENDBRANCH  20  25
ENDBRANCH   1  18
TORSDOF 9
ENDMDL
MODEL 3
REMARK VINA RESULT:      -7.4      3.322      5.421
REMARK  9 active torsions:
REMARK  status: ('A' for Active; 'I' for Inactive)
REMARK    1  A    between atoms: C2_2  and  C4_3 
REMARK    2  A    between atoms: C2_2  and  N12_11 
REMARK    3  A    between atoms: C4_3  and  C5_4 
REMARK    4  A    between atoms: C5_4  and  C6_5 
REMARK    5  A    between atoms: N12_11  and  C15_14 
REMARK    6  A    between atoms: C15_14  and  C16_15 
REMARK    7  A    between atoms: C16_15  and  O18_16 
REMARK    8  A    between atoms: C16_15  and  C19_17 
REMARK    9  A    between atoms: C24_22  and  C25_23 
REMARK       I    between atoms: C25_23  and  N26_24 
ROOT
ATOM      1  C16 ZIN A   1      19.929   0.414  12.765  0.00  0.00     0.176 C 
ENDROOT
BRANCH   1   2
ATOM      2  C15 ZIN A   1      19.378   1.753  12.273  0.00  0.00     0.269 C 
BRANCH   2   3
ATOM      3  N12 ZIN A   1      20.065   2.140  11.033  0.00  0.00    -0.069 N 
ATOM      4  H13 ZIN A   1      20.481   1.324  10.610  0.00  0.00     0.277 HD
ATOM      5  H14 ZIN A   1      20.787   2.814  11.246  0.00  0.00     0.277 HD
BRANCH   3   6
ATOM      6  C2  ZIN A   1      19.098   2.736  10.103  0.00  0.00     0.182 C 
ATOM      7  C1  ZIN A   1      17.677   2.466  10.602  0.00  0.00     0.040 C 
BRANCH   6   8
ATOM      8  C4  ZIN A   1      19.277   2.117   8.715  0.00  0.00     0.037 C 
BRANCH   8   9
ATOM      9  C5  ZIN A   1      18.585   0.752   8.674  0.00  0.00     0.040 C 
BRANCH   9  10
ATOM     10  C6  ZIN A   1      18.833   0.104   7.336  0.00  0.00    -0.058 A 
ATOM     11  C11 ZIN A   1      18.976  -1.268   7.248  0.00  0.00     0.007 A 
ATOM     12  C10 ZIN A   1      19.199  -1.863   6.020  0.00  0.00     0.001 A 
ATOM     13  C9  ZIN A   1      19.289  -1.084   4.881  0.00  0.00     0.000 A 
ATOM     14  C8  ZIN A   1      19.150   0.288   4.970  0.00  0.00     0.001 A 
ATOM     15  C7  ZIN A   1      18.923   0.883   6.197  0.00  0.00     0.007 A 
ENDBRANCH   9  10
ENDBRANCH   8   9
ENDBRANCH   6   8
ENDBRANCH   3   6
ENDBRANCH   2   3
ENDBRANCH   1   2
BRANCH   1  16
ATOM     16  O18 ZIN A   1      21.354   0.417  12.659  0.00  0.00    -0.389 OA
ATOM     17  H43 ZIN A   1      21.715  -0.348  12.190  0.00  0.00     0.210 HD
ENDBRANCH   1  16
BRANCH   1  18
ATOM     18  C19 ZIN A   1      19.532   0.205  14.204  0.00  0.00    -0.027 A 
ATOM     19  C28 ZIN A   1      19.390   1.291  15.041  0.00  0.00     0.029 A 
ATOM     20  C24 ZIN A   1      19.018   1.099  16.373  0.00  0.00     0.068 A 
ATOM     21  C22 ZIN A   1      18.803  -0.201  16.851  0.00  0.00     0.122 A 
ATOM     22  C21 ZIN A   1      18.955  -1.282  15.997  0.00  0.00     0.041 A 
ATOM     23  O23 ZIN A   1      18.446  -0.400  18.145  0.00  0.00    -0.191 OA
ATOM     24  C20 ZIN A   1      19.319  -1.078  14.681  0.00  0.00     0.012 A 
BRANCH  20  25
ATOM     25  C25 ZIN A   1      18.857   2.257  17.273  0.00  0.00     0.252 C 
ATOM     26  N26 ZIN A   1      17.683   2.464  17.901  0.00  0.00    -0.366 N 
ATOM     27  H46 ZIN A   1      16.943   1.852  17.760  0.00  0.00     0.159 HD
ATOM     28  H47 ZIN A   1      17.576   3.224  18.493  0.00  0.00     0.159 HD
ATOM     29  O27 ZIN A   1      19.784   3.023  17.449  0.00  0.00    -0.268 OA
ENDBRANCH  20  25
ENDBRANCH   1  18
TORSDOF 9
ENDMDL
MODEL 4
REMARK VINA RESULT:      -7.2      2.163      4.769
REMARK  9 active torsions:
REMARK  status: ('A' for Active; 'I' for Inactive)
REMARK    1  A    between atoms: C2_2  and  C4_3 
REMARK    2  A    between atoms: C2_2  and  N12_11 
REMARK    3  A    between atoms: C4_3  and  C5_4 
REMARK    4  A    between atoms: C5_4  and  C6_5 
REMARK    5  A    between atoms: N12_11  and  C15_14 
REMARK    6  A    between atoms: C15_14  and  C16_15 
REMARK    7  A    between atoms: C16_15  and  O18_16 
REMARK    8  A    between atoms: C16_15  and  C19_17 
REMARK    9  A    between atoms: C24_22  and  C25_23 
REMARK       I    between atoms: C25_23  and  N26_24 
ROOT
ATOM      1  C16 ZIN A   1      18.759   1.561   8.626  0.00  0.00     0.176 C 
ENDROOT
BRANCH   1   2
ATOM      2  C15 ZIN A   1      17.753   0.987   9.625  0.00  0.00     0.269 C 
BRANCH   2   3
ATOM      3  N12 ZIN A   1      17.574   1.930  10.737  0.00  0.00    -0.069 N 
ATOM      4  H13 ZIN A   1      16.718   2.447  10.605  0.00  0.00     0.277 HD
ATOM      5  H14 ZIN A   1      18.353   2.572  10.762  0.00  0.00     0.277 HD
BRANCH   3   6
ATOM      6  C2  ZIN A   1      17.510   1.188  12.003  0.00  0.00     0.182 C 
ATOM      7  C1  ZIN A   1      18.885   1.208  12.674  0.00  0.00     0.040 C 
BRANCH   6   8
ATOM      8  C4  ZIN A   1      17.099  -0.259  11.725  0.00  0.00     0.037 C 
BRANCH   8   9
ATOM      9  C5  ZIN A   1      17.790  -1.186  12.728  0.00  0.00     0.040 C 
BRANCH   9  10
ATOM     10  C6  ZIN A   1      18.299  -2.411  12.012  0.00  0.00    -0.058 A 
ATOM     11  C11 ZIN A   1      17.430  -3.193  11.276  0.00  0.00     0.007 A 
ATOM     12  C10 ZIN A   1      17.897  -4.314  10.616  0.00  0.00     0.001 A 
ATOM     13  C9  ZIN A   1      19.234  -4.658  10.699  0.00  0.00     0.000 A 
ATOM     14  C8  ZIN A   1      20.102  -3.878  11.439  0.00  0.00     0.001 A 
ATOM     15  C7  ZIN A   1      19.636  -2.755  12.097  0.00  0.00     0.007 A 
ENDBRANCH   9  10
ENDBRANCH   8   9
ENDBRANCH   6   8
ENDBRANCH   3   6
ENDBRANCH   2   3
ENDBRANCH   1   2
BRANCH   1  16
ATOM     16  O18 ZIN A   1      20.006   1.791   9.284  0.00  0.00    -0.389 OA
ATOM     17  H43 ZIN A   1      20.543   0.994   9.399  0.00  0.00     0.210 HD
ENDBRANCH   1  16
BRANCH   1  18
ATOM     18  C19 ZIN A   1      18.960   0.584   7.496  0.00  0.00    -0.027 A 
ATOM     19  C28 ZIN A   1      18.997  -0.769   7.758  0.00  0.00     0.029 A 
ATOM     20  C24 ZIN A   1      19.179  -1.676   6.711  0.00  0.00     0.068 A 
ATOM     21  C22 ZIN A   1      19.332  -1.200   5.402  0.00  0.00     0.122 A 
ATOM     22  C21 ZIN A   1      19.297   0.164   5.157  0.00  0.00     0.041 A 
ATOM     23  O23 ZIN A   1      19.514  -2.071   4.377  0.00  0.00    -0.191 OA
ATOM     24  C20 ZIN A   1      19.112   1.049   6.201  0.00  0.00     0.012 A 
BRANCH  20  25
ATOM     25  C25 ZIN A   1      19.214  -3.126   6.983  0.00  0.00     0.252 C 
ATOM     26  N26 ZIN A   1      20.388  -3.788   6.953  0.00  0.00    -0.366 N 
ATOM     27  H46 ZIN A   1      21.208  -3.311   6.752  0.00  0.00     0.159 HD
ATOM     28  H47 ZIN A   1      20.412  -4.740   7.131  0.00  0.00     0.159 HD
ATOM     29  O27 ZIN A   1      18.186  -3.722   7.234  0.00  0.00    -0.268 OA
ENDBRANCH  20  25
ENDBRANCH   1  18
TORSDOF 9
ENDMDL
MODEL 5
REMARK VINA RESULT:      -7.2      3.322      6.248
REMARK  9 active torsions:
REMARK  status: ('A' for Active; 'I' for Inactive)
REMARK    1  A    between atoms: C2_2  and  C4_3 
REMARK    2  A    between atoms: C2_2  and  N12_11 
REMARK    3  A    between atoms: C4_3  and  C5_4 
REMARK    4  A    between atoms: C5_4  and  C6_5 
REMARK    5  A    between atoms: N12_11  and  C15_14 
REMARK    6  A    between atoms: C15_14  and  C16_15 
REMARK    7  A    between atoms: C16_15  and  O18_16 
REMARK    8  A    between atoms: C16_15  and  C19_17 
REMARK    9  A    between atoms: C24_22  and  C25_23 
REMARK       I    between atoms: C25_23  and  N26_24 
ROOT
ATOM      1  C16 ZIN A   1      20.212  -0.075  12.446  0.00  0.00     0.176 C 
ENDROOT
BRANCH   1   2
ATOM      2  C15 ZIN A   1      19.162   0.491  11.490  0.00  0.00     0.269 C 
BRANCH   2   3
ATOM      3  N12 ZIN A   1      19.821   1.324  10.475  0.00  0.00    -0.069 N 
ATOM      4  H13 ZIN A   1      20.457   0.757   9.935  0.00  0.00     0.277 HD
ATOM      5  H14 ZIN A   1      20.334   2.065  10.930  0.00  0.00     0.277 HD
BRANCH   3   6
ATOM      6  C2  ZIN A   1      18.807   1.907   9.586  0.00  0.00     0.182 C 
ATOM      7  C1  ZIN A   1      19.267   1.774   8.133  0.00  0.00     0.040 C 
BRANCH   6   8
ATOM      8  C4  ZIN A   1      18.620   3.387   9.928  0.00  0.00     0.037 C 
BRANCH   8   9
ATOM      9  C5  ZIN A   1      17.440   3.542  10.890  0.00  0.00     0.040 C 
BRANCH   9  10
ATOM     10  C6  ZIN A   1      17.876   4.333  12.096  0.00  0.00    -0.058 A 
ATOM     11  C11 ZIN A   1      16.944   5.032  12.839  0.00  0.00     0.007 A 
ATOM     12  C10 ZIN A   1      17.344   5.753  13.949  0.00  0.00     0.001 A 
ATOM     13  C9  ZIN A   1      18.678   5.783  14.309  0.00  0.00     0.000 A 
ATOM     14  C8  ZIN A   1      19.611   5.088  13.563  0.00  0.00     0.001 A 
ATOM     15  C7  ZIN A   1      19.211   4.363  12.456  0.00  0.00     0.007 A 
ENDBRANCH   9  10
ENDBRANCH   8   9
ENDBRANCH   6   8
ENDBRANCH   3   6
ENDBRANCH   2   3
ENDBRANCH   1   2
BRANCH   1  16
ATOM     16  O18 ZIN A   1      21.429   0.663  12.309  0.00  0.00    -0.389 OA
ATOM     17  H43 ZIN A   1      22.217   0.108  12.229  0.00  0.00     0.210 HD
ENDBRANCH   1  16
BRANCH   1  18
ATOM     18  C19 ZIN A   1      19.714   0.037  13.864  0.00  0.00    -0.027 A 
ATOM     19  C28 ZIN A   1      19.635   1.274  14.468  0.00  0.00     0.029 A 
ATOM     20  C24 ZIN A   1      19.170   1.379  15.780  0.00  0.00     0.068 A 
ATOM     21  C22 ZIN A   1      18.795   0.222  16.477  0.00  0.00     0.122 A 
ATOM     22  C21 ZIN A   1      18.885  -1.015  15.856  0.00  0.00     0.041 A 
ATOM     23  O23 ZIN A   1      18.346   0.311  17.754  0.00  0.00    -0.191 OA
ATOM     24  C20 ZIN A   1      19.344  -1.104  14.557  0.00  0.00     0.012 A 
BRANCH  20  25
ATOM     25  C25 ZIN A   1      19.077   2.700  16.431  0.00  0.00     0.252 C 
ATOM     26  N26 ZIN A   1      17.878   3.176  16.821  0.00  0.00    -0.366 N 
ATOM     27  H46 ZIN A   1      17.076   2.650  16.673  0.00  0.00     0.159 HD
ATOM     28  H47 ZIN A   1      17.816   4.043  17.249  0.00  0.00     0.159 HD
ATOM     29  O27 ZIN A   1      20.082   3.358  16.617  0.00  0.00    -0.268 OA
ENDBRANCH  20  25
ENDBRANCH   1  18
TORSDOF 9
ENDMDL
MODEL 6
REMARK VINA RESULT:      -7.2      2.590      5.175
REMARK  9 active torsions:
REMARK  status: ('A' for Active; 'I' for Inactive)
REMARK    1  A    between atoms: C2_2  and  C4_3 
REMARK    2  A    between atoms: C2_2  and  N12_11 
REMARK    3  A    between atoms: C4_3  and  C5_4 
REMARK    4  A    between atoms: C5_4  and  C6_5 
REMARK    5  A    between atoms: N12_11  and  C15_14 
REMARK    6  A    between atoms: C15_14  and  C16_15 
REMARK    7  A    between atoms: C16_15  and  O18_16 
REMARK    8  A    between atoms: C16_15  and  C19_17 
REMARK    9  A    between atoms: C24_22  and  C25_23 
REMARK       I    between atoms: C25_23  and  N26_24 
ROOT
ATOM      1  C16 ZIN A   1      19.531  -2.971  11.738  0.00  0.00     0.176 C 
ENDROOT
BRANCH   1   2
ATOM      2  C15 ZIN A   1      18.613  -2.807  10.526  0.00  0.00     0.269 C 
BRANCH   2   3
ATOM      3  N12 ZIN A   1      19.419  -2.469   9.344  0.00  0.00    -0.069 N 
ATOM      4  H13 ZIN A   1      20.126  -3.174   9.206  0.00  0.00     0.277 HD
ATOM      5  H14 ZIN A   1      19.860  -1.572   9.485  0.00  0.00     0.277 HD
BRANCH   3   6
ATOM      6  C2  ZIN A   1      18.550  -2.406   8.161  0.00  0.00     0.182 C 
ATOM      7  C1  ZIN A   1      19.383  -2.666   6.904  0.00  0.00     0.040 C 
BRANCH   6   8
ATOM      8  C4  ZIN A   1      17.911  -1.019   8.071  0.00  0.00     0.037 C 
BRANCH   8   9
ATOM      9  C5  ZIN A   1      18.991   0.052   8.240  0.00  0.00     0.040 C 
BRANCH   9  10
ATOM     10  C6  ZIN A   1      18.568   1.027   9.309  0.00  0.00    -0.058 A 
ATOM     11  C11 ZIN A   1      19.165   2.271   9.386  0.00  0.00     0.007 A 
ATOM     12  C10 ZIN A   1      18.775   3.167  10.363  0.00  0.00     0.001 A 
ATOM     13  C9  ZIN A   1      17.793   2.815  11.270  0.00  0.00     0.000 A 
ATOM     14  C8  ZIN A   1      17.199   1.569  11.196  0.00  0.00     0.001 A 
ATOM     15  C7  ZIN A   1      17.586   0.674  10.216  0.00  0.00     0.007 A 
ENDBRANCH   9  10
ENDBRANCH   8   9
ENDBRANCH   6   8
ENDBRANCH   3   6
ENDBRANCH   2   3
ENDBRANCH   1   2
BRANCH   1  16
ATOM     16  O18 ZIN A   1      20.872  -3.189  11.296  0.00  0.00    -0.389 OA
ATOM     17  H43 ZIN A   1      21.430  -2.400  11.330  0.00  0.00     0.210 HD
ENDBRANCH   1  16
BRANCH   1  18
ATOM     18  C19 ZIN A   1      19.477  -1.723  12.582  0.00  0.00    -0.027 A 
ATOM     19  C28 ZIN A   1      18.684  -1.690  13.709  0.00  0.00     0.029 A 
ATOM     20  C24 ZIN A   1      18.637  -0.536  14.494  0.00  0.00     0.068 A 
ATOM     21  C22 ZIN A   1      19.391   0.586  14.122  0.00  0.00     0.122 A 
ATOM     22  C21 ZIN A   1      20.179   0.537  12.982  0.00  0.00     0.041 A 
ATOM     23  O23 ZIN A   1      19.350   1.714  14.873  0.00  0.00    -0.191 OA
ATOM     24  C20 ZIN A   1      20.219  -0.612  12.218  0.00  0.00     0.012 A 
BRANCH  20  25
ATOM     25  C25 ZIN A   1      17.795  -0.496  15.705  0.00  0.00     0.252 C 
ATOM     26  N26 ZIN A   1      16.922   0.515  15.884  0.00  0.00    -0.366 N 
ATOM     27  H46 ZIN A   1      16.848   1.216  15.217  0.00  0.00     0.159 HD
ATOM     28  H47 ZIN A   1      16.368   0.543  16.679  0.00  0.00     0.159 HD
ATOM     29  O27 ZIN A   1      17.888  -1.373  16.540  0.00  0.00    -0.268 OA
ENDBRANCH  20  25
ENDBRANCH   1  18
TORSDOF 9
ENDMDL
MODEL 7
REMARK VINA RESULT:      -7.2      1.750      2.373
REMARK  9 active torsions:
REMARK  status: ('A' for Active; 'I' for Inactive)
REMARK    1  A    between atoms: C2_2  and  C4_3 
REMARK    2  A    between atoms: C2_2  and  N12_11 
REMARK    3  A    between atoms: C4_3  and  C5_4 
REMARK    4  A    between atoms: C5_4  and  C6_5 
REMARK    5  A    between atoms: N12_11  and  C15_14 
REMARK    6  A    between atoms: C15_14  and  C16_15 
REMARK    7  A    between atoms: C16_15  and  O18_16 
REMARK    8  A    between atoms: C16_15  and  C19_17 
REMARK    9  A    between atoms: C24_22  and  C25_23 
REMARK       I    between atoms: C25_23  and  N26_24 
ROOT
ATOM      1  C16 ZIN A   1      17.439  -0.348  12.570  0.00  0.00     0.176 C 
ENDROOT
BRANCH   1   2
ATOM      2  C15 ZIN A   1      18.446   0.803  12.536  0.00  0.00     0.269 C 
BRANCH   2   3
ATOM      3  N12 ZIN A   1      17.729   2.078  12.399  0.00  0.00    -0.069 N 
ATOM      4  H13 ZIN A   1      17.656   2.521  13.303  0.00  0.00     0.277 HD
ATOM      5  H14 ZIN A   1      16.804   1.906  12.032  0.00  0.00     0.277 HD
BRANCH   3   6
ATOM      6  C2  ZIN A   1      18.464   2.957  11.480  0.00  0.00     0.182 C 
ATOM      7  C1  ZIN A   1      17.470   3.776  10.654  0.00  0.00     0.040 C 
BRANCH   6   8
ATOM      8  C4  ZIN A   1      19.327   2.108  10.544  0.00  0.00     0.037 C 
BRANCH   8   9
ATOM      9  C5  ZIN A   1      18.974   2.433   9.091  0.00  0.00     0.040 C 
BRANCH   9  10
ATOM     10  C6  ZIN A   1      19.032   1.173   8.266  0.00  0.00    -0.058 A 
ATOM     11  C11 ZIN A   1      19.302  -0.039   8.873  0.00  0.00     0.007 A 
ATOM     12  C10 ZIN A   1      19.350  -1.195   8.117  0.00  0.00     0.001 A 
ATOM     13  C9  ZIN A   1      19.138  -1.138   6.752  0.00  0.00     0.000 A 
ATOM     14  C8  ZIN A   1      18.873   0.075   6.145  0.00  0.00     0.001 A 
ATOM     15  C7  ZIN A   1      18.820   1.231   6.901  0.00  0.00     0.007 A 
ENDBRANCH   9  10
ENDBRANCH   8   9
ENDBRANCH   6   8
ENDBRANCH   3   6
ENDBRANCH   2   3
ENDBRANCH   1   2
BRANCH   1  16
ATOM     16  O18 ZIN A   1      16.278   0.013  11.818  0.00  0.00    -0.389 OA
ATOM     17  H43 ZIN A   1      15.632  -0.701  11.727  0.00  0.00     0.210 HD
ENDBRANCH   1  16
BRANCH   1  18
ATOM     18  C19 ZIN A   1      18.063  -1.582  11.970  0.00  0.00    -0.027 A 
ATOM     19  C28 ZIN A   1      17.326  -2.381  11.123  0.00  0.00     0.029 A 
ATOM     20  C24 ZIN A   1      17.905  -3.521  10.563  0.00  0.00     0.068 A 
ATOM     21  C22 ZIN A   1      19.231  -3.850  10.876  0.00  0.00     0.122 A 
ATOM     22  C21 ZIN A   1      19.957  -3.037  11.734  0.00  0.00     0.041 A 
ATOM     23  O23 ZIN A   1      19.803  -4.958  10.342  0.00  0.00    -0.191 OA
ATOM     24  C20 ZIN A   1      19.373  -1.910  12.277  0.00  0.00     0.012 A 
BRANCH  20  25
ATOM     25  C25 ZIN A   1      17.124  -4.379   9.651  0.00  0.00     0.252 C 
ATOM     26  N26 ZIN A   1      17.330  -4.311   8.321  0.00  0.00    -0.366 N 
ATOM     27  H46 ZIN A   1      17.990  -3.697   7.964  0.00  0.00     0.159 HD
ATOM     28  H47 ZIN A   1      16.818  -4.874   7.721  0.00  0.00     0.159 HD
ATOM     29  O27 ZIN A   1      16.297  -5.148  10.099  0.00  0.00    -0.268 OA
ENDBRANCH  20  25
ENDBRANCH   1  18
TORSDOF 9
ENDMDL
MODEL 8
REMARK VINA RESULT:      -7.1      2.355      5.017
REMARK  9 active torsions:
REMARK  status: ('A' for Active; 'I' for Inactive)
REMARK    1  A    between atoms: C2_2  and  C4_3 
REMARK    2  A    between atoms: C2_2  and  N12_11 
REMARK    3  A    between atoms: C4_3  and  C5_4 
REMARK    4  A    between atoms: C5_4  and  C6_5 
REMARK    5  A    between atoms: N12_11  and  C15_14 
REMARK    6  A    between atoms: C15_14  and  C16_15 
REMARK    7  A    between atoms: C16_15  and  O18_16 
REMARK    8  A    between atoms: C16_15  and  C19_17 
REMARK    9  A    between atoms: C24_22  and  C25_23 
REMARK       I    between atoms: C25_23  and  N26_24 
ROOT
ATOM      1  C16 ZIN A   1      19.494   0.366  10.221  0.00  0.00     0.176 C 
ENDROOT
BRANCH   1   2
ATOM      2  C15 ZIN A   1      20.608  -0.508  10.800  0.00  0.00     0.269 C 
BRANCH   2   3
ATOM      3  N12 ZIN A   1      20.493  -0.541  12.265  0.00  0.00    -0.069 N 
ATOM      4  H13 ZIN A   1      20.376   0.398  12.615  0.00  0.00     0.277 HD
ATOM      5  H14 ZIN A   1      21.330  -0.945  12.658  0.00  0.00     0.277 HD
BRANCH   3   6
ATOM      6  C2  ZIN A   1      19.332  -1.355  12.646  0.00  0.00     0.182 C 
ATOM      7  C1  ZIN A   1      19.156  -1.311  14.166  0.00  0.00     0.040 C 
BRANCH   6   8
ATOM      8  C4  ZIN A   1      19.555  -2.802  12.201  0.00  0.00     0.037 C 
BRANCH   8   9
ATOM      9  C5  ZIN A   1      18.205  -3.455  11.893  0.00  0.00     0.040 C 
BRANCH   9  10
ATOM     10  C6  ZIN A   1      18.381  -4.480  10.803  0.00  0.00    -0.058 A 
ATOM     11  C11 ZIN A   1      19.610  -4.637  10.192  0.00  0.00     0.007 A 
ATOM     12  C10 ZIN A   1      19.772  -5.581   9.195  0.00  0.00     0.001 A 
ATOM     13  C9  ZIN A   1      18.701  -6.362   8.803  0.00  0.00     0.000 A 
ATOM     14  C8  ZIN A   1      17.470  -6.202   9.411  0.00  0.00     0.001 A 
ATOM     15  C7  ZIN A   1      17.309  -5.261  10.411  0.00  0.00     0.007 A 
ENDBRANCH   9  10
ENDBRANCH   8   9
ENDBRANCH   6   8
ENDBRANCH   3   6
ENDBRANCH   2   3
ENDBRANCH   1   2
BRANCH   1  16
ATOM     16  O18 ZIN A   1      19.856   1.743  10.344  0.00  0.00    -0.389 OA
ATOM     17  H43 ZIN A   1      19.984   2.035  11.257  0.00  0.00     0.210 HD
ENDBRANCH   1  16
BRANCH   1  18
ATOM     18  C19 ZIN A   1      19.295   0.027   8.765  0.00  0.00    -0.027 A 
ATOM     19  C28 ZIN A   1      19.334  -1.288   8.356  0.00  0.00     0.029 A 
ATOM     20  C24 ZIN A   1      19.145  -1.603   7.009  0.00  0.00     0.068 A 
ATOM     21  C22 ZIN A   1      18.926  -0.575   6.081  0.00  0.00     0.122 A 
ATOM     22  C21 ZIN A   1      18.895   0.743   6.510  0.00  0.00     0.041 A 
ATOM     23  O23 ZIN A   1      18.746  -0.868   4.769  0.00  0.00    -0.191 OA
ATOM     24  C20 ZIN A   1      19.079   1.040   7.846  0.00  0.00     0.012 A 
BRANCH  20  25
ATOM     25  C25 ZIN A   1      19.180  -3.009   6.563  0.00  0.00     0.252 C 
ATOM     26  N26 ZIN A   1      18.028  -3.679   6.355  0.00  0.00    -0.366 N 
ATOM     27  H46 ZIN A   1      17.177  -3.236   6.500  0.00  0.00     0.159 HD
ATOM     28  H47 ZIN A   1      18.050  -4.602   6.062  0.00  0.00     0.159 HD
ATOM     29  O27 ZIN A   1      20.246  -3.563   6.382  0.00  0.00    -0.268 OA
ENDBRANCH  20  25
ENDBRANCH   1  18
TORSDOF 9
ENDMDL
MODEL 9
REMARK VINA RESULT:      -7.0      1.057      1.813
REMARK  9 active torsions:
REMARK  status: ('A' for Active; 'I' for Inactive)
REMARK    1  A    between atoms: C2_2  and  C4_3 
REMARK    2  A    between atoms: C2_2  and  N12_11 
REMARK    3  A    between atoms: C4_3  and  C5_4 
REMARK    4  A    between atoms: C5_4  and  C6_5 
REMARK    5  A    between atoms: N12_11  and  C15_14 
REMARK    6  A    between atoms: C15_14  and  C16_15 
REMARK    7  A    between atoms: C16_15  and  O18_16 
REMARK    8  A    between atoms: C16_15  and  C19_17 
REMARK    9  A    between atoms: C24_22  and  C25_23 
REMARK       I    between atoms: C25_23  and  N26_24 
ROOT
ATOM      1  C16 ZIN A   1      20.396  -0.193  10.739  0.00  0.00     0.176 C 
ENDROOT
BRANCH   1   2
ATOM      2  C15 ZIN A   1      19.832   0.998  11.515  0.00  0.00     0.269 C 
BRANCH   2   3
ATOM      3  N12 ZIN A   1      20.009   2.226  10.728  0.00  0.00    -0.069 N 
ATOM      4  H13 ZIN A   1      20.754   2.093  10.061  0.00  0.00     0.277 HD
ATOM      5  H14 ZIN A   1      20.241   2.990  11.346  0.00  0.00     0.277 HD
BRANCH   3   6
ATOM      6  C2  ZIN A   1      18.762   2.534  10.015  0.00  0.00     0.182 C 
ATOM      7  C1  ZIN A   1      17.598   1.800  10.684  0.00  0.00     0.040 C 
BRANCH   6   8
ATOM      8  C4  ZIN A   1      18.882   2.081   8.559  0.00  0.00     0.037 C 
BRANCH   8   9
ATOM      9  C5  ZIN A   1      17.943   0.897   8.316  0.00  0.00     0.040 C 
BRANCH   9  10
ATOM     10  C6  ZIN A   1      18.351   0.183   7.052  0.00  0.00    -0.058 A 
ATOM     11  C11 ZIN A   1      18.205  -1.187   6.954  0.00  0.00     0.007 A 
ATOM     12  C10 ZIN A   1      18.576  -1.841   5.793  0.00  0.00     0.001 A 
ATOM     13  C9  ZIN A   1      19.101  -1.124   4.734  0.00  0.00     0.000 A 
ATOM     14  C8  ZIN A   1      19.252   0.246   4.835  0.00  0.00     0.001 A 
ATOM     15  C7  ZIN A   1      18.878   0.901   5.994  0.00  0.00     0.007 A 
ENDBRANCH   9  10
ENDBRANCH   8   9
ENDBRANCH   6   8
ENDBRANCH   3   6
ENDBRANCH   2   3
ENDBRANCH   1   2
BRANCH   1  16
ATOM     16  O18 ZIN A   1      21.719  -0.477  11.198  0.00  0.00    -0.389 OA
ATOM     17  H43 ZIN A   1      21.798  -1.317  11.671  0.00  0.00     0.210 HD
ENDBRANCH   1  16
BRANCH   1  18
ATOM     18  C19 ZIN A   1      19.518  -1.398  10.958  0.00  0.00    -0.027 A 
ATOM     19  C28 ZIN A   1      19.284  -2.274   9.920  0.00  0.00     0.029 A 
ATOM     20  C24 ZIN A   1      18.474  -3.393  10.123  0.00  0.00     0.068 A 
ATOM     21  C22 ZIN A   1      17.897  -3.612  11.382  0.00  0.00     0.122 A 
ATOM     22  C21 ZIN A   1      18.140  -2.718  12.414  0.00  0.00     0.041 A 
ATOM     23  O23 ZIN A   1      17.105  -4.693  11.590  0.00  0.00    -0.191 OA
ATOM     24  C20 ZIN A   1      18.945  -1.617  12.200  0.00  0.00     0.012 A 
BRANCH  20  25
ATOM     25  C25 ZIN A   1      18.223  -4.339   9.018  0.00  0.00     0.252 C 
ATOM     26  N26 ZIN A   1      16.992  -4.433   8.479  0.00  0.00    -0.366 N 
ATOM     27  H46 ZIN A   1      16.271  -3.880   8.818  0.00  0.00     0.159 HD
ATOM     28  H47 ZIN A   1      16.826  -5.054   7.753  0.00  0.00     0.159 HD
ATOM     29  O27 ZIN A   1      19.127  -5.032   8.594  0.00  0.00    -0.268 OA
ENDBRANCH  20  25
ENDBRANCH   1  18
TORSDOF 9
ENDMDL
