MODEL 1
REMARK VINA RESULT:      -6.4      0.000      0.000
REMARK  2 active torsions:
REMARK  status: ('A' for Active; 'I' for Inactive)
REMARK    1  A    between atoms: C11_11  and  N12_12 
REMARK    2  A    between atoms: N12_12  and  C13_13 
ROOT
ATOM      1 Br1  <0> d   1      19.235   1.782   8.468  0.00  0.00    -0.046 Br
ATOM      2  C2  <0> d   1      19.074   1.940  10.346  0.00  0.00     0.069 A 
ATOM      3  C3  <0> d   1      18.332   2.993  10.906  0.00  0.00     0.104 A 
ATOM      4  N4  <0> d   1      17.729   3.900  10.130  0.00  0.00    -0.256 NA
ATOM      5  C5  <0> d   1      17.042   4.875  10.681  0.00  0.00     0.136 A 
ATOM      6  C6  <0> d   1      16.935   4.975  12.069  0.00  0.00     0.136 A 
ATOM      7  N7  <0> d   1      17.519   4.096  12.853  0.00  0.00    -0.257 NA
ATOM      8  C8  <0> d   1      18.224   3.094  12.317  0.00  0.00     0.086 A 
ATOM      9  C9  <0> d   1      18.857   2.139  13.131  0.00  0.00     0.036 A 
ATOM     10  C10 <0> d   1      19.568   1.129  12.565  0.00  0.00     0.034 A 
ATOM     11  C11 <0> d   1      19.678   1.017  11.174  0.00  0.00     0.069 A 
ENDROOT
BRANCH  11  12
ATOM     12  N12 <0> d   1      20.415  -0.032  10.618  0.00  0.00    -0.189 N 
ATOM     13  H22 <0> d   1      21.239   0.152  10.143  0.00  0.00     0.184 HD
BRANCH  12  14
ATOM     14  C13 <0> d   1      19.971  -1.328  10.749  0.00  0.00     0.696 A 
ATOM     15  N17 <0> d   1      20.700  -2.303  11.374  0.00  0.00    -0.223 N 
ATOM     16  C16 <0> d   1      19.929  -3.557  11.333  0.00  0.00     0.160 A 
ATOM     17  H27 <0> d   1      21.573  -2.187  11.780  0.00  0.00     0.177 HD
ATOM     18  C15 <0> d   1      18.644  -3.159  10.580  0.00  0.00     0.189 A 
ATOM     19  N14 <0> d   1      18.833  -1.732  10.286  0.00  0.00    -0.106 NA
ENDBRANCH  12  14
ENDBRANCH  11  12
TORSDOF 2
ENDMDL
MODEL 2
REMARK VINA RESULT:      -6.3      2.814      3.605
REMARK  2 active torsions:
REMARK  status: ('A' for Active; 'I' for Inactive)
REMARK    1  A    between atoms: C11_11  and  N12_12 
REMARK    2  A    between atoms: N12_12  and  C13_13 
ROOT
ATOM      1 Br1  <0> d   1      20.371   0.678  12.078  0.00  0.00    -0.046 Br
ATOM      2  C2  <0> d   1      19.284   2.147  11.589  0.00  0.00     0.069 A 
ATOM      3  C3  <0> d   1      18.672   2.934  12.578  0.00  0.00     0.104 A 
ATOM      4  N4  <0> d   1      18.842   2.663  13.878  0.00  0.00    -0.256 NA
ATOM      5  C5  <0> d   1      18.256   3.415  14.782  0.00  0.00     0.136 A 
ATOM      6  C6  <0> d   1      17.458   4.495  14.401  0.00  0.00     0.136 A 
ATOM      7  N7  <0> d   1      17.276   4.781  13.131  0.00  0.00    -0.257 NA
ATOM      8  C8  <0> d   1      17.861   4.031  12.192  0.00  0.00     0.086 A 
ATOM      9  C9  <0> d   1      17.684   4.315  10.826  0.00  0.00     0.036 A 
ATOM     10  C10 <0> d   1      18.288   3.539   9.888  0.00  0.00     0.034 A 
ATOM     11  C11 <0> d   1      19.095   2.457  10.259  0.00  0.00     0.069 A 
ENDROOT
BRANCH  11  12
ATOM     12  N12 <0> d   1      19.704   1.677   9.273  0.00  0.00    -0.189 N 
ATOM     13  H22 <0> d   1      20.665   1.551   9.280  0.00  0.00     0.184 HD
BRANCH  12  14
ATOM     14  C13 <0> d   1      18.939   1.085   8.294  0.00  0.00     0.696 A 
ATOM     15  N17 <0> d   1      17.919   0.216   8.574  0.00  0.00    -0.223 N 
ATOM     16  C16 <0> d   1      17.320  -0.220   7.301  0.00  0.00     0.160 A 
ATOM     17  H27 <0> d   1      17.635  -0.061   9.458  0.00  0.00     0.177 HD
ATOM     18  C15 <0> d   1      18.157   0.524   6.242  0.00  0.00     0.189 A 
ATOM     19  N14 <0> d   1      19.127   1.295   7.033  0.00  0.00    -0.106 NA
ENDBRANCH  12  14
ENDBRANCH  11  12
TORSDOF 2
ENDMDL
MODEL 3
REMARK VINA RESULT:      -6.2      1.719      2.338
REMARK  2 active torsions:
REMARK  status: ('A' for Active; 'I' for Inactive)
REMARK    1  A    between atoms: C11_11  and  N12_12 
REMARK    2  A    between atoms: N12_12  and  C13_13 
ROOT
ATOM      1 Br1  <0> d   1      19.184   0.985  14.351  0.00  0.00    -0.046 Br
ATOM      2  C2  <0> d   1      19.076   1.319  12.493  0.00  0.00     0.069 A 
ATOM      3  C3  <0> d   1      18.410   2.460  12.016  0.00  0.00     0.104 A 
ATOM      4  N4  <0> d   1      17.841   3.328  12.860  0.00  0.00    -0.256 NA
ATOM      5  C5  <0> d   1      17.224   4.387  12.387  0.00  0.00     0.136 A 
ATOM      6  C6  <0> d   1      17.155   4.615  11.012  0.00  0.00     0.136 A 
ATOM      7  N7  <0> d   1      17.706   3.777  10.162  0.00  0.00    -0.257 NA
ATOM      8  C8  <0> d   1      18.340   2.692  10.619  0.00  0.00     0.086 A 
ATOM      9  C9  <0> d   1      18.939   1.779   9.733  0.00  0.00     0.036 A 
ATOM     10  C10 <0> d   1      19.579   0.683  10.219  0.00  0.00     0.034 A 
ATOM     11  C11 <0> d   1      19.658   0.447  11.596  0.00  0.00     0.069 A 
ENDROOT
BRANCH  11  12
ATOM     12  N12 <0> d   1      20.323  -0.688  12.068  0.00  0.00    -0.189 N 
ATOM     13  H22 <0> d   1      21.159  -0.595  12.550  0.00  0.00     0.184 HD
BRANCH  12  14
ATOM     14  C13 <0> d   1      19.789  -1.938  11.850  0.00  0.00     0.696 A 
ATOM     15  N17 <0> d   1      20.514  -2.973  11.326  0.00  0.00    -0.223 N 
ATOM     16  C16 <0> d   1      19.637  -4.152  11.232  0.00  0.00     0.160 A 
ATOM     17  H27 <0> d   1      21.448  -2.940  11.067  0.00  0.00     0.177 HD
ATOM     18  C15 <0> d   1      18.289  -3.636  11.773  0.00  0.00     0.189 A 
ATOM     19  N14 <0> d   1      18.558  -2.232  12.114  0.00  0.00    -0.106 NA
ENDBRANCH  12  14
ENDBRANCH  11  12
TORSDOF 2
ENDMDL
MODEL 4
REMARK VINA RESULT:      -6.1      3.575      4.609
REMARK  2 active torsions:
REMARK  status: ('A' for Active; 'I' for Inactive)
REMARK    1  A    between atoms: C11_11  and  N12_12 
REMARK    2  A    between atoms: N12_12  and  C13_13 
ROOT
ATOM      1 Br1  <0> d   1      18.650   2.157  13.112  0.00  0.00    -0.046 Br
ATOM      2  C2  <0> d   1      18.677   0.813  14.442  0.00  0.00     0.069 A 
ATOM      3  C3  <0> d   1      18.863   1.157  15.791  0.00  0.00     0.104 A 
ATOM      4  N4  <0> d   1      19.025   2.433  16.161  0.00  0.00    -0.256 NA
ATOM      5  C5  <0> d   1      19.198   2.726  17.430  0.00  0.00     0.136 A 
ATOM      6  C6  <0> d   1      19.215   1.720  18.397  0.00  0.00     0.136 A 
ATOM      7  N7  <0> d   1      19.058   0.459  18.059  0.00  0.00    -0.257 NA
ATOM      8  C8  <0> d   1      18.880   0.135  16.774  0.00  0.00     0.086 A 
ATOM      9  C9  <0> d   1      18.710  -1.205  16.384  0.00  0.00     0.036 A 
ATOM     10  C10 <0> d   1      18.530  -1.512  15.073  0.00  0.00     0.034 A 
ATOM     11  C11 <0> d   1      18.507  -0.510  14.095  0.00  0.00     0.069 A 
ENDROOT
BRANCH  11  12
ATOM     12  N12 <0> d   1      18.319  -0.855  12.754  0.00  0.00    -0.189 N 
ATOM     13  H22 <0> d   1      17.874  -0.239  12.152  0.00  0.00     0.184 HD
BRANCH  12  14
ATOM     14  C13 <0> d   1      18.771  -2.068  12.286  0.00  0.00     0.696 A 
ATOM     15  N17 <0> d   1      20.097  -2.338  12.082  0.00  0.00    -0.223 N 
ATOM     16  C16 <0> d   1      20.217  -3.719  11.584  0.00  0.00     0.160 A 
ATOM     17  H27 <0> d   1      20.832  -1.728  12.244  0.00  0.00     0.177 HD
ATOM     18  C15 <0> d   1      18.755  -4.202  11.523  0.00  0.00     0.189 A 
ATOM     19  N14 <0> d   1      17.978  -3.047  11.995  0.00  0.00    -0.106 NA
ENDBRANCH  12  14
ENDBRANCH  11  12
TORSDOF 2
ENDMDL
MODEL 5
REMARK VINA RESULT:      -6.0      2.348      6.050
REMARK  2 active torsions:
REMARK  status: ('A' for Active; 'I' for Inactive)
REMARK    1  A    between atoms: C11_11  and  N12_12 
REMARK    2  A    between atoms: N12_12  and  C13_13 
ROOT
ATOM      1 Br1  <0> d   1      19.327  -1.237  13.685  0.00  0.00    -0.046 Br
ATOM      2  C2  <0> d   1      19.280  -1.300  11.795  0.00  0.00     0.069 A 
ATOM      3  C3  <0> d   1      18.582  -2.327  11.139  0.00  0.00     0.104 A 
ATOM      4  N4  <0> d   1      17.942  -3.276  11.830  0.00  0.00    -0.256 NA
ATOM      5  C5  <0> d   1      17.298  -4.226  11.191  0.00  0.00     0.136 A 
ATOM      6  C6  <0> d   1      17.275  -4.255   9.795  0.00  0.00     0.136 A 
ATOM      7  N7  <0> d   1      17.896  -3.334   9.093  0.00  0.00    -0.257 NA
ATOM      8  C8  <0> d   1      18.559  -2.356   9.721  0.00  0.00     0.086 A 
ATOM      9  C9  <0> d   1      19.232  -1.358   8.995  0.00  0.00     0.036 A 
ATOM     10  C10 <0> d   1      19.899  -0.374   9.654  0.00  0.00     0.034 A 
ATOM     11  C11 <0> d   1      19.924  -0.333  11.053  0.00  0.00     0.069 A 
ENDROOT
BRANCH  11  12
ATOM     12  N12 <0> d   1      20.617   0.691  11.704  0.00  0.00    -0.189 N 
ATOM     13  H22 <0> d   1      21.517   0.537  12.029  0.00  0.00     0.184 HD
BRANCH  12  14
ATOM     14  C13 <0> d   1      20.022   1.920  11.880  0.00  0.00     0.696 A 
ATOM     15  N17 <0> d   1      20.716   3.097  11.813  0.00  0.00    -0.223 N 
ATOM     16  C16 <0> d   1      19.774   4.205  12.047  0.00  0.00     0.160 A 
ATOM     17  H27 <0> d   1      21.665   3.188  11.635  0.00  0.00     0.177 HD
ATOM     18  C15 <0> d   1      18.430   3.485  12.270  0.00  0.00     0.189 A 
ATOM     19  N14 <0> d   1      18.762   2.060  12.133  0.00  0.00    -0.106 NA
ENDBRANCH  12  14
ENDBRANCH  11  12
TORSDOF 2
ENDMDL
MODEL 6
REMARK VINA RESULT:      -6.0      1.762      2.562
REMARK  2 active torsions:
REMARK  status: ('A' for Active; 'I' for Inactive)
REMARK    1  A    between atoms: C11_11  and  N12_12 
REMARK    2  A    between atoms: N12_12  and  C13_13 
ROOT
ATOM      1 Br1  <0> d   1      20.093   0.267  12.696  0.00  0.00    -0.046 Br
ATOM      2  C2  <0> d   1      19.471   1.316  11.251  0.00  0.00     0.069 A 
ATOM      3  C3  <0> d   1      18.829   2.542  11.491  0.00  0.00     0.104 A 
ATOM      4  N4  <0> d   1      18.643   2.990  12.738  0.00  0.00    -0.256 NA
ATOM      5  C5  <0> d   1      18.038   4.139  12.933  0.00  0.00     0.136 A 
ATOM      6  C6  <0> d   1      17.586   4.899  11.852  0.00  0.00     0.136 A 
ATOM      7  N7  <0> d   1      17.757   4.480  10.618  0.00  0.00    -0.257 NA
ATOM      8  C8  <0> d   1      18.369   3.313  10.393  0.00  0.00     0.086 A 
ATOM      9  C9  <0> d   1      18.566   2.841   9.083  0.00  0.00     0.036 A 
ATOM     10  C10 <0> d   1      19.191   1.653   8.877  0.00  0.00     0.034 A 
ATOM     11  C11 <0> d   1      19.653   0.886   9.953  0.00  0.00     0.069 A 
ENDROOT
BRANCH  11  12
ATOM     12  N12 <0> d   1      20.293  -0.332   9.712  0.00  0.00    -0.189 N 
ATOM     13  H22 <0> d   1      21.249  -0.414   9.853  0.00  0.00     0.184 HD
BRANCH  12  14
ATOM     14  C13 <0> d   1      19.566  -1.417   9.276  0.00  0.00     0.696 A 
ATOM     15  N17 <0> d   1      19.658  -1.909   8.003  0.00  0.00    -0.223 N 
ATOM     16  C16 <0> d   1      18.751  -3.063   7.885  0.00  0.00     0.160 A 
ATOM     17  H27 <0> d   1      20.228  -1.562   7.299  0.00  0.00     0.177 HD
ATOM     18  C15 <0> d   1      18.113  -3.157   9.285  0.00  0.00     0.189 A 
ATOM     19  N14 <0> d   1      18.732  -2.053  10.032  0.00  0.00    -0.106 NA
ENDBRANCH  12  14
ENDBRANCH  11  12
TORSDOF 2
ENDMDL
MODEL 7
REMARK VINA RESULT:      -5.8      2.525      6.070
REMARK  2 active torsions:
REMARK  status: ('A' for Active; 'I' for Inactive)
REMARK    1  A    between atoms: C11_11  and  N12_12 
REMARK    2  A    between atoms: N12_12  and  C13_13 
ROOT
ATOM      1 Br1  <0> d   1      19.247   0.882  13.718  0.00  0.00    -0.046 Br
ATOM      2  C2  <0> d   1      18.805   1.924  12.203  0.00  0.00     0.069 A 
ATOM      3  C3  <0> d   1      19.098   1.455  10.912  0.00  0.00     0.104 A 
ATOM      4  N4  <0> d   1      19.693   0.271  10.727  0.00  0.00    -0.256 NA
ATOM      5  C5  <0> d   1      19.956  -0.142   9.509  0.00  0.00     0.136 A 
ATOM      6  C6  <0> d   1      19.621   0.642   8.403  0.00  0.00     0.136 A 
ATOM      7  N7  <0> d   1      19.037   1.808   8.558  0.00  0.00    -0.257 NA
ATOM      8  C8  <0> d   1      18.758   2.252   9.789  0.00  0.00     0.086 A 
ATOM      9  C9  <0> d   1      18.133   3.496   9.984  0.00  0.00     0.036 A 
ATOM     10  C10 <0> d   1      17.859   3.927  11.244  0.00  0.00     0.034 A 
ATOM     11  C11 <0> d   1      18.185   3.146  12.359  0.00  0.00     0.069 A 
ENDROOT
BRANCH  11  12
ATOM     12  N12 <0> d   1      17.891   3.614  13.642  0.00  0.00    -0.189 N 
ATOM     13  H22 <0> d   1      17.192   3.191  14.164  0.00  0.00     0.184 HD
BRANCH  12  14
ATOM     14  C13 <0> d   1      18.596   4.674  14.166  0.00  0.00     0.696 A 
ATOM     15  N17 <0> d   1      19.947   4.820  14.004  0.00  0.00    -0.223 N 
ATOM     16  C16 <0> d   1      20.365   6.055  14.688  0.00  0.00     0.160 A 
ATOM     17  H27 <0> d   1      20.529   4.216  13.517  0.00  0.00     0.177 HD
ATOM     18  C15 <0> d   1      19.049   6.597  15.278  0.00  0.00     0.189 A 
ATOM     19  N14 <0> d   1      18.040   5.613  14.859  0.00  0.00    -0.106 NA
ENDBRANCH  12  14
ENDBRANCH  11  12
TORSDOF 2
ENDMDL
MODEL 8
REMARK VINA RESULT:      -5.8      1.833      5.710
REMARK  2 active torsions:
REMARK  status: ('A' for Active; 'I' for Inactive)
REMARK    1  A    between atoms: C11_11  and  N12_12 
REMARK    2  A    between atoms: N12_12  and  C13_13 
ROOT
ATOM      1 Br1  <0> d   1      19.222  -0.255   8.395  0.00  0.00    -0.046 Br
ATOM      2  C2  <0> d   1      19.119  -0.984  10.137  0.00  0.00     0.069 A 
ATOM      3  C3  <0> d   1      18.486  -2.220  10.350  0.00  0.00     0.104 A 
ATOM      4  N4  <0> d   1      17.945  -2.901   9.334  0.00  0.00    -0.256 NA
ATOM      5  C5  <0> d   1      17.358  -4.054   9.562  0.00  0.00     0.136 A 
ATOM      6  C6  <0> d   1      17.293  -4.576  10.855  0.00  0.00     0.136 A 
ATOM      7  N7  <0> d   1      17.816  -3.925  11.870  0.00  0.00    -0.257 NA
ATOM      8  C8  <0> d   1      18.419  -2.750  11.664  0.00  0.00     0.086 A 
ATOM      9  C9  <0> d   1      18.989  -2.033  12.731  0.00  0.00     0.036 A 
ATOM     10  C10 <0> d   1      19.597  -0.840  12.499  0.00  0.00     0.034 A 
ATOM     11  C11 <0> d   1      19.673  -0.310  11.205  0.00  0.00     0.069 A 
ENDROOT
BRANCH  11  12
ATOM     12  N12 <0> d   1      20.305   0.918  10.995  0.00  0.00    -0.189 N 
ATOM     13  H22 <0> d   1      21.165   0.951  10.549  0.00  0.00     0.184 HD
BRANCH  12  14
ATOM     14  C13 <0> d   1      19.705   2.082  11.421  0.00  0.00     0.696 A 
ATOM     15  N17 <0> d   1      20.415   3.163  11.867  0.00  0.00    -0.223 N 
ATOM     16  C16 <0> d   1      19.462   4.223  12.236  0.00  0.00     0.160 A 
ATOM     17  H27 <0> d   1      21.381   3.224  11.924  0.00  0.00     0.177 HD
ATOM     18  C15 <0> d   1      18.090   3.584  11.944  0.00  0.00     0.189 A 
ATOM     19  N14 <0> d   1      18.422   2.244  11.440  0.00  0.00    -0.106 NA
ENDBRANCH  12  14
ENDBRANCH  11  12
TORSDOF 2
ENDMDL
MODEL 9
REMARK VINA RESULT:      -5.8      1.913      6.093
REMARK  2 active torsions:
REMARK  status: ('A' for Active; 'I' for Inactive)
REMARK    1  A    between atoms: C11_11  and  N12_12 
REMARK    2  A    between atoms: N12_12  and  C13_13 
ROOT
ATOM      1 Br1  <0> d   1      19.885   0.333  12.276  0.00  0.00    -0.046 Br
ATOM      2  C2  <0> d   1      19.434   0.458  10.444  0.00  0.00     0.069 A 
ATOM      3  C3  <0> d   1      19.144  -0.701   9.705  0.00  0.00     0.104 A 
ATOM      4  N4  <0> d   1      19.181  -1.910  10.277  0.00  0.00    -0.256 NA
ATOM      5  C5  <0> d   1      18.906  -2.977   9.563  0.00  0.00     0.136 A 
ATOM      6  C6  <0> d   1      18.576  -2.864   8.211  0.00  0.00     0.136 A 
ATOM      7  N7  <0> d   1      18.532  -1.688   7.627  0.00  0.00    -0.257 NA
ATOM      8  C8  <0> d   1      18.808  -0.586   8.332  0.00  0.00     0.086 A 
ATOM      9  C9  <0> d   1      18.769   0.685   7.732  0.00  0.00     0.036 A 
ATOM     10  C10 <0> d   1      19.052   1.792   8.468  0.00  0.00     0.034 A 
ATOM     11  C11 <0> d   1      19.380   1.689   9.825  0.00  0.00     0.069 A 
ENDROOT
BRANCH  11  12
ATOM     12  N12 <0> d   1      19.666   2.844  10.558  0.00  0.00    -0.189 N 
ATOM     13  H22 <0> d   1      20.587   3.109  10.707  0.00  0.00     0.184 HD
BRANCH  12  14
ATOM     14  C13 <0> d   1      18.640   3.608  11.066  0.00  0.00     0.696 A 
ATOM     15  N17 <0> d   1      17.777   4.314  10.273  0.00  0.00    -0.223 N 
ATOM     16  C16 <0> d   1      16.812   5.009  11.141  0.00  0.00     0.160 A 
ATOM     17  H27 <0> d   1      17.793   4.346   9.304  0.00  0.00     0.177 HD
ATOM     18  C15 <0> d   1      17.256   4.604  12.561  0.00  0.00     0.189 A 
ATOM     19  N14 <0> d   1      18.413   3.726  12.334  0.00  0.00    -0.106 NA
ENDBRANCH  12  14
ENDBRANCH  11  12
TORSDOF 2
ENDMDL
