MODEL 1
REMARK VINA RESULT:      -3.3      0.000      0.000
REMARK  1 active torsions:
REMARK  status: ('A' for Active; 'I' for Inactive)
REMARK       I    between atoms: C2_2  and  N4_4 
REMARK    1  A    between atoms: N4_4  and  O5_5 
ROOT
ATOM      1  C1  <0> d   1      19.707   0.841  13.712  0.00  0.00     0.119 C 
ATOM      2  C2  <0> d   1      20.153   0.015  12.532  0.00  0.00     0.236 C 
ATOM      3  O3  <0> d   1      19.424  -0.844  12.084  0.00  0.00    -0.272 OA
ATOM      4  N4  <0> d   1      21.361   0.231  11.976  0.00  0.00    -0.238 N 
ATOM      5  H9  <0> d   1      21.944   0.919  12.335  0.00  0.00     0.197 HD
ENDROOT
BRANCH   4   6
ATOM      6  O5  <0> d   1      21.780  -0.544  10.869  0.00  0.00    -0.287 OA
ATOM      7  H10 <0> d   1      22.111  -0.022  10.125  0.00  0.00     0.244 HD
ENDBRANCH   4   6
TORSDOF 1
ENDMDL
MODEL 2
REMARK VINA RESULT:      -3.3      2.048      2.508
REMARK  1 active torsions:
REMARK  status: ('A' for Active; 'I' for Inactive)
REMARK       I    between atoms: C2_2  and  N4_4 
REMARK    1  A    between atoms: N4_4  and  O5_5 
ROOT
ATOM      1  C1  <0> d   1      19.660  -0.956   9.537  0.00  0.00     0.119 C 
ATOM      2  C2  <0> d   1      20.110  -0.089  10.685  0.00  0.00     0.236 C 
ATOM      3  O3  <0> d   1      19.349   0.723  11.167  0.00  0.00    -0.272 OA
ATOM      4  N4  <0> d   1      21.359  -0.216  11.176  0.00  0.00    -0.238 N 
ATOM      5  H9  <0> d   1      21.967  -0.866  10.791  0.00  0.00     0.197 HD
ENDROOT
BRANCH   4   6
ATOM      6  O5  <0> d   1      21.782   0.598  12.254  0.00  0.00    -0.287 OA
ATOM      7  H10 <0> d   1      21.184   1.330  12.453  0.00  0.00     0.244 HD
ENDBRANCH   4   6
TORSDOF 1
ENDMDL
MODEL 3
REMARK VINA RESULT:      -3.2      2.671      3.016
REMARK  1 active torsions:
REMARK  status: ('A' for Active; 'I' for Inactive)
REMARK       I    between atoms: C2_2  and  N4_4 
REMARK    1  A    between atoms: N4_4  and  O5_5 
ROOT
ATOM      1  C1  <0> d   1      18.943   0.511   8.536  0.00  0.00     0.119 C 
ATOM      2  C2  <0> d   1      19.760   0.343   9.791  0.00  0.00     0.236 C 
ATOM      3  O3  <0> d   1      19.423   0.901  10.814  0.00  0.00    -0.272 OA
ATOM      4  N4  <0> d   1      20.865  -0.429   9.777  0.00  0.00    -0.238 N 
ATOM      5  H9  <0> d   1      21.134  -0.876   8.959  0.00  0.00     0.197 HD
ENDROOT
BRANCH   4   6
ATOM      6  O5  <0> d   1      21.633  -0.587  10.955  0.00  0.00    -0.287 OA
ATOM      7  H10 <0> d   1      21.162  -1.026  11.676  0.00  0.00     0.244 HD
ENDBRANCH   4   6
TORSDOF 1
ENDMDL
MODEL 4
REMARK VINA RESULT:      -3.1      2.232      2.284
REMARK  1 active torsions:
REMARK  status: ('A' for Active; 'I' for Inactive)
REMARK       I    between atoms: C2_2  and  N4_4 
REMARK    1  A    between atoms: N4_4  and  O5_5 
ROOT
ATOM      1  C1  <0> d   1      18.769   2.569  10.689  0.00  0.00     0.119 C 
ATOM      2  C2  <0> d   1      19.688   1.442  11.089  0.00  0.00     0.236 C 
ATOM      3  O3  <0> d   1      19.431   0.304  10.757  0.00  0.00    -0.272 OA
ATOM      4  N4  <0> d   1      20.794   1.700  11.814  0.00  0.00    -0.238 N 
ATOM      5  H9  <0> d   1      20.999   2.610  12.079  0.00  0.00     0.197 HD
ENDROOT
BRANCH   4   6
ATOM      6  O5  <0> d   1      21.656   0.642  12.190  0.00  0.00    -0.287 OA
ATOM      7  H10 <0> d   1      21.203  -0.194  12.362  0.00  0.00     0.244 HD
ENDBRANCH   4   6
TORSDOF 1
ENDMDL
MODEL 5
REMARK VINA RESULT:      -3.1      1.852      2.176
REMARK  1 active torsions:
REMARK  status: ('A' for Active; 'I' for Inactive)
REMARK       I    between atoms: C2_2  and  N4_4 
REMARK    1  A    between atoms: N4_4  and  O5_5 
ROOT
ATOM      1  C1  <0> d   1      18.716  -2.622  12.034  0.00  0.00     0.119 C 
ATOM      2  C2  <0> d   1      19.640  -1.462  11.765  0.00  0.00     0.236 C 
ATOM      3  O3  <0> d   1      19.314  -0.340  12.088  0.00  0.00    -0.272 OA
ATOM      4  N4  <0> d   1      20.829  -1.673  11.166  0.00  0.00    -0.238 N 
ATOM      5  H9  <0> d   1      21.089  -2.571  10.909  0.00  0.00     0.197 HD
ENDROOT
BRANCH   4   6
ATOM      6  O5  <0> d   1      21.697  -0.584  10.913  0.00  0.00    -0.287 OA
ATOM      7  H10 <0> d   1      21.796  -0.369   9.975  0.00  0.00     0.244 HD
ENDBRANCH   4   6
TORSDOF 1
ENDMDL
MODEL 6
REMARK VINA RESULT:      -2.9      6.578      6.828
REMARK  1 active torsions:
REMARK  status: ('A' for Active; 'I' for Inactive)
REMARK       I    between atoms: C2_2  and  N4_4 
REMARK    1  A    between atoms: N4_4  and  O5_5 
ROOT
ATOM      1  C1  <0> d   1      18.829   1.185   6.567  0.00  0.00     0.119 C 
ATOM      2  C2  <0> d   1      19.066  -0.188   5.994  0.00  0.00     0.236 C 
ATOM      3  O3  <0> d   1      18.945  -1.168   6.698  0.00  0.00    -0.272 OA
ATOM      4  N4  <0> d   1      19.412  -0.328   4.699  0.00  0.00    -0.238 N 
ATOM      5  H9  <0> d   1      19.508   0.456   4.136  0.00  0.00     0.197 HD
ENDROOT
BRANCH   4   6
ATOM      6  O5  <0> d   1      19.634  -1.618   4.160  0.00  0.00    -0.287 OA
ATOM      7  H10 <0> d   1      20.030  -1.614   3.278  0.00  0.00     0.244 HD
ENDBRANCH   4   6
TORSDOF 1
ENDMDL
MODEL 7
REMARK VINA RESULT:      -2.9      2.915      3.241
REMARK  1 active torsions:
REMARK  status: ('A' for Active; 'I' for Inactive)
REMARK       I    between atoms: C2_2  and  N4_4 
REMARK    1  A    between atoms: N4_4  and  O5_5 
ROOT
ATOM      1  C1  <0> d   1      19.463   0.824   8.407  0.00  0.00     0.119 C 
ATOM      2  C2  <0> d   1      19.827  -0.351   9.278  0.00  0.00     0.236 C 
ATOM      3  O3  <0> d   1      19.191  -1.381   9.204  0.00  0.00    -0.272 OA
ATOM      4  N4  <0> d   1      20.860  -0.257  10.140  0.00  0.00    -0.238 N 
ATOM      5  H9  <0> d   1      21.369   0.567  10.198  0.00  0.00     0.197 HD
ENDROOT
BRANCH   4   6
ATOM      6  O5  <0> d   1      21.202  -1.360  10.958  0.00  0.00    -0.287 OA
ATOM      7  H10 <0> d   1      21.827  -1.148  11.664  0.00  0.00     0.244 HD
ENDBRANCH   4   6
TORSDOF 1
ENDMDL
MODEL 8
REMARK VINA RESULT:      -2.8      3.102      3.452
REMARK  1 active torsions:
REMARK  status: ('A' for Active; 'I' for Inactive)
REMARK       I    between atoms: C2_2  and  N4_4 
REMARK    1  A    between atoms: N4_4  and  O5_5 
ROOT
ATOM      1  C1  <0> d   1      19.265  -4.499  11.460  0.00  0.00     0.119 C 
ATOM      2  C2  <0> d   1      19.583  -3.059  11.146  0.00  0.00     0.236 C 
ATOM      3  O3  <0> d   1      18.714  -2.323  10.729  0.00  0.00    -0.272 OA
ATOM      4  N4  <0> d   1      20.834  -2.590  11.328  0.00  0.00    -0.238 N 
ATOM      5  H9  <0> d   1      21.528  -3.179  11.662  0.00  0.00     0.197 HD
ENDROOT
BRANCH   4   6
ATOM      6  O5  <0> d   1      21.132  -1.238  11.033  0.00  0.00    -0.287 OA
ATOM      7  H10 <0> d   1      21.720  -1.121  10.274  0.00  0.00     0.244 HD
ENDBRANCH   4   6
TORSDOF 1
ENDMDL
MODEL 9
REMARK VINA RESULT:      -2.8      6.259      6.574
REMARK  1 active torsions:
REMARK  status: ('A' for Active; 'I' for Inactive)
REMARK       I    between atoms: C2_2  and  N4_4 
REMARK    1  A    between atoms: N4_4  and  O5_5 
ROOT
ATOM      1  C1  <0> d   1      18.748  -0.171   6.407  0.00  0.00     0.119 C 
ATOM      2  C2  <0> d   1      19.431  -1.461   6.032  0.00  0.00     0.236 C 
ATOM      3  O3  <0> d   1      19.682  -1.700   4.869  0.00  0.00    -0.272 OA
ATOM      4  N4  <0> d   1      19.763  -2.351   6.989  0.00  0.00    -0.238 N 
ATOM      5  H9  <0> d   1      19.562  -2.160   7.918  0.00  0.00     0.197 HD
ENDROOT
BRANCH   4   6
ATOM      6  O5  <0> d   1      20.403  -3.563   6.638  0.00  0.00    -0.287 OA
ATOM      7  H10 <0> d   1      20.519  -4.176   7.376  0.00  0.00     0.244 HD
ENDBRANCH   4   6
TORSDOF 1
ENDMDL
