MODEL 1
REMARK VINA RESULT:      -9.2      0.000      0.000
REMARK  16 active torsions:
REMARK  status: ('A' for Active; 'I' for Inactive)
REMARK    1  A    between atoms: N2_2  and  C5_5 
REMARK    2  A    between atoms: C5_5  and  C6_6 
REMARK    3  A    between atoms: C6_6  and  O8_8 
REMARK    4  A    between atoms: O8_8  and  C9_9 
REMARK    5  A    between atoms: C9_9  and  C10_10 
REMARK    6  A    between atoms: C15_15  and  N16_16 
REMARK       I    between atoms: N16_16  and  C18_18 
REMARK    7  A    between atoms: C18_18  and  O20_20 
REMARK    8  A    between atoms: O20_20  and  C21_21 
REMARK    9  A    between atoms: C21_21  and  N24_23 
REMARK   10  A    between atoms: N26_25  and  C27_26 
REMARK   11  A    between atoms: C27_26  and  C28_27 
REMARK   12  A    between atoms: C28_27  and  O29_28 
REMARK   13  A    between atoms: C28_27  and  C30_29 
REMARK   14  A    between atoms: C28_27  and  C38_37 
REMARK   15  A    between atoms: C38_37  and  C41_39 
REMARK   16  A    between atoms: C43_41  and  C44_42 
ROOT
ATOM      1  C44 ZIN A   1      18.816   0.708   8.200  0.00  0.00    -0.007 A 
ATOM      2  C45 ZIN A   1      19.013  -0.666   8.336  0.00  0.00     0.015 A 
ATOM      3  C46 ZIN A   1      19.154  -1.453   7.222  0.00  0.00     0.023 A 
ATOM      4  C47 ZIN A   1      19.102  -0.876   5.948  0.00  0.00     0.044 A 
ATOM      5  C48 ZIN A   1      19.249  -1.697   4.784  0.00  0.00     0.099 C 
ATOM      6  N49 ZIN A   1      19.365  -2.346   3.860  0.00  0.00    -0.191 NA
ATOM      7  C50 ZIN A   1      18.905   0.501   5.814  0.00  0.00     0.023 A 
ATOM      8  C51 ZIN A   1      18.757   1.285   6.930  0.00  0.00     0.015 A 
ENDROOT
BRANCH   1   9
ATOM      9  C43 ZIN A   1      18.664   1.557   9.405  0.00  0.00     0.074 A 
ATOM     10  N42 ZIN A   1      18.484   1.059  10.621  0.00  0.00    -0.244 NA
ATOM     11  C41 ZIN A   1      18.364   1.900  11.588  0.00  0.00     0.082 A 
ATOM     12  S53 ZIN A   1      18.468   3.503  11.005  0.00  0.00    -0.084 SA
ATOM     13  C52 ZIN A   1      18.694   2.906   9.364  0.00  0.00     0.084 A 
BRANCH  11  14
ATOM     14  C38 ZIN A   1      18.155   1.523  13.032  0.00  0.00     0.082 C 
ATOM     15  C40 ZIN A   1      19.220   2.203  13.896  0.00  0.00     0.020 C 
BRANCH  14  16
ATOM     16  C28 ZIN A   1      18.270   0.005  13.184  0.00  0.00     0.115 C 
BRANCH  16  17
ATOM     17  C27 ZIN A   1      17.136  -0.672  12.411  0.00  0.00     0.196 C 
BRANCH  17  18
ATOM     18  N26 ZIN A   1      17.606  -1.953  11.875  0.00  0.00    -0.261 N 
ATOM     19  C25 ZIN A   1      17.464  -2.400  10.616  0.00  0.00     0.208 A 
ATOM     20  N24 ZIN A   1      18.017  -3.583  10.541  0.00  0.00    -0.307 N 
ATOM     21  C55 ZIN A   1      18.517  -3.925  11.728  0.00  0.00     0.235 A 
ATOM     22  N54 ZIN A   1      18.294  -2.956  12.576  0.00  0.00    -0.166 NA
BRANCH  20  23
ATOM     23  C21 ZIN A   1      18.074  -4.411   9.333  0.00  0.00     0.237 C 
ATOM     24  C23 ZIN A   1      19.534  -4.722   8.996  0.00  0.00     0.064 C 
BRANCH  23  25
ATOM     25  O20 ZIN A   1      17.355  -5.652   9.563  0.00  0.00    -0.278 OA
BRANCH  25  26
ATOM     26  C18 ZIN A   1      16.302  -5.906   8.762  0.00  0.00     0.370 C 
ATOM     27  N16 ZIN A   1      16.380  -6.881   7.835  0.00  0.00    -0.282 N 
ATOM     28  C17 ZIN A   1      17.611  -7.663   7.698  0.00  0.00     0.163 C 
ATOM     29  O19 ZIN A   1      15.282  -5.257   8.878  0.00  0.00    -0.238 OA
BRANCH  27  30
ATOM     30  C15 ZIN A   1      15.291  -7.144   7.008  0.00  0.00     0.141 A 
ATOM     31  C10 ZIN A   1      15.216  -6.544   5.755  0.00  0.00     0.012 A 
ATOM     32  C11 ZIN A   1      14.128  -6.812   4.944  0.00  0.00     0.014 A 
ATOM     33  C12 ZIN A   1      13.146  -7.673   5.416  0.00  0.00     0.020 A 
ATOM     34  C13 ZIN A   1      13.282  -8.229   6.673  0.00  0.00     0.119 A 
ATOM     35  N14 ZIN A   1      14.331  -7.954   7.424  0.00  0.00    -0.242 NA
BRANCH  31  36
ATOM     36  C9  ZIN A   1      16.308  -5.617   5.286  0.00  0.00     0.221 C 
BRANCH  36  37
ATOM     37  O8  ZIN A   1      16.358  -5.623   3.836  0.00  0.00    -0.315 OA
BRANCH  37  38
ATOM     38  C6  ZIN A   1      16.006  -4.490   3.208  0.00  0.00     0.284 C 
ATOM     39  O7  ZIN A   1      15.881  -3.466   3.837  0.00  0.00    -0.263 OA
BRANCH  38  40
ATOM     40  C5  ZIN A   1      15.768  -4.494   1.720  0.00  0.00     0.342 C 
BRANCH  40  41
ATOM     41  N2  ZIN A   1      14.324  -4.529   1.455  0.00  0.00    -0.070 N 
ATOM     42  C1  ZIN A   1      13.890  -5.922   1.286  0.00  0.00     0.267 C 
ATOM     43  H3  ZIN A   1      14.124  -4.010   0.614  0.00  0.00     0.277 HD
ATOM     44  H4  ZIN A   1      13.829  -4.116   2.231  0.00  0.00     0.277 HD
ENDBRANCH  40  41
ENDBRANCH  38  40
ENDBRANCH  37  38
ENDBRANCH  36  37
ENDBRANCH  31  36
ENDBRANCH  27  30
ENDBRANCH  25  26
ENDBRANCH  23  25
ENDBRANCH  20  23
ENDBRANCH  17  18
ENDBRANCH  16  17
BRANCH  16  45
ATOM     45  O29 ZIN A   1      19.528  -0.432  12.664  0.00  0.00    -0.382 OA
ATOM     46  H75 ZIN A   1      19.873  -1.228  13.088  0.00  0.00     0.211 HD
ENDBRANCH  16  45
BRANCH  16  47
ATOM     47  C30 ZIN A   1      18.173  -0.364  14.641  0.00  0.00     0.020 A 
ATOM     48  C36 ZIN A   1      19.150  -1.156  15.222  0.00  0.00     0.126 A 
ATOM     49  C35 ZIN A   1      19.065  -1.489  16.562  0.00  0.00     0.046 A 
ATOM     50  F37 ZIN A   1      20.192  -1.593  14.482  0.00  0.00    -0.205 F 
ATOM     51  C34 ZIN A   1      17.998  -1.042  17.319  0.00  0.00     0.045 A 
ATOM     52  C32 ZIN A   1      17.019  -0.254  16.738  0.00  0.00     0.117 A 
ATOM     53  C31 ZIN A   1      17.108   0.084  15.399  0.00  0.00     0.055 A 
ATOM     54  F33 ZIN A   1      15.977   0.183  17.478  0.00  0.00    -0.206 F 
ENDBRANCH  16  47
ENDBRANCH  14  16
ENDBRANCH  11  14
ENDBRANCH   1   9
TORSDOF 16
ENDMDL
MODEL 2
REMARK VINA RESULT:      -9.1      3.505     10.031
REMARK  16 active torsions:
REMARK  status: ('A' for Active; 'I' for Inactive)
REMARK    1  A    between atoms: N2_2  and  C5_5 
REMARK    2  A    between atoms: C5_5  and  C6_6 
REMARK    3  A    between atoms: C6_6  and  O8_8 
REMARK    4  A    between atoms: O8_8  and  C9_9 
REMARK    5  A    between atoms: C9_9  and  C10_10 
REMARK    6  A    between atoms: C15_15  and  N16_16 
REMARK       I    between atoms: N16_16  and  C18_18 
REMARK    7  A    between atoms: C18_18  and  O20_20 
REMARK    8  A    between atoms: O20_20  and  C21_21 
REMARK    9  A    between atoms: C21_21  and  N24_23 
REMARK   10  A    between atoms: N26_25  and  C27_26 
REMARK   11  A    between atoms: C27_26  and  C28_27 
REMARK   12  A    between atoms: C28_27  and  O29_28 
REMARK   13  A    between atoms: C28_27  and  C30_29 
REMARK   14  A    between atoms: C28_27  and  C38_37 
REMARK   15  A    between atoms: C38_37  and  C41_39 
REMARK   16  A    between atoms: C43_41  and  C44_42 
ROOT
ATOM      1  C44 ZIN A   1      18.351  -0.438   8.157  0.00  0.00    -0.007 A 
ATOM      2  C45 ZIN A   1      17.460  -0.612   9.216  0.00  0.00     0.015 A 
ATOM      3  C46 ZIN A   1      17.260   0.400  10.119  0.00  0.00     0.023 A 
ATOM      4  C47 ZIN A   1      17.950   1.609   9.977  0.00  0.00     0.044 A 
ATOM      5  C48 ZIN A   1      17.743   2.666  10.920  0.00  0.00     0.099 C 
ATOM      6  N49 ZIN A   1      17.579   3.506  11.667  0.00  0.00    -0.191 NA
ATOM      7  C50 ZIN A   1      18.843   1.782   8.916  0.00  0.00     0.023 A 
ATOM      8  C51 ZIN A   1      19.045   0.766   8.017  0.00  0.00     0.015 A 
ENDROOT
BRANCH   1   9
ATOM      9  C43 ZIN A   1      18.566  -1.532   7.181  0.00  0.00     0.074 A 
ATOM     10  N42 ZIN A   1      18.127  -2.768   7.375  0.00  0.00    -0.244 NA
ATOM     11  C41 ZIN A   1      18.377  -3.632   6.453  0.00  0.00     0.082 A 
ATOM     12  S53 ZIN A   1      19.254  -2.909   5.178  0.00  0.00    -0.084 SA
ATOM     13  C52 ZIN A   1      19.227  -1.361   6.017  0.00  0.00     0.084 A 
BRANCH  11  14
ATOM     14  C38 ZIN A   1      17.958  -5.079   6.497  0.00  0.00     0.082 C 
ATOM     15  C40 ZIN A   1      16.922  -5.343   5.402  0.00  0.00     0.020 C 
BRANCH  14  16
ATOM     16  C28 ZIN A   1      17.345  -5.391   7.864  0.00  0.00     0.115 C 
BRANCH  16  17
ATOM     17  C27 ZIN A   1      18.452  -5.804   8.837  0.00  0.00     0.196 C 
BRANCH  17  18
ATOM     18  N26 ZIN A   1      18.396  -4.955  10.030  0.00  0.00    -0.261 N 
ATOM     19  C25 ZIN A   1      19.254  -3.975  10.363  0.00  0.00     0.208 A 
ATOM     20  N24 ZIN A   1      18.858  -3.459  11.499  0.00  0.00    -0.307 N 
ATOM     21  C55 ZIN A   1      17.760  -4.084  11.921  0.00  0.00     0.235 A 
ATOM     22  N54 ZIN A   1      17.435  -5.004  11.052  0.00  0.00    -0.166 NA
BRANCH  20  23
ATOM     23  C21 ZIN A   1      19.528  -2.362  12.203  0.00  0.00     0.237 C 
ATOM     24  C23 ZIN A   1      20.305  -1.511  11.197  0.00  0.00     0.064 C 
BRANCH  23  25
ATOM     25  O20 ZIN A   1      18.534  -1.538  12.869  0.00  0.00    -0.278 OA
BRANCH  25  26
ATOM     26  C18 ZIN A   1      18.822  -1.122  14.118  0.00  0.00     0.370 C 
ATOM     27  N16 ZIN A   1      18.089  -0.147  14.689  0.00  0.00    -0.282 N 
ATOM     28  C17 ZIN A   1      16.978   0.461  13.952  0.00  0.00     0.163 C 
ATOM     29  O19 ZIN A   1      19.742  -1.628  14.728  0.00  0.00    -0.238 OA
BRANCH  27  30
ATOM     30  C15 ZIN A   1      18.386   0.282  15.981  0.00  0.00     0.141 A 
ATOM     31  C10 ZIN A   1      18.979   1.525  16.175  0.00  0.00     0.012 A 
ATOM     32  C11 ZIN A   1      19.271   1.939  17.462  0.00  0.00     0.014 A 
ATOM     33  C12 ZIN A   1      18.961   1.090  18.517  0.00  0.00     0.020 A 
ATOM     34  C13 ZIN A   1      18.377  -0.133  18.251  0.00  0.00     0.119 A 
ATOM     35  N14 ZIN A   1      18.111  -0.501  17.012  0.00  0.00    -0.242 NA
BRANCH  31  36
ATOM     36  C9  ZIN A   1      19.296   2.411  14.998  0.00  0.00     0.221 C 
BRANCH  36  37
ATOM     37  O8  ZIN A   1      19.628   3.743  15.470  0.00  0.00    -0.315 OA
BRANCH  37  38
ATOM     38  C6  ZIN A   1      19.202   4.777  14.730  0.00  0.00     0.284 C 
ATOM     39  O7  ZIN A   1      19.884   5.194  13.824  0.00  0.00    -0.263 OA
BRANCH  38  40
ATOM     40  C5  ZIN A   1      17.870   5.419  15.026  0.00  0.00     0.342 C 
BRANCH  40  41
ATOM     41  N2  ZIN A   1      17.293   5.947  13.783  0.00  0.00    -0.070 N 
ATOM     42  C1  ZIN A   1      15.830   5.832  13.835  0.00  0.00     0.267 C 
ATOM     43  H3  ZIN A   1      17.644   5.418  12.999  0.00  0.00     0.277 HD
ATOM     44  H4  ZIN A   1      17.550   6.916  13.676  0.00  0.00     0.277 HD
ENDBRANCH  40  41
ENDBRANCH  38  40
ENDBRANCH  37  38
ENDBRANCH  36  37
ENDBRANCH  31  36
ENDBRANCH  27  30
ENDBRANCH  25  26
ENDBRANCH  23  25
ENDBRANCH  20  23
ENDBRANCH  17  18
ENDBRANCH  16  17
BRANCH  16  45
ATOM     45  O29 ZIN A   1      16.681  -4.229   8.364  0.00  0.00    -0.382 OA
ATOM     46  H75 ZIN A   1      15.724  -4.328   8.445  0.00  0.00     0.211 HD
ENDBRANCH  16  45
BRANCH  16  47
ATOM     47  C30 ZIN A   1      16.354  -6.517   7.726  0.00  0.00     0.020 A 
ATOM     48  C36 ZIN A   1      16.800  -7.804   7.474  0.00  0.00     0.126 A 
ATOM     49  C35 ZIN A   1      15.890  -8.840   7.353  0.00  0.00     0.046 A 
ATOM     50  F37 ZIN A   1      18.123  -8.049   7.358  0.00  0.00    -0.205 F 
ATOM     51  C34 ZIN A   1      14.536  -8.588   7.473  0.00  0.00     0.045 A 
ATOM     52  C32 ZIN A   1      14.090  -7.301   7.719  0.00  0.00     0.117 A 
ATOM     53  C31 ZIN A   1      15.001  -6.266   7.846  0.00  0.00     0.055 A 
ATOM     54  F33 ZIN A   1      12.768  -7.055   7.836  0.00  0.00    -0.206 F 
ENDBRANCH  16  47
ENDBRANCH  14  16
ENDBRANCH  11  14
ENDBRANCH   1   9
TORSDOF 16
ENDMDL
MODEL 3
REMARK VINA RESULT:      -9.0      1.389      1.708
REMARK  16 active torsions:
REMARK  status: ('A' for Active; 'I' for Inactive)
REMARK    1  A    between atoms: N2_2  and  C5_5 
REMARK    2  A    between atoms: C5_5  and  C6_6 
REMARK    3  A    between atoms: C6_6  and  O8_8 
REMARK    4  A    between atoms: O8_8  and  C9_9 
REMARK    5  A    between atoms: C9_9  and  C10_10 
REMARK    6  A    between atoms: C15_15  and  N16_16 
REMARK       I    between atoms: N16_16  and  C18_18 
REMARK    7  A    between atoms: C18_18  and  O20_20 
REMARK    8  A    between atoms: O20_20  and  C21_21 
REMARK    9  A    between atoms: C21_21  and  N24_23 
REMARK   10  A    between atoms: N26_25  and  C27_26 
REMARK   11  A    between atoms: C27_26  and  C28_27 
REMARK   12  A    between atoms: C28_27  and  O29_28 
REMARK   13  A    between atoms: C28_27  and  C30_29 
REMARK   14  A    between atoms: C28_27  and  C38_37 
REMARK   15  A    between atoms: C38_37  and  C41_39 
REMARK   16  A    between atoms: C43_41  and  C44_42 
ROOT
ATOM      1  C44 ZIN A   1      18.196   1.320   8.563  0.00  0.00    -0.007 A 
ATOM      2  C45 ZIN A   1      17.377   0.194   8.477  0.00  0.00     0.015 A 
ATOM      3  C46 ZIN A   1      17.305  -0.516   7.306  0.00  0.00     0.023 A 
ATOM      4  C47 ZIN A   1      18.054  -0.111   6.197  0.00  0.00     0.044 A 
ATOM      5  C48 ZIN A   1      17.979  -0.851   4.973  0.00  0.00     0.099 C 
ATOM      6  N49 ZIN A   1      17.921  -1.437   4.002  0.00  0.00    -0.191 NA
ATOM      7  C50 ZIN A   1      18.875   1.018   6.284  0.00  0.00     0.023 A 
ATOM      8  C51 ZIN A   1      18.941   1.729   7.454  0.00  0.00     0.015 A 
ENDROOT
BRANCH   1   9
ATOM      9  C43 ZIN A   1      18.273   2.085   9.829  0.00  0.00     0.074 A 
ATOM     10  N42 ZIN A   1      18.126   1.525  11.021  0.00  0.00    -0.244 NA
ATOM     11  C41 ZIN A   1      18.214   2.297  12.048  0.00  0.00     0.082 A 
ATOM     12  S53 ZIN A   1      18.502   3.909  11.562  0.00  0.00    -0.084 SA
ATOM     13  C52 ZIN A   1      18.498   3.416   9.871  0.00  0.00     0.084 A 
BRANCH  11  14
ATOM     14  C38 ZIN A   1      18.076   1.841  13.477  0.00  0.00     0.082 C 
ATOM     15  C40 ZIN A   1      19.021   2.654  14.365  0.00  0.00     0.020 C 
BRANCH  14  16
ATOM     16  C28 ZIN A   1      18.435   0.357  13.577  0.00  0.00     0.115 C 
BRANCH  16  17
ATOM     17  C27 ZIN A   1      17.442  -0.464  12.751  0.00  0.00     0.196 C 
BRANCH  17  18
ATOM     18  N26 ZIN A   1      18.137  -1.598  12.138  0.00  0.00    -0.261 N 
ATOM     19  C25 ZIN A   1      17.851  -2.902  12.301  0.00  0.00     0.208 A 
ATOM     20  N24 ZIN A   1      18.701  -3.595  11.586  0.00  0.00    -0.307 N 
ATOM     21  C55 ZIN A   1      19.543  -2.774  10.961  0.00  0.00     0.235 A 
ATOM     22  N54 ZIN A   1      19.234  -1.540  11.264  0.00  0.00    -0.166 NA
BRANCH  20  23
ATOM     23  C21 ZIN A   1      18.725  -5.058  11.494  0.00  0.00     0.237 C 
ATOM     24  C23 ZIN A   1      17.425  -5.626  12.067  0.00  0.00     0.064 C 
BRANCH  23  25
ATOM     25  O20 ZIN A   1      18.855  -5.452  10.102  0.00  0.00    -0.278 OA
BRANCH  25  26
ATOM     26  C18 ZIN A   1      17.757  -5.953   9.504  0.00  0.00     0.370 C 
ATOM     27  N16 ZIN A   1      17.103  -5.225   8.578  0.00  0.00    -0.282 N 
ATOM     28  C17 ZIN A   1      17.586  -3.887   8.223  0.00  0.00     0.163 C 
ATOM     29  O19 ZIN A   1      17.359  -7.062   9.798  0.00  0.00    -0.238 OA
BRANCH  27  30
ATOM     30  C15 ZIN A   1      15.968  -5.743   7.958  0.00  0.00     0.141 A 
ATOM     31  C10 ZIN A   1      16.071  -6.308   6.691  0.00  0.00     0.012 A 
ATOM     32  C11 ZIN A   1      14.937  -6.818   6.087  0.00  0.00     0.014 A 
ATOM     33  C12 ZIN A   1      13.730  -6.744   6.772  0.00  0.00     0.020 A 
ATOM     34  C13 ZIN A   1      13.700  -6.165   8.025  0.00  0.00     0.119 A 
ATOM     35  N14 ZIN A   1      14.799  -5.686   8.576  0.00  0.00    -0.242 NA
BRANCH  31  36
ATOM     36  C9  ZIN A   1      17.403  -6.367   5.989  0.00  0.00     0.221 C 
BRANCH  36  37
ATOM     37  O8  ZIN A   1      17.476  -5.306   4.999  0.00  0.00    -0.315 OA
BRANCH  37  38
ATOM     38  C6  ZIN A   1      17.546  -5.677   3.712  0.00  0.00     0.284 C 
ATOM     39  O7  ZIN A   1      17.759  -6.832   3.427  0.00  0.00    -0.263 OA
BRANCH  38  40
ATOM     40  C5  ZIN A   1      17.358  -4.654   2.621  0.00  0.00     0.342 C 
BRANCH  40  41
ATOM     41  N2  ZIN A   1      16.107  -3.918   2.850  0.00  0.00    -0.070 N 
ATOM     42  C1  ZIN A   1      14.964  -4.781   2.521  0.00  0.00     0.267 C 
ATOM     43  H3  ZIN A   1      16.088  -3.098   2.265  0.00  0.00     0.277 HD
ATOM     44  H4  ZIN A   1      16.051  -3.642   3.819  0.00  0.00     0.277 HD
ENDBRANCH  40  41
ENDBRANCH  38  40
ENDBRANCH  37  38
ENDBRANCH  36  37
ENDBRANCH  31  36
ENDBRANCH  27  30
ENDBRANCH  25  26
ENDBRANCH  23  25
ENDBRANCH  20  23
ENDBRANCH  17  18
ENDBRANCH  16  17
BRANCH  16  45
ATOM     45  O29 ZIN A   1      19.756   0.152  13.074  0.00  0.00    -0.382 OA
ATOM     46  H75 ZIN A   1      19.840  -0.613  12.490  0.00  0.00     0.211 HD
ENDBRANCH  16  45
BRANCH  16  47
ATOM     47  C30 ZIN A   1      18.371  -0.080  15.017  0.00  0.00     0.020 A 
ATOM     48  C36 ZIN A   1      19.190  -1.103  15.467  0.00  0.00     0.126 A 
ATOM     49  C35 ZIN A   1      19.136  -1.501  16.791  0.00  0.00     0.046 A 
ATOM     50  F37 ZIN A   1      20.048  -1.704  14.614  0.00  0.00    -0.205 F 
ATOM     51  C34 ZIN A   1      18.258  -0.886  17.662  0.00  0.00     0.045 A 
ATOM     52  C32 ZIN A   1      17.436   0.133  17.213  0.00  0.00     0.117 A 
ATOM     53  C31 ZIN A   1      17.494   0.535  15.889  0.00  0.00     0.055 A 
ATOM     54  F33 ZIN A   1      16.578   0.735  18.064  0.00  0.00    -0.206 F 
ENDBRANCH  16  47
ENDBRANCH  14  16
ENDBRANCH  11  14
ENDBRANCH   1   9
TORSDOF 16
ENDMDL
MODEL 4
REMARK VINA RESULT:      -9.0      2.032      2.631
REMARK  16 active torsions:
REMARK  status: ('A' for Active; 'I' for Inactive)
REMARK    1  A    between atoms: N2_2  and  C5_5 
REMARK    2  A    between atoms: C5_5  and  C6_6 
REMARK    3  A    between atoms: C6_6  and  O8_8 
REMARK    4  A    between atoms: O8_8  and  C9_9 
REMARK    5  A    between atoms: C9_9  and  C10_10 
REMARK    6  A    between atoms: C15_15  and  N16_16 
REMARK       I    between atoms: N16_16  and  C18_18 
REMARK    7  A    between atoms: C18_18  and  O20_20 
REMARK    8  A    between atoms: O20_20  and  C21_21 
REMARK    9  A    between atoms: C21_21  and  N24_23 
REMARK   10  A    between atoms: N26_25  and  C27_26 
REMARK   11  A    between atoms: C27_26  and  C28_27 
REMARK   12  A    between atoms: C28_27  and  O29_28 
REMARK   13  A    between atoms: C28_27  and  C30_29 
REMARK   14  A    between atoms: C28_27  and  C38_37 
REMARK   15  A    between atoms: C38_37  and  C41_39 
REMARK   16  A    between atoms: C43_41  and  C44_42 
ROOT
ATOM      1  C44 ZIN A   1      18.165   2.148   9.502  0.00  0.00    -0.007 A 
ATOM      2  C45 ZIN A   1      17.684   0.845   9.371  0.00  0.00     0.015 A 
ATOM      3  C46 ZIN A   1      17.938   0.132   8.227  0.00  0.00     0.023 A 
ATOM      4  C47 ZIN A   1      18.679   0.712   7.192  0.00  0.00     0.044 A 
ATOM      5  C48 ZIN A   1      18.944  -0.032   5.997  0.00  0.00     0.099 C 
ATOM      6  N49 ZIN A   1      19.154  -0.620   5.050  0.00  0.00    -0.191 NA
ATOM      7  C50 ZIN A   1      19.160   2.017   7.326  0.00  0.00     0.023 A 
ATOM      8  C51 ZIN A   1      18.900   2.730   8.468  0.00  0.00     0.015 A 
ENDROOT
BRANCH   1   9
ATOM      9  C43 ZIN A   1      17.891   2.917  10.739  0.00  0.00     0.074 A 
ATOM     10  N42 ZIN A   1      18.148   2.448  11.952  0.00  0.00    -0.244 NA
ATOM     11  C41 ZIN A   1      17.864   3.212  12.949  0.00  0.00     0.082 A 
ATOM     12  S53 ZIN A   1      17.196   4.687  12.403  0.00  0.00    -0.084 SA
ATOM     13  C52 ZIN A   1      17.356   4.156  10.731  0.00  0.00     0.084 A 
BRANCH  11  14
ATOM     14  C38 ZIN A   1      18.085   2.852  14.395  0.00  0.00     0.082 C 
ATOM     15  C40 ZIN A   1      19.139   3.785  14.997  0.00  0.00     0.020 C 
BRANCH  14  16
ATOM     16  C28 ZIN A   1      18.572   1.405  14.492  0.00  0.00     0.115 C 
BRANCH  16  17
ATOM     17  C27 ZIN A   1      17.658   0.504  13.658  0.00  0.00     0.196 C 
BRANCH  17  18
ATOM     18  N26 ZIN A   1      18.472  -0.311  12.751  0.00  0.00    -0.261 N 
ATOM     19  C25 ZIN A   1      18.209  -1.563  12.339  0.00  0.00     0.208 A 
ATOM     20  N24 ZIN A   1      19.175  -1.937  11.538  0.00  0.00    -0.307 N 
ATOM     21  C55 ZIN A   1      20.069  -0.957  11.421  0.00  0.00     0.235 A 
ATOM     22  N54 ZIN A   1      19.680   0.061  12.141  0.00  0.00    -0.166 NA
BRANCH  20  23
ATOM     23  C21 ZIN A   1      19.261  -3.242  10.876  0.00  0.00     0.237 C 
ATOM     24  C23 ZIN A   1      20.393  -4.058  11.503  0.00  0.00     0.064 C 
BRANCH  23  25
ATOM     25  O20 ZIN A   1      18.004  -3.951  11.040  0.00  0.00    -0.278 OA
BRANCH  25  26
ATOM     26  C18 ZIN A   1      17.336  -4.280   9.918  0.00  0.00     0.370 C 
ATOM     27  N16 ZIN A   1      16.931  -5.550   9.722  0.00  0.00    -0.282 N 
ATOM     28  C17 ZIN A   1      17.217  -6.573  10.731  0.00  0.00     0.163 C 
ATOM     29  O19 ZIN A   1      17.099  -3.431   9.083  0.00  0.00    -0.238 OA
BRANCH  27  30
ATOM     30  C15 ZIN A   1      16.240  -5.890   8.562  0.00  0.00     0.141 A 
ATOM     31  C10 ZIN A   1      16.943  -6.319   7.441  0.00  0.00     0.012 A 
ATOM     32  C11 ZIN A   1      16.245  -6.652   6.294  0.00  0.00     0.014 A 
ATOM     33  C12 ZIN A   1      14.861  -6.541   6.306  0.00  0.00     0.020 A 
ATOM     34  C13 ZIN A   1      14.228  -6.103   7.452  0.00  0.00     0.119 A 
ATOM     35  N14 ZIN A   1      14.921  -5.791   8.531  0.00  0.00    -0.242 NA
BRANCH  31  36
ATOM     36  C9  ZIN A   1      18.446  -6.425   7.478  0.00  0.00     0.221 C 
BRANCH  36  37
ATOM     37  O8  ZIN A   1      18.998  -5.902   6.241  0.00  0.00    -0.315 OA
BRANCH  37  38
ATOM     38  C6  ZIN A   1      19.154  -4.572   6.156  0.00  0.00     0.284 C 
ATOM     39  O7  ZIN A   1      19.623  -3.959   7.085  0.00  0.00    -0.263 OA
BRANCH  38  40
ATOM     40  C5  ZIN A   1      18.743  -3.843   4.902  0.00  0.00     0.342 C 
BRANCH  40  41
ATOM     41  N2  ZIN A   1      17.357  -3.377   5.039  0.00  0.00    -0.070 N 
ATOM     42  C1  ZIN A   1      16.575  -3.819   3.876  0.00  0.00     0.267 C 
ATOM     43  H3  ZIN A   1      17.345  -2.370   5.088  0.00  0.00     0.277 HD
ATOM     44  H4  ZIN A   1      16.954  -3.760   5.880  0.00  0.00     0.277 HD
ENDBRANCH  40  41
ENDBRANCH  38  40
ENDBRANCH  37  38
ENDBRANCH  36  37
ENDBRANCH  31  36
ENDBRANCH  27  30
ENDBRANCH  25  26
ENDBRANCH  23  25
ENDBRANCH  20  23
ENDBRANCH  17  18
ENDBRANCH  16  17
BRANCH  16  45
ATOM     45  O29 ZIN A   1      19.909   1.318  13.995  0.00  0.00    -0.382 OA
ATOM     46  H75 ZIN A   1      20.580   1.623  14.619  0.00  0.00     0.211 HD
ENDBRANCH  16  45
BRANCH  16  47
ATOM     47  C30 ZIN A   1      18.539   0.958  15.930  0.00  0.00     0.020 A 
ATOM     48  C36 ZIN A   1      19.106  -0.253  16.292  0.00  0.00     0.126 A 
ATOM     49  C35 ZIN A   1      19.082  -0.661  17.614  0.00  0.00     0.046 A 
ATOM     50  F37 ZIN A   1      19.692  -1.030  15.356  0.00  0.00    -0.205 F 
ATOM     51  C34 ZIN A   1      18.482   0.135  18.572  0.00  0.00     0.045 A 
ATOM     52  C32 ZIN A   1      17.911   1.342  18.210  0.00  0.00     0.117 A 
ATOM     53  C31 ZIN A   1      17.940   1.753  16.888  0.00  0.00     0.055 A 
ATOM     54  F33 ZIN A   1      17.325   2.120  19.146  0.00  0.00    -0.206 F 
ENDBRANCH  16  47
ENDBRANCH  14  16
ENDBRANCH  11  14
ENDBRANCH   1   9
TORSDOF 16
ENDMDL
MODEL 5
REMARK VINA RESULT:      -8.9      1.717      2.148
REMARK  16 active torsions:
REMARK  status: ('A' for Active; 'I' for Inactive)
REMARK    1  A    between atoms: N2_2  and  C5_5 
REMARK    2  A    between atoms: C5_5  and  C6_6 
REMARK    3  A    between atoms: C6_6  and  O8_8 
REMARK    4  A    between atoms: O8_8  and  C9_9 
REMARK    5  A    between atoms: C9_9  and  C10_10 
REMARK    6  A    between atoms: C15_15  and  N16_16 
REMARK       I    between atoms: N16_16  and  C18_18 
REMARK    7  A    between atoms: C18_18  and  O20_20 
REMARK    8  A    between atoms: O20_20  and  C21_21 
REMARK    9  A    between atoms: C21_21  and  N24_23 
REMARK   10  A    between atoms: N26_25  and  C27_26 
REMARK   11  A    between atoms: C27_26  and  C28_27 
REMARK   12  A    between atoms: C28_27  and  O29_28 
REMARK   13  A    between atoms: C28_27  and  C30_29 
REMARK   14  A    between atoms: C28_27  and  C38_37 
REMARK   15  A    between atoms: C38_37  and  C41_39 
REMARK   16  A    between atoms: C43_41  and  C44_42 
ROOT
ATOM      1  C44 ZIN A   1      18.330   1.727   8.887  0.00  0.00    -0.007 A 
ATOM      2  C45 ZIN A   1      19.069   2.377   7.898  0.00  0.00     0.015 A 
ATOM      3  C46 ZIN A   1      19.316   1.752   6.703  0.00  0.00     0.023 A 
ATOM      4  C47 ZIN A   1      18.827   0.462   6.475  0.00  0.00     0.044 A 
ATOM      5  C48 ZIN A   1      19.085  -0.192   5.227  0.00  0.00     0.099 C 
ATOM      6  N49 ZIN A   1      19.290  -0.711   4.238  0.00  0.00    -0.191 NA
ATOM      7  C50 ZIN A   1      18.086  -0.189   7.466  0.00  0.00     0.023 A 
ATOM      8  C51 ZIN A   1      17.845   0.436   8.663  0.00  0.00     0.015 A 
ENDROOT
BRANCH   1   9
ATOM      9  C43 ZIN A   1      18.062   2.403  10.177  0.00  0.00     0.074 A 
ATOM     10  N42 ZIN A   1      18.194   1.799  11.350  0.00  0.00    -0.244 NA
ATOM     11  C41 ZIN A   1      17.931   2.494  12.402  0.00  0.00     0.082 A 
ATOM     12  S53 ZIN A   1      17.456   4.077  11.970  0.00  0.00    -0.084 SA
ATOM     13  C52 ZIN A   1      17.661   3.689  10.264  0.00  0.00     0.084 A 
BRANCH  11  14
ATOM     14  C38 ZIN A   1      18.025   1.980  13.815  0.00  0.00     0.082 C 
ATOM     15  C40 ZIN A   1      19.109   2.754  14.568  0.00  0.00     0.020 C 
BRANCH  14  16
ATOM     16  C28 ZIN A   1      18.384   0.492  13.793  0.00  0.00     0.115 C 
BRANCH  16  17
ATOM     17  C27 ZIN A   1      17.325  -0.276  13.001  0.00  0.00     0.196 C 
BRANCH  17  18
ATOM     18  N26 ZIN A   1      17.971  -1.336  12.222  0.00  0.00    -0.261 N 
ATOM     19  C25 ZIN A   1      17.517  -2.588  12.033  0.00  0.00     0.208 A 
ATOM     20  N24 ZIN A   1      18.380  -3.222  11.281  0.00  0.00    -0.307 N 
ATOM     21  C55 ZIN A   1      19.394  -2.414  10.975  0.00  0.00     0.235 A 
ATOM     22  N54 ZIN A   1      19.185  -1.246  11.524  0.00  0.00    -0.166 NA
BRANCH  20  23
ATOM     23  C21 ZIN A   1      18.252  -4.616  10.845  0.00  0.00     0.237 C 
ATOM     24  C23 ZIN A   1      17.536  -5.424  11.929  0.00  0.00     0.064 C 
BRANCH  23  25
ATOM     25  O20 ZIN A   1      17.484  -4.668   9.614  0.00  0.00    -0.278 OA
BRANCH  25  26
ATOM     26  C18 ZIN A   1      17.613  -5.776   8.859  0.00  0.00     0.370 C 
ATOM     27  N16 ZIN A   1      16.520  -6.372   8.344  0.00  0.00    -0.282 N 
ATOM     28  C17 ZIN A   1      15.191  -5.814   8.605  0.00  0.00     0.163 C 
ATOM     29  O19 ZIN A   1      18.716  -6.237   8.643  0.00  0.00    -0.238 OA
BRANCH  27  30
ATOM     30  C15 ZIN A   1      16.655  -7.518   7.563  0.00  0.00     0.141 A 
ATOM     31  C10 ZIN A   1      16.739  -7.403   6.179  0.00  0.00     0.012 A 
ATOM     32  C11 ZIN A   1      16.871  -8.548   5.415  0.00  0.00     0.014 A 
ATOM     33  C12 ZIN A   1      16.911  -9.776   6.063  0.00  0.00     0.020 A 
ATOM     34  C13 ZIN A   1      16.816  -9.816   7.440  0.00  0.00     0.119 A 
ATOM     35  N14 ZIN A   1      16.690  -8.707   8.143  0.00  0.00    -0.242 NA
BRANCH  31  36
ATOM     36  C9  ZIN A   1      16.692  -6.048   5.522  0.00  0.00     0.221 C 
BRANCH  36  37
ATOM     37  O8  ZIN A   1      18.045  -5.573   5.294  0.00  0.00    -0.315 OA
BRANCH  37  38
ATOM     38  C6  ZIN A   1      18.216  -4.247   5.180  0.00  0.00     0.284 C 
ATOM     39  O7  ZIN A   1      18.392  -3.574   6.167  0.00  0.00    -0.263 OA
BRANCH  38  40
ATOM     40  C5  ZIN A   1      18.187  -3.597   3.820  0.00  0.00     0.342 C 
BRANCH  40  41
ATOM     41  N2  ZIN A   1      18.394  -4.619   2.785  0.00  0.00    -0.070 N 
ATOM     42  C1  ZIN A   1      17.178  -4.743   1.970  0.00  0.00     0.267 C 
ATOM     43  H3  ZIN A   1      18.596  -5.504   3.222  0.00  0.00     0.277 HD
ATOM     44  H4  ZIN A   1      19.167  -4.350   2.195  0.00  0.00     0.277 HD
ENDBRANCH  40  41
ENDBRANCH  38  40
ENDBRANCH  37  38
ENDBRANCH  36  37
ENDBRANCH  31  36
ENDBRANCH  27  30
ENDBRANCH  25  26
ENDBRANCH  23  25
ENDBRANCH  20  23
ENDBRANCH  17  18
ENDBRANCH  16  17
BRANCH  16  45
ATOM     45  O29 ZIN A   1      19.660   0.320  13.174  0.00  0.00    -0.382 OA
ATOM     46  H75 ZIN A   1      19.629   0.297  12.209  0.00  0.00     0.211 HD
ENDBRANCH  16  45
BRANCH  16  47
ATOM     47  C30 ZIN A   1      18.434  -0.034  15.204  0.00  0.00     0.020 A 
ATOM     48  C36 ZIN A   1      19.209  -1.142  15.503  0.00  0.00     0.126 A 
ATOM     49  C35 ZIN A   1      19.261  -1.622  16.800  0.00  0.00     0.046 A 
ATOM     50  F37 ZIN A   1      19.923  -1.748  14.530  0.00  0.00    -0.205 F 
ATOM     51  C34 ZIN A   1      18.530  -1.001  17.795  0.00  0.00     0.045 A 
ATOM     52  C32 ZIN A   1      17.752   0.104  17.497  0.00  0.00     0.117 A 
ATOM     53  C31 ZIN A   1      17.704   0.587  16.200  0.00  0.00     0.055 A 
ATOM     54  F33 ZIN A   1      17.037   0.710  18.469  0.00  0.00    -0.206 F 
ENDBRANCH  16  47
ENDBRANCH  14  16
ENDBRANCH  11  14
ENDBRANCH   1   9
TORSDOF 16
ENDMDL
MODEL 6
REMARK VINA RESULT:      -8.7      2.834      4.037
REMARK  16 active torsions:
REMARK  status: ('A' for Active; 'I' for Inactive)
REMARK    1  A    between atoms: N2_2  and  C5_5 
REMARK    2  A    between atoms: C5_5  and  C6_6 
REMARK    3  A    between atoms: C6_6  and  O8_8 
REMARK    4  A    between atoms: O8_8  and  C9_9 
REMARK    5  A    between atoms: C9_9  and  C10_10 
REMARK    6  A    between atoms: C15_15  and  N16_16 
REMARK       I    between atoms: N16_16  and  C18_18 
REMARK    7  A    between atoms: C18_18  and  O20_20 
REMARK    8  A    between atoms: O20_20  and  C21_21 
REMARK    9  A    between atoms: C21_21  and  N24_23 
REMARK   10  A    between atoms: N26_25  and  C27_26 
REMARK   11  A    between atoms: C27_26  and  C28_27 
REMARK   12  A    between atoms: C28_27  and  O29_28 
REMARK   13  A    between atoms: C28_27  and  C30_29 
REMARK   14  A    between atoms: C28_27  and  C38_37 
REMARK   15  A    between atoms: C38_37  and  C41_39 
REMARK   16  A    between atoms: C43_41  and  C44_42 
ROOT
ATOM      1  C44 ZIN A   1      18.588   1.768   8.327  0.00  0.00    -0.007 A 
ATOM      2  C45 ZIN A   1      18.666   2.207   7.005  0.00  0.00     0.015 A 
ATOM      3  C46 ZIN A   1      18.936   1.314   6.000  0.00  0.00     0.023 A 
ATOM      4  C47 ZIN A   1      19.132  -0.038   6.301  0.00  0.00     0.044 A 
ATOM      5  C48 ZIN A   1      19.414  -0.971   5.251  0.00  0.00     0.099 C 
ATOM      6  N49 ZIN A   1      19.638  -1.711   4.421  0.00  0.00    -0.191 NA
ATOM      7  C50 ZIN A   1      19.053  -0.476   7.626  0.00  0.00     0.023 A 
ATOM      8  C51 ZIN A   1      18.789   0.419   8.630  0.00  0.00     0.015 A 
ENDROOT
BRANCH   1   9
ATOM      9  C43 ZIN A   1      18.295   2.734   9.412  0.00  0.00     0.074 A 
ATOM     10  N42 ZIN A   1      18.110   2.368  10.673  0.00  0.00    -0.244 NA
ATOM     11  C41 ZIN A   1      17.862   3.301  11.525  0.00  0.00     0.082 A 
ATOM     12  S53 ZIN A   1      17.832   4.825  10.753  0.00  0.00    -0.084 SA
ATOM     13  C52 ZIN A   1      18.192   4.063   9.206  0.00  0.00     0.084 A 
BRANCH  11  14
ATOM     14  C38 ZIN A   1      17.625   3.079  12.996  0.00  0.00     0.082 C 
ATOM     15  C40 ZIN A   1      16.836   4.258  13.570  0.00  0.00     0.020 C 
BRANCH  14  16
ATOM     16  C28 ZIN A   1      18.970   2.968  13.718  0.00  0.00     0.115 C 
BRANCH  16  17
ATOM     17  C27 ZIN A   1      19.062   1.611  14.419  0.00  0.00     0.196 C 
BRANCH  17  18
ATOM     18  N26 ZIN A   1      18.535   0.568  13.535  0.00  0.00    -0.261 N 
ATOM     19  C25 ZIN A   1      19.248  -0.257  12.748  0.00  0.00     0.208 A 
ATOM     20  N24 ZIN A   1      18.410  -1.041  12.118  0.00  0.00    -0.307 N 
ATOM     21  C55 ZIN A   1      17.160  -0.744  12.472  0.00  0.00     0.235 A 
ATOM     22  N54 ZIN A   1      17.186   0.231  13.342  0.00  0.00    -0.166 NA
BRANCH  20  23
ATOM     23  C21 ZIN A   1      18.791  -2.084  11.162  0.00  0.00     0.237 C 
ATOM     24  C23 ZIN A   1      20.277  -2.409  11.327  0.00  0.00     0.064 C 
BRANCH  23  25
ATOM     25  O20 ZIN A   1      18.003  -3.278  11.411  0.00  0.00    -0.278 OA
BRANCH  25  26
ATOM     26  C18 ZIN A   1      17.447  -3.878  10.341  0.00  0.00     0.370 C 
ATOM     27  N16 ZIN A   1      16.983  -5.140  10.441  0.00  0.00    -0.282 N 
ATOM     28  C17 ZIN A   1      17.085  -5.858  11.714  0.00  0.00     0.163 C 
ATOM     29  O19 ZIN A   1      17.363  -3.282   9.287  0.00  0.00    -0.238 OA
BRANCH  27  30
ATOM     30  C15 ZIN A   1      16.408  -5.760   9.335  0.00  0.00     0.141 A 
ATOM     31  C10 ZIN A   1      17.209  -6.477   8.452  0.00  0.00     0.012 A 
ATOM     32  C11 ZIN A   1      16.626  -7.088   7.357  0.00  0.00     0.014 A 
ATOM     33  C12 ZIN A   1      15.254  -6.956   7.177  0.00  0.00     0.020 A 
ATOM     34  C13 ZIN A   1      14.521  -6.225   8.091  0.00  0.00     0.119 A 
ATOM     35  N14 ZIN A   1      15.106  -5.654   9.126  0.00  0.00    -0.242 NA
BRANCH  31  36
ATOM     36  C9  ZIN A   1      18.693  -6.592   8.690  0.00  0.00     0.221 C 
BRANCH  36  37
ATOM     37  O8  ZIN A   1      19.396  -6.483   7.424  0.00  0.00    -0.315 OA
BRANCH  37  38
ATOM     38  C6  ZIN A   1      20.319  -5.515   7.321  0.00  0.00     0.284 C 
ATOM     39  O7  ZIN A   1      21.477  -5.756   7.567  0.00  0.00    -0.263 OA
BRANCH  38  40
ATOM     40  C5  ZIN A   1      19.913  -4.127   6.896  0.00  0.00     0.342 C 
BRANCH  40  41
ATOM     41  N2  ZIN A   1      18.508  -4.138   6.467  0.00  0.00    -0.070 N 
ATOM     42  C1  ZIN A   1      18.414  -4.704   5.114  0.00  0.00     0.267 C 
ATOM     43  H3  ZIN A   1      18.151  -3.194   6.461  0.00  0.00     0.277 HD
ATOM     44  H4  ZIN A   1      17.965  -4.699   7.104  0.00  0.00     0.277 HD
ENDBRANCH  40  41
ENDBRANCH  38  40
ENDBRANCH  37  38
ENDBRANCH  36  37
ENDBRANCH  31  36
ENDBRANCH  27  30
ENDBRANCH  25  26
ENDBRANCH  23  25
ENDBRANCH  20  23
ENDBRANCH  17  18
ENDBRANCH  16  17
BRANCH  16  45
ATOM     45  O29 ZIN A   1      20.031   3.086  12.768  0.00  0.00    -0.382 OA
ATOM     46  H75 ZIN A   1      19.733   3.129  11.850  0.00  0.00     0.211 HD
ENDBRANCH  16  45
BRANCH  16  47
ATOM     47  C30 ZIN A   1      19.086   4.069  14.739  0.00  0.00     0.020 A 
ATOM     48  C36 ZIN A   1      19.652   5.283  14.388  0.00  0.00     0.126 A 
ATOM     49  C35 ZIN A   1      19.752   6.298  15.324  0.00  0.00     0.046 A 
ATOM     50  F37 ZIN A   1      20.097   5.481  13.128  0.00  0.00    -0.205 F 
ATOM     51  C34 ZIN A   1      19.297   6.095  16.613  0.00  0.00     0.045 A 
ATOM     52  C32 ZIN A   1      18.735   4.880  16.966  0.00  0.00     0.117 A 
ATOM     53  C31 ZIN A   1      18.630   3.868  16.028  0.00  0.00     0.055 A 
ATOM     54  F33 ZIN A   1      18.290   4.682  18.226  0.00  0.00    -0.206 F 
ENDBRANCH  16  47
ENDBRANCH  14  16
ENDBRANCH  11  14
ENDBRANCH   1   9
TORSDOF 16
ENDMDL
MODEL 7
REMARK VINA RESULT:      -8.6      3.411     10.347
REMARK  16 active torsions:
REMARK  status: ('A' for Active; 'I' for Inactive)
REMARK    1  A    between atoms: N2_2  and  C5_5 
REMARK    2  A    between atoms: C5_5  and  C6_6 
REMARK    3  A    between atoms: C6_6  and  O8_8 
REMARK    4  A    between atoms: O8_8  and  C9_9 
REMARK    5  A    between atoms: C9_9  and  C10_10 
REMARK    6  A    between atoms: C15_15  and  N16_16 
REMARK       I    between atoms: N16_16  and  C18_18 
REMARK    7  A    between atoms: C18_18  and  O20_20 
REMARK    8  A    between atoms: O20_20  and  C21_21 
REMARK    9  A    between atoms: C21_21  and  N24_23 
REMARK   10  A    between atoms: N26_25  and  C27_26 
REMARK   11  A    between atoms: C27_26  and  C28_27 
REMARK   12  A    between atoms: C28_27  and  O29_28 
REMARK   13  A    between atoms: C28_27  and  C30_29 
REMARK   14  A    between atoms: C28_27  and  C38_37 
REMARK   15  A    between atoms: C38_37  and  C41_39 
REMARK   16  A    between atoms: C43_41  and  C44_42 
ROOT
ATOM      1  C44 ZIN A   1      17.716  -4.723   6.070  0.00  0.00    -0.007 A 
ATOM      2  C45 ZIN A   1      16.707  -5.622   5.721  0.00  0.00     0.015 A 
ATOM      3  C46 ZIN A   1      16.067  -5.501   4.514  0.00  0.00     0.023 A 
ATOM      4  C47 ZIN A   1      16.427  -4.476   3.632  0.00  0.00     0.044 A 
ATOM      5  C48 ZIN A   1      15.759  -4.348   2.372  0.00  0.00     0.099 C 
ATOM      6  N49 ZIN A   1      15.230  -4.246   1.373  0.00  0.00    -0.191 NA
ATOM      7  C50 ZIN A   1      17.438  -3.576   3.983  0.00  0.00     0.023 A 
ATOM      8  C51 ZIN A   1      18.072  -3.696   5.193  0.00  0.00     0.015 A 
ENDROOT
BRANCH   1   9
ATOM      9  C43 ZIN A   1      18.407  -4.855   7.374  0.00  0.00     0.074 A 
ATOM     10  N42 ZIN A   1      17.928  -4.344   8.499  0.00  0.00    -0.244 NA
ATOM     11  C41 ZIN A   1      18.623  -4.526   9.569  0.00  0.00     0.082 A 
ATOM     12  S53 ZIN A   1      20.041  -5.412   9.219  0.00  0.00    -0.084 SA
ATOM     13  C52 ZIN A   1      19.582  -5.504   7.521  0.00  0.00     0.084 A 
BRANCH  11  14
ATOM     14  C38 ZIN A   1      18.239  -4.022  10.936  0.00  0.00     0.082 C 
ATOM     15  C40 ZIN A   1      16.854  -4.558  11.307  0.00  0.00     0.020 C 
BRANCH  14  16
ATOM     16  C28 ZIN A   1      18.207  -2.492  10.924  0.00  0.00     0.115 C 
BRANCH  16  17
ATOM     17  C27 ZIN A   1      19.288  -1.966   9.978  0.00  0.00     0.196 C 
BRANCH  17  18
ATOM     18  N26 ZIN A   1      19.048  -0.547   9.702  0.00  0.00    -0.261 N 
ATOM     19  C25 ZIN A   1      19.475   0.499  10.430  0.00  0.00     0.208 A 
ATOM     20  N24 ZIN A   1      19.053   1.594   9.852  0.00  0.00    -0.307 N 
ATOM     21  C55 ZIN A   1      18.352   1.289   8.761  0.00  0.00     0.235 A 
ATOM     22  N54 ZIN A   1      18.326  -0.011   8.624  0.00  0.00    -0.166 NA
BRANCH  20  23
ATOM     23  C21 ZIN A   1      19.308   2.954  10.337  0.00  0.00     0.237 C 
ATOM     24  C23 ZIN A   1      18.026   3.781  10.233  0.00  0.00     0.064 C 
BRANCH  23  25
ATOM     25  O20 ZIN A   1      19.739   2.899  11.723  0.00  0.00    -0.278 OA
BRANCH  25  26
ATOM     26  C18 ZIN A   1      19.549   4.006  12.466  0.00  0.00     0.370 C 
ATOM     27  N16 ZIN A   1      18.606   4.017  13.429  0.00  0.00    -0.282 N 
ATOM     28  C17 ZIN A   1      17.788   2.825  13.667  0.00  0.00     0.163 C 
ATOM     29  O19 ZIN A   1      20.228   4.993  12.269  0.00  0.00    -0.238 OA
BRANCH  27  30
ATOM     30  C15 ZIN A   1      18.410   5.162  14.198  0.00  0.00     0.141 A 
ATOM     31  C10 ZIN A   1      19.167   5.358  15.349  0.00  0.00     0.012 A 
ATOM     32  C11 ZIN A   1      18.961   6.498  16.104  0.00  0.00     0.014 A 
ATOM     33  C12 ZIN A   1      17.999   7.407  15.684  0.00  0.00     0.020 A 
ATOM     34  C13 ZIN A   1      17.280   7.146  14.534  0.00  0.00     0.119 A 
ATOM     35  N14 ZIN A   1      17.498   6.049  13.834  0.00  0.00    -0.242 NA
BRANCH  31  36
ATOM     36  C9  ZIN A   1      20.200   4.343  15.764  0.00  0.00     0.221 C 
BRANCH  36  37
ATOM     37  O8  ZIN A   1      19.966   3.948  17.141  0.00  0.00    -0.315 OA
BRANCH  37  38
ATOM     38  C6  ZIN A   1      19.286   2.809  17.343  0.00  0.00     0.284 C 
ATOM     39  O7  ZIN A   1      19.232   1.977  16.469  0.00  0.00    -0.263 OA
BRANCH  38  40
ATOM     40  C5  ZIN A   1      18.592   2.568  18.658  0.00  0.00     0.342 C 
BRANCH  40  41
ATOM     41  N2  ZIN A   1      18.455   3.840  19.381  0.00  0.00    -0.070 N 
ATOM     42  C1  ZIN A   1      17.122   4.404  19.130  0.00  0.00     0.267 C 
ATOM     43  H3  ZIN A   1      19.159   4.486  19.059  0.00  0.00     0.277 HD
ATOM     44  H4  ZIN A   1      18.571   3.680  20.370  0.00  0.00     0.277 HD
ENDBRANCH  40  41
ENDBRANCH  38  40
ENDBRANCH  37  38
ENDBRANCH  36  37
ENDBRANCH  31  36
ENDBRANCH  27  30
ENDBRANCH  25  26
ENDBRANCH  23  25
ENDBRANCH  20  23
ENDBRANCH  17  18
ENDBRANCH  16  17
BRANCH  16  45
ATOM     45  O29 ZIN A   1      16.925  -2.047  10.477  0.00  0.00    -0.382 OA
ATOM     46  H75 ZIN A   1      16.670  -1.179  10.816  0.00  0.00     0.211 HD
ENDBRANCH  16  45
BRANCH  16  47
ATOM     47  C30 ZIN A   1      18.462  -1.973  12.315  0.00  0.00     0.020 A 
ATOM     48  C36 ZIN A   1      19.605  -2.355  12.998  0.00  0.00     0.126 A 
ATOM     49  C35 ZIN A   1      19.844  -1.874  14.273  0.00  0.00     0.046 A 
ATOM     50  F37 ZIN A   1      20.492  -3.190  12.414  0.00  0.00    -0.205 F 
ATOM     51  C34 ZIN A   1      18.936  -1.020  14.870  0.00  0.00     0.045 A 
ATOM     52  C32 ZIN A   1      17.791  -0.641  14.190  0.00  0.00     0.117 A 
ATOM     53  C31 ZIN A   1      17.555  -1.119  12.912  0.00  0.00     0.055 A 
ATOM     54  F33 ZIN A   1      16.904   0.193  14.774  0.00  0.00    -0.206 F 
ENDBRANCH  16  47
ENDBRANCH  14  16
ENDBRANCH  11  14
ENDBRANCH   1   9
TORSDOF 16
ENDMDL
MODEL 8
REMARK VINA RESULT:      -8.5      2.985      6.275
REMARK  16 active torsions:
REMARK  status: ('A' for Active; 'I' for Inactive)
REMARK    1  A    between atoms: N2_2  and  C5_5 
REMARK    2  A    between atoms: C5_5  and  C6_6 
REMARK    3  A    between atoms: C6_6  and  O8_8 
REMARK    4  A    between atoms: O8_8  and  C9_9 
REMARK    5  A    between atoms: C9_9  and  C10_10 
REMARK    6  A    between atoms: C15_15  and  N16_16 
REMARK       I    between atoms: N16_16  and  C18_18 
REMARK    7  A    between atoms: C18_18  and  O20_20 
REMARK    8  A    between atoms: O20_20  and  C21_21 
REMARK    9  A    between atoms: C21_21  and  N24_23 
REMARK   10  A    between atoms: N26_25  and  C27_26 
REMARK   11  A    between atoms: C27_26  and  C28_27 
REMARK   12  A    between atoms: C28_27  and  O29_28 
REMARK   13  A    between atoms: C28_27  and  C30_29 
REMARK   14  A    between atoms: C28_27  and  C38_37 
REMARK   15  A    between atoms: C38_37  and  C41_39 
REMARK   16  A    between atoms: C43_41  and  C44_42 
ROOT
ATOM      1  C44 ZIN A   1      17.950   5.315  13.130  0.00  0.00    -0.007 A 
ATOM      2  C45 ZIN A   1      19.072   5.576  13.917  0.00  0.00     0.015 A 
ATOM      3  C46 ZIN A   1      19.031   6.569  14.863  0.00  0.00     0.023 A 
ATOM      4  C47 ZIN A   1      17.863   7.319  15.039  0.00  0.00     0.044 A 
ATOM      5  C48 ZIN A   1      17.820   8.355  16.026  0.00  0.00     0.099 C 
ATOM      6  N49 ZIN A   1      17.784   9.177  16.808  0.00  0.00    -0.191 NA
ATOM      7  C50 ZIN A   1      16.740   7.056  14.249  0.00  0.00     0.023 A 
ATOM      8  C51 ZIN A   1      16.785   6.067  13.300  0.00  0.00     0.015 A 
ENDROOT
BRANCH   1   9
ATOM      9  C43 ZIN A   1      17.995   4.242  12.109  0.00  0.00     0.074 A 
ATOM     10  N42 ZIN A   1      18.040   2.954  12.418  0.00  0.00    -0.244 NA
ATOM     11  C41 ZIN A   1      18.077   2.117  11.440  0.00  0.00     0.082 A 
ATOM     12  S53 ZIN A   1      18.065   2.942   9.944  0.00  0.00    -0.084 SA
ATOM     13  C52 ZIN A   1      17.996   4.490  10.782  0.00  0.00     0.084 A 
BRANCH  11  14
ATOM     14  C38 ZIN A   1      18.130   0.619  11.595  0.00  0.00     0.082 C 
ATOM     15  C40 ZIN A   1      16.971   0.157  12.483  0.00  0.00     0.020 C 
BRANCH  14  16
ATOM     16  C28 ZIN A   1      19.458   0.220  12.242  0.00  0.00     0.115 C 
BRANCH  16  17
ATOM     17  C27 ZIN A   1      20.016  -1.018  11.537  0.00  0.00     0.196 C 
BRANCH  17  18
ATOM     18  N26 ZIN A   1      19.292  -1.234  10.281  0.00  0.00    -0.261 N 
ATOM     19  C25 ZIN A   1      19.523  -0.627   9.104  0.00  0.00     0.208 A 
ATOM     20  N24 ZIN A   1      18.665  -1.093   8.233  0.00  0.00    -0.307 N 
ATOM     21  C55 ZIN A   1      17.870  -1.989   8.816  0.00  0.00     0.235 A 
ATOM     22  N54 ZIN A   1      18.220  -2.114  10.069  0.00  0.00    -0.166 NA
BRANCH  20  23
ATOM     23  C21 ZIN A   1      18.586  -0.683   6.828  0.00  0.00     0.237 C 
ATOM     24  C23 ZIN A   1      18.774   0.832   6.728  0.00  0.00     0.064 C 
BRANCH  23  25
ATOM     25  O20 ZIN A   1      19.629  -1.352   6.071  0.00  0.00    -0.278 OA
BRANCH  25  26
ATOM     26  C18 ZIN A   1      19.350  -2.583   5.599  0.00  0.00     0.370 C 
ATOM     27  N16 ZIN A   1      18.266  -2.776   4.822  0.00  0.00    -0.282 N 
ATOM     28  C17 ZIN A   1      17.392  -1.648   4.491  0.00  0.00     0.163 C 
ATOM     29  O19 ZIN A   1      20.075  -3.517   5.874  0.00  0.00    -0.238 OA
BRANCH  27  30
ATOM     30  C15 ZIN A   1      17.977  -4.049   4.334  0.00  0.00     0.141 A 
ATOM     31  C10 ZIN A   1      17.434  -5.006   5.185  0.00  0.00     0.012 A 
ATOM     32  C11 ZIN A   1      17.153  -6.266   4.688  0.00  0.00     0.014 A 
ATOM     33  C12 ZIN A   1      17.429  -6.529   3.352  0.00  0.00     0.020 A 
ATOM     34  C13 ZIN A   1      17.973  -5.532   2.567  0.00  0.00     0.119 A 
ATOM     35  N14 ZIN A   1      18.231  -4.339   3.069  0.00  0.00    -0.242 NA
BRANCH  31  36
ATOM     36  C9  ZIN A   1      17.152  -4.673   6.627  0.00  0.00     0.221 C 
BRANCH  36  37
ATOM     37  O8  ZIN A   1      16.614  -5.843   7.298  0.00  0.00    -0.315 OA
BRANCH  37  38
ATOM     38  C6  ZIN A   1      16.300  -5.712   8.595  0.00  0.00     0.284 C 
ATOM     39  O7  ZIN A   1      15.143  -5.604   8.928  0.00  0.00    -0.263 OA
BRANCH  38  40
ATOM     40  C5  ZIN A   1      17.389  -5.700   9.638  0.00  0.00     0.342 C 
BRANCH  40  41
ATOM     41  N2  ZIN A   1      17.010  -4.793  10.730  0.00  0.00    -0.070 N 
ATOM     42  C1  ZIN A   1      17.325  -5.423  12.020  0.00  0.00     0.267 C 
ATOM     43  H3  ZIN A   1      16.020  -4.604  10.682  0.00  0.00     0.277 HD
ATOM     44  H4  ZIN A   1      17.522  -3.929  10.645  0.00  0.00     0.277 HD
ENDBRANCH  40  41
ENDBRANCH  38  40
ENDBRANCH  37  38
ENDBRANCH  36  37
ENDBRANCH  31  36
ENDBRANCH  27  30
ENDBRANCH  25  26
ENDBRANCH  23  25
ENDBRANCH  20  23
ENDBRANCH  17  18
ENDBRANCH  16  17
BRANCH  16  45
ATOM     45  O29 ZIN A   1      20.389   1.297  12.122  0.00  0.00    -0.382 OA
ATOM     46  H75 ZIN A   1      20.441   1.673  11.233  0.00  0.00     0.211 HD
ENDBRANCH  16  45
BRANCH  16  47
ATOM     47  C30 ZIN A   1      19.234  -0.091  13.699  0.00  0.00     0.020 A 
ATOM     48  C36 ZIN A   1      18.884  -1.374  14.088  0.00  0.00     0.126 A 
ATOM     49  C35 ZIN A   1      18.685  -1.662  15.426  0.00  0.00     0.046 A 
ATOM     50  F37 ZIN A   1      18.749  -2.347  13.160  0.00  0.00    -0.205 F 
ATOM     51  C34 ZIN A   1      18.823  -0.667  16.375  0.00  0.00     0.045 A 
ATOM     52  C32 ZIN A   1      19.168   0.617  15.987  0.00  0.00     0.117 A 
ATOM     53  C31 ZIN A   1      19.373   0.903  14.648  0.00  0.00     0.055 A 
ATOM     54  F33 ZIN A   1      19.303   1.589  16.914  0.00  0.00    -0.206 F 
ENDBRANCH  16  47
ENDBRANCH  14  16
ENDBRANCH  11  14
ENDBRANCH   1   9
TORSDOF 16
ENDMDL
MODEL 9
REMARK VINA RESULT:      -8.3      3.542     10.001
REMARK  16 active torsions:
REMARK  status: ('A' for Active; 'I' for Inactive)
REMARK    1  A    between atoms: N2_2  and  C5_5 
REMARK    2  A    between atoms: C5_5  and  C6_6 
REMARK    3  A    between atoms: C6_6  and  O8_8 
REMARK    4  A    between atoms: O8_8  and  C9_9 
REMARK    5  A    between atoms: C9_9  and  C10_10 
REMARK    6  A    between atoms: C15_15  and  N16_16 
REMARK       I    between atoms: N16_16  and  C18_18 
REMARK    7  A    between atoms: C18_18  and  O20_20 
REMARK    8  A    between atoms: O20_20  and  C21_21 
REMARK    9  A    between atoms: C21_21  and  N24_23 
REMARK   10  A    between atoms: N26_25  and  C27_26 
REMARK   11  A    between atoms: C27_26  and  C28_27 
REMARK   12  A    between atoms: C28_27  and  O29_28 
REMARK   13  A    between atoms: C28_27  and  C30_29 
REMARK   14  A    between atoms: C28_27  and  C38_37 
REMARK   15  A    between atoms: C38_37  and  C41_39 
REMARK   16  A    between atoms: C43_41  and  C44_42 
ROOT
ATOM      1  C44 ZIN A   1      18.291  -1.789   5.846  0.00  0.00    -0.007 A 
ATOM      2  C45 ZIN A   1      18.958  -0.724   5.238  0.00  0.00     0.015 A 
ATOM      3  C46 ZIN A   1      19.187   0.432   5.939  0.00  0.00     0.023 A 
ATOM      4  C47 ZIN A   1      18.753   0.543   7.264  0.00  0.00     0.044 A 
ATOM      5  C48 ZIN A   1      18.992   1.750   7.997  0.00  0.00     0.099 C 
ATOM      6  N49 ZIN A   1      19.180   2.707   8.579  0.00  0.00    -0.191 NA
ATOM      7  C50 ZIN A   1      18.085  -0.525   7.872  0.00  0.00     0.023 A 
ATOM      8  C51 ZIN A   1      17.852  -1.677   7.167  0.00  0.00     0.015 A 
ENDROOT
BRANCH   1   9
ATOM      9  C43 ZIN A   1      18.045  -3.038   5.087  0.00  0.00     0.074 A 
ATOM     10  N42 ZIN A   1      17.272  -4.015   5.539  0.00  0.00    -0.244 NA
ATOM     11  C41 ZIN A   1      17.136  -5.052   4.787  0.00  0.00     0.082 A 
ATOM     12  S53 ZIN A   1      18.041  -4.872   3.349  0.00  0.00    -0.084 SA
ATOM     13  C52 ZIN A   1      18.588  -3.283   3.876  0.00  0.00     0.084 A 
BRANCH  11  14
ATOM     14  C38 ZIN A   1      16.300  -6.258   5.131  0.00  0.00     0.082 C 
ATOM     15  C40 ZIN A   1      14.872  -6.051   4.619  0.00  0.00     0.020 C 
BRANCH  14  16
ATOM     16  C28 ZIN A   1      16.275  -6.444   6.649  0.00  0.00     0.115 C 
BRANCH  16  17
ATOM     17  C27 ZIN A   1      17.702  -6.370   7.196  0.00  0.00     0.196 C 
BRANCH  17  18
ATOM     18  N26 ZIN A   1      17.673  -5.871   8.573  0.00  0.00    -0.261 N 
ATOM     19  C25 ZIN A   1      18.359  -4.825   9.066  0.00  0.00     0.208 A 
ATOM     20  N24 ZIN A   1      18.059  -4.705  10.334  0.00  0.00    -0.307 N 
ATOM     21  C55 ZIN A   1      17.194  -5.655  10.686  0.00  0.00     0.235 A 
ATOM     22  N54 ZIN A   1      16.923  -6.390   9.640  0.00  0.00    -0.166 NA
BRANCH  20  23
ATOM     23  C21 ZIN A   1      18.601  -3.682  11.233  0.00  0.00     0.237 C 
ATOM     24  C23 ZIN A   1      20.022  -4.068  11.647  0.00  0.00     0.064 C 
BRANCH  23  25
ATOM     25  O20 ZIN A   1      18.626  -2.401  10.549  0.00  0.00    -0.278 OA
BRANCH  25  26
ATOM     26  C18 ZIN A   1      18.196  -1.329  11.241  0.00  0.00     0.370 C 
ATOM     27  N16 ZIN A   1      19.046  -0.320  11.517  0.00  0.00    -0.282 N 
ATOM     28  C17 ZIN A   1      20.437  -0.390  11.064  0.00  0.00     0.163 C 
ATOM     29  O19 ZIN A   1      17.042  -1.272  11.615  0.00  0.00    -0.238 OA
BRANCH  27  30
ATOM     30  C15 ZIN A   1      18.600   0.789  12.233  0.00  0.00     0.141 A 
ATOM     31  C10 ZIN A   1      18.621   0.766  13.623  0.00  0.00     0.012 A 
ATOM     32  C11 ZIN A   1      18.175   1.873  14.322  0.00  0.00     0.014 A 
ATOM     33  C12 ZIN A   1      17.718   2.970  13.603  0.00  0.00     0.020 A 
ATOM     34  C13 ZIN A   1      17.720   2.922  12.223  0.00  0.00     0.119 A 
ATOM     35  N14 ZIN A   1      18.152   1.851  11.584  0.00  0.00    -0.242 NA
BRANCH  31  36
ATOM     36  C9  ZIN A   1      19.127  -0.448  14.359  0.00  0.00     0.221 C 
BRANCH  36  37
ATOM     37  O8  ZIN A   1      18.374  -0.618  15.588  0.00  0.00    -0.315 OA
BRANCH  37  38
ATOM     38  C6  ZIN A   1      19.068  -0.950  16.688  0.00  0.00     0.284 C 
ATOM     39  O7  ZIN A   1      19.589  -2.038  16.767  0.00  0.00    -0.263 OA
BRANCH  38  40
ATOM     40  C5  ZIN A   1      19.199   0.033  17.823  0.00  0.00     0.342 C 
BRANCH  40  41
ATOM     41  N2  ZIN A   1      18.283   1.160  17.602  0.00  0.00    -0.070 N 
ATOM     42  C1  ZIN A   1      17.533   1.430  18.837  0.00  0.00     0.267 C 
ATOM     43  H3  ZIN A   1      17.638   0.929  16.862  0.00  0.00     0.277 HD
ATOM     44  H4  ZIN A   1      18.812   1.979  17.345  0.00  0.00     0.277 HD
ENDBRANCH  40  41
ENDBRANCH  38  40
ENDBRANCH  37  38
ENDBRANCH  36  37
ENDBRANCH  31  36
ENDBRANCH  27  30
ENDBRANCH  25  26
ENDBRANCH  23  25
ENDBRANCH  20  23
ENDBRANCH  17  18
ENDBRANCH  16  17
BRANCH  16  45
ATOM     45  O29 ZIN A   1      15.484  -5.413   7.242  0.00  0.00    -0.382 OA
ATOM     46  H75 ZIN A   1      14.909  -4.951   6.618  0.00  0.00     0.211 HD
ENDBRANCH  16  45
BRANCH  16  47
ATOM     47  C30 ZIN A   1      15.681  -7.788   6.981  0.00  0.00     0.020 A 
ATOM     48  C36 ZIN A   1      16.403  -8.945   6.735  0.00  0.00     0.126 A 
ATOM     49  C35 ZIN A   1      15.860 -10.179   7.046  0.00  0.00     0.046 A 
ATOM     50  F37 ZIN A   1      17.641  -8.866   6.202  0.00  0.00    -0.205 F 
ATOM     51  C34 ZIN A   1      14.593 -10.259   7.591  0.00  0.00     0.045 A 
ATOM     52  C32 ZIN A   1      13.869  -9.104   7.833  0.00  0.00     0.117 A 
ATOM     53  C31 ZIN A   1      14.414  -7.869   7.527  0.00  0.00     0.055 A 
ATOM     54  F33 ZIN A   1      12.630  -9.182   8.366  0.00  0.00    -0.206 F 
ENDBRANCH  16  47
ENDBRANCH  14  16
ENDBRANCH  11  14
ENDBRANCH   1   9
TORSDOF 16
ENDMDL
