MODEL 1
REMARK VINA RESULT:      -6.4      0.000      0.000
REMARK  5 active torsions:
REMARK  status: ('A' for Active; 'I' for Inactive)
REMARK    1  A    between atoms: C2_2  and  C3_3 
REMARK    2  A    between atoms: C3_3  and  C4_4 
REMARK    3  A    between atoms: C4_4  and  C5_5 
REMARK    4  A    between atoms: C5_5  and  C8_7 
REMARK    5  A    between atoms: C9_8  and  C10_9 
ROOT
ATOM      1  C4  ZIN A   1      18.902  -0.225  11.945  0.00  0.00     0.139 A 
ATOM      2  C12 ZIN A   1      20.327  -0.604  11.586  0.00  0.00     0.245 A 
ATOM      3  O13 ZIN A   1      21.239   0.182  11.718  0.00  0.00    -0.272 OA
ATOM      4  N14 ZIN A   1      20.541  -1.851  11.113  0.00  0.00    -0.278 N 
ATOM      5  C15 ZIN A   1      19.545  -2.732  10.962  0.00  0.00     0.331 A 
ATOM      6  O16 ZIN A   1      19.827  -3.832  10.531  0.00  0.00    -0.246 OA
ATOM      7  N17 ZIN A   1      18.261  -2.489  11.250  0.00  0.00    -0.273 N 
ATOM      8  C18 ZIN A   1      17.272  -3.548  11.035  0.00  0.00     0.164 C 
ATOM      9  C19 ZIN A   1      17.850  -1.298  11.734  0.00  0.00     0.247 A 
ATOM     10  O20 ZIN A   1      16.683  -1.093  11.991  0.00  0.00    -0.271 OA
ATOM     11  H34 ZIN A   1      21.444  -2.117  10.877  0.00  0.00     0.173 HD
ENDROOT
BRANCH   1  12
ATOM     12  C3  ZIN A   1      18.876   0.185  13.418  0.00  0.00     0.057 C 
BRANCH  12  13
ATOM     13  C2  ZIN A   1      19.268  -0.992  14.275  0.00  0.00    -0.035 C 
ATOM     14  C1  ZIN A   1      18.612  -1.244  15.380  0.00  0.00     0.007 C 
ENDBRANCH  12  13
ENDBRANCH   1  12
BRANCH   1  15
ATOM     15  C5  ZIN A   1      18.513   0.994  11.108  0.00  0.00     0.088 C 
ATOM     16  C7  ZIN A   1      17.382   1.752  11.805  0.00  0.00     0.025 C 
BRANCH  15  17
ATOM     17  C8  ZIN A   1      18.061   0.552   9.778  0.00  0.00    -0.100 C 
ATOM     18  C9  ZIN A   1      17.700   0.201   8.717  0.00  0.00    -0.106 C 
BRANCH  18  19
ATOM     19  C10 ZIN A   1      17.248  -0.241   7.388  0.00  0.00     0.089 C 
ATOM     20  C11 ZIN A   1      18.089   0.444   6.310  0.00  0.00     0.018 C 
ENDBRANCH  18  19
ENDBRANCH  15  17
ENDBRANCH   1  15
TORSDOF 5
ENDMDL
MODEL 2
REMARK VINA RESULT:      -6.3      1.727      4.793
REMARK  5 active torsions:
REMARK  status: ('A' for Active; 'I' for Inactive)
REMARK    1  A    between atoms: C2_2  and  C3_3 
REMARK    2  A    between atoms: C3_3  and  C4_4 
REMARK    3  A    between atoms: C4_4  and  C5_5 
REMARK    4  A    between atoms: C5_5  and  C8_7 
REMARK    5  A    between atoms: C9_8  and  C10_9 
ROOT
ATOM      1  C4  ZIN A   1      18.768  -0.953  12.304  0.00  0.00     0.139 A 
ATOM      2  C12 ZIN A   1      19.951  -0.010  12.183  0.00  0.00     0.245 A 
ATOM      3  O13 ZIN A   1      20.657   0.239  13.136  0.00  0.00    -0.272 OA
ATOM      4  N14 ZIN A   1      20.188   0.541  10.973  0.00  0.00    -0.278 N 
ATOM      5  C15 ZIN A   1      19.420   0.276   9.911  0.00  0.00     0.331 A 
ATOM      6  O16 ZIN A   1      19.705   0.815   8.860  0.00  0.00    -0.246 OA
ATOM      7  N17 ZIN A   1      18.359  -0.539   9.921  0.00  0.00    -0.273 N 
ATOM      8  C18 ZIN A   1      17.604  -0.739   8.681  0.00  0.00     0.164 C 
ATOM      9  C19 ZIN A   1      17.963  -1.184  11.039  0.00  0.00     0.247 A 
ATOM     10  O20 ZIN A   1      16.999  -1.920  11.033  0.00  0.00    -0.271 OA
ATOM     11  H34 ZIN A   1      20.939   1.147  10.871  0.00  0.00     0.173 HD
ENDROOT
BRANCH   1  12
ATOM     12  C3  ZIN A   1      19.288  -2.306  12.792  0.00  0.00     0.057 C 
BRANCH  12  13
ATOM     13  C2  ZIN A   1      20.078  -2.968  11.692  0.00  0.00    -0.035 C 
ATOM     14  C1  ZIN A   1      19.941  -4.252  11.469  0.00  0.00     0.007 C 
ENDBRANCH  12  13
ENDBRANCH   1  12
BRANCH   1  15
ATOM     15  C5  ZIN A   1      17.827  -0.394  13.372  0.00  0.00     0.088 C 
ATOM     16  C7  ZIN A   1      17.753   1.128  13.241  0.00  0.00     0.025 C 
BRANCH  15  17
ATOM     17  C8  ZIN A   1      18.336  -0.747  14.708  0.00  0.00    -0.100 C 
ATOM     18  C9  ZIN A   1      18.742  -1.028  15.773  0.00  0.00    -0.106 C 
BRANCH  18  19
ATOM     19  C10 ZIN A   1      19.251  -1.381  17.109  0.00  0.00     0.089 C 
ATOM     20  C11 ZIN A   1      19.246  -0.138  18.001  0.00  0.00     0.018 C 
ENDBRANCH  18  19
ENDBRANCH  15  17
ENDBRANCH   1  15
TORSDOF 5
ENDMDL
MODEL 3
REMARK VINA RESULT:      -6.3      1.883      3.530
REMARK  5 active torsions:
REMARK  status: ('A' for Active; 'I' for Inactive)
REMARK    1  A    between atoms: C2_2  and  C3_3 
REMARK    2  A    between atoms: C3_3  and  C4_4 
REMARK    3  A    between atoms: C4_4  and  C5_5 
REMARK    4  A    between atoms: C5_5  and  C8_7 
REMARK    5  A    between atoms: C9_8  and  C10_9 
ROOT
ATOM      1  C4  ZIN A   1      18.332   0.236  10.291  0.00  0.00     0.139 A 
ATOM      2  C12 ZIN A   1      19.820  -0.049  10.368  0.00  0.00     0.245 A 
ATOM      3  O13 ZIN A   1      20.480  -0.220   9.367  0.00  0.00    -0.272 OA
ATOM      4  N14 ZIN A   1      20.382  -0.105  11.596  0.00  0.00    -0.278 N 
ATOM      5  C15 ZIN A   1      19.667   0.083  12.711  0.00  0.00     0.331 A 
ATOM      6  O16 ZIN A   1      20.253   0.016  13.773  0.00  0.00    -0.246 OA
ATOM      7  N17 ZIN A   1      18.354   0.339  12.742  0.00  0.00    -0.273 N 
ATOM      8  C18 ZIN A   1      17.697   0.523  14.038  0.00  0.00     0.164 C 
ATOM      9  C19 ZIN A   1      17.617   0.433  11.615  0.00  0.00     0.247 A 
ATOM     10  O20 ZIN A   1      16.428   0.665  11.659  0.00  0.00    -0.271 OA
ATOM     11  H34 ZIN A   1      21.332  -0.286  11.670  0.00  0.00     0.173 HD
ENDROOT
BRANCH   1  12
ATOM     12  C3  ZIN A   1      18.133   1.499   9.450  0.00  0.00     0.057 C 
BRANCH  12  13
ATOM     13  C2  ZIN A   1      18.771   2.673  10.148  0.00  0.00    -0.035 C 
ATOM     14  C1  ZIN A   1      18.124   3.808  10.244  0.00  0.00     0.007 C 
ENDBRANCH  12  13
ENDBRANCH   1  12
BRANCH   1  15
ATOM     15  C5  ZIN A   1      17.666  -0.929   9.559  0.00  0.00     0.088 C 
ATOM     16  C7  ZIN A   1      18.399  -2.229   9.895  0.00  0.00     0.025 C 
BRANCH  15  17
ATOM     17  C8  ZIN A   1      17.725  -0.694   8.107  0.00  0.00    -0.100 C 
ATOM     18  C9  ZIN A   1      17.772  -0.508   6.948  0.00  0.00    -0.106 C 
BRANCH  18  19
ATOM     19  C10 ZIN A   1      17.831  -0.273   5.496  0.00  0.00     0.089 C 
ATOM     20  C11 ZIN A   1      19.243   0.172   5.109  0.00  0.00     0.018 C 
ENDBRANCH  18  19
ENDBRANCH  15  17
ENDBRANCH   1  15
TORSDOF 5
ENDMDL
MODEL 4
REMARK VINA RESULT:      -6.3      2.039      5.351
REMARK  5 active torsions:
REMARK  status: ('A' for Active; 'I' for Inactive)
REMARK    1  A    between atoms: C2_2  and  C3_3 
REMARK    2  A    between atoms: C3_3  and  C4_4 
REMARK    3  A    between atoms: C4_4  and  C5_5 
REMARK    4  A    between atoms: C5_5  and  C8_7 
REMARK    5  A    between atoms: C9_8  and  C10_9 
ROOT
ATOM      1  C4  ZIN A   1      18.900  -0.061  11.143  0.00  0.00     0.139 A 
ATOM      2  C12 ZIN A   1      20.362   0.303  11.320  0.00  0.00     0.245 A 
ATOM      3  O13 ZIN A   1      21.239  -0.513  11.142  0.00  0.00    -0.272 OA
ATOM      4  N14 ZIN A   1      20.649   1.572  11.684  0.00  0.00    -0.278 N 
ATOM      5  C15 ZIN A   1      19.693   2.485  11.884  0.00  0.00     0.331 A 
ATOM      6  O16 ZIN A   1      20.041   3.603  12.208  0.00  0.00    -0.246 OA
ATOM      7  N17 ZIN A   1      18.381   2.258  11.752  0.00  0.00    -0.273 N 
ATOM      8  C18 ZIN A   1      17.441   3.354  12.003  0.00  0.00     0.164 C 
ATOM      9  C19 ZIN A   1      17.897   1.049  11.395  0.00  0.00     0.247 A 
ATOM     10  O20 ZIN A   1      16.705   0.858  11.280  0.00  0.00    -0.271 OA
ATOM     11  H34 ZIN A   1      21.578   1.828  11.803  0.00  0.00     0.173 HD
ENDROOT
BRANCH   1  12
ATOM     12  C3  ZIN A   1      18.705  -0.563   9.711  0.00  0.00     0.057 C 
BRANCH  12  13
ATOM     13  C2  ZIN A   1      19.045   0.540   8.741  0.00  0.00    -0.035 C 
ATOM     14  C1  ZIN A   1      18.428   0.609   7.587  0.00  0.00     0.007 C 
ENDBRANCH  12  13
ENDBRANCH   1  12
BRANCH   1  15
ATOM     15  C5  ZIN A   1      18.582  -1.214  12.096  0.00  0.00     0.088 C 
ATOM     16  C7  ZIN A   1      17.408  -2.025  11.543  0.00  0.00     0.025 C 
BRANCH  15  17
ATOM     17  C8  ZIN A   1      18.226  -0.675  13.418  0.00  0.00    -0.100 C 
ATOM     18  C9  ZIN A   1      17.941  -0.244  14.473  0.00  0.00    -0.106 C 
BRANCH  18  19
ATOM     19  C10 ZIN A   1      17.585   0.295  15.795  0.00  0.00     0.089 C 
ATOM     20  C11 ZIN A   1      17.224  -0.856  16.735  0.00  0.00     0.018 C 
ENDBRANCH  18  19
ENDBRANCH  15  17
ENDBRANCH   1  15
TORSDOF 5
ENDMDL
MODEL 5
REMARK VINA RESULT:      -6.3      2.192      4.601
REMARK  5 active torsions:
REMARK  status: ('A' for Active; 'I' for Inactive)
REMARK    1  A    between atoms: C2_2  and  C3_3 
REMARK    2  A    between atoms: C3_3  and  C4_4 
REMARK    3  A    between atoms: C4_4  and  C5_5 
REMARK    4  A    between atoms: C5_5  and  C8_7 
REMARK    5  A    between atoms: C9_8  and  C10_9 
ROOT
ATOM      1  C4  ZIN A   1      18.916  -0.761  12.182  0.00  0.00     0.139 A 
ATOM      2  C12 ZIN A   1      17.436  -0.624  11.880  0.00  0.00     0.245 A 
ATOM      3  O13 ZIN A   1      16.692  -1.579  11.931  0.00  0.00    -0.272 OA
ATOM      4  N14 ZIN A   1      16.977   0.603  11.551  0.00  0.00    -0.278 N 
ATOM      5  C15 ZIN A   1      17.784   1.668  11.491  0.00  0.00     0.331 A 
ATOM      6  O16 ZIN A   1      17.288   2.735  11.188  0.00  0.00    -0.246 OA
ATOM      7  N17 ZIN A   1      19.098   1.645  11.740  0.00  0.00    -0.273 N 
ATOM      8  C18 ZIN A   1      19.864   2.890  11.636  0.00  0.00     0.164 C 
ATOM      9  C19 ZIN A   1      19.741   0.509  12.084  0.00  0.00     0.247 A 
ATOM     10  O20 ZIN A   1      20.933   0.503  12.307  0.00  0.00    -0.271 OA
ATOM     11  H34 ZIN A   1      16.034   0.716  11.354  0.00  0.00     0.173 HD
ENDROOT
BRANCH   1  12
ATOM     12  C3  ZIN A   1      19.062  -1.316  13.600  0.00  0.00     0.057 C 
BRANCH  12  13
ATOM     13  C2  ZIN A   1      18.340  -0.415  14.569  0.00  0.00    -0.035 C 
ATOM     14  C1  ZIN A   1      17.991  -0.868  15.748  0.00  0.00     0.007 C 
ENDBRANCH  12  13
ENDBRANCH   1  12
BRANCH   1  15
ATOM     15  C5  ZIN A   1      19.503  -1.786  11.211  0.00  0.00     0.088 C 
ATOM     16  C7  ZIN A   1      19.215  -1.350   9.773  0.00  0.00     0.025 C 
BRANCH  15  17
ATOM     17  C8  ZIN A   1      18.890  -3.101  11.456  0.00  0.00    -0.100 C 
ATOM     18  C9  ZIN A   1      18.399  -4.151  11.650  0.00  0.00    -0.106 C 
BRANCH  18  19
ATOM     19  C10 ZIN A   1      17.786  -5.466  11.895  0.00  0.00     0.089 C 
ATOM     20  C11 ZIN A   1      17.249  -6.031  10.579  0.00  0.00     0.018 C 
ENDBRANCH  18  19
ENDBRANCH  15  17
ENDBRANCH   1  15
TORSDOF 5
ENDMDL
MODEL 6
REMARK VINA RESULT:      -6.2      1.479      3.003
REMARK  5 active torsions:
REMARK  status: ('A' for Active; 'I' for Inactive)
REMARK    1  A    between atoms: C2_2  and  C3_3 
REMARK    2  A    between atoms: C3_3  and  C4_4 
REMARK    3  A    between atoms: C4_4  and  C5_5 
REMARK    4  A    between atoms: C5_5  and  C8_7 
REMARK    5  A    between atoms: C9_8  and  C10_9 
ROOT
ATOM      1  C4  ZIN A   1      18.765  -0.103  11.915  0.00  0.00     0.139 A 
ATOM      2  C12 ZIN A   1      20.227  -0.432  11.672  0.00  0.00     0.245 A 
ATOM      3  O13 ZIN A   1      21.090   0.408  11.802  0.00  0.00    -0.272 OA
ATOM      4  N14 ZIN A   1      20.530  -1.695  11.304  0.00  0.00    -0.278 N 
ATOM      5  C15 ZIN A   1      19.589  -2.635  11.156  0.00  0.00     0.331 A 
ATOM      6  O16 ZIN A   1      19.950  -3.746  10.823  0.00  0.00    -0.246 OA
ATOM      7  N17 ZIN A   1      18.279  -2.440  11.347  0.00  0.00    -0.273 N 
ATOM      8  C18 ZIN A   1      17.357  -3.561  11.149  0.00  0.00     0.164 C 
ATOM      9  C19 ZIN A   1      17.781  -1.241  11.718  0.00  0.00     0.247 A 
ATOM     10  O20 ZIN A   1      16.592  -1.080  11.888  0.00  0.00    -0.271 OA
ATOM     11  H34 ZIN A   1      21.458  -1.929  11.143  0.00  0.00     0.173 HD
ENDROOT
BRANCH   1  12
ATOM     12  C3  ZIN A   1      18.625   0.406  13.350  0.00  0.00     0.057 C 
BRANCH  12  13
ATOM     13  C2  ZIN A   1      19.017  -0.687  14.312  0.00  0.00    -0.035 C 
ATOM     14  C1  ZIN A   1      18.280  -0.924  15.369  0.00  0.00     0.007 C 
ENDBRANCH  12  13
ENDBRANCH   1  12
BRANCH   1  15
ATOM     15  C5  ZIN A   1      18.374   1.034  10.969  0.00  0.00     0.088 C 
ATOM     16  C7  ZIN A   1      18.971   0.775   9.585  0.00  0.00     0.025 C 
BRANCH  15  17
ATOM     17  C8  ZIN A   1      18.889   2.308  11.495  0.00  0.00    -0.100 C 
ATOM     18  C9  ZIN A   1      19.301   3.325  11.915  0.00  0.00    -0.106 C 
BRANCH  18  19
ATOM     19  C10 ZIN A   1      19.816   4.599  12.441  0.00  0.00     0.089 C 
ATOM     20  C11 ZIN A   1      19.205   4.867  13.817  0.00  0.00     0.018 C 
ENDBRANCH  18  19
ENDBRANCH  15  17
ENDBRANCH   1  15
TORSDOF 5
ENDMDL
MODEL 7
REMARK VINA RESULT:      -6.2      2.109      4.798
REMARK  5 active torsions:
REMARK  status: ('A' for Active; 'I' for Inactive)
REMARK    1  A    between atoms: C2_2  and  C3_3 
REMARK    2  A    between atoms: C3_3  and  C4_4 
REMARK    3  A    between atoms: C4_4  and  C5_5 
REMARK    4  A    between atoms: C5_5  and  C8_7 
REMARK    5  A    between atoms: C9_8  and  C10_9 
ROOT
ATOM      1  C4  ZIN A   1      18.822   0.102  11.509  0.00  0.00     0.139 A 
ATOM      2  C12 ZIN A   1      20.295   0.464  11.453  0.00  0.00     0.245 A 
ATOM      3  O13 ZIN A   1      21.143  -0.380  11.261  0.00  0.00    -0.272 OA
ATOM      4  N14 ZIN A   1      20.626   1.762  11.625  0.00  0.00    -0.278 N 
ATOM      5  C15 ZIN A   1      19.702   2.706  11.836  0.00  0.00     0.331 A 
ATOM      6  O16 ZIN A   1      20.088   3.849  11.980  0.00  0.00    -0.246 OA
ATOM      7  N17 ZIN A   1      18.384   2.484  11.902  0.00  0.00    -0.273 N 
ATOM      8  C18 ZIN A   1      17.483   3.614  12.140  0.00  0.00     0.164 C 
ATOM      9  C19 ZIN A   1      17.860   1.249  11.754  0.00  0.00     0.247 A 
ATOM     10  O20 ZIN A   1      16.663   1.062  11.816  0.00  0.00    -0.271 OA
ATOM     11  H34 ZIN A   1      21.561   2.018  11.593  0.00  0.00     0.173 HD
ENDROOT
BRANCH   1  12
ATOM     12  C3  ZIN A   1      18.446  -0.561  10.183  0.00  0.00     0.057 C 
BRANCH  12  13
ATOM     13  C2  ZIN A   1      18.505   0.459   9.075  0.00  0.00    -0.035 C 
ATOM     14  C1  ZIN A   1      17.883   0.235   7.944  0.00  0.00     0.007 C 
ENDBRANCH  12  13
ENDBRANCH   1  12
BRANCH   1  15
ATOM     15  C5  ZIN A   1      18.632  -0.927  12.624  0.00  0.00     0.088 C 
ATOM     16  C7  ZIN A   1      19.452  -0.513  13.847  0.00  0.00     0.025 C 
BRANCH  15  17
ATOM     17  C8  ZIN A   1      19.083  -2.247  12.155  0.00  0.00    -0.100 C 
ATOM     18  C9  ZIN A   1      19.444  -3.301  11.782  0.00  0.00    -0.106 C 
BRANCH  18  19
ATOM     19  C10 ZIN A   1      19.895  -4.621  11.313  0.00  0.00     0.089 C 
ATOM     20  C11 ZIN A   1      19.451  -4.827   9.864  0.00  0.00     0.018 C 
ENDBRANCH  18  19
ENDBRANCH  15  17
ENDBRANCH   1  15
TORSDOF 5
ENDMDL
MODEL 8
REMARK VINA RESULT:      -6.0      1.848      5.102
REMARK  5 active torsions:
REMARK  status: ('A' for Active; 'I' for Inactive)
REMARK    1  A    between atoms: C2_2  and  C3_3 
REMARK    2  A    between atoms: C3_3  and  C4_4 
REMARK    3  A    between atoms: C4_4  and  C5_5 
REMARK    4  A    between atoms: C5_5  and  C8_7 
REMARK    5  A    between atoms: C9_8  and  C10_9 
ROOT
ATOM      1  C4  ZIN A   1      18.981  -0.313  11.954  0.00  0.00     0.139 A 
ATOM      2  C12 ZIN A   1      17.477  -0.123  11.900  0.00  0.00     0.245 A 
ATOM      3  O13 ZIN A   1      16.820  -0.014  12.912  0.00  0.00    -0.272 OA
ATOM      4  N14 ZIN A   1      16.896  -0.081  10.681  0.00  0.00    -0.278 N 
ATOM      5  C15 ZIN A   1      17.606  -0.199   9.554  0.00  0.00     0.331 A 
ATOM      6  O16 ZIN A   1      17.004  -0.149   8.501  0.00  0.00    -0.246 OA
ATOM      7  N17 ZIN A   1      18.932  -0.370   9.502  0.00  0.00    -0.273 N 
ATOM      8  C18 ZIN A   1      19.583  -0.486   8.194  0.00  0.00     0.164 C 
ATOM      9  C19 ZIN A   1      19.689  -0.438  10.618  0.00  0.00     0.247 A 
ATOM     10  O20 ZIN A   1      20.890  -0.592  10.555  0.00  0.00    -0.271 OA
ATOM     11  H34 ZIN A   1      15.935   0.040  10.622  0.00  0.00     0.173 HD
ENDROOT
BRANCH   1  12
ATOM     12  C3  ZIN A   1      19.584   0.876  12.704  0.00  0.00     0.057 C 
BRANCH  12  13
ATOM     13  C2  ZIN A   1      19.151   2.159  12.043  0.00  0.00    -0.035 C 
ATOM     14  C1  ZIN A   1      20.042   3.066  11.727  0.00  0.00     0.007 C 
ENDBRANCH  12  13
ENDBRANCH   1  12
BRANCH   1  15
ATOM     15  C5  ZIN A   1      19.268  -1.578  12.764  0.00  0.00     0.088 C 
ATOM     16  C7  ZIN A   1      18.382  -2.719  12.260  0.00  0.00     0.025 C 
BRANCH  15  17
ATOM     17  C8  ZIN A   1      18.981  -1.326  14.186  0.00  0.00    -0.100 C 
ATOM     18  C9  ZIN A   1      18.753  -1.125  15.320  0.00  0.00    -0.106 C 
BRANCH  18  19
ATOM     19  C10 ZIN A   1      18.466  -0.873  16.741  0.00  0.00     0.089 C 
ATOM     20  C11 ZIN A   1      17.058  -0.292  16.882  0.00  0.00     0.018 C 
ENDBRANCH  18  19
ENDBRANCH  15  17
ENDBRANCH   1  15
TORSDOF 5
ENDMDL
MODEL 9
REMARK VINA RESULT:      -6.0      2.185      3.732
REMARK  5 active torsions:
REMARK  status: ('A' for Active; 'I' for Inactive)
REMARK    1  A    between atoms: C2_2  and  C3_3 
REMARK    2  A    between atoms: C3_3  and  C4_4 
REMARK    3  A    between atoms: C4_4  and  C5_5 
REMARK    4  A    between atoms: C5_5  and  C8_7 
REMARK    5  A    between atoms: C9_8  and  C10_9 
ROOT
ATOM      1  C4  ZIN A   1      19.057   0.576  10.819  0.00  0.00     0.139 A 
ATOM      2  C12 ZIN A   1      17.569   0.286  10.867  0.00  0.00     0.245 A 
ATOM      3  O13 ZIN A   1      16.926   0.126   9.852  0.00  0.00    -0.272 OA
ATOM      4  N14 ZIN A   1      16.986   0.214  12.083  0.00  0.00    -0.278 N 
ATOM      5  C15 ZIN A   1      17.680   0.388  13.213  0.00  0.00     0.331 A 
ATOM      6  O16 ZIN A   1      17.076   0.305  14.263  0.00  0.00    -0.246 OA
ATOM      7  N17 ZIN A   1      18.992   0.647  13.270  0.00  0.00    -0.273 N 
ATOM      8  C18 ZIN A   1      19.626   0.815  14.580  0.00  0.00     0.164 C 
ATOM      9  C19 ZIN A   1      19.748   0.757  12.157  0.00  0.00     0.247 A 
ATOM     10  O20 ZIN A   1      20.936   0.991  12.225  0.00  0.00    -0.271 OA
ATOM     11  H34 ZIN A   1      16.035   0.030  12.139  0.00  0.00     0.173 HD
ENDROOT
BRANCH   1  12
ATOM     12  C3  ZIN A   1      19.742  -0.576  10.081  0.00  0.00     0.057 C 
BRANCH  12  13
ATOM     13  C2  ZIN A   1      19.628  -1.836  10.900  0.00  0.00    -0.035 C 
ATOM     14  C1  ZIN A   1      19.250  -2.954  10.332  0.00  0.00     0.007 C 
ENDBRANCH  12  13
ENDBRANCH   1  12
BRANCH   1  15
ATOM     15  C5  ZIN A   1      19.264   1.851  10.000  0.00  0.00     0.088 C 
ATOM     16  C7  ZIN A   1      18.214   2.890  10.400  0.00  0.00     0.025 C 
BRANCH  15  17
ATOM     17  C8  ZIN A   1      19.127   1.543   8.568  0.00  0.00    -0.100 C 
ATOM     18  C9  ZIN A   1      19.018   1.297   7.425  0.00  0.00    -0.106 C 
BRANCH  18  19
ATOM     19  C10 ZIN A   1      18.881   0.988   5.992  0.00  0.00     0.089 C 
ATOM     20  C11 ZIN A   1      17.715   0.020   5.788  0.00  0.00     0.018 C 
ENDBRANCH  18  19
ENDBRANCH  15  17
ENDBRANCH   1  15
TORSDOF 5
ENDMDL
