MODEL 1
REMARK VINA RESULT:      -8.0      0.000      0.000
REMARK  8 active torsions:
REMARK  status: ('A' for Active; 'I' for Inactive)
REMARK    1  A    between atoms: O2_2  and  N3_3 
REMARK    2  A    between atoms: C4_4  and  C5_5 
REMARK    3  A    between atoms: C4_4  and  C29_27 
REMARK       I    between atoms: C5_5  and  N7_7 
REMARK    4  A    between atoms: N7_7  and  C8_8 
REMARK    5  A    between atoms: C13_12  and  C14_13 
REMARK    6  A    between atoms: C17_16  and  C18_17 
REMARK    7  A    between atoms: C18_17  and  N19_18 
REMARK    8  A    between atoms: C32_30  and  N33_31 
ROOT
ATOM      1  C8  ZIN A   1      19.510  -2.053   8.769  0.00  0.00     0.211 C 
ATOM      2  C10 ZIN A   1      18.402  -2.070   9.808  0.00  0.00     0.251 C 
ATOM      3  O11 ZIN A   1      17.628  -2.915  10.209  0.00  0.00    -0.271 OA
ATOM      4  N12 ZIN A   1      18.617  -0.777  10.107  0.00  0.00    -0.293 N 
ATOM      5  C13 ZIN A   1      17.940   0.284  10.732  0.00  0.00     0.120 C 
ATOM      6  C17 ZIN A   1      18.174   1.534  10.352  0.00  0.00    -0.011 C 
ATOM      7  C25 ZIN A   1      19.143   2.024   9.328  0.00  0.00     0.114 C 
ATOM      8  S26 ZIN A   1      19.643   0.714   8.169  0.00  0.00    -0.136 SA
ATOM      9  C27 ZIN A   1      19.889  -0.681   9.318  0.00  0.00     0.187 C 
ENDROOT
BRANCH   1  10
ATOM     10  N7  ZIN A   1      19.022  -2.020   7.390  0.00  0.00    -0.339 N 
ATOM     11  C5  ZIN A   1      19.513  -2.885   6.480  0.00  0.00     0.275 C 
ATOM     12  O6  ZIN A   1      20.423  -3.632   6.782  0.00  0.00    -0.266 OA
ATOM     13  H38 ZIN A   1      18.345  -1.375   7.130  0.00  0.00     0.163 HD
BRANCH  11  14
ATOM     14  C4  ZIN A   1      18.943  -2.925   5.113  0.00  0.00     0.180 C 
ATOM     15  N3  ZIN A   1      19.232  -1.985   4.258  0.00  0.00    -0.126 NA
BRANCH  15  16
ATOM     16  O2  ZIN A   1      19.993  -0.864   4.670  0.00  0.00    -0.261 OA
ATOM     17  C1  ZIN A   1      19.272   0.369   4.647  0.00  0.00     0.240 C 
ENDBRANCH  15  16
BRANCH  14  18
ATOM     18  C29 ZIN A   1      18.048  -4.034   4.717  0.00  0.00     0.102 A 
ATOM     19  N34 ZIN A   1      17.512  -4.871   5.605  0.00  0.00    -0.222 NA
ATOM     20  C32 ZIN A   1      16.738  -5.802   5.141  0.00  0.00     0.164 A 
ATOM     21  S31 ZIN A   1      16.642  -5.667   3.388  0.00  0.00    -0.062 SA
ATOM     22  C30 ZIN A   1      17.718  -4.272   3.433  0.00  0.00     0.087 A 
BRANCH  20  23
ATOM     23  N33 ZIN A   1      16.091  -6.758   5.905  0.00  0.00    -0.378 N 
ATOM     24  H55 ZIN A   1      15.966  -6.615   6.856  0.00  0.00     0.158 HD
ATOM     25  H56 ZIN A   1      15.762  -7.570   5.490  0.00  0.00     0.158 HD
ENDBRANCH  20  23
ENDBRANCH  14  18
ENDBRANCH  11  14
ENDBRANCH   1  10
BRANCH   5  26
ATOM     26  C14 ZIN A   1      16.972   0.010  11.806  0.00  0.00     0.227 C 
ATOM     27  O15 ZIN A   1      15.773   0.044  11.572  0.00  0.00    -0.643 OA
ATOM     28  O16 ZIN A   1      17.369  -0.250  12.935  0.00  0.00    -0.643 OA
ENDBRANCH   5  26
BRANCH   6  29
ATOM     29  C18 ZIN A   1      17.356   2.594  11.043  0.00  0.00     0.274 C 
BRANCH  29  30
ATOM     30  N19 ZIN A   1      18.204   3.324  11.996  0.00  0.00    -0.067 N 
ATOM     31  C24 ZIN A   1      17.710   3.105  13.372  0.00  0.00     0.237 C 
ATOM     32  C23 ZIN A   1      17.941   4.455  14.094  0.00  0.00     0.029 C 
ATOM     33  C22 ZIN A   1      17.620   5.472  12.968  0.00  0.00     0.029 C 
ATOM     34  C21 ZIN A   1      18.151   4.768  11.701  0.00  0.00     0.237 C 
ATOM     35  C20 ZIN A   1      19.591   2.851  11.887  0.00  0.00     0.272 C 
ENDBRANCH  29  30
ENDBRANCH   6  29
TORSDOF 8
ENDMDL
MODEL 2
REMARK VINA RESULT:      -7.8      3.206      5.259
REMARK  8 active torsions:
REMARK  status: ('A' for Active; 'I' for Inactive)
REMARK    1  A    between atoms: O2_2  and  N3_3 
REMARK    2  A    between atoms: C4_4  and  C5_5 
REMARK    3  A    between atoms: C4_4  and  C29_27 
REMARK       I    between atoms: C5_5  and  N7_7 
REMARK    4  A    between atoms: N7_7  and  C8_8 
REMARK    5  A    between atoms: C13_12  and  C14_13 
REMARK    6  A    between atoms: C17_16  and  C18_17 
REMARK    7  A    between atoms: C18_17  and  N19_18 
REMARK    8  A    between atoms: C32_30  and  N33_31 
ROOT
ATOM      1  C8  ZIN A   1      17.024  -5.749   8.632  0.00  0.00     0.211 C 
ATOM      2  C10 ZIN A   1      16.864  -4.912   9.889  0.00  0.00     0.251 C 
ATOM      3  O11 ZIN A   1      16.125  -4.958  10.850  0.00  0.00    -0.271 OA
ATOM      4  N12 ZIN A   1      17.868  -4.099   9.515  0.00  0.00    -0.293 N 
ATOM      5  C13 ZIN A   1      18.348  -2.814   9.818  0.00  0.00     0.120 C 
ATOM      6  C17 ZIN A   1      18.973  -2.104   8.888  0.00  0.00    -0.011 C 
ATOM      7  C25 ZIN A   1      19.309  -2.502   7.489  0.00  0.00     0.114 C 
ATOM      8  S26 ZIN A   1      18.291  -3.892   6.905  0.00  0.00    -0.136 SA
ATOM      9  C27 ZIN A   1      18.311  -4.970   8.376  0.00  0.00     0.187 C 
ENDROOT
BRANCH   1  10
ATOM     10  N7  ZIN A   1      15.984  -5.510   7.630  0.00  0.00    -0.339 N 
ATOM     11  C5  ZIN A   1      15.639  -6.489   6.769  0.00  0.00     0.275 C 
ATOM     12  O6  ZIN A   1      16.253  -7.538   6.766  0.00  0.00    -0.266 OA
ATOM     13  H38 ZIN A   1      15.542  -4.648   7.586  0.00  0.00     0.163 HD
BRANCH  11  14
ATOM     14  C4  ZIN A   1      14.513  -6.285   5.828  0.00  0.00     0.180 C 
ATOM     15  N3  ZIN A   1      13.298  -6.579   6.193  0.00  0.00    -0.126 NA
BRANCH  15  16
ATOM     16  O2  ZIN A   1      13.065  -7.203   7.442  0.00  0.00    -0.261 OA
ATOM     17  C1  ZIN A   1      12.209  -6.462   8.313  0.00  0.00     0.240 C 
ENDBRANCH  15  16
BRANCH  14  18
ATOM     18  C29 ZIN A   1      14.769  -5.746   4.475  0.00  0.00     0.102 A 
ATOM     19  N34 ZIN A   1      15.704  -4.826   4.237  0.00  0.00    -0.222 NA
ATOM     20  C32 ZIN A   1      15.842  -4.432   3.009  0.00  0.00     0.164 A 
ATOM     21  S31 ZIN A   1      14.678  -5.272   1.989  0.00  0.00    -0.062 SA
ATOM     22  C30 ZIN A   1      14.070  -6.145   3.394  0.00  0.00     0.087 A 
BRANCH  20  23
ATOM     23  N33 ZIN A   1      16.758  -3.492   2.570  0.00  0.00    -0.378 N 
ATOM     24  H55 ZIN A   1      17.672  -3.517   2.894  0.00  0.00     0.158 HD
ATOM     25  H56 ZIN A   1      16.487  -2.809   1.937  0.00  0.00     0.158 HD
ENDBRANCH  20  23
ENDBRANCH  14  18
ENDBRANCH  11  14
ENDBRANCH   1  10
BRANCH   5  26
ATOM     26  C14 ZIN A   1      18.158  -2.256  11.167  0.00  0.00     0.227 C 
ATOM     27  O15 ZIN A   1      19.055  -2.334  11.994  0.00  0.00    -0.643 OA
ATOM     28  O16 ZIN A   1      17.101  -1.713  11.461  0.00  0.00    -0.643 OA
ENDBRANCH   5  26
BRANCH   6  29
ATOM     29  C18 ZIN A   1      19.398  -0.717   9.296  0.00  0.00     0.274 C 
BRANCH  29  30
ATOM     30  N19 ZIN A   1      18.516   0.273   8.662  0.00  0.00    -0.067 N 
ATOM     31  C24 ZIN A   1      17.420  -0.420   7.953  0.00  0.00     0.237 C 
ATOM     32  C23 ZIN A   1      17.169   0.432   6.685  0.00  0.00     0.029 C 
ATOM     33  C22 ZIN A   1      18.609   0.867   6.309  0.00  0.00     0.029 C 
ATOM     34  C21 ZIN A   1      19.283   1.066   7.683  0.00  0.00     0.237 C 
ATOM     35  C20 ZIN A   1      17.956   1.165   9.687  0.00  0.00     0.272 C 
ENDBRANCH  29  30
ENDBRANCH   6  29
TORSDOF 8
ENDMDL
MODEL 3
REMARK VINA RESULT:      -7.8      3.469      9.175
REMARK  8 active torsions:
REMARK  status: ('A' for Active; 'I' for Inactive)
REMARK    1  A    between atoms: O2_2  and  N3_3 
REMARK    2  A    between atoms: C4_4  and  C5_5 
REMARK    3  A    between atoms: C4_4  and  C29_27 
REMARK       I    between atoms: C5_5  and  N7_7 
REMARK    4  A    between atoms: N7_7  and  C8_8 
REMARK    5  A    between atoms: C13_12  and  C14_13 
REMARK    6  A    between atoms: C17_16  and  C18_17 
REMARK    7  A    between atoms: C18_17  and  N19_18 
REMARK    8  A    between atoms: C32_30  and  N33_31 
ROOT
ATOM      1  C8  ZIN A   1      20.087   0.674  11.363  0.00  0.00     0.211 C 
ATOM      2  C10 ZIN A   1      19.680   0.509   9.908  0.00  0.00     0.251 C 
ATOM      3  O11 ZIN A   1      19.630   1.253   8.952  0.00  0.00    -0.271 OA
ATOM      4  N12 ZIN A   1      19.395  -0.791  10.103  0.00  0.00    -0.293 N 
ATOM      5  C13 ZIN A   1      18.659  -1.811   9.476  0.00  0.00     0.120 C 
ATOM      6  C17 ZIN A   1      18.114  -2.777  10.203  0.00  0.00    -0.011 C 
ATOM      7  C25 ZIN A   1      18.206  -2.990  11.678  0.00  0.00     0.114 C 
ATOM      8  S26 ZIN A   1      18.685  -1.476  12.564  0.00  0.00    -0.136 SA
ATOM      9  C27 ZIN A   1      20.003  -0.845  11.473  0.00  0.00     0.187 C 
ENDROOT
BRANCH   1  10
ATOM     10  N7  ZIN A   1      19.094   1.379  12.175  0.00  0.00    -0.339 N 
ATOM     11  C5  ZIN A   1      19.165   2.718  12.315  0.00  0.00     0.275 C 
ATOM     12  O6  ZIN A   1      20.103   3.329  11.841  0.00  0.00    -0.266 OA
ATOM     13  H38 ZIN A   1      18.385   0.882  12.612  0.00  0.00     0.163 HD
BRANCH  11  14
ATOM     14  C4  ZIN A   1      18.100   3.444  13.046  0.00  0.00     0.180 C 
ATOM     15  N3  ZIN A   1      17.051   3.877  12.408  0.00  0.00    -0.126 NA
BRANCH  15  16
ATOM     16  O2  ZIN A   1      16.982   3.761  10.998  0.00  0.00    -0.261 OA
ATOM     17  C1  ZIN A   1      17.190   4.991  10.302  0.00  0.00     0.240 C 
ENDBRANCH  15  16
BRANCH  14  18
ATOM     18  C29 ZIN A   1      18.227   3.674  14.502  0.00  0.00     0.102 A 
ATOM     19  N34 ZIN A   1      18.680   2.738  15.336  0.00  0.00    -0.222 NA
ATOM     20  C32 ZIN A   1      18.754   3.056  16.591  0.00  0.00     0.164 A 
ATOM     21  S31 ZIN A   1      18.190   4.710  16.811  0.00  0.00    -0.062 SA
ATOM     22  C30 ZIN A   1      17.890   4.843  15.080  0.00  0.00     0.087 A 
BRANCH  20  23
ATOM     23  N33 ZIN A   1      19.201   2.223  17.602  0.00  0.00    -0.378 N 
ATOM     24  H55 ZIN A   1      19.068   2.473  18.530  0.00  0.00     0.158 HD
ATOM     25  H56 ZIN A   1      19.644   1.389  17.383  0.00  0.00     0.158 HD
ENDBRANCH  20  23
ENDBRANCH  14  18
ENDBRANCH  11  14
ENDBRANCH   1  10
BRANCH   5  26
ATOM     26  C14 ZIN A   1      18.492  -1.807   8.013  0.00  0.00     0.227 C 
ATOM     27  O15 ZIN A   1      19.306  -2.379   7.303  0.00  0.00    -0.643 OA
ATOM     28  O16 ZIN A   1      17.538  -1.229   7.508  0.00  0.00    -0.643 OA
ENDBRANCH   5  26
BRANCH   6  29
ATOM     29  C18 ZIN A   1      17.297  -3.790   9.442  0.00  0.00     0.274 C 
BRANCH  29  30
ATOM     30  N19 ZIN A   1      18.010  -5.074   9.414  0.00  0.00    -0.067 N 
ATOM     31  C24 ZIN A   1      19.407  -4.877   9.856  0.00  0.00     0.237 C 
ATOM     32  C23 ZIN A   1      20.239  -5.851   8.987  0.00  0.00     0.029 C 
ATOM     33  C22 ZIN A   1      19.502  -5.762   7.624  0.00  0.00     0.029 C 
ATOM     34  C21 ZIN A   1      18.024  -5.604   8.037  0.00  0.00     0.237 C 
ATOM     35  C20 ZIN A   1      17.340  -6.032  10.303  0.00  0.00     0.272 C 
ENDBRANCH  29  30
ENDBRANCH   6  29
TORSDOF 8
ENDMDL
MODEL 4
REMARK VINA RESULT:      -7.5      3.098      3.993
REMARK  8 active torsions:
REMARK  status: ('A' for Active; 'I' for Inactive)
REMARK    1  A    between atoms: O2_2  and  N3_3 
REMARK    2  A    between atoms: C4_4  and  C5_5 
REMARK    3  A    between atoms: C4_4  and  C29_27 
REMARK       I    between atoms: C5_5  and  N7_7 
REMARK    4  A    between atoms: N7_7  and  C8_8 
REMARK    5  A    between atoms: C13_12  and  C14_13 
REMARK    6  A    between atoms: C17_16  and  C18_17 
REMARK    7  A    between atoms: C18_17  and  N19_18 
REMARK    8  A    between atoms: C32_30  and  N33_31 
ROOT
ATOM      1  C8  ZIN A   1      17.332   0.232   9.254  0.00  0.00     0.211 C 
ATOM      2  C10 ZIN A   1      18.089   1.444   9.769  0.00  0.00     0.251 C 
ATOM      3  O11 ZIN A   1      18.548   2.440   9.250  0.00  0.00    -0.271 OA
ATOM      4  N12 ZIN A   1      18.049   0.974  11.028  0.00  0.00    -0.293 N 
ATOM      5  C13 ZIN A   1      18.718   1.178  12.247  0.00  0.00     0.120 C 
ATOM      6  C17 ZIN A   1      18.839   0.178  13.111  0.00  0.00    -0.011 C 
ATOM      7  C25 ZIN A   1      18.299  -1.209  13.003  0.00  0.00     0.114 C 
ATOM      8  S26 ZIN A   1      17.896  -1.660  11.288  0.00  0.00    -0.136 SA
ATOM      9  C27 ZIN A   1      17.085  -0.131  10.715  0.00  0.00     0.187 C 
ENDROOT
BRANCH   1  10
ATOM     10  N7  ZIN A   1      18.176  -0.731   8.544  0.00  0.00    -0.339 N 
ATOM     11  C5  ZIN A   1      17.929  -1.019   7.251  0.00  0.00     0.275 C 
ATOM     12  O6  ZIN A   1      16.954  -0.548   6.700  0.00  0.00    -0.266 OA
ATOM     13  H38 ZIN A   1      18.913  -1.162   9.005  0.00  0.00     0.163 HD
BRANCH  11  14
ATOM     14  C4  ZIN A   1      18.846  -1.909   6.502  0.00  0.00     0.180 C 
ATOM     15  N3  ZIN A   1      19.622  -1.417   5.578  0.00  0.00    -0.126 NA
BRANCH  15  16
ATOM     16  O2  ZIN A   1      19.506  -0.056   5.208  0.00  0.00    -0.261 OA
ATOM     17  C1  ZIN A   1      18.774   0.158   3.999  0.00  0.00     0.240 C 
ENDBRANCH  15  16
BRANCH  14  18
ATOM     18  C29 ZIN A   1      18.883  -3.357   6.804  0.00  0.00     0.102 A 
ATOM     19  N34 ZIN A   1      19.182  -3.826   8.015  0.00  0.00    -0.222 NA
ATOM     20  C32 ZIN A   1      19.177  -5.115   8.162  0.00  0.00     0.164 A 
ATOM     21  S31 ZIN A   1      18.766  -5.880   6.631  0.00  0.00    -0.062 SA
ATOM     22  C30 ZIN A   1      18.620  -4.295   5.874  0.00  0.00     0.087 A 
BRANCH  20  23
ATOM     23  N33 ZIN A   1      19.458  -5.785   9.341  0.00  0.00    -0.378 N 
ATOM     24  H55 ZIN A   1      19.899  -6.649   9.314  0.00  0.00     0.158 HD
ATOM     25  H56 ZIN A   1      19.215  -5.391  10.193  0.00  0.00     0.158 HD
ENDBRANCH  20  23
ENDBRANCH  14  18
ENDBRANCH  11  14
ENDBRANCH   1  10
BRANCH   5  26
ATOM     26  C14 ZIN A   1      19.285   2.499  12.565  0.00  0.00     0.227 C 
ATOM     27  O15 ZIN A   1      20.348   2.844  12.070  0.00  0.00    -0.643 OA
ATOM     28  O16 ZIN A   1      18.692   3.251  13.327  0.00  0.00    -0.643 OA
ENDBRANCH   5  26
BRANCH   6  29
ATOM     29  C18 ZIN A   1      19.623   0.483  14.362  0.00  0.00     0.274 C 
BRANCH  29  30
ATOM     30  N19 ZIN A   1      18.723   0.455  15.523  0.00  0.00    -0.067 N 
ATOM     31  C24 ZIN A   1      19.053   1.570  16.436  0.00  0.00     0.237 C 
ATOM     32  C23 ZIN A   1      18.827   0.997  17.857  0.00  0.00     0.029 C 
ATOM     33  C22 ZIN A   1      19.325  -0.462  17.690  0.00  0.00     0.029 C 
ATOM     34  C21 ZIN A   1      18.891  -0.816  16.252  0.00  0.00     0.237 C 
ATOM     35  C20 ZIN A   1      17.330   0.582  15.072  0.00  0.00     0.272 C 
ENDBRANCH  29  30
ENDBRANCH   6  29
TORSDOF 8
ENDMDL
MODEL 5
REMARK VINA RESULT:      -7.5      3.135      9.276
REMARK  8 active torsions:
REMARK  status: ('A' for Active; 'I' for Inactive)
REMARK    1  A    between atoms: O2_2  and  N3_3 
REMARK    2  A    between atoms: C4_4  and  C5_5 
REMARK    3  A    between atoms: C4_4  and  C29_27 
REMARK       I    between atoms: C5_5  and  N7_7 
REMARK    4  A    between atoms: N7_7  and  C8_8 
REMARK    5  A    between atoms: C13_12  and  C14_13 
REMARK    6  A    between atoms: C17_16  and  C18_17 
REMARK    7  A    between atoms: C18_17  and  N19_18 
REMARK    8  A    between atoms: C32_30  and  N33_31 
ROOT
ATOM      1  C8  ZIN A   1      20.001  -0.655  11.324  0.00  0.00     0.211 C 
ATOM      2  C10 ZIN A   1      19.871  -0.606   9.811  0.00  0.00     0.251 C 
ATOM      3  O11 ZIN A   1      20.078   0.243   8.969  0.00  0.00    -0.271 OA
ATOM      4  N12 ZIN A   1      19.433  -1.877   9.775  0.00  0.00    -0.293 N 
ATOM      5  C13 ZIN A   1      18.741  -2.726   8.894  0.00  0.00     0.120 C 
ATOM      6  C17 ZIN A   1      17.977  -3.698   9.375  0.00  0.00    -0.011 C 
ATOM      7  C25 ZIN A   1      17.761  -4.087  10.800  0.00  0.00     0.114 C 
ATOM      8  S26 ZIN A   1      18.197  -2.749  11.953  0.00  0.00    -0.136 SA
ATOM      9  C27 ZIN A   1      19.755  -2.157  11.213  0.00  0.00     0.187 C 
ENDROOT
BRANCH   1  10
ATOM     10  N7  ZIN A   1      18.940   0.064  12.029  0.00  0.00    -0.339 N 
ATOM     11  C5  ZIN A   1      19.169   0.571  13.257  0.00  0.00     0.275 C 
ATOM     12  O6  ZIN A   1      20.228   0.355  13.814  0.00  0.00    -0.266 OA
ATOM     13  H38 ZIN A   1      18.070   0.175  11.614  0.00  0.00     0.163 HD
BRANCH  11  14
ATOM     14  C4  ZIN A   1      18.132   1.391  13.926  0.00  0.00     0.180 C 
ATOM     15  N3  ZIN A   1      17.475   0.908  14.942  0.00  0.00    -0.126 NA
BRANCH  15  16
ATOM     16  O2  ZIN A   1      17.665  -0.440  15.332  0.00  0.00    -0.261 OA
ATOM     17  C1  ZIN A   1      17.247  -0.724  16.668  0.00  0.00     0.240 C 
ENDBRANCH  15  16
BRANCH  14  18
ATOM     18  C29 ZIN A   1      17.846   2.759  13.443  0.00  0.00     0.102 A 
ATOM     19  N34 ZIN A   1      17.500   3.013  12.181  0.00  0.00    -0.222 NA
ATOM     20  C32 ZIN A   1      17.266   4.251  11.874  0.00  0.00     0.164 A 
ATOM     21  S31 ZIN A   1      17.505   5.263  13.295  0.00  0.00    -0.062 SA
ATOM     22  C30 ZIN A   1      17.919   3.838  14.245  0.00  0.00     0.087 A 
BRANCH  20  23
ATOM     23  N33 ZIN A   1      16.893   4.707  10.621  0.00  0.00    -0.378 N 
ATOM     24  H55 ZIN A   1      16.704   4.073   9.911  0.00  0.00     0.158 HD
ATOM     25  H56 ZIN A   1      16.820   5.659  10.453  0.00  0.00     0.158 HD
ENDBRANCH  20  23
ENDBRANCH  14  18
ENDBRANCH  11  14
ENDBRANCH   1  10
BRANCH   5  26
ATOM     26  C14 ZIN A   1      18.863  -2.536   7.440  0.00  0.00     0.227 C 
ATOM     27  O15 ZIN A   1      18.129  -1.746   6.862  0.00  0.00    -0.643 OA
ATOM     28  O16 ZIN A   1      19.698  -3.169   6.808  0.00  0.00    -0.643 OA
ENDBRANCH   5  26
BRANCH   6  29
ATOM     29  C18 ZIN A   1      17.233  -4.515   8.350  0.00  0.00     0.274 C 
BRANCH  29  30
ATOM     30  N19 ZIN A   1      17.791  -5.873   8.307  0.00  0.00    -0.067 N 
ATOM     31  C24 ZIN A   1      17.932  -6.309   6.901  0.00  0.00     0.237 C 
ATOM     32  C23 ZIN A   1      17.602  -7.821   6.921  0.00  0.00     0.029 C 
ATOM     33  C22 ZIN A   1      16.464  -7.880   7.973  0.00  0.00     0.029 C 
ATOM     34  C21 ZIN A   1      16.883  -6.806   8.999  0.00  0.00     0.237 C 
ATOM     35  C20 ZIN A   1      19.106  -5.889   8.964  0.00  0.00     0.272 C 
ENDBRANCH  29  30
ENDBRANCH   6  29
TORSDOF 8
ENDMDL
MODEL 6
REMARK VINA RESULT:      -7.4      3.183      4.359
REMARK  8 active torsions:
REMARK  status: ('A' for Active; 'I' for Inactive)
REMARK    1  A    between atoms: O2_2  and  N3_3 
REMARK    2  A    between atoms: C4_4  and  C5_5 
REMARK    3  A    between atoms: C4_4  and  C29_27 
REMARK       I    between atoms: C5_5  and  N7_7 
REMARK    4  A    between atoms: N7_7  and  C8_8 
REMARK    5  A    between atoms: C13_12  and  C14_13 
REMARK    6  A    between atoms: C17_16  and  C18_17 
REMARK    7  A    between atoms: C18_17  and  N19_18 
REMARK    8  A    between atoms: C32_30  and  N33_31 
ROOT
ATOM      1  C8  ZIN A   1      20.084   0.013  11.846  0.00  0.00     0.211 C 
ATOM      2  C10 ZIN A   1      19.836   0.009  13.345  0.00  0.00     0.251 C 
ATOM      3  O11 ZIN A   1      19.902  -0.835  14.213  0.00  0.00    -0.271 OA
ATOM      4  N12 ZIN A   1      19.512   1.314  13.327  0.00  0.00    -0.293 N 
ATOM      5  C13 ZIN A   1      18.833   2.240  14.138  0.00  0.00     0.120 C 
ATOM      6  C17 ZIN A   1      18.198   3.264  13.584  0.00  0.00    -0.011 C 
ATOM      7  C25 ZIN A   1      18.125   3.638  12.141  0.00  0.00     0.114 C 
ATOM      8  S26 ZIN A   1      18.526   2.241  11.046  0.00  0.00    -0.136 SA
ATOM      9  C27 ZIN A   1      19.965   1.532  11.914  0.00  0.00     0.187 C 
ENDROOT
BRANCH   1  10
ATOM     10  N7  ZIN A   1      19.019  -0.627  11.072  0.00  0.00    -0.339 N 
ATOM     11  C5  ZIN A   1      19.241  -0.993   9.794  0.00  0.00     0.275 C 
ATOM     12  O6  ZIN A   1      20.294  -0.713   9.256  0.00  0.00    -0.266 OA
ATOM     13  H38 ZIN A   1      18.153  -0.786  11.479  0.00  0.00     0.163 HD
BRANCH  11  14
ATOM     14  C4  ZIN A   1      18.201  -1.736   9.045  0.00  0.00     0.180 C 
ATOM     15  N3  ZIN A   1      17.552  -1.153   8.077  0.00  0.00    -0.126 NA
BRANCH  15  16
ATOM     16  O2  ZIN A   1      17.755   0.224   7.818  0.00  0.00    -0.261 OA
ATOM     17  C1  ZIN A   1      18.298   0.500   6.526  0.00  0.00     0.240 C 
ENDBRANCH  15  16
BRANCH  14  18
ATOM     18  C29 ZIN A   1      17.900  -3.142   9.394  0.00  0.00     0.102 A 
ATOM     19  N34 ZIN A   1      17.784  -3.555  10.656  0.00  0.00    -0.222 NA
ATOM     20  C32 ZIN A   1      17.513  -4.810  10.840  0.00  0.00     0.164 A 
ATOM     21  S31 ZIN A   1      17.388  -5.619   9.281  0.00  0.00    -0.062 SA
ATOM     22  C30 ZIN A   1      17.728  -4.097   8.460  0.00  0.00     0.087 A 
BRANCH  20  23
ATOM     23  N33 ZIN A   1      17.352  -5.420  12.072  0.00  0.00    -0.378 N 
ATOM     24  H55 ZIN A   1      17.301  -6.387  12.131  0.00  0.00     0.158 HD
ATOM     25  H56 ZIN A   1      17.292  -4.881  12.876  0.00  0.00     0.158 HD
ENDBRANCH  20  23
ENDBRANCH  14  18
ENDBRANCH  11  14
ENDBRANCH   1  10
BRANCH   5  26
ATOM     26  C14 ZIN A   1      18.828   2.073  15.600  0.00  0.00     0.227 C 
ATOM     27  O15 ZIN A   1      19.678   2.626  16.283  0.00  0.00    -0.643 OA
ATOM     28  O16 ZIN A   1      17.971   1.380  16.133  0.00  0.00    -0.643 OA
ENDBRANCH   5  26
BRANCH   6  29
ATOM     29  C18 ZIN A   1      17.453   4.166  14.535  0.00  0.00     0.274 C 
BRANCH  29  30
ATOM     30  N19 ZIN A   1      18.129   5.469  14.604  0.00  0.00    -0.067 N 
ATOM     31  C24 ZIN A   1      19.406   5.408  13.862  0.00  0.00     0.237 C 
ATOM     32  C23 ZIN A   1      20.380   6.294  14.677  0.00  0.00     0.029 C 
ATOM     33  C22 ZIN A   1      19.947   5.979  16.133  0.00  0.00     0.029 C 
ATOM     34  C21 ZIN A   1      18.418   5.804  16.012  0.00  0.00     0.237 C 
ATOM     35  C20 ZIN A   1      17.267   6.505  14.020  0.00  0.00     0.272 C 
ENDBRANCH  29  30
ENDBRANCH   6  29
TORSDOF 8
ENDMDL
MODEL 7
REMARK VINA RESULT:      -7.4      2.945      4.563
REMARK  8 active torsions:
REMARK  status: ('A' for Active; 'I' for Inactive)
REMARK    1  A    between atoms: O2_2  and  N3_3 
REMARK    2  A    between atoms: C4_4  and  C5_5 
REMARK    3  A    between atoms: C4_4  and  C29_27 
REMARK       I    between atoms: C5_5  and  N7_7 
REMARK    4  A    between atoms: N7_7  and  C8_8 
REMARK    5  A    between atoms: C13_12  and  C14_13 
REMARK    6  A    between atoms: C17_16  and  C18_17 
REMARK    7  A    between atoms: C18_17  and  N19_18 
REMARK    8  A    between atoms: C32_30  and  N33_31 
ROOT
ATOM      1  C8  ZIN A   1      20.440  -0.320  11.823  0.00  0.00     0.211 C 
ATOM      2  C10 ZIN A   1      19.921  -0.358  13.251  0.00  0.00     0.251 C 
ATOM      3  O11 ZIN A   1      19.797  -1.230  14.085  0.00  0.00    -0.271 OA
ATOM      4  N12 ZIN A   1      19.654   0.960  13.223  0.00  0.00    -0.293 N 
ATOM      5  C13 ZIN A   1      18.874   1.889  13.931  0.00  0.00     0.120 C 
ATOM      6  C17 ZIN A   1      18.388   2.956  13.310  0.00  0.00    -0.011 C 
ATOM      7  C25 ZIN A   1      18.594   3.375  11.892  0.00  0.00     0.114 C 
ATOM      8  S26 ZIN A   1      19.137   1.996  10.838  0.00  0.00    -0.136 SA
ATOM      9  C27 ZIN A   1      20.366   1.200  11.925  0.00  0.00     0.187 C 
ENDROOT
BRANCH   1  10
ATOM     10  N7  ZIN A   1      19.511  -0.890  10.846  0.00  0.00    -0.339 N 
ATOM     11  C5  ZIN A   1      19.502  -2.219  10.618  0.00  0.00     0.275 C 
ATOM     12  O6  ZIN A   1      20.324  -2.932  11.158  0.00  0.00    -0.266 OA
ATOM     13  H38 ZIN A   1      18.902  -0.311  10.361  0.00  0.00     0.163 HD
BRANCH  11  14
ATOM     14  C4  ZIN A   1      18.490  -2.808   9.710  0.00  0.00     0.180 C 
ATOM     15  N3  ZIN A   1      17.436  -3.394  10.202  0.00  0.00    -0.126 NA
BRANCH  15  16
ATOM     16  O2  ZIN A   1      17.314  -3.573  11.601  0.00  0.00    -0.261 OA
ATOM     17  C1  ZIN A   1      17.364  -4.938  12.020  0.00  0.00     0.240 C 
ENDBRANCH  15  16
BRANCH  14  18
ATOM     18  C29 ZIN A   1      18.676  -2.730   8.245  0.00  0.00     0.102 A 
ATOM     19  N34 ZIN A   1      18.945  -1.584   7.620  0.00  0.00    -0.222 NA
ATOM     20  C32 ZIN A   1      19.094  -1.639   6.332  0.00  0.00     0.164 A 
ATOM     21  S31 ZIN A   1      18.869  -3.297   5.785  0.00  0.00    -0.062 SA
ATOM     22  C30 ZIN A   1      18.582  -3.810   7.446  0.00  0.00     0.087 A 
BRANCH  20  23
ATOM     23  N33 ZIN A   1      19.379  -0.559   5.514  0.00  0.00    -0.378 N 
ATOM     24  H55 ZIN A   1      19.555   0.312   5.905  0.00  0.00     0.158 HD
ATOM     25  H56 ZIN A   1      19.403  -0.672   4.552  0.00  0.00     0.158 HD
ENDBRANCH  20  23
ENDBRANCH  14  18
ENDBRANCH  11  14
ENDBRANCH   1  10
BRANCH   5  26
ATOM     26  C14 ZIN A   1      18.594   1.679  15.361  0.00  0.00     0.227 C 
ATOM     27  O15 ZIN A   1      17.627   1.015  15.705  0.00  0.00    -0.643 OA
ATOM     28  O16 ZIN A   1      19.330   2.170  16.207  0.00  0.00    -0.643 OA
ENDBRANCH   5  26
BRANCH   6  29
ATOM     29  C18 ZIN A   1      17.516   3.860  14.143  0.00  0.00     0.274 C 
BRANCH  29  30
ATOM     30  N19 ZIN A   1      18.185   5.156  14.323  0.00  0.00    -0.067 N 
ATOM     31  C24 ZIN A   1      19.531   5.110  13.714  0.00  0.00     0.237 C 
ATOM     32  C23 ZIN A   1      20.420   5.964  14.651  0.00  0.00     0.029 C 
ATOM     33  C22 ZIN A   1      19.839   5.605  16.045  0.00  0.00     0.029 C 
ATOM     34  C21 ZIN A   1      18.331   5.443  15.763  0.00  0.00     0.237 C 
ATOM     35  C20 ZIN A   1      17.390   6.215  13.688  0.00  0.00     0.272 C 
ENDBRANCH  29  30
ENDBRANCH   6  29
TORSDOF 8
ENDMDL
MODEL 8
REMARK VINA RESULT:      -7.2      2.542      8.993
REMARK  8 active torsions:
REMARK  status: ('A' for Active; 'I' for Inactive)
REMARK    1  A    between atoms: O2_2  and  N3_3 
REMARK    2  A    between atoms: C4_4  and  C5_5 
REMARK    3  A    between atoms: C4_4  and  C29_27 
REMARK       I    between atoms: C5_5  and  N7_7 
REMARK    4  A    between atoms: N7_7  and  C8_8 
REMARK    5  A    between atoms: C13_12  and  C14_13 
REMARK    6  A    between atoms: C17_16  and  C18_17 
REMARK    7  A    between atoms: C18_17  and  N19_18 
REMARK    8  A    between atoms: C32_30  and  N33_31 
ROOT
ATOM      1  C8  ZIN A   1      19.064  -1.558   6.934  0.00  0.00     0.211 C 
ATOM      2  C10 ZIN A   1      18.125  -1.738   5.754  0.00  0.00     0.251 C 
ATOM      3  O11 ZIN A   1      17.391  -0.997   5.134  0.00  0.00    -0.271 OA
ATOM      4  N12 ZIN A   1      18.430  -3.045   5.669  0.00  0.00    -0.293 N 
ATOM      5  C13 ZIN A   1      17.894  -4.214   5.104  0.00  0.00     0.120 C 
ATOM      6  C17 ZIN A   1      18.112  -5.389   5.681  0.00  0.00    -0.011 C 
ATOM      7  C25 ZIN A   1      18.933  -5.687   6.891  0.00  0.00     0.114 C 
ATOM      8  S26 ZIN A   1      19.205  -4.212   7.920  0.00  0.00    -0.136 SA
ATOM      9  C27 ZIN A   1      19.571  -2.967   6.639  0.00  0.00     0.187 C 
ENDROOT
BRANCH   1  10
ATOM     10  N7  ZIN A   1      18.376  -1.439   8.221  0.00  0.00    -0.339 N 
ATOM     11  C5  ZIN A   1      18.975  -0.808   9.251  0.00  0.00     0.275 C 
ATOM     12  O6  ZIN A   1      20.120  -0.417   9.139  0.00  0.00    -0.266 OA
ATOM     13  H38 ZIN A   1      17.488  -1.814   8.332  0.00  0.00     0.163 HD
BRANCH  11  14
ATOM     14  C4  ZIN A   1      18.237  -0.592  10.517  0.00  0.00     0.180 C 
ATOM     15  N3  ZIN A   1      17.686  -1.601  11.130  0.00  0.00    -0.126 NA
BRANCH  15  16
ATOM     16  O2  ZIN A   1      17.688  -2.882  10.528  0.00  0.00    -0.261 OA
ATOM     17  C1  ZIN A   1      17.388  -3.949  11.430  0.00  0.00     0.240 C 
ENDBRANCH  15  16
BRANCH  14  18
ATOM     18  C29 ZIN A   1      18.129   0.768  11.087  0.00  0.00     0.102 A 
ATOM     19  N34 ZIN A   1      17.806   1.829  10.348  0.00  0.00    -0.222 NA
ATOM     20  C32 ZIN A   1      17.736   2.971  10.958  0.00  0.00     0.164 A 
ATOM     21  S31 ZIN A   1      18.123   2.751  12.662  0.00  0.00    -0.062 SA
ATOM     22  C30 ZIN A   1      18.354   1.025  12.390  0.00  0.00     0.087 A 
BRANCH  20  23
ATOM     23  N33 ZIN A   1      17.413   4.177  10.362  0.00  0.00    -0.378 N 
ATOM     24  H55 ZIN A   1      16.525   4.552  10.475  0.00  0.00     0.158 HD
ATOM     25  H56 ZIN A   1      18.074   4.649   9.831  0.00  0.00     0.158 HD
ENDBRANCH  20  23
ENDBRANCH  14  18
ENDBRANCH  11  14
ENDBRANCH   1  10
BRANCH   5  26
ATOM     26  C14 ZIN A   1      17.089  -4.137   3.874  0.00  0.00     0.227 C 
ATOM     27  O15 ZIN A   1      15.894  -3.884   3.939  0.00  0.00    -0.643 OA
ATOM     28  O16 ZIN A   1      17.616  -4.327   2.785  0.00  0.00    -0.643 OA
ENDBRANCH   5  26
BRANCH   6  29
ATOM     29  C18 ZIN A   1      17.446  -6.574   5.030  0.00  0.00     0.274 C 
BRANCH  29  30
ATOM     30  N19 ZIN A   1      16.294  -6.994   5.839  0.00  0.00    -0.067 N 
ATOM     31  C24 ZIN A   1      15.994  -5.961   6.853  0.00  0.00     0.237 C 
ATOM     32  C23 ZIN A   1      15.538  -6.753   8.102  0.00  0.00     0.029 C 
ATOM     33  C22 ZIN A   1      16.472  -7.991   8.047  0.00  0.00     0.029 C 
ATOM     34  C21 ZIN A   1      16.608  -8.257   6.533  0.00  0.00     0.237 C 
ATOM     35  C20 ZIN A   1      15.124  -7.188   4.971  0.00  0.00     0.272 C 
ENDBRANCH  29  30
ENDBRANCH   6  29
TORSDOF 8
ENDMDL
MODEL 9
REMARK VINA RESULT:      -7.1      2.871      4.654
REMARK  8 active torsions:
REMARK  status: ('A' for Active; 'I' for Inactive)
REMARK    1  A    between atoms: O2_2  and  N3_3 
REMARK    2  A    between atoms: C4_4  and  C5_5 
REMARK    3  A    between atoms: C4_4  and  C29_27 
REMARK       I    between atoms: C5_5  and  N7_7 
REMARK    4  A    between atoms: N7_7  and  C8_8 
REMARK    5  A    between atoms: C13_12  and  C14_13 
REMARK    6  A    between atoms: C17_16  and  C18_17 
REMARK    7  A    between atoms: C18_17  and  N19_18 
REMARK    8  A    between atoms: C32_30  and  N33_31 
ROOT
ATOM      1  C8  ZIN A   1      20.235   0.268  11.993  0.00  0.00     0.211 C 
ATOM      2  C10 ZIN A   1      19.935   0.249  13.482  0.00  0.00     0.251 C 
ATOM      3  O11 ZIN A   1      20.001  -0.597  14.349  0.00  0.00    -0.271 OA
ATOM      4  N12 ZIN A   1      19.565   1.542  13.457  0.00  0.00    -0.293 N 
ATOM      5  C13 ZIN A   1      18.826   2.438  14.247  0.00  0.00     0.120 C 
ATOM      6  C17 ZIN A   1      18.173   3.442  13.676  0.00  0.00    -0.011 C 
ATOM      7  C25 ZIN A   1      18.137   3.820  12.232  0.00  0.00     0.114 C 
ATOM      8  S26 ZIN A   1      18.626   2.443  11.147  0.00  0.00    -0.136 SA
ATOM      9  C27 ZIN A   1      20.059   1.782  12.062  0.00  0.00     0.187 C 
ENDROOT
BRANCH   1  10
ATOM     10  N7  ZIN A   1      19.220  -0.405  11.180  0.00  0.00    -0.339 N 
ATOM     11  C5  ZIN A   1      19.522  -0.821   9.934  0.00  0.00     0.275 C 
ATOM     12  O6  ZIN A   1      20.607  -0.559   9.453  0.00  0.00    -0.266 OA
ATOM     13  H38 ZIN A   1      18.331  -0.551  11.538  0.00  0.00     0.163 HD
BRANCH  11  14
ATOM     14  C4  ZIN A   1      18.532  -1.597   9.152  0.00  0.00     0.180 C 
ATOM     15  N3  ZIN A   1      17.916  -2.607   9.699  0.00  0.00    -0.126 NA
BRANCH  15  16
ATOM     16  O2  ZIN A   1      18.277  -3.036  10.999  0.00  0.00    -0.261 OA
ATOM     17  C1  ZIN A   1      18.784  -4.371  11.051  0.00  0.00     0.240 C 
ENDBRANCH  15  16
BRANCH  14  18
ATOM     18  C29 ZIN A   1      18.240  -1.225   7.750  0.00  0.00     0.102 A 
ATOM     19  N34 ZIN A   1      18.770  -1.875   6.714  0.00  0.00    -0.222 NA
ATOM     20  C32 ZIN A   1      18.437  -1.462   5.530  0.00  0.00     0.164 A 
ATOM     21  S31 ZIN A   1      17.340  -0.092   5.673  0.00  0.00    -0.062 SA
ATOM     22  C30 ZIN A   1      17.423  -0.203   7.430  0.00  0.00     0.087 A 
BRANCH  20  23
ATOM     23  N33 ZIN A   1      18.880  -2.010   4.339  0.00  0.00    -0.378 N 
ATOM     24  H55 ZIN A   1      18.448  -1.770   3.504  0.00  0.00     0.158 HD
ATOM     25  H56 ZIN A   1      19.623  -2.633   4.338  0.00  0.00     0.158 HD
ENDBRANCH  20  23
ENDBRANCH  14  18
ENDBRANCH  11  14
ENDBRANCH   1  10
BRANCH   5  26
ATOM     26  C14 ZIN A   1      18.775   2.265  15.708  0.00  0.00     0.227 C 
ATOM     27  O15 ZIN A   1      19.547   2.886  16.426  0.00  0.00    -0.643 OA
ATOM     28  O16 ZIN A   1      17.962   1.497  16.205  0.00  0.00    -0.643 OA
ENDBRANCH   5  26
BRANCH   6  29
ATOM     29  C18 ZIN A   1      17.365   4.312  14.603  0.00  0.00     0.274 C 
BRANCH  29  30
ATOM     30  N19 ZIN A   1      17.991   5.638  14.702  0.00  0.00    -0.067 N 
ATOM     31  C24 ZIN A   1      18.072   6.046  16.120  0.00  0.00     0.237 C 
ATOM     32  C23 ZIN A   1      17.824   7.575  16.107  0.00  0.00     0.029 C 
ATOM     33  C22 ZIN A   1      16.755   7.709  14.991  0.00  0.00     0.029 C 
ATOM     34  C21 ZIN A   1      17.176   6.627  13.973  0.00  0.00     0.237 C 
ATOM     35  C20 ZIN A   1      19.341   5.591  14.123  0.00  0.00     0.272 C 
ENDBRANCH  29  30
ENDBRANCH   6  29
TORSDOF 8
ENDMDL
