MODEL 1
REMARK VINA RESULT:      -5.9      0.000      0.000
REMARK  8 active torsions:
REMARK  status: ('A' for Active; 'I' for Inactive)
REMARK    1  A    between atoms: O2_2  and  C3_3 
REMARK    2  A    between atoms: C6_6  and  O7_7 
REMARK    3  A    between atoms: C9_9  and  C10_10 
REMARK    4  A    between atoms: C10_10  and  O12_11 
REMARK    5  A    between atoms: C10_10  and  C13_12 
REMARK    6  A    between atoms: C13_12  and  N14_13 
REMARK       I    between atoms: N14_13  and  C15_14 
REMARK    7  A    between atoms: C15_14  and  C17_16 
REMARK    8  A    between atoms: C17_16  and  N18_17 
ROOT
ATOM      1  C10 ZIN A   1      20.606   0.038  11.771  0.00  0.00     0.171 C 
ENDROOT
BRANCH   1   2
ATOM      2  C9  ZIN A   1      19.862   1.001  10.884  0.00  0.00     0.008 A 
ATOM      3  C6  ZIN A   1      19.544   0.643   9.583  0.00  0.00     0.077 A 
ATOM      4  C5  ZIN A   1      18.860   1.531   8.766  0.00  0.00     0.040 A 
ATOM      5  C4  ZIN A   1      18.495   2.773   9.249  0.00  0.00     0.039 A 
ATOM      6  C3  ZIN A   1      18.812   3.131  10.551  0.00  0.00     0.069 A 
ATOM      7  C22 ZIN A   1      19.501   2.245  11.365  0.00  0.00     0.049 A 
BRANCH   3   8
ATOM      8  O7  ZIN A   1      19.904  -0.579   9.107  0.00  0.00    -0.355 OA
ATOM      9  C8  ZIN A   1      19.104  -1.129   8.058  0.00  0.00     0.210 C 
ENDBRANCH   3   8
BRANCH   6  10
ATOM     10  O2  ZIN A   1      18.452   4.353  11.026  0.00  0.00    -0.356 OA
ATOM     11  C1  ZIN A   1      17.172   4.851  10.632  0.00  0.00     0.210 C 
ENDBRANCH   6  10
ENDBRANCH   1   2
BRANCH   1  12
ATOM     12  O12 ZIN A   1      21.669  -0.569  11.031  0.00  0.00    -0.389 OA
ATOM     13  H31 ZIN A   1      21.451  -1.440  10.672  0.00  0.00     0.210 HD
ENDBRANCH   1  12
BRANCH   1  14
ATOM     14  C13 ZIN A   1      19.647  -1.047  12.267  0.00  0.00     0.159 C 
BRANCH  14  15
ATOM     15  N14 ZIN A   1      20.041  -2.341  11.706  0.00  0.00    -0.357 N 
ATOM     16  C15 ZIN A   1      19.101  -3.261  11.410  0.00  0.00     0.243 C 
ATOM     17  O16 ZIN A   1      17.930  -3.017  11.610  0.00  0.00    -0.272 OA
ATOM     18  H34 ZIN A   1      20.977  -2.536  11.545  0.00  0.00     0.162 HD
BRANCH  16  19
ATOM     19  C17 ZIN A   1      19.505  -4.593  10.832  0.00  0.00     0.332 C 
BRANCH  19  20
ATOM     20  N18 ZIN A   1      20.077  -4.394   9.495  0.00  0.00    -0.071 N 
ATOM     21  H19 ZIN A   1      19.516  -4.881   8.813  0.00  0.00     0.274 HD
ATOM     22  H20 ZIN A   1      20.089  -3.408   9.278  0.00  0.00     0.274 HD
ATOM     23  H21 ZIN A   1      21.019  -4.754   9.475  0.00  0.00     0.274 HD
ENDBRANCH  19  20
ENDBRANCH  16  19
ENDBRANCH  14  15
ENDBRANCH   1  14
TORSDOF 8
ENDMDL
MODEL 2
REMARK VINA RESULT:      -5.8      2.355      4.148
REMARK  8 active torsions:
REMARK  status: ('A' for Active; 'I' for Inactive)
REMARK    1  A    between atoms: O2_2  and  C3_3 
REMARK    2  A    between atoms: C6_6  and  O7_7 
REMARK    3  A    between atoms: C9_9  and  C10_10 
REMARK    4  A    between atoms: C10_10  and  O12_11 
REMARK    5  A    between atoms: C10_10  and  C13_12 
REMARK    6  A    between atoms: C13_12  and  N14_13 
REMARK       I    between atoms: N14_13  and  C15_14 
REMARK    7  A    between atoms: C15_14  and  C17_16 
REMARK    8  A    between atoms: C17_16  and  N18_17 
ROOT
ATOM      1  C10 ZIN A   1      20.298   0.589  12.318  0.00  0.00     0.171 C 
ENDROOT
BRANCH   1   2
ATOM      2  C9  ZIN A   1      19.716   1.185  11.063  0.00  0.00     0.008 A 
ATOM      3  C6  ZIN A   1      19.151   2.451  11.093  0.00  0.00     0.077 A 
ATOM      4  C5  ZIN A   1      18.614   2.998   9.937  0.00  0.00     0.040 A 
ATOM      5  C4  ZIN A   1      18.642   2.283   8.755  0.00  0.00     0.039 A 
ATOM      6  C3  ZIN A   1      19.209   1.018   8.725  0.00  0.00     0.069 A 
ATOM      7  C22 ZIN A   1      19.741   0.468   9.882  0.00  0.00     0.049 A 
BRANCH   3   8
ATOM      8  O7  ZIN A   1      19.122   3.155  12.256  0.00  0.00    -0.355 OA
ATOM      9  C8  ZIN A   1      19.829   4.396  12.281  0.00  0.00     0.210 C 
ENDBRANCH   3   8
BRANCH   6  10
ATOM     10  O2  ZIN A   1      19.238   0.314   7.562  0.00  0.00    -0.356 OA
ATOM     11  C1  ZIN A   1      18.854   1.008   6.373  0.00  0.00     0.210 C 
ENDBRANCH   6  10
ENDBRANCH   1   2
BRANCH   1  12
ATOM     12  O12 ZIN A   1      21.723   0.546  12.209  0.00  0.00    -0.389 OA
ATOM     13  H31 ZIN A   1      22.072   0.996  11.427  0.00  0.00     0.210 HD
ENDBRANCH   1  12
BRANCH   1  14
ATOM     14  C13 ZIN A   1      19.758  -0.830  12.508  0.00  0.00     0.159 C 
BRANCH  14  15
ATOM     15  N14 ZIN A   1      19.821  -1.190  13.926  0.00  0.00    -0.357 N 
ATOM     16  C15 ZIN A   1      18.746  -1.006  14.717  0.00  0.00     0.243 C 
ATOM     17  O16 ZIN A   1      17.726  -0.541  14.254  0.00  0.00    -0.272 OA
ATOM     18  H34 ZIN A   1      20.637  -1.563  14.297  0.00  0.00     0.162 HD
BRANCH  16  19
ATOM     19  C17 ZIN A   1      18.810  -1.377  16.177  0.00  0.00     0.332 C 
BRANCH  19  20
ATOM     20  N18 ZIN A   1      17.482  -1.215  16.782  0.00  0.00    -0.071 N 
ATOM     21  H19 ZIN A   1      16.821  -1.811  16.307  0.00  0.00     0.274 HD
ATOM     22  H20 ZIN A   1      17.523  -1.471  17.758  0.00  0.00     0.274 HD
ATOM     23  H21 ZIN A   1      17.188  -0.254  16.699  0.00  0.00     0.274 HD
ENDBRANCH  19  20
ENDBRANCH  16  19
ENDBRANCH  14  15
ENDBRANCH   1  14
TORSDOF 8
ENDMDL
MODEL 3
REMARK VINA RESULT:      -5.7      2.877      5.211
REMARK  8 active torsions:
REMARK  status: ('A' for Active; 'I' for Inactive)
REMARK    1  A    between atoms: O2_2  and  C3_3 
REMARK    2  A    between atoms: C6_6  and  O7_7 
REMARK    3  A    between atoms: C9_9  and  C10_10 
REMARK    4  A    between atoms: C10_10  and  O12_11 
REMARK    5  A    between atoms: C10_10  and  C13_12 
REMARK    6  A    between atoms: C13_12  and  N14_13 
REMARK       I    between atoms: N14_13  and  C15_14 
REMARK    7  A    between atoms: C15_14  and  C17_16 
REMARK    8  A    between atoms: C17_16  and  N18_17 
ROOT
ATOM      1  C10 ZIN A   1      20.371   1.217  12.053  0.00  0.00     0.171 C 
ENDROOT
BRANCH   1   2
ATOM      2  C9  ZIN A   1      19.818   1.026  10.665  0.00  0.00     0.008 A 
ATOM      3  C6  ZIN A   1      19.179   2.076  10.022  0.00  0.00     0.077 A 
ATOM      4  C5  ZIN A   1      18.668   1.899   8.745  0.00  0.00     0.040 A 
ATOM      5  C4  ZIN A   1      18.796   0.678   8.112  0.00  0.00     0.039 A 
ATOM      6  C3  ZIN A   1      19.437  -0.371   8.755  0.00  0.00     0.069 A 
ATOM      7  C22 ZIN A   1      19.942  -0.196  10.035  0.00  0.00     0.049 A 
BRANCH   3   8
ATOM      8  O7  ZIN A   1      19.052   3.278  10.646  0.00  0.00    -0.355 OA
ATOM      9  C8  ZIN A   1      17.733   3.820  10.748  0.00  0.00     0.210 C 
ENDBRANCH   3   8
BRANCH   6  10
ATOM     10  O2  ZIN A   1      19.563  -1.573   8.132  0.00  0.00    -0.356 OA
ATOM     11  C1  ZIN A   1      18.369  -2.335   7.940  0.00  0.00     0.210 C 
ENDBRANCH   6  10
ENDBRANCH   1   2
BRANCH   1  12
ATOM     12  O12 ZIN A   1      21.646   0.577  12.151  0.00  0.00    -0.389 OA
ATOM     13  H31 ZIN A   1      22.397   1.176  12.042  0.00  0.00     0.210 HD
ENDBRANCH   1  12
BRANCH   1  14
ATOM     14  C13 ZIN A   1      19.412   0.602  13.075  0.00  0.00     0.159 C 
BRANCH  14  15
ATOM     15  N14 ZIN A   1      19.707   1.138  14.406  0.00  0.00    -0.357 N 
ATOM     16  C15 ZIN A   1      18.917   2.092  14.938  0.00  0.00     0.243 C 
ATOM     17  O16 ZIN A   1      17.963   2.506  14.314  0.00  0.00    -0.272 OA
ATOM     18  H34 ZIN A   1      20.470   0.806  14.905  0.00  0.00     0.162 HD
BRANCH  16  19
ATOM     19  C17 ZIN A   1      19.219   2.644  16.307  0.00  0.00     0.332 C 
BRANCH  19  20
ATOM     20  N18 ZIN A   1      20.149   3.774  16.186  0.00  0.00    -0.071 N 
ATOM     21  H19 ZIN A   1      20.347   3.943  15.212  0.00  0.00     0.274 HD
ATOM     22  H20 ZIN A   1      19.732   4.599  16.592  0.00  0.00     0.274 HD
ATOM     23  H21 ZIN A   1      21.006   3.558  16.671  0.00  0.00     0.274 HD
ENDBRANCH  19  20
ENDBRANCH  16  19
ENDBRANCH  14  15
ENDBRANCH   1  14
TORSDOF 8
ENDMDL
MODEL 4
REMARK VINA RESULT:      -5.7      3.235      5.012
REMARK  8 active torsions:
REMARK  status: ('A' for Active; 'I' for Inactive)
REMARK    1  A    between atoms: O2_2  and  C3_3 
REMARK    2  A    between atoms: C6_6  and  O7_7 
REMARK    3  A    between atoms: C9_9  and  C10_10 
REMARK    4  A    between atoms: C10_10  and  O12_11 
REMARK    5  A    between atoms: C10_10  and  C13_12 
REMARK    6  A    between atoms: C13_12  and  N14_13 
REMARK       I    between atoms: N14_13  and  C15_14 
REMARK    7  A    between atoms: C15_14  and  C17_16 
REMARK    8  A    between atoms: C17_16  and  N18_17 
ROOT
ATOM      1  C10 ZIN A   1      20.264   0.452  12.133  0.00  0.00     0.171 C 
ENDROOT
BRANCH   1   2
ATOM      2  C9  ZIN A   1      19.696   0.138  13.492  0.00  0.00     0.008 A 
ATOM      3  C6  ZIN A   1      19.341  -1.164  13.813  0.00  0.00     0.077 A 
ATOM      4  C5  ZIN A   1      18.816  -1.452  15.064  0.00  0.00     0.040 A 
ATOM      5  C4  ZIN A   1      18.646  -0.442  15.991  0.00  0.00     0.039 A 
ATOM      6  C3  ZIN A   1      19.002   0.859  15.671  0.00  0.00     0.069 A 
ATOM      7  C22 ZIN A   1      19.522   1.148  14.418  0.00  0.00     0.049 A 
BRANCH   3   8
ATOM      8  O7  ZIN A   1      19.507  -2.158  12.899  0.00  0.00    -0.355 OA
ATOM      9  C8  ZIN A   1      18.325  -2.684  12.290  0.00  0.00     0.210 C 
ENDBRANCH   3   8
BRANCH   6  10
ATOM     10  O2  ZIN A   1      18.836   1.853  16.585  0.00  0.00    -0.356 OA
ATOM     11  C1  ZIN A   1      19.383   3.133  16.258  0.00  0.00     0.210 C 
ENDBRANCH   6  10
ENDBRANCH   1   2
BRANCH   1  12
ATOM     12  O12 ZIN A   1      21.680   0.622  12.236  0.00  0.00    -0.389 OA
ATOM     13  H31 ZIN A   1      21.991   0.791  13.136  0.00  0.00     0.210 HD
ENDBRANCH   1  12
BRANCH   1  14
ATOM     14  C13 ZIN A   1      19.632   1.740  11.600  0.00  0.00     0.159 C 
BRANCH  14  15
ATOM     15  N14 ZIN A   1      19.885   1.848  10.161  0.00  0.00    -0.357 N 
ATOM     16  C15 ZIN A   1      18.914   1.537   9.281  0.00  0.00     0.243 C 
ATOM     17  O16 ZIN A   1      17.830   1.166   9.680  0.00  0.00    -0.272 OA
ATOM     18  H34 ZIN A   1      20.752   2.145   9.841  0.00  0.00     0.162 HD
BRANCH  16  19
ATOM     19  C17 ZIN A   1      19.173   1.648   7.800  0.00  0.00     0.332 C 
BRANCH  19  20
ATOM     20  N18 ZIN A   1      18.398   0.624   7.089  0.00  0.00    -0.071 N 
ATOM     21  H19 ZIN A   1      17.776   1.069   6.431  0.00  0.00     0.274 HD
ATOM     22  H20 ZIN A   1      19.027   0.009   6.594  0.00  0.00     0.274 HD
ATOM     23  H21 ZIN A   1      17.858   0.089   7.752  0.00  0.00     0.274 HD
ENDBRANCH  19  20
ENDBRANCH  16  19
ENDBRANCH  14  15
ENDBRANCH   1  14
TORSDOF 8
ENDMDL
MODEL 5
REMARK VINA RESULT:      -5.7      1.199      3.055
REMARK  8 active torsions:
REMARK  status: ('A' for Active; 'I' for Inactive)
REMARK    1  A    between atoms: O2_2  and  C3_3 
REMARK    2  A    between atoms: C6_6  and  O7_7 
REMARK    3  A    between atoms: C9_9  and  C10_10 
REMARK    4  A    between atoms: C10_10  and  O12_11 
REMARK    5  A    between atoms: C10_10  and  C13_12 
REMARK    6  A    between atoms: C13_12  and  N14_13 
REMARK       I    between atoms: N14_13  and  C15_14 
REMARK    7  A    between atoms: C15_14  and  C17_16 
REMARK    8  A    between atoms: C17_16  and  N18_17 
ROOT
ATOM      1  C10 ZIN A   1      20.301   0.714  12.183  0.00  0.00     0.171 C 
ENDROOT
BRANCH   1   2
ATOM      2  C9  ZIN A   1      19.721   1.255  10.903  0.00  0.00     0.008 A 
ATOM      3  C6  ZIN A   1      19.170   2.527  10.874  0.00  0.00     0.077 A 
ATOM      4  C5  ZIN A   1      18.634   3.024   9.695  0.00  0.00     0.040 A 
ATOM      5  C4  ZIN A   1      18.650   2.253   8.549  0.00  0.00     0.039 A 
ATOM      6  C3  ZIN A   1      19.203   0.981   8.578  0.00  0.00     0.069 A 
ATOM      7  C22 ZIN A   1      19.733   0.481   9.758  0.00  0.00     0.049 A 
BRANCH   3   8
ATOM      8  O7  ZIN A   1      19.153   3.286  12.002  0.00  0.00    -0.355 OA
ATOM      9  C8  ZIN A   1      17.930   3.957  12.315  0.00  0.00     0.210 C 
ENDBRANCH   3   8
BRANCH   6  10
ATOM     10  O2  ZIN A   1      19.219   0.221   7.450  0.00  0.00    -0.356 OA
ATOM     11  C1  ZIN A   1      18.877   0.872   6.224  0.00  0.00     0.210 C 
ENDBRANCH   6  10
ENDBRANCH   1   2
BRANCH   1  12
ATOM     12  O12 ZIN A   1      21.620   0.218  11.938  0.00  0.00    -0.389 OA
ATOM     13  H31 ZIN A   1      21.970   0.447  11.066  0.00  0.00     0.210 HD
ENDBRANCH   1  12
BRANCH   1  14
ATOM     14  C13 ZIN A   1      19.418  -0.423  12.704  0.00  0.00     0.159 C 
BRANCH  14  15
ATOM     15  N14 ZIN A   1      20.076  -1.707  12.453  0.00  0.00    -0.357 N 
ATOM     16  C15 ZIN A   1      19.438  -2.666  11.754  0.00  0.00     0.243 C 
ATOM     17  O16 ZIN A   1      18.318  -2.465  11.334  0.00  0.00    -0.272 OA
ATOM     18  H34 ZIN A   1      20.973  -1.867  12.789  0.00  0.00     0.162 HD
BRANCH  16  19
ATOM     19  C17 ZIN A   1      20.114  -3.987  11.494  0.00  0.00     0.332 C 
BRANCH  19  20
ATOM     20  N18 ZIN A   1      20.050  -4.298  10.060  0.00  0.00    -0.071 N 
ATOM     21  H19 ZIN A   1      19.330  -4.985   9.897  0.00  0.00     0.274 HD
ATOM     22  H20 ZIN A   1      19.835  -3.457   9.544  0.00  0.00     0.274 HD
ATOM     23  H21 ZIN A   1      20.939  -4.661   9.755  0.00  0.00     0.274 HD
ENDBRANCH  19  20
ENDBRANCH  16  19
ENDBRANCH  14  15
ENDBRANCH   1  14
TORSDOF 8
ENDMDL
MODEL 6
REMARK VINA RESULT:      -5.7      1.923      2.455
REMARK  8 active torsions:
REMARK  status: ('A' for Active; 'I' for Inactive)
REMARK    1  A    between atoms: O2_2  and  C3_3 
REMARK    2  A    between atoms: C6_6  and  O7_7 
REMARK    3  A    between atoms: C9_9  and  C10_10 
REMARK    4  A    between atoms: C10_10  and  O12_11 
REMARK    5  A    between atoms: C10_10  and  C13_12 
REMARK    6  A    between atoms: C13_12  and  N14_13 
REMARK       I    between atoms: N14_13  and  C15_14 
REMARK    7  A    between atoms: C15_14  and  C17_16 
REMARK    8  A    between atoms: C17_16  and  N18_17 
ROOT
ATOM      1  C10 ZIN A   1      20.064  -0.428  10.726  0.00  0.00     0.171 C 
ENDROOT
BRANCH   1   2
ATOM      2  C9  ZIN A   1      19.389   0.918  10.689  0.00  0.00     0.008 A 
ATOM      3  C6  ZIN A   1      19.248   1.590   9.484  0.00  0.00     0.077 A 
ATOM      4  C5  ZIN A   1      18.628   2.831   9.451  0.00  0.00     0.040 A 
ATOM      5  C4  ZIN A   1      18.151   3.396  10.617  0.00  0.00     0.039 A 
ATOM      6  C3  ZIN A   1      18.291   2.723  11.821  0.00  0.00     0.069 A 
ATOM      7  C22 ZIN A   1      18.916   1.486  11.856  0.00  0.00     0.049 A 
BRANCH   3   8
ATOM      8  O7  ZIN A   1      19.719   1.034   8.336  0.00  0.00    -0.355 OA
ATOM      9  C8  ZIN A   1      18.965   1.269   7.144  0.00  0.00     0.210 C 
ENDBRANCH   3   8
BRANCH   6  10
ATOM     10  O2  ZIN A   1      17.820   3.280  12.969  0.00  0.00    -0.356 OA
ATOM     11  C1  ZIN A   1      18.054   2.561  14.183  0.00  0.00     0.210 C 
ENDBRANCH   6  10
ENDBRANCH   1   2
BRANCH   1  12
ATOM     12  O12 ZIN A   1      21.301  -0.362  10.011  0.00  0.00    -0.389 OA
ATOM     13  H31 ZIN A   1      21.197  -0.305   9.051  0.00  0.00     0.210 HD
ENDBRANCH   1  12
BRANCH   1  14
ATOM     14  C13 ZIN A   1      19.156  -1.475  10.077  0.00  0.00     0.159 C 
BRANCH  14  15
ATOM     15  N14 ZIN A   1      19.722  -1.881   8.789  0.00  0.00    -0.357 N 
ATOM     16  C15 ZIN A   1      19.057  -2.755   8.006  0.00  0.00     0.243 C 
ATOM     17  O16 ZIN A   1      17.991  -3.204   8.370  0.00  0.00    -0.272 OA
ATOM     18  H34 ZIN A   1      20.575  -1.521   8.498  0.00  0.00     0.162 HD
BRANCH  16  19
ATOM     19  C17 ZIN A   1      19.639  -3.174   6.681  0.00  0.00     0.332 C 
BRANCH  19  20
ATOM     20  N18 ZIN A   1      20.603  -4.261   6.890  0.00  0.00    -0.071 N 
ATOM     21  H19 ZIN A   1      20.457  -4.978   6.197  0.00  0.00     0.274 HD
ATOM     22  H20 ZIN A   1      21.542  -3.899   6.807  0.00  0.00     0.274 HD
ATOM     23  H21 ZIN A   1      20.475  -4.651   7.811  0.00  0.00     0.274 HD
ENDBRANCH  19  20
ENDBRANCH  16  19
ENDBRANCH  14  15
ENDBRANCH   1  14
TORSDOF 8
ENDMDL
MODEL 7
REMARK VINA RESULT:      -5.7      2.360      5.932
REMARK  8 active torsions:
REMARK  status: ('A' for Active; 'I' for Inactive)
REMARK    1  A    between atoms: O2_2  and  C3_3 
REMARK    2  A    between atoms: C6_6  and  O7_7 
REMARK    3  A    between atoms: C9_9  and  C10_10 
REMARK    4  A    between atoms: C10_10  and  O12_11 
REMARK    5  A    between atoms: C10_10  and  C13_12 
REMARK    6  A    between atoms: C13_12  and  N14_13 
REMARK       I    between atoms: N14_13  and  C15_14 
REMARK    7  A    between atoms: C15_14  and  C17_16 
REMARK    8  A    between atoms: C17_16  and  N18_17 
ROOT
ATOM      1  C10 ZIN A   1      19.692  -0.661   9.262  0.00  0.00     0.171 C 
ENDROOT
BRANCH   1   2
ATOM      2  C9  ZIN A   1      19.049  -1.594  10.255  0.00  0.00     0.008 A 
ATOM      3  C6  ZIN A   1      19.272  -1.422  11.613  0.00  0.00     0.077 A 
ATOM      4  C5  ZIN A   1      18.681  -2.281  12.528  0.00  0.00     0.040 A 
ATOM      5  C4  ZIN A   1      17.871  -3.309  12.086  0.00  0.00     0.039 A 
ATOM      6  C3  ZIN A   1      17.648  -3.481  10.728  0.00  0.00     0.069 A 
ATOM      7  C22 ZIN A   1      18.243  -2.625   9.813  0.00  0.00     0.049 A 
BRANCH   3   8
ATOM      8  O7  ZIN A   1      20.070  -0.410  12.048  0.00  0.00    -0.355 OA
ATOM      9  C8  ZIN A   1      19.858   0.056  13.383  0.00  0.00     0.210 C 
ENDBRANCH   3   8
BRANCH   6  10
ATOM     10  O2  ZIN A   1      16.849  -4.492  10.293  0.00  0.00    -0.356 OA
ATOM     11  C1  ZIN A   1      17.299  -5.826  10.541  0.00  0.00     0.210 C 
ENDBRANCH   6  10
ENDBRANCH   1   2
BRANCH   1  12
ATOM     12  O12 ZIN A   1      21.004  -0.316   9.712  0.00  0.00    -0.389 OA
ATOM     13  H31 ZIN A   1      21.513  -1.065  10.050  0.00  0.00     0.210 HD
ENDBRANCH   1  12
BRANCH   1  14
ATOM     14  C13 ZIN A   1      18.847   0.608   9.131  0.00  0.00     0.159 C 
BRANCH  14  15
ATOM     15  N14 ZIN A   1      19.453   1.682   9.922  0.00  0.00    -0.357 N 
ATOM     16  C15 ZIN A   1      18.683   2.450  10.717  0.00  0.00     0.243 C 
ATOM     17  O16 ZIN A   1      17.488   2.253  10.777  0.00  0.00    -0.272 OA
ATOM     18  H34 ZIN A   1      20.409   1.839   9.874  0.00  0.00     0.162 HD
BRANCH  16  19
ATOM     19  C17 ZIN A   1      19.305   3.555  11.532  0.00  0.00     0.332 C 
BRANCH  19  20
ATOM     20  N18 ZIN A   1      20.735   3.279  11.720  0.00  0.00    -0.071 N 
ATOM     21  H19 ZIN A   1      21.268   3.776  11.023  0.00  0.00     0.274 HD
ATOM     22  H20 ZIN A   1      21.018   3.582  12.640  0.00  0.00     0.274 HD
ATOM     23  H21 ZIN A   1      20.902   2.288  11.627  0.00  0.00     0.274 HD
ENDBRANCH  19  20
ENDBRANCH  16  19
ENDBRANCH  14  15
ENDBRANCH   1  14
TORSDOF 8
ENDMDL
MODEL 8
REMARK VINA RESULT:      -5.6      2.811      4.860
REMARK  8 active torsions:
REMARK  status: ('A' for Active; 'I' for Inactive)
REMARK    1  A    between atoms: O2_2  and  C3_3 
REMARK    2  A    between atoms: C6_6  and  O7_7 
REMARK    3  A    between atoms: C9_9  and  C10_10 
REMARK    4  A    between atoms: C10_10  and  O12_11 
REMARK    5  A    between atoms: C10_10  and  C13_12 
REMARK    6  A    between atoms: C13_12  and  N14_13 
REMARK       I    between atoms: N14_13  and  C15_14 
REMARK    7  A    between atoms: C15_14  and  C17_16 
REMARK    8  A    between atoms: C17_16  and  N18_17 
ROOT
ATOM      1  C10 ZIN A   1      17.233  -0.567  10.964  0.00  0.00     0.171 C 
ENDROOT
BRANCH   1   2
ATOM      2  C9  ZIN A   1      17.909   0.164   9.835  0.00  0.00     0.008 A 
ATOM      3  C6  ZIN A   1      18.234   1.506   9.972  0.00  0.00     0.077 A 
ATOM      4  C5  ZIN A   1      18.856   2.179   8.930  0.00  0.00     0.040 A 
ATOM      5  C4  ZIN A   1      19.151   1.514   7.756  0.00  0.00     0.039 A 
ATOM      6  C3  ZIN A   1      18.827   0.172   7.620  0.00  0.00     0.069 A 
ATOM      7  C22 ZIN A   1      18.200  -0.500   8.659  0.00  0.00     0.049 A 
BRANCH   3   8
ATOM      8  O7  ZIN A   1      17.942   2.160  11.127  0.00  0.00    -0.355 OA
ATOM      9  C8  ZIN A   1      18.845   3.192  11.534  0.00  0.00     0.210 C 
ENDBRANCH   3   8
BRANCH   6  10
ATOM     10  O2  ZIN A   1      19.119  -0.483   6.464  0.00  0.00    -0.356 OA
ATOM     11  C1  ZIN A   1      19.205   0.305   5.275  0.00  0.00     0.210 C 
ENDBRANCH   6  10
ENDBRANCH   1   2
BRANCH   1  12
ATOM     12  O12 ZIN A   1      16.118   0.199  11.428  0.00  0.00    -0.389 OA
ATOM     13  H31 ZIN A   1      16.264   0.628  12.282  0.00  0.00     0.210 HD
ENDBRANCH   1  12
BRANCH   1  14
ATOM     14  C13 ZIN A   1      18.226  -0.767  12.111  0.00  0.00     0.159 C 
BRANCH  14  15
ATOM     15  N14 ZIN A   1      17.773  -0.019  13.286  0.00  0.00    -0.357 N 
ATOM     16  C15 ZIN A   1      18.674   0.529  14.125  0.00  0.00     0.243 C 
ATOM     17  O16 ZIN A   1      19.860   0.401  13.907  0.00  0.00    -0.272 OA
ATOM     18  H34 ZIN A   1      16.824   0.084  13.460  0.00  0.00     0.162 HD
BRANCH  16  19
ATOM     19  C17 ZIN A   1      18.209   1.300  15.333  0.00  0.00     0.332 C 
BRANCH  19  20
ATOM     20  N18 ZIN A   1      17.161   0.539  16.026  0.00  0.00    -0.071 N 
ATOM     21  H19 ZIN A   1      17.484  -0.401  16.194  0.00  0.00     0.274 HD
ATOM     22  H20 ZIN A   1      16.949   0.984  16.907  0.00  0.00     0.274 HD
ATOM     23  H21 ZIN A   1      16.331   0.513  15.454  0.00  0.00     0.274 HD
ENDBRANCH  19  20
ENDBRANCH  16  19
ENDBRANCH  14  15
ENDBRANCH   1  14
TORSDOF 8
ENDMDL
MODEL 9
REMARK VINA RESULT:      -5.4      3.677      5.992
REMARK  8 active torsions:
REMARK  status: ('A' for Active; 'I' for Inactive)
REMARK    1  A    between atoms: O2_2  and  C3_3 
REMARK    2  A    between atoms: C6_6  and  O7_7 
REMARK    3  A    between atoms: C9_9  and  C10_10 
REMARK    4  A    between atoms: C10_10  and  O12_11 
REMARK    5  A    between atoms: C10_10  and  C13_12 
REMARK    6  A    between atoms: C13_12  and  N14_13 
REMARK       I    between atoms: N14_13  and  C15_14 
REMARK    7  A    between atoms: C15_14  and  C17_16 
REMARK    8  A    between atoms: C17_16  and  N18_17 
ROOT
ATOM      1  C10 ZIN A   1      18.227   3.228  11.500  0.00  0.00     0.171 C 
ENDROOT
BRANCH   1   2
ATOM      2  C9  ZIN A   1      18.132   2.161  10.441  0.00  0.00     0.008 A 
ATOM      3  C6  ZIN A   1      17.409   1.003  10.685  0.00  0.00     0.077 A 
ATOM      4  C5  ZIN A   1      17.324   0.020   9.710  0.00  0.00     0.040 A 
ATOM      5  C4  ZIN A   1      17.958   0.195   8.495  0.00  0.00     0.039 A 
ATOM      6  C3  ZIN A   1      18.680   1.353   8.250  0.00  0.00     0.069 A 
ATOM      7  C22 ZIN A   1      18.770   2.334   9.228  0.00  0.00     0.049 A 
BRANCH   3   8
ATOM      8  O7  ZIN A   1      16.786   0.831  11.881  0.00  0.00    -0.355 OA
ATOM      9  C8  ZIN A   1      17.325  -0.162  12.757  0.00  0.00     0.210 C 
ENDBRANCH   3   8
BRANCH   6  10
ATOM     10  O2  ZIN A   1      19.303   1.526   7.054  0.00  0.00    -0.356 OA
ATOM     11  C1  ZIN A   1      18.921   0.650   5.991  0.00  0.00     0.210 C 
ENDBRANCH   6  10
ENDBRANCH   1   2
BRANCH   1  12
ATOM     12  O12 ZIN A   1      18.158   4.517  10.886  0.00  0.00    -0.389 OA
ATOM     13  H31 ZIN A   1      18.386   4.518   9.946  0.00  0.00     0.210 HD
ENDBRANCH   1  12
BRANCH   1  14
ATOM     14  C13 ZIN A   1      19.556   3.090  12.247  0.00  0.00     0.159 C 
BRANCH  14  15
ATOM     15  N14 ZIN A   1      19.344   3.350  13.672  0.00  0.00    -0.357 N 
ATOM     16  C15 ZIN A   1      19.536   4.589  14.167  0.00  0.00     0.243 C 
ATOM     17  O16 ZIN A   1      19.886   5.488  13.431  0.00  0.00    -0.272 OA
ATOM     18  H34 ZIN A   1      19.064   2.631  14.261  0.00  0.00     0.162 HD
BRANCH  16  19
ATOM     19  C17 ZIN A   1      19.318   4.858  15.634  0.00  0.00     0.332 C 
BRANCH  19  20
ATOM     20  N18 ZIN A   1      20.548   4.554  16.376  0.00  0.00    -0.071 N 
ATOM     21  H19 ZIN A   1      20.337   4.473  17.358  0.00  0.00     0.274 HD
ATOM     22  H20 ZIN A   1      20.936   3.684  16.042  0.00  0.00     0.274 HD
ATOM     23  H21 ZIN A   1      21.218   5.295  16.236  0.00  0.00     0.274 HD
ENDBRANCH  19  20
ENDBRANCH  16  19
ENDBRANCH  14  15
ENDBRANCH   1  14
TORSDOF 8
ENDMDL
