MODEL 1
REMARK VINA RESULT:      -6.8      0.000      0.000
REMARK  12 active torsions:
REMARK  status: ('A' for Active; 'I' for Inactive)
REMARK    1  A    between atoms: C2_2  and  C4_4 
REMARK    2  A    between atoms: C4_4  and  N6_5 
REMARK    3  A    between atoms: C4_4  and  C10_9 
REMARK    4  A    between atoms: C10_9  and  O12_11 
REMARK    5  A    between atoms: O12_11  and  C13_12 
REMARK    6  A    between atoms: C13_12  and  C14_13 
REMARK    7  A    between atoms: C14_13  and  C16_14 
REMARK    8  A    between atoms: C14_13  and  O18_16 
REMARK    9  A    between atoms: C16_14  and  O17_15 
REMARK   10  A    between atoms: O18_16  and  C19_17 
REMARK   11  A    between atoms: C19_17  and  N20_18 
REMARK   12  A    between atoms: C26_24  and  N27_25 
ROOT
ATOM      1  C14 ZIN A   1      19.604  -0.869  12.339  0.00  0.00     0.171 C 
ENDROOT
BRANCH   1   2
ATOM      2  C13 ZIN A   1      18.593   0.229  12.676  0.00  0.00     0.213 C 
BRANCH   2   3
ATOM      3  O12 ZIN A   1      19.287   1.363  13.259  0.00  0.00    -0.317 OA
BRANCH   3   4
ATOM      4  C10 ZIN A   1      18.695   2.563  13.146  0.00  0.00     0.290 C 
ATOM      5  O11 ZIN A   1      17.836   2.889  13.930  0.00  0.00    -0.263 OA
BRANCH   4   6
ATOM      6  C4  ZIN A   1      19.103   3.503  12.041  0.00  0.00     0.285 C 
BRANCH   6   7
ATOM      7  C2  ZIN A   1      18.149   3.341  10.856  0.00  0.00     0.018 C 
ATOM      8  C1  ZIN A   1      17.645   4.717  10.415  0.00  0.00     0.012 C 
ATOM      9  C3  ZIN A   1      18.888   2.673   9.694  0.00  0.00     0.012 C 
ENDBRANCH   6   7
BRANCH   6  10
ATOM     10  N6  ZIN A   1      20.473   3.189  11.613  0.00  0.00    -0.066 N 
ATOM     11  H7  ZIN A   1      21.015   2.895  12.411  0.00  0.00     0.275 HD
ATOM     12  H8  ZIN A   1      20.451   2.448  10.929  0.00  0.00     0.275 HD
ATOM     13  H9  ZIN A   1      20.894   4.010  11.205  0.00  0.00     0.275 HD
ENDBRANCH   6  10
ENDBRANCH   4   6
ENDBRANCH   3   4
ENDBRANCH   2   3
ENDBRANCH   1   2
BRANCH   1  14
ATOM     14  C16 ZIN A   1      20.583  -0.354  11.282  0.00  0.00     0.198 C 
BRANCH  14  15
ATOM     15  O17 ZIN A   1      21.633   0.375  11.921  0.00  0.00    -0.398 OA
ATOM     16  H42 ZIN A   1      21.321   1.041  12.550  0.00  0.00     0.209 HD
ENDBRANCH  14  15
ENDBRANCH   1  14
BRANCH   1  17
ATOM     17  O18 ZIN A   1      18.913  -2.013  11.834  0.00  0.00    -0.362 OA
BRANCH  17  18
ATOM     18  C19 ZIN A   1      17.957  -1.711  10.815  0.00  0.00     0.301 C 
BRANCH  18  19
ATOM     19  N20 ZIN A   1      18.360  -2.352   9.562  0.00  0.00    -0.301 N 
ATOM     20  C24 ZIN A   1      18.609  -1.722   8.373  0.00  0.00     0.186 A 
ATOM     21  C23 ZIN A   1      18.962  -2.727   7.466  0.00  0.00     0.173 A 
ATOM     22  N25 ZIN A   1      18.585  -0.445   7.972  0.00  0.00    -0.044 NA
ATOM     23  N22 ZIN A   1      18.905  -3.906   8.131  0.00  0.00    -0.234 NA
ATOM     24  C29 ZIN A   1      19.282  -2.359   6.138  0.00  0.00     0.292 A 
ATOM     25  C21 ZIN A   1      18.550  -3.689   9.363  0.00  0.00     0.214 A 
ATOM     26  N28 ZIN A   1      19.239  -1.050   5.807  0.00  0.00    -0.152 N 
ATOM     27  O30 ZIN A   1      19.595  -3.202   5.315  0.00  0.00    -0.265 OA
ATOM     28  C26 ZIN A   1      18.888  -0.116   6.736  0.00  0.00     0.703 A 
ATOM     29  H48 ZIN A   1      19.457  -0.773   4.903  0.00  0.00     0.187 HD
BRANCH  28  30
ATOM     30  N27 ZIN A   1      18.850   1.206   6.370  0.00  0.00    -0.233 N 
ATOM     31  H46 ZIN A   1      19.310   1.502   5.571  0.00  0.00     0.174 HD
ATOM     32  H47 ZIN A   1      18.360   1.845   6.913  0.00  0.00     0.174 HD
ENDBRANCH  28  30
ENDBRANCH  18  19
ENDBRANCH  17  18
ENDBRANCH   1  17
TORSDOF 12
ENDMDL
MODEL 2
REMARK VINA RESULT:      -6.7      3.773      6.450
REMARK  12 active torsions:
REMARK  status: ('A' for Active; 'I' for Inactive)
REMARK    1  A    between atoms: C2_2  and  C4_4 
REMARK    2  A    between atoms: C4_4  and  N6_5 
REMARK    3  A    between atoms: C4_4  and  C10_9 
REMARK    4  A    between atoms: C10_9  and  O12_11 
REMARK    5  A    between atoms: O12_11  and  C13_12 
REMARK    6  A    between atoms: C13_12  and  C14_13 
REMARK    7  A    between atoms: C14_13  and  C16_14 
REMARK    8  A    between atoms: C14_13  and  O18_16 
REMARK    9  A    between atoms: C16_14  and  O17_15 
REMARK   10  A    between atoms: O18_16  and  C19_17 
REMARK   11  A    between atoms: C19_17  and  N20_18 
REMARK   12  A    between atoms: C26_24  and  N27_25 
ROOT
ATOM      1  C14 ZIN A   1      19.298   5.039  15.579  0.00  0.00     0.171 C 
ENDROOT
BRANCH   1   2
ATOM      2  C13 ZIN A   1      19.020   4.307  16.893  0.00  0.00     0.213 C 
BRANCH   2   3
ATOM      3  O12 ZIN A   1      19.920   3.175  17.016  0.00  0.00    -0.317 OA
BRANCH   3   4
ATOM      4  C10 ZIN A   1      19.384   2.011  17.419  0.00  0.00     0.290 C 
ATOM      5  O11 ZIN A   1      19.559   1.625  18.550  0.00  0.00    -0.263 OA
BRANCH   4   6
ATOM      6  C4  ZIN A   1      18.565   1.188  16.459  0.00  0.00     0.285 C 
BRANCH   6   7
ATOM      7  C2  ZIN A   1      18.255  -0.172  17.088  0.00  0.00     0.018 C 
ATOM      8  C1  ZIN A   1      16.747  -0.430  17.028  0.00  0.00     0.012 C 
ATOM      9  C3  ZIN A   1      18.991  -1.270  16.317  0.00  0.00     0.012 C 
ENDBRANCH   6   7
BRANCH   6  10
ATOM     10  N6  ZIN A   1      19.321   0.991  15.214  0.00  0.00    -0.066 N 
ATOM     11  H7  ZIN A   1      18.933   0.211  14.706  0.00  0.00     0.275 HD
ATOM     12  H8  ZIN A   1      19.261   1.825  14.649  0.00  0.00     0.275 HD
ATOM     13  H9  ZIN A   1      20.287   0.803  15.434  0.00  0.00     0.275 HD
ENDBRANCH   6  10
ENDBRANCH   4   6
ENDBRANCH   3   4
ENDBRANCH   2   3
ENDBRANCH   1   2
BRANCH   1  14
ATOM     14  C16 ZIN A   1      18.275   6.163  15.395  0.00  0.00     0.198 C 
BRANCH  14  15
ATOM     15  O17 ZIN A   1      18.765   7.356  16.011  0.00  0.00    -0.398 OA
ATOM     16  H42 ZIN A   1      19.412   7.836  15.477  0.00  0.00     0.209 HD
ENDBRANCH  14  15
ENDBRANCH   1  14
BRANCH   1  17
ATOM     17  O18 ZIN A   1      19.197   4.119  14.491  0.00  0.00    -0.362 OA
BRANCH  17  18
ATOM     18  C19 ZIN A   1      17.870   3.963  13.983  0.00  0.00     0.301 C 
BRANCH  18  19
ATOM     19  N20 ZIN A   1      17.924   3.747  12.536  0.00  0.00    -0.301 N 
ATOM     20  C24 ZIN A   1      18.705   2.833  11.882  0.00  0.00     0.186 A 
ATOM     21  C23 ZIN A   1      18.422   2.984  10.520  0.00  0.00     0.173 A 
ATOM     22  N25 ZIN A   1      19.591   1.911  12.277  0.00  0.00    -0.044 NA
ATOM     23  N22 ZIN A   1      17.504   3.974  10.407  0.00  0.00    -0.234 NA
ATOM     24  C29 ZIN A   1      19.093   2.152   9.592  0.00  0.00     0.292 A 
ATOM     25  C21 ZIN A   1      17.209   4.425  11.591  0.00  0.00     0.214 A 
ATOM     26  N28 ZIN A   1      19.972   1.242  10.066  0.00  0.00    -0.152 N 
ATOM     27  O30 ZIN A   1      18.878   2.250   8.397  0.00  0.00    -0.265 OA
ATOM     28  C26 ZIN A   1      20.204   1.142  11.406  0.00  0.00     0.703 A 
ATOM     29  H48 ZIN A   1      20.442   0.659   9.449  0.00  0.00     0.187 HD
BRANCH  28  30
ATOM     30  N27 ZIN A   1      21.105   0.210  11.858  0.00  0.00    -0.233 N 
ATOM     31  H46 ZIN A   1      22.040   0.282  11.615  0.00  0.00     0.174 HD
ATOM     32  H47 ZIN A   1      20.804  -0.521  12.422  0.00  0.00     0.174 HD
ENDBRANCH  28  30
ENDBRANCH  18  19
ENDBRANCH  17  18
ENDBRANCH   1  17
TORSDOF 12
ENDMDL
MODEL 3
REMARK VINA RESULT:      -6.7      3.402      7.181
REMARK  12 active torsions:
REMARK  status: ('A' for Active; 'I' for Inactive)
REMARK    1  A    between atoms: C2_2  and  C4_4 
REMARK    2  A    between atoms: C4_4  and  N6_5 
REMARK    3  A    between atoms: C4_4  and  C10_9 
REMARK    4  A    between atoms: C10_9  and  O12_11 
REMARK    5  A    between atoms: O12_11  and  C13_12 
REMARK    6  A    between atoms: C13_12  and  C14_13 
REMARK    7  A    between atoms: C14_13  and  C16_14 
REMARK    8  A    between atoms: C14_13  and  O18_16 
REMARK    9  A    between atoms: C16_14  and  O17_15 
REMARK   10  A    between atoms: O18_16  and  C19_17 
REMARK   11  A    between atoms: C19_17  and  N20_18 
REMARK   12  A    between atoms: C26_24  and  N27_25 
ROOT
ATOM      1  C14 ZIN A   1      19.497  -0.771  12.129  0.00  0.00     0.171 C 
ENDROOT
BRANCH   1   2
ATOM      2  C13 ZIN A   1      19.748  -1.864  11.088  0.00  0.00     0.213 C 
BRANCH   2   3
ATOM      3  O12 ZIN A   1      19.641  -1.297   9.756  0.00  0.00    -0.317 OA
BRANCH   3   4
ATOM      4  C10 ZIN A   1      18.405  -1.163   9.248  0.00  0.00     0.290 C 
ATOM      5  O11 ZIN A   1      17.718  -2.139   9.066  0.00  0.00    -0.263 OA
BRANCH   4   6
ATOM      6  C4  ZIN A   1      17.875   0.206   8.906  0.00  0.00     0.285 C 
BRANCH   6   7
ATOM      7  C2  ZIN A   1      19.026   1.094   8.428  0.00  0.00     0.018 C 
ATOM      8  C1  ZIN A   1      18.949   1.253   6.908  0.00  0.00     0.012 C 
ATOM      9  C3  ZIN A   1      18.918   2.469   9.091  0.00  0.00     0.012 C 
ENDBRANCH   6   7
BRANCH   6  10
ATOM     10  N6  ZIN A   1      17.258   0.804  10.099  0.00  0.00    -0.066 N 
ATOM     11  H7  ZIN A   1      16.394   1.255   9.839  0.00  0.00     0.275 HD
ATOM     12  H8  ZIN A   1      17.071   0.082  10.778  0.00  0.00     0.275 HD
ATOM     13  H9  ZIN A   1      17.887   1.485  10.496  0.00  0.00     0.275 HD
ENDBRANCH   6  10
ENDBRANCH   4   6
ENDBRANCH   3   4
ENDBRANCH   2   3
ENDBRANCH   1   2
BRANCH   1  14
ATOM     14  C16 ZIN A   1      20.563   0.319  11.992  0.00  0.00     0.198 C 
BRANCH  14  15
ATOM     15  O17 ZIN A   1      21.685  -0.202  11.276  0.00  0.00    -0.398 OA
ATOM     16  H42 ZIN A   1      21.519  -1.057  10.854  0.00  0.00     0.209 HD
ENDBRANCH  14  15
ENDBRANCH   1  14
BRANCH   1  17
ATOM     17  O18 ZIN A   1      19.559  -1.338  13.439  0.00  0.00    -0.362 OA
BRANCH  17  18
ATOM     18  C19 ZIN A   1      18.342  -1.227  14.179  0.00  0.00     0.301 C 
BRANCH  18  19
ATOM     19  N20 ZIN A   1      18.620  -0.634  15.489  0.00  0.00    -0.301 N 
ATOM     20  C24 ZIN A   1      18.897   0.682  15.740  0.00  0.00     0.186 A 
ATOM     21  C23 ZIN A   1      19.089   0.783  17.122  0.00  0.00     0.173 A 
ATOM     22  N25 ZIN A   1      18.997   1.777  14.975  0.00  0.00    -0.044 NA
ATOM     23  N22 ZIN A   1      18.931  -0.459  17.641  0.00  0.00    -0.234 NA
ATOM     24  C29 ZIN A   1      19.391   2.050  17.674  0.00  0.00     0.292 A 
ATOM     25  C21 ZIN A   1      18.655  -1.294  16.683  0.00  0.00     0.214 A 
ATOM     26  N28 ZIN A   1      19.472   3.110  16.840  0.00  0.00    -0.152 N 
ATOM     27  O30 ZIN A   1      19.566   2.184  18.872  0.00  0.00    -0.265 OA
ATOM     28  C26 ZIN A   1      19.274   2.949  15.501  0.00  0.00     0.703 A 
ATOM     29  H48 ZIN A   1      19.675   3.990  17.195  0.00  0.00     0.187 HD
BRANCH  28  30
ATOM     30  N27 ZIN A   1      19.366   4.043  14.677  0.00  0.00    -0.233 N 
ATOM     31  H46 ZIN A   1      19.771   4.861  15.000  0.00  0.00     0.174 HD
ATOM     32  H47 ZIN A   1      19.026   3.996  13.769  0.00  0.00     0.174 HD
ENDBRANCH  28  30
ENDBRANCH  18  19
ENDBRANCH  17  18
ENDBRANCH   1  17
TORSDOF 12
ENDMDL
MODEL 4
REMARK VINA RESULT:      -6.6      1.192      2.281
REMARK  12 active torsions:
REMARK  status: ('A' for Active; 'I' for Inactive)
REMARK    1  A    between atoms: C2_2  and  C4_4 
REMARK    2  A    between atoms: C4_4  and  N6_5 
REMARK    3  A    between atoms: C4_4  and  C10_9 
REMARK    4  A    between atoms: C10_9  and  O12_11 
REMARK    5  A    between atoms: O12_11  and  C13_12 
REMARK    6  A    between atoms: C13_12  and  C14_13 
REMARK    7  A    between atoms: C14_13  and  C16_14 
REMARK    8  A    between atoms: C14_13  and  O18_16 
REMARK    9  A    between atoms: C16_14  and  O17_15 
REMARK   10  A    between atoms: O18_16  and  C19_17 
REMARK   11  A    between atoms: C19_17  and  N20_18 
REMARK   12  A    between atoms: C26_24  and  N27_25 
ROOT
ATOM      1  C14 ZIN A   1      19.669  -1.354  11.486  0.00  0.00     0.171 C 
ENDROOT
BRANCH   1   2
ATOM      2  C13 ZIN A   1      18.600  -0.377  11.979  0.00  0.00     0.213 C 
BRANCH   2   3
ATOM      3  O12 ZIN A   1      19.220   0.644  12.803  0.00  0.00    -0.317 OA
BRANCH   3   4
ATOM      4  C10 ZIN A   1      18.573   1.815  12.912  0.00  0.00     0.290 C 
ATOM      5  O11 ZIN A   1      17.634   1.919  13.664  0.00  0.00    -0.263 OA
BRANCH   4   6
ATOM      6  C4  ZIN A   1      19.018   3.001  12.094  0.00  0.00     0.285 C 
BRANCH   6   7
ATOM      7  C2  ZIN A   1      18.150   3.110  10.839  0.00  0.00     0.018 C 
ATOM      8  C1  ZIN A   1      17.691   4.558  10.661  0.00  0.00     0.012 C 
ATOM      9  C3  ZIN A   1      18.965   2.679   9.617  0.00  0.00     0.012 C 
ENDBRANCH   6   7
BRANCH   6  10
ATOM     10  N6  ZIN A   1      20.424   2.826  11.704  0.00  0.00    -0.066 N 
ATOM     11  H7  ZIN A   1      20.477   2.209  10.908  0.00  0.00     0.275 HD
ATOM     12  H8  ZIN A   1      20.820   3.722  11.463  0.00  0.00     0.275 HD
ATOM     13  H9  ZIN A   1      20.939   2.427  12.474  0.00  0.00     0.275 HD
ENDBRANCH   6  10
ENDBRANCH   4   6
ENDBRANCH   3   4
ENDBRANCH   2   3
ENDBRANCH   1   2
BRANCH   1  14
ATOM     14  C16 ZIN A   1      20.750  -0.584  10.723  0.00  0.00     0.198 C 
BRANCH  14  15
ATOM     15  O17 ZIN A   1      21.624   0.056  11.655  0.00  0.00    -0.398 OA
ATOM     16  H42 ZIN A   1      22.540  -0.254  11.611  0.00  0.00     0.209 HD
ENDBRANCH  14  15
ENDBRANCH   1  14
BRANCH   1  17
ATOM     17  O18 ZIN A   1      19.070  -2.319  10.620  0.00  0.00    -0.362 OA
BRANCH  17  18
ATOM     18  C19 ZIN A   1      17.908  -1.843   9.936  0.00  0.00     0.301 C 
BRANCH  18  19
ATOM     19  N20 ZIN A   1      18.253  -1.532   8.547  0.00  0.00    -0.301 N 
ATOM     20  C24 ZIN A   1      18.643  -2.428   7.589  0.00  0.00     0.186 A 
ATOM     21  C23 ZIN A   1      18.862  -1.683   6.425  0.00  0.00     0.173 A 
ATOM     22  N25 ZIN A   1      18.824  -3.754   7.571  0.00  0.00    -0.044 NA
ATOM     23  N22 ZIN A   1      18.608  -0.386   6.725  0.00  0.00    -0.234 NA
ATOM     24  C29 ZIN A   1      19.276  -2.361   5.254  0.00  0.00     0.292 A 
ATOM     25  C21 ZIN A   1      18.250  -0.294   7.972  0.00  0.00     0.214 A 
ATOM     26  N28 ZIN A   1      19.434  -3.702   5.312  0.00  0.00    -0.152 N 
ATOM     27  O30 ZIN A   1      19.478  -1.752   4.219  0.00  0.00    -0.265 OA
ATOM     28  C26 ZIN A   1      19.205  -4.373   6.476  0.00  0.00     0.703 A 
ATOM     29  H48 ZIN A   1      19.716  -4.188   4.521  0.00  0.00     0.187 HD
BRANCH  28  30
ATOM     30  N27 ZIN A   1      19.377  -5.734   6.506  0.00  0.00    -0.233 N 
ATOM     31  H46 ZIN A   1      19.396  -6.239   5.679  0.00  0.00     0.174 HD
ATOM     32  H47 ZIN A   1      19.481  -6.191   7.356  0.00  0.00     0.174 HD
ENDBRANCH  28  30
ENDBRANCH  18  19
ENDBRANCH  17  18
ENDBRANCH   1  17
TORSDOF 12
ENDMDL
MODEL 5
REMARK VINA RESULT:      -6.6      1.297      1.611
REMARK  12 active torsions:
REMARK  status: ('A' for Active; 'I' for Inactive)
REMARK    1  A    between atoms: C2_2  and  C4_4 
REMARK    2  A    between atoms: C4_4  and  N6_5 
REMARK    3  A    between atoms: C4_4  and  C10_9 
REMARK    4  A    between atoms: C10_9  and  O12_11 
REMARK    5  A    between atoms: O12_11  and  C13_12 
REMARK    6  A    between atoms: C13_12  and  C14_13 
REMARK    7  A    between atoms: C14_13  and  C16_14 
REMARK    8  A    between atoms: C14_13  and  O18_16 
REMARK    9  A    between atoms: C16_14  and  O17_15 
REMARK   10  A    between atoms: O18_16  and  C19_17 
REMARK   11  A    between atoms: C19_17  and  N20_18 
REMARK   12  A    between atoms: C26_24  and  N27_25 
ROOT
ATOM      1  C14 ZIN A   1      19.633  -0.449  13.122  0.00  0.00     0.171 C 
ENDROOT
BRANCH   1   2
ATOM      2  C13 ZIN A   1      18.643   0.679  13.418  0.00  0.00     0.213 C 
BRANCH   2   3
ATOM      3  O12 ZIN A   1      19.366   1.926  13.586  0.00  0.00    -0.317 OA
BRANCH   3   4
ATOM      4  C10 ZIN A   1      18.741   3.049  13.197  0.00  0.00     0.290 C 
ATOM      5  O11 ZIN A   1      17.837   3.498  13.859  0.00  0.00    -0.263 OA
BRANCH   4   6
ATOM      6  C4  ZIN A   1      19.169   3.749  11.932  0.00  0.00     0.285 C 
BRANCH   6   7
ATOM      7  C2  ZIN A   1      18.220   3.373  10.793  0.00  0.00     0.018 C 
ATOM      8  C1  ZIN A   1      17.645   4.645  10.167  0.00  0.00     0.012 C 
ATOM      9  C3  ZIN A   1      18.988   2.582   9.731  0.00  0.00     0.012 C 
ENDBRANCH   6   7
BRANCH   6  10
ATOM     10  N6  ZIN A   1      20.538   3.340  11.586  0.00  0.00    -0.066 N 
ATOM     11  H7  ZIN A   1      20.518   2.778  10.748  0.00  0.00     0.275 HD
ATOM     12  H8  ZIN A   1      21.104   4.160  11.428  0.00  0.00     0.275 HD
ATOM     13  H9  ZIN A   1      20.929   2.802  12.343  0.00  0.00     0.275 HD
ENDBRANCH   6  10
ENDBRANCH   4   6
ENDBRANCH   3   4
ENDBRANCH   2   3
ENDBRANCH   1   2
BRANCH   1  14
ATOM     14  C16 ZIN A   1      20.395  -0.133  11.833  0.00  0.00     0.198 C 
BRANCH  14  15
ATOM     15  O17 ZIN A   1      21.596   0.574  12.152  0.00  0.00    -0.398 OA
ATOM     16  H42 ZIN A   1      21.532   1.117  12.949  0.00  0.00     0.209 HD
ENDBRANCH  14  15
ENDBRANCH   1  14
BRANCH   1  17
ATOM     17  O18 ZIN A   1      18.922  -1.679  12.966  0.00  0.00    -0.362 OA
BRANCH  17  18
ATOM     18  C19 ZIN A   1      17.705  -1.556  12.228  0.00  0.00     0.301 C 
BRANCH  18  19
ATOM     19  N20 ZIN A   1      17.646  -2.606  11.208  0.00  0.00    -0.301 N 
ATOM     20  C24 ZIN A   1      17.900  -2.452   9.872  0.00  0.00     0.186 A 
ATOM     21  C23 ZIN A   1      17.725  -3.715   9.295  0.00  0.00     0.173 A 
ATOM     22  N25 ZIN A   1      18.260  -1.416   9.104  0.00  0.00    -0.044 NA
ATOM     23  N22 ZIN A   1      17.368  -4.565  10.288  0.00  0.00    -0.234 NA
ATOM     24  C29 ZIN A   1      17.929  -3.858   7.902  0.00  0.00     0.292 A 
ATOM     25  C21 ZIN A   1      17.321  -3.915  11.414  0.00  0.00     0.214 A 
ATOM     26  N28 ZIN A   1      18.294  -2.767   7.193  0.00  0.00    -0.152 N 
ATOM     27  O30 ZIN A   1      17.788  -4.939   7.358  0.00  0.00    -0.265 OA
ATOM     28  C26 ZIN A   1      18.450  -1.563   7.812  0.00  0.00     0.703 A 
ATOM     29  H48 ZIN A   1      18.443  -2.842   6.237  0.00  0.00     0.187 HD
BRANCH  28  30
ATOM     30  N27 ZIN A   1      18.818  -0.472   7.065  0.00  0.00    -0.233 N 
ATOM     31  H46 ZIN A   1      19.555  -0.538   6.440  0.00  0.00     0.174 HD
ATOM     32  H47 ZIN A   1      18.338   0.367   7.164  0.00  0.00     0.174 HD
ENDBRANCH  28  30
ENDBRANCH  18  19
ENDBRANCH  17  18
ENDBRANCH   1  17
TORSDOF 12
ENDMDL
MODEL 6
REMARK VINA RESULT:      -6.5      2.072      4.277
REMARK  12 active torsions:
REMARK  status: ('A' for Active; 'I' for Inactive)
REMARK    1  A    between atoms: C2_2  and  C4_4 
REMARK    2  A    between atoms: C4_4  and  N6_5 
REMARK    3  A    between atoms: C4_4  and  C10_9 
REMARK    4  A    between atoms: C10_9  and  O12_11 
REMARK    5  A    between atoms: O12_11  and  C13_12 
REMARK    6  A    between atoms: C13_12  and  C14_13 
REMARK    7  A    between atoms: C14_13  and  C16_14 
REMARK    8  A    between atoms: C14_13  and  O18_16 
REMARK    9  A    between atoms: C16_14  and  O17_15 
REMARK   10  A    between atoms: O18_16  and  C19_17 
REMARK   11  A    between atoms: C19_17  and  N20_18 
REMARK   12  A    between atoms: C26_24  and  N27_25 
ROOT
ATOM      1  C14 ZIN A   1      19.233   0.895  11.631  0.00  0.00     0.171 C 
ENDROOT
BRANCH   1   2
ATOM      2  C13 ZIN A   1      18.421   0.684  12.910  0.00  0.00     0.213 C 
BRANCH   2   3
ATOM      3  O12 ZIN A   1      17.990  -0.701  12.987  0.00  0.00    -0.317 OA
BRANCH   3   4
ATOM      4  C10 ZIN A   1      18.945  -1.641  12.909  0.00  0.00     0.290 C 
ATOM      5  O11 ZIN A   1      19.601  -1.919  13.884  0.00  0.00    -0.263 OA
BRANCH   4   6
ATOM      6  C4  ZIN A   1      19.199  -2.349  11.603  0.00  0.00     0.285 C 
BRANCH   6   7
ATOM      7  C2  ZIN A   1      18.723  -3.799  11.707  0.00  0.00     0.018 C 
ATOM      8  C1  ZIN A   1      17.267  -3.893  11.244  0.00  0.00     0.012 C 
ATOM      9  C3  ZIN A   1      19.599  -4.688  10.821  0.00  0.00     0.012 C 
ENDBRANCH   6   7
BRANCH   6  10
ATOM     10  N6  ZIN A   1      20.638  -2.326  11.305  0.00  0.00    -0.066 N 
ATOM     11  H7  ZIN A   1      21.041  -3.224  11.526  0.00  0.00     0.275 HD
ATOM     12  H8  ZIN A   1      20.775  -2.128  10.325  0.00  0.00     0.275 HD
ATOM     13  H9  ZIN A   1      21.084  -1.611  11.859  0.00  0.00     0.275 HD
ENDBRANCH   6  10
ENDBRANCH   4   6
ENDBRANCH   3   4
ENDBRANCH   2   3
ENDBRANCH   1   2
BRANCH   1  14
ATOM     14  C16 ZIN A   1      20.549   1.597  11.973  0.00  0.00     0.198 C 
BRANCH  14  15
ATOM     15  O17 ZIN A   1      21.591   0.625  12.085  0.00  0.00    -0.398 OA
ATOM     16  H42 ZIN A   1      21.550  -0.073  11.417  0.00  0.00     0.209 HD
ENDBRANCH  14  15
ENDBRANCH   1  14
BRANCH   1  17
ATOM     17  O18 ZIN A   1      18.484   1.701  10.719  0.00  0.00    -0.362 OA
BRANCH  17  18
ATOM     18  C19 ZIN A   1      17.615   0.956   9.864  0.00  0.00     0.301 C 
BRANCH  18  19
ATOM     19  N20 ZIN A   1      18.254   0.770   8.560  0.00  0.00    -0.301 N 
ATOM     20  C24 ZIN A   1      18.389  -0.413   7.885  0.00  0.00     0.186 A 
ATOM     21  C23 ZIN A   1      19.055  -0.108   6.694  0.00  0.00     0.173 A 
ATOM     22  N25 ZIN A   1      18.023  -1.677   8.136  0.00  0.00    -0.044 NA
ATOM     23  N22 ZIN A   1      19.301   1.225   6.700  0.00  0.00    -0.234 NA
ATOM     24  C29 ZIN A   1      19.330  -1.156   5.783  0.00  0.00     0.292 A 
ATOM     25  C21 ZIN A   1      18.831   1.743   7.797  0.00  0.00     0.214 A 
ATOM     26  N28 ZIN A   1      18.928  -2.406   6.104  0.00  0.00    -0.152 N 
ATOM     27  O30 ZIN A   1      19.909  -0.936   4.734  0.00  0.00    -0.265 OA
ATOM     28  C26 ZIN A   1      18.281  -2.640   7.280  0.00  0.00     0.703 A 
ATOM     29  H48 ZIN A   1      19.103  -3.140   5.494  0.00  0.00     0.187 HD
BRANCH  28  30
ATOM     30  N27 ZIN A   1      17.888  -3.920   7.581  0.00  0.00    -0.233 N 
ATOM     31  H46 ZIN A   1      17.086  -4.071   8.104  0.00  0.00     0.174 HD
ATOM     32  H47 ZIN A   1      18.413  -4.675   7.269  0.00  0.00     0.174 HD
ENDBRANCH  28  30
ENDBRANCH  18  19
ENDBRANCH  17  18
ENDBRANCH   1  17
TORSDOF 12
ENDMDL
MODEL 7
REMARK VINA RESULT:      -6.4      3.347      7.931
REMARK  12 active torsions:
REMARK  status: ('A' for Active; 'I' for Inactive)
REMARK    1  A    between atoms: C2_2  and  C4_4 
REMARK    2  A    between atoms: C4_4  and  N6_5 
REMARK    3  A    between atoms: C4_4  and  C10_9 
REMARK    4  A    between atoms: C10_9  and  O12_11 
REMARK    5  A    between atoms: O12_11  and  C13_12 
REMARK    6  A    between atoms: C13_12  and  C14_13 
REMARK    7  A    between atoms: C14_13  and  C16_14 
REMARK    8  A    between atoms: C14_13  and  O18_16 
REMARK    9  A    between atoms: C16_14  and  O17_15 
REMARK   10  A    between atoms: O18_16  and  C19_17 
REMARK   11  A    between atoms: C19_17  and  N20_18 
REMARK   12  A    between atoms: C26_24  and  N27_25 
ROOT
ATOM      1  C14 ZIN A   1      19.581   1.117  11.553  0.00  0.00     0.171 C 
ENDROOT
BRANCH   1   2
ATOM      2  C13 ZIN A   1      18.418   0.123  11.587  0.00  0.00     0.213 C 
BRANCH   2   3
ATOM      3  O12 ZIN A   1      18.799  -1.041  12.366  0.00  0.00    -0.317 OA
BRANCH   3   4
ATOM      4  C10 ZIN A   1      18.629  -2.242  11.790  0.00  0.00     0.290 C 
ATOM      5  O11 ZIN A   1      17.708  -2.947  12.125  0.00  0.00    -0.263 OA
BRANCH   4   6
ATOM      6  C4  ZIN A   1      19.589  -2.709  10.726  0.00  0.00     0.285 C 
BRANCH   6   7
ATOM      7  C2  ZIN A   1      18.935  -3.818   9.900  0.00  0.00     0.018 C 
ATOM      8  C1  ZIN A   1      18.811  -3.364   8.444  0.00  0.00     0.012 C 
ATOM      9  C3  ZIN A   1      19.797  -5.081   9.969  0.00  0.00     0.012 C 
ENDBRANCH   6   7
BRANCH   6  10
ATOM     10  N6  ZIN A   1      20.810  -3.227  11.361  0.00  0.00    -0.066 N 
ATOM     11  H7  ZIN A   1      21.599  -2.669  11.074  0.00  0.00     0.275 HD
ATOM     12  H8  ZIN A   1      20.712  -3.181  12.364  0.00  0.00     0.275 HD
ATOM     13  H9  ZIN A   1      20.954  -4.184  11.081  0.00  0.00     0.275 HD
ENDBRANCH   6  10
ENDBRANCH   4   6
ENDBRANCH   3   4
ENDBRANCH   2   3
ENDBRANCH   1   2
BRANCH   1  14
ATOM     14  C16 ZIN A   1      20.758   0.552  12.351  0.00  0.00     0.198 C 
BRANCH  14  15
ATOM     15  O17 ZIN A   1      21.614  -0.187  11.475  0.00  0.00    -0.398 OA
ATOM     16  H42 ZIN A   1      22.511   0.168  11.412  0.00  0.00     0.209 HD
ENDBRANCH  14  15
ENDBRANCH   1  14
BRANCH   1  17
ATOM     17  O18 ZIN A   1      19.164   2.356  12.131  0.00  0.00    -0.362 OA
BRANCH  17  18
ATOM     18  C19 ZIN A   1      18.048   2.238  13.016  0.00  0.00     0.301 C 
BRANCH  18  19
ATOM     19  N20 ZIN A   1      18.482   2.511  14.388  0.00  0.00    -0.301 N 
ATOM     20  C24 ZIN A   1      18.644   1.588  15.385  0.00  0.00     0.186 A 
ATOM     21  C23 ZIN A   1      19.070   2.301  16.510  0.00  0.00     0.173 A 
ATOM     22  N25 ZIN A   1      18.491   0.260  15.460  0.00  0.00    -0.044 NA
ATOM     23  N22 ZIN A   1      19.139   3.608  16.156  0.00  0.00    -0.234 NA
ATOM     24  C29 ZIN A   1      19.324   1.591  17.707  0.00  0.00     0.292 A 
ATOM     25  C21 ZIN A   1      18.793   3.734  14.908  0.00  0.00     0.214 A 
ATOM     26  N28 ZIN A   1      19.151   0.251  17.706  0.00  0.00    -0.152 N 
ATOM     27  O30 ZIN A   1      19.697   2.172  18.711  0.00  0.00    -0.265 OA
ATOM     28  C26 ZIN A   1      18.734  -0.389  16.577  0.00  0.00     0.703 A 
ATOM     29  H48 ZIN A   1      19.322  -0.258  18.515  0.00  0.00     0.187 HD
BRANCH  28  30
ATOM     30  N27 ZIN A   1      18.563  -1.750  16.607  0.00  0.00    -0.233 N 
ATOM     31  H46 ZIN A   1      17.889  -2.142  17.182  0.00  0.00     0.174 HD
ATOM     32  H47 ZIN A   1      19.118  -2.321  16.050  0.00  0.00     0.174 HD
ENDBRANCH  28  30
ENDBRANCH  18  19
ENDBRANCH  17  18
ENDBRANCH   1  17
TORSDOF 12
ENDMDL
MODEL 8
REMARK VINA RESULT:      -6.4      2.600      4.116
REMARK  12 active torsions:
REMARK  status: ('A' for Active; 'I' for Inactive)
REMARK    1  A    between atoms: C2_2  and  C4_4 
REMARK    2  A    between atoms: C4_4  and  N6_5 
REMARK    3  A    between atoms: C4_4  and  C10_9 
REMARK    4  A    between atoms: C10_9  and  O12_11 
REMARK    5  A    between atoms: O12_11  and  C13_12 
REMARK    6  A    between atoms: C13_12  and  C14_13 
REMARK    7  A    between atoms: C14_13  and  C16_14 
REMARK    8  A    between atoms: C14_13  and  O18_16 
REMARK    9  A    between atoms: C16_14  and  O17_15 
REMARK   10  A    between atoms: O18_16  and  C19_17 
REMARK   11  A    between atoms: C19_17  and  N20_18 
REMARK   12  A    between atoms: C26_24  and  N27_25 
ROOT
ATOM      1  C14 ZIN A   1      20.021  -1.115  11.526  0.00  0.00     0.171 C 
ENDROOT
BRANCH   1   2
ATOM      2  C13 ZIN A   1      18.805  -1.159  12.454  0.00  0.00     0.213 C 
BRANCH   2   3
ATOM      3  O12 ZIN A   1      18.914  -0.103  13.444  0.00  0.00    -0.317 OA
BRANCH   3   4
ATOM      4  C10 ZIN A   1      19.183  -0.476  14.705  0.00  0.00     0.290 C 
ATOM      5  O11 ZIN A   1      19.672  -1.559  14.923  0.00  0.00    -0.263 OA
BRANCH   4   6
ATOM      6  C4  ZIN A   1      18.875   0.456  15.849  0.00  0.00     0.285 C 
BRANCH   6   7
ATOM      7  C2  ZIN A   1      18.438  -0.358  17.068  0.00  0.00     0.018 C 
ATOM      8  C1  ZIN A   1      18.796   0.404  18.345  0.00  0.00     0.012 C 
ATOM      9  C3  ZIN A   1      16.925  -0.583  17.015  0.00  0.00     0.012 C 
ENDBRANCH   6   7
BRANCH   6  10
ATOM     10  N6  ZIN A   1      17.793   1.370  15.457  0.00  0.00    -0.066 N 
ATOM     11  H7  ZIN A   1      17.819   2.192  16.042  0.00  0.00     0.275 HD
ATOM     12  H8  ZIN A   1      17.914   1.640  14.492  0.00  0.00     0.275 HD
ATOM     13  H9  ZIN A   1      16.905   0.907  15.567  0.00  0.00     0.275 HD
ENDBRANCH   6  10
ENDBRANCH   4   6
ENDBRANCH   3   4
ENDBRANCH   2   3
ENDBRANCH   1   2
BRANCH   1  14
ATOM     14  C16 ZIN A   1      20.490   0.333  11.368  0.00  0.00     0.198 C 
BRANCH  14  15
ATOM     15  O17 ZIN A   1      21.654   0.546  12.171  0.00  0.00    -0.398 OA
ATOM     16  H42 ZIN A   1      21.873  -0.198  12.748  0.00  0.00     0.209 HD
ENDBRANCH  14  15
ENDBRANCH   1  14
BRANCH   1  17
ATOM     17  O18 ZIN A   1      19.664  -1.644  10.248  0.00  0.00    -0.362 OA
BRANCH  17  18
ATOM     18  C19 ZIN A   1      18.406  -1.176   9.757  0.00  0.00     0.301 C 
BRANCH  18  19
ATOM     19  N20 ZIN A   1      18.589  -0.586   8.430  0.00  0.00    -0.301 N 
ATOM     20  C24 ZIN A   1      18.766  -1.269   7.257  0.00  0.00     0.186 A 
ATOM     21  C23 ZIN A   1      18.894  -0.299   6.257  0.00  0.00     0.173 A 
ATOM     22  N25 ZIN A   1      18.823  -2.567   6.933  0.00  0.00    -0.044 NA
ATOM     23  N22 ZIN A   1      18.799   0.912   6.858  0.00  0.00    -0.234 NA
ATOM     24  C29 ZIN A   1      19.087  -0.724   4.921  0.00  0.00     0.292 A 
ATOM     25  C21 ZIN A   1      18.620   0.746   8.135  0.00  0.00     0.214 A 
ATOM     26  N28 ZIN A   1      19.130  -2.051   4.670  0.00  0.00    -0.152 N 
ATOM     27  O30 ZIN A   1      19.203   0.087   4.019  0.00  0.00    -0.265 OA
ATOM     28  C26 ZIN A   1      18.998  -2.948   5.688  0.00  0.00     0.703 A 
ATOM     29  H48 ZIN A   1      19.258  -2.366   3.762  0.00  0.00     0.187 HD
BRANCH  28  30
ATOM     30  N27 ZIN A   1      19.050  -4.290   5.404  0.00  0.00    -0.233 N 
ATOM     31  H46 ZIN A   1      18.267  -4.744   5.060  0.00  0.00     0.174 HD
ATOM     32  H47 ZIN A   1      19.874  -4.784   5.548  0.00  0.00     0.174 HD
ENDBRANCH  28  30
ENDBRANCH  18  19
ENDBRANCH  17  18
ENDBRANCH   1  17
TORSDOF 12
ENDMDL
MODEL 9
REMARK VINA RESULT:      -6.3      3.851      7.065
REMARK  12 active torsions:
REMARK  status: ('A' for Active; 'I' for Inactive)
REMARK    1  A    between atoms: C2_2  and  C4_4 
REMARK    2  A    between atoms: C4_4  and  N6_5 
REMARK    3  A    between atoms: C4_4  and  C10_9 
REMARK    4  A    between atoms: C10_9  and  O12_11 
REMARK    5  A    between atoms: O12_11  and  C13_12 
REMARK    6  A    between atoms: C13_12  and  C14_13 
REMARK    7  A    between atoms: C14_13  and  C16_14 
REMARK    8  A    between atoms: C14_13  and  O18_16 
REMARK    9  A    between atoms: C16_14  and  O17_15 
REMARK   10  A    between atoms: O18_16  and  C19_17 
REMARK   11  A    between atoms: C19_17  and  N20_18 
REMARK   12  A    between atoms: C26_24  and  N27_25 
ROOT
ATOM      1  C14 ZIN A   1      19.398  -0.091  11.176  0.00  0.00     0.171 C 
ENDROOT
BRANCH   1   2
ATOM      2  C13 ZIN A   1      18.501  -0.401  12.376  0.00  0.00     0.213 C 
BRANCH   2   3
ATOM      3  O12 ZIN A   1      19.158   0.034  13.596  0.00  0.00    -0.317 OA
BRANCH   3   4
ATOM      4  C10 ZIN A   1      18.423   0.751  14.460  0.00  0.00     0.290 C 
ATOM      5  O11 ZIN A   1      17.392   1.265  14.096  0.00  0.00    -0.263 OA
BRANCH   4   6
ATOM      6  C4  ZIN A   1      18.885   0.916  15.886  0.00  0.00     0.285 C 
BRANCH   6   7
ATOM      7  C2  ZIN A   1      18.683  -0.398  16.643  0.00  0.00     0.018 C 
ATOM      8  C1  ZIN A   1      19.263  -0.270  18.052  0.00  0.00     0.012 C 
ATOM      9  C3  ZIN A   1      17.187  -0.710  16.733  0.00  0.00     0.012 C 
ENDBRANCH   6   7
BRANCH   6  10
ATOM     10  N6  ZIN A   1      18.105   1.979  16.534  0.00  0.00    -0.066 N 
ATOM     11  H7  ZIN A   1      17.750   2.611  15.832  0.00  0.00     0.275 HD
ATOM     12  H8  ZIN A   1      17.333   1.570  17.039  0.00  0.00     0.275 HD
ATOM     13  H9  ZIN A   1      18.695   2.486  17.175  0.00  0.00     0.275 HD
ENDBRANCH   6  10
ENDBRANCH   4   6
ENDBRANCH   3   4
ENDBRANCH   2   3
ENDBRANCH   1   2
BRANCH   1  14
ATOM     14  C16 ZIN A   1      20.812   0.230  11.665  0.00  0.00     0.198 C 
BRANCH  14  15
ATOM     15  O17 ZIN A   1      21.753  -0.591  10.971  0.00  0.00    -0.398 OA
ATOM     16  H42 ZIN A   1      22.655  -0.529  11.312  0.00  0.00     0.209 HD
ENDBRANCH  14  15
ENDBRANCH   1  14
BRANCH   1  17
ATOM     17  O18 ZIN A   1      18.871   1.032  10.467  0.00  0.00    -0.362 OA
BRANCH  17  18
ATOM     18  C19 ZIN A   1      19.510   2.271  10.784  0.00  0.00     0.301 C 
BRANCH  18  19
ATOM     19  N20 ZIN A   1      18.509   3.226  11.264  0.00  0.00    -0.301 N 
ATOM     20  C24 ZIN A   1      18.561   3.934  12.434  0.00  0.00     0.186 A 
ATOM     21  C23 ZIN A   1      17.401   4.716  12.467  0.00  0.00     0.173 A 
ATOM     22  N25 ZIN A   1      19.441   4.009  13.440  0.00  0.00    -0.044 NA
ATOM     23  N22 ZIN A   1      16.702   4.446  11.339  0.00  0.00    -0.234 NA
ATOM     24  C29 ZIN A   1      17.189   5.566  13.579  0.00  0.00     0.292 A 
ATOM     25  C21 ZIN A   1      17.351   3.571  10.629  0.00  0.00     0.214 A 
ATOM     26  N28 ZIN A   1      18.123   5.590  14.555  0.00  0.00    -0.152 N 
ATOM     27  O30 ZIN A   1      16.192   6.264  13.650  0.00  0.00    -0.265 OA
ATOM     28  C26 ZIN A   1      19.233   4.805  14.465  0.00  0.00     0.703 A 
ATOM     29  H48 ZIN A   1      18.000   6.167  15.326  0.00  0.00     0.187 HD
BRANCH  28  30
ATOM     30  N27 ZIN A   1      20.163   4.848  15.474  0.00  0.00    -0.233 N 
ATOM     31  H46 ZIN A   1      20.048   4.297  16.263  0.00  0.00     0.174 HD
ATOM     32  H47 ZIN A   1      20.937   5.429  15.396  0.00  0.00     0.174 HD
ENDBRANCH  28  30
ENDBRANCH  18  19
ENDBRANCH  17  18
ENDBRANCH   1  17
TORSDOF 12
ENDMDL
