MODEL 1
REMARK VINA RESULT:      -8.2      0.000      0.000
REMARK  10 active torsions:
REMARK  status: ('A' for Active; 'I' for Inactive)
REMARK    1  A    between atoms: C2_2  and  C3_3 
REMARK    2  A    between atoms: C3_3  and  C4_4 
REMARK    3  A    between atoms: C4_4  and  C5_5 
REMARK       I    between atoms: C5_5  and  N7_7 
REMARK    4  A    between atoms: N7_7  and  C8_8 
REMARK    5  A    between atoms: N7_7  and  C26_26 
REMARK    6  A    between atoms: C8_8  and  C9_9 
REMARK    7  A    between atoms: C12_12  and  C13_13 
REMARK    8  A    between atoms: C18_18  and  C19_19 
REMARK    9  A    between atoms: C26_26  and  C28_27 
REMARK   10  A    between atoms: C26_26  and  C31_30 
ROOT
ATOM      1  C9  ZIN A   1      18.950  -2.147  11.061  0.00  0.00    -0.040 A 
ATOM      2  C10 ZIN A   1      18.994  -2.177   9.679  0.00  0.00     0.010 A 
ATOM      3  C11 ZIN A   1      18.350  -3.183   8.987  0.00  0.00     0.013 A 
ATOM      4  C12 ZIN A   1      17.657  -4.171   9.685  0.00  0.00    -0.025 A 
ATOM      5  C24 ZIN A   1      17.612  -4.133  11.077  0.00  0.00     0.013 A 
ATOM      6  C25 ZIN A   1      18.264  -3.124  11.758  0.00  0.00     0.010 A 
ENDROOT
BRANCH   1   7
ATOM      7  C8  ZIN A   1      19.656  -1.046  11.810  0.00  0.00     0.165 C 
BRANCH   7   8
ATOM      8  N7  ZIN A   1      18.665  -0.191  12.467  0.00  0.00    -0.333 N 
ATOM      9  C5  ZIN A   1      18.364  -0.383  13.767  0.00  0.00     0.220 C 
ATOM     10  O6  ZIN A   1      17.480   0.265  14.288  0.00  0.00    -0.273 OA
BRANCH   9  11
ATOM     11  C4  ZIN A   1      19.125  -1.404  14.573  0.00  0.00     0.103 C 
BRANCH  11  12
ATOM     12  C3  ZIN A   1      18.407  -1.641  15.903  0.00  0.00     0.009 C 
BRANCH  12  13
ATOM     13  C2  ZIN A   1      19.353  -1.307  17.059  0.00  0.00    -0.004 C 
ATOM     14  C1  ZIN A   1      19.041   0.097  17.583  0.00  0.00     0.005 C 
ENDBRANCH  12  13
ENDBRANCH  11  12
ENDBRANCH   9  11
BRANCH   8  15
ATOM     15  C26 ZIN A   1      18.000   0.875  11.712  0.00  0.00     0.191 C 
BRANCH  15  16
ATOM     16  C28 ZIN A   1      16.878   0.288  10.896  0.00  0.00     0.197 C 
ATOM     17  O29 ZIN A   1      15.829  -0.022  11.435  0.00  0.00    -0.646 OA
ATOM     18  O30 ZIN A   1      17.019   0.121   9.697  0.00  0.00    -0.646 OA
ENDBRANCH  15  16
BRANCH  15  19
ATOM     19  C31 ZIN A   1      19.011   1.546  10.780  0.00  0.00     0.011 C 
ATOM     20  C32 ZIN A   1      18.300   2.602   9.931  0.00  0.00     0.012 C 
ATOM     21  C33 ZIN A   1      20.107   2.213  11.612  0.00  0.00     0.012 C 
ENDBRANCH  15  19
ENDBRANCH   8  15
ENDBRANCH   7   8
ENDBRANCH   1   7
BRANCH   4  22
ATOM     22  C13 ZIN A   1      16.962  -5.253   8.948  0.00  0.00    -0.012 A 
ATOM     23  C18 ZIN A   1      17.698  -6.167   8.178  0.00  0.00     0.026 A 
ATOM     24  C17 ZIN A   1      17.034  -7.176   7.486  0.00  0.00     0.016 A 
ATOM     25  C16 ZIN A   1      15.658  -7.273   7.559  0.00  0.00     0.001 A 
ATOM     26  C15 ZIN A   1      14.932  -6.371   8.318  0.00  0.00     0.001 A 
ATOM     27  C14 ZIN A   1      15.575  -5.365   9.010  0.00  0.00     0.013 A 
BRANCH  23  28
ATOM     28  C19 ZIN A   1      19.175  -6.060   8.102  0.00  0.00     0.207 A 
ATOM     29  N23 ZIN A   1      19.886  -5.592   7.081  0.00  0.00    -0.106 NA
ATOM     30  N22 ZIN A   1      21.131  -5.666   7.408  0.00  0.00    -0.021 NA
ATOM     31  N21 ZIN A   1      21.227  -6.160   8.593  0.00  0.00    -0.021 NA
ATOM     32  N20 ZIN A   1      20.045  -6.405   9.046  0.00  0.00    -0.106 NA
ENDBRANCH  23  28
ENDBRANCH   4  22
TORSDOF 10
ENDMDL
MODEL 2
REMARK VINA RESULT:      -8.1      3.145      8.219
REMARK  10 active torsions:
REMARK  status: ('A' for Active; 'I' for Inactive)
REMARK    1  A    between atoms: C2_2  and  C3_3 
REMARK    2  A    between atoms: C3_3  and  C4_4 
REMARK    3  A    between atoms: C4_4  and  C5_5 
REMARK       I    between atoms: C5_5  and  N7_7 
REMARK    4  A    between atoms: N7_7  and  C8_8 
REMARK    5  A    between atoms: N7_7  and  C26_26 
REMARK    6  A    between atoms: C8_8  and  C9_9 
REMARK    7  A    between atoms: C12_12  and  C13_13 
REMARK    8  A    between atoms: C18_18  and  C19_19 
REMARK    9  A    between atoms: C26_26  and  C28_27 
REMARK   10  A    between atoms: C26_26  and  C31_30 
ROOT
ATOM      1  C9  ZIN A   1      17.705  -0.800  11.377  0.00  0.00    -0.040 A 
ATOM      2  C10 ZIN A   1      16.721   0.021  11.896  0.00  0.00     0.010 A 
ATOM      3  C11 ZIN A   1      17.041   0.975  12.841  0.00  0.00     0.013 A 
ATOM      4  C12 ZIN A   1      18.359   1.108  13.273  0.00  0.00    -0.025 A 
ATOM      5  C24 ZIN A   1      19.348   0.281  12.744  0.00  0.00     0.013 A 
ATOM      6  C25 ZIN A   1      19.014  -0.672  11.802  0.00  0.00     0.010 A 
ENDROOT
BRANCH   1   7
ATOM      7  C8  ZIN A   1      17.349  -1.839  10.345  0.00  0.00     0.165 C 
BRANCH   7   8
ATOM      8  N7  ZIN A   1      18.445  -1.966   9.382  0.00  0.00    -0.333 N 
ATOM      9  C5  ZIN A   1      18.683  -0.979   8.497  0.00  0.00     0.220 C 
ATOM     10  O6  ZIN A   1      19.531  -1.121   7.641  0.00  0.00    -0.273 OA
BRANCH   9  11
ATOM     11  C4  ZIN A   1      17.892   0.303   8.568  0.00  0.00     0.103 C 
BRANCH  11  12
ATOM     12  C3  ZIN A   1      18.806   1.484   8.239  0.00  0.00     0.009 C 
BRANCH  12  13
ATOM     13  C2  ZIN A   1      19.260   2.155   9.537  0.00  0.00    -0.004 C 
ATOM     14  C1  ZIN A   1      18.150   3.074  10.051  0.00  0.00     0.005 C 
ENDBRANCH  12  13
ENDBRANCH  11  12
ENDBRANCH   9  11
BRANCH   8  15
ATOM     15  C26 ZIN A   1      19.285  -3.167   9.382  0.00  0.00     0.191 C 
BRANCH  15  16
ATOM     16  C28 ZIN A   1      18.979  -3.994   8.160  0.00  0.00     0.197 C 
ATOM     17  O29 ZIN A   1      19.883  -4.535   7.547  0.00  0.00    -0.646 OA
ATOM     18  O30 ZIN A   1      17.826  -4.121   7.783  0.00  0.00    -0.646 OA
ENDBRANCH  15  16
BRANCH  15  19
ATOM     19  C31 ZIN A   1      18.998  -3.991  10.639  0.00  0.00     0.011 C 
ATOM     20  C32 ZIN A   1      18.558  -5.400  10.237  0.00  0.00     0.012 C 
ATOM     21  C33 ZIN A   1      20.265  -4.076  11.492  0.00  0.00     0.012 C 
ENDBRANCH  15  19
ENDBRANCH   8  15
ENDBRANCH   7   8
ENDBRANCH   1   7
BRANCH   4  22
ATOM     22  C13 ZIN A   1      18.711   2.131  14.287  0.00  0.00    -0.012 A 
ATOM     23  C18 ZIN A   1      18.712   1.800  15.651  0.00  0.00     0.026 A 
ATOM     24  C17 ZIN A   1      19.039   2.770  16.594  0.00  0.00     0.016 A 
ATOM     25  C16 ZIN A   1      19.355   4.051  16.186  0.00  0.00     0.001 A 
ATOM     26  C15 ZIN A   1      19.353   4.377  14.841  0.00  0.00     0.001 A 
ATOM     27  C14 ZIN A   1      19.033   3.426  13.893  0.00  0.00     0.013 A 
BRANCH  23  28
ATOM     28  C19 ZIN A   1      18.371   0.423  16.086  0.00  0.00     0.207 A 
ATOM     29  N23 ZIN A   1      17.174  -0.017  16.459  0.00  0.00    -0.106 NA
ATOM     30  N22 ZIN A   1      17.295  -1.265  16.760  0.00  0.00    -0.021 NA
ATOM     31  N21 ZIN A   1      18.520  -1.623  16.588  0.00  0.00    -0.021 NA
ATOM     32  N20 ZIN A   1      19.201  -0.611  16.170  0.00  0.00    -0.106 NA
ENDBRANCH  23  28
ENDBRANCH   4  22
TORSDOF 10
ENDMDL
MODEL 3
REMARK VINA RESULT:      -8.0      2.706      8.107
REMARK  10 active torsions:
REMARK  status: ('A' for Active; 'I' for Inactive)
REMARK    1  A    between atoms: C2_2  and  C3_3 
REMARK    2  A    between atoms: C3_3  and  C4_4 
REMARK    3  A    between atoms: C4_4  and  C5_5 
REMARK       I    between atoms: C5_5  and  N7_7 
REMARK    4  A    between atoms: N7_7  and  C8_8 
REMARK    5  A    between atoms: N7_7  and  C26_26 
REMARK    6  A    between atoms: C8_8  and  C9_9 
REMARK    7  A    between atoms: C12_12  and  C13_13 
REMARK    8  A    between atoms: C18_18  and  C19_19 
REMARK    9  A    between atoms: C26_26  and  C28_27 
REMARK   10  A    between atoms: C26_26  and  C31_30 
ROOT
ATOM      1  C9  ZIN A   1      19.009  -1.726  10.753  0.00  0.00    -0.040 A 
ATOM      2  C10 ZIN A   1      17.675  -1.395  10.906  0.00  0.00     0.010 A 
ATOM      3  C11 ZIN A   1      17.311  -0.091  11.171  0.00  0.00     0.013 A 
ATOM      4  C12 ZIN A   1      18.291   0.893  11.286  0.00  0.00    -0.025 A 
ATOM      5  C24 ZIN A   1      19.634   0.555  11.126  0.00  0.00     0.013 A 
ATOM      6  C25 ZIN A   1      19.986  -0.754  10.866  0.00  0.00     0.010 A 
ENDROOT
BRANCH   1   7
ATOM      7  C8  ZIN A   1      19.400  -3.153  10.465  0.00  0.00     0.165 C 
BRANCH   7   8
ATOM      8  N7  ZIN A   1      18.556  -3.683   9.391  0.00  0.00    -0.333 N 
ATOM      9  C5  ZIN A   1      18.553  -3.090   8.182  0.00  0.00     0.220 C 
ATOM     10  O6  ZIN A   1      17.788  -3.472   7.320  0.00  0.00    -0.273 OA
BRANCH   9  11
ATOM     11  C4  ZIN A   1      19.497  -1.951   7.898  0.00  0.00     0.103 C 
BRANCH  11  12
ATOM     12  C3  ZIN A   1      18.875  -1.019   6.857  0.00  0.00     0.009 C 
BRANCH  12  13
ATOM     13  C2  ZIN A   1      18.169   0.139   7.565  0.00  0.00    -0.004 C 
ATOM     14  C1  ZIN A   1      19.086   1.364   7.578  0.00  0.00     0.005 C 
ENDBRANCH  12  13
ENDBRANCH  11  12
ENDBRANCH   9  11
BRANCH   8  15
ATOM     15  C26 ZIN A   1      17.715  -4.858   9.633  0.00  0.00     0.191 C 
BRANCH  15  16
ATOM     16  C28 ZIN A   1      17.283  -4.879  11.077  0.00  0.00     0.197 C 
ATOM     17  O29 ZIN A   1      18.004  -5.378  11.923  0.00  0.00    -0.646 OA
ATOM     18  O30 ZIN A   1      16.210  -4.397  11.398  0.00  0.00    -0.646 OA
ENDBRANCH  15  16
BRANCH  15  19
ATOM     19  C31 ZIN A   1      18.511  -6.127   9.322  0.00  0.00     0.011 C 
ATOM     20  C32 ZIN A   1      17.871  -6.853   8.137  0.00  0.00     0.012 C 
ATOM     21  C33 ZIN A   1      19.952  -5.753   8.973  0.00  0.00     0.012 C 
ENDBRANCH  15  19
ENDBRANCH   8  15
ENDBRANCH   7   8
ENDBRANCH   1   7
BRANCH   4  22
ATOM     22  C13 ZIN A   1      17.907   2.297  11.569  0.00  0.00    -0.012 A 
ATOM     23  C18 ZIN A   1      17.836   2.756  12.894  0.00  0.00     0.026 A 
ATOM     24  C17 ZIN A   1      17.470   4.074  13.147  0.00  0.00     0.016 A 
ATOM     25  C16 ZIN A   1      17.175   4.922  12.098  0.00  0.00     0.001 A 
ATOM     26  C15 ZIN A   1      17.244   4.470  10.792  0.00  0.00     0.001 A 
ATOM     27  C14 ZIN A   1      17.607   3.166  10.523  0.00  0.00     0.013 A 
BRANCH  23  28
ATOM     28  C19 ZIN A   1      18.154   1.841  14.017  0.00  0.00     0.207 A 
ATOM     29  N23 ZIN A   1      17.317   0.999  14.616  0.00  0.00    -0.106 NA
ATOM     30  N22 ZIN A   1      17.976   0.387  15.540  0.00  0.00    -0.021 NA
ATOM     31  N21 ZIN A   1      19.191   0.811  15.543  0.00  0.00    -0.021 NA
ATOM     32  N20 ZIN A   1      19.331   1.699  14.617  0.00  0.00    -0.106 NA
ENDBRANCH  23  28
ENDBRANCH   4  22
TORSDOF 10
ENDMDL
MODEL 4
REMARK VINA RESULT:      -8.0      4.548      6.782
REMARK  10 active torsions:
REMARK  status: ('A' for Active; 'I' for Inactive)
REMARK    1  A    between atoms: C2_2  and  C3_3 
REMARK    2  A    between atoms: C3_3  and  C4_4 
REMARK    3  A    between atoms: C4_4  and  C5_5 
REMARK       I    between atoms: C5_5  and  N7_7 
REMARK    4  A    between atoms: N7_7  and  C8_8 
REMARK    5  A    between atoms: N7_7  and  C26_26 
REMARK    6  A    between atoms: C8_8  and  C9_9 
REMARK    7  A    between atoms: C12_12  and  C13_13 
REMARK    8  A    between atoms: C18_18  and  C19_19 
REMARK    9  A    between atoms: C26_26  and  C28_27 
REMARK   10  A    between atoms: C26_26  and  C31_30 
ROOT
ATOM      1  C9  ZIN A   1      19.493   4.104  12.186  0.00  0.00    -0.040 A 
ATOM      2  C10 ZIN A   1      20.293   3.014  11.895  0.00  0.00     0.010 A 
ATOM      3  C11 ZIN A   1      19.976   2.185  10.838  0.00  0.00     0.013 A 
ATOM      4  C12 ZIN A   1      18.848   2.449  10.063  0.00  0.00    -0.025 A 
ATOM      5  C24 ZIN A   1      18.049   3.552  10.357  0.00  0.00     0.013 A 
ATOM      6  C25 ZIN A   1      18.373   4.370  11.421  0.00  0.00     0.010 A 
ENDROOT
BRANCH   1   7
ATOM      7  C8  ZIN A   1      19.843   5.005  13.342  0.00  0.00     0.165 C 
BRANCH   7   8
ATOM      8  N7  ZIN A   1      18.671   5.168  14.205  0.00  0.00    -0.333 N 
ATOM      9  C5  ZIN A   1      18.324   4.190  15.063  0.00  0.00     0.220 C 
ATOM     10  O6  ZIN A   1      17.303   4.286  15.713  0.00  0.00    -0.273 OA
BRANCH   9  11
ATOM     11  C4  ZIN A   1      19.201   2.974  15.215  0.00  0.00     0.103 C 
BRANCH  11  12
ATOM     12  C3  ZIN A   1      18.396   1.718  14.875  0.00  0.00     0.009 C 
BRANCH  12  13
ATOM     13  C2  ZIN A   1      18.791   0.587  15.825  0.00  0.00    -0.004 C 
ATOM     14  C1  ZIN A   1      17.583  -0.322  16.066  0.00  0.00     0.005 C 
ENDBRANCH  12  13
ENDBRANCH  11  12
ENDBRANCH   9  11
BRANCH   8  15
ATOM     15  C26 ZIN A   1      17.877   6.398  14.136  0.00  0.00     0.191 C 
BRANCH  15  16
ATOM     16  C28 ZIN A   1      18.432   7.410  15.105  0.00  0.00     0.197 C 
ATOM     17  O29 ZIN A   1      18.484   8.588  14.793  0.00  0.00    -0.646 OA
ATOM     18  O30 ZIN A   1      18.831   7.051  16.199  0.00  0.00    -0.646 OA
ENDBRANCH  15  16
BRANCH  15  19
ATOM     19  C31 ZIN A   1      16.424   6.088  14.502  0.00  0.00     0.011 C 
ATOM     20  C32 ZIN A   1      15.778   7.327  15.124  0.00  0.00     0.012 C 
ATOM     21  C33 ZIN A   1      15.655   5.691  13.240  0.00  0.00     0.012 C 
ENDBRANCH  15  19
ENDBRANCH   8  15
ENDBRANCH   7   8
ENDBRANCH   1   7
BRANCH   4  22
ATOM     22  C13 ZIN A   1      18.503   1.564   8.924  0.00  0.00    -0.012 A 
ATOM     23  C18 ZIN A   1      17.780   0.381   9.144  0.00  0.00     0.026 A 
ATOM     24  C17 ZIN A   1      17.467  -0.444   8.068  0.00  0.00     0.016 A 
ATOM     25  C16 ZIN A   1      17.870  -0.099   6.793  0.00  0.00     0.001 A 
ATOM     26  C15 ZIN A   1      18.584   1.067   6.577  0.00  0.00     0.001 A 
ATOM     27  C14 ZIN A   1      18.902   1.897   7.633  0.00  0.00     0.013 A 
BRANCH  23  28
ATOM     28  C19 ZIN A   1      17.349   0.014  10.515  0.00  0.00     0.207 A 
ATOM     29  N23 ZIN A   1      16.210   0.357  11.107  0.00  0.00    -0.106 NA
ATOM     30  N22 ZIN A   1      16.216  -0.158  12.290  0.00  0.00    -0.021 NA
ATOM     31  N21 ZIN A   1      17.313  -0.810  12.460  0.00  0.00    -0.021 NA
ATOM     32  N20 ZIN A   1      18.025  -0.726  11.388  0.00  0.00    -0.106 NA
ENDBRANCH  23  28
ENDBRANCH   4  22
TORSDOF 10
ENDMDL
MODEL 5
REMARK VINA RESULT:      -8.0      2.632      5.144
REMARK  10 active torsions:
REMARK  status: ('A' for Active; 'I' for Inactive)
REMARK    1  A    between atoms: C2_2  and  C3_3 
REMARK    2  A    between atoms: C3_3  and  C4_4 
REMARK    3  A    between atoms: C4_4  and  C5_5 
REMARK       I    between atoms: C5_5  and  N7_7 
REMARK    4  A    between atoms: N7_7  and  C8_8 
REMARK    5  A    between atoms: N7_7  and  C26_26 
REMARK    6  A    between atoms: C8_8  and  C9_9 
REMARK    7  A    between atoms: C12_12  and  C13_13 
REMARK    8  A    between atoms: C18_18  and  C19_19 
REMARK    9  A    between atoms: C26_26  and  C28_27 
REMARK   10  A    between atoms: C26_26  and  C31_30 
ROOT
ATOM      1  C9  ZIN A   1      19.236  -0.257  13.411  0.00  0.00    -0.040 A 
ATOM      2  C10 ZIN A   1      17.943  -0.135  12.934  0.00  0.00     0.010 A 
ATOM      3  C11 ZIN A   1      17.399  -1.130  12.147  0.00  0.00     0.013 A 
ATOM      4  C12 ZIN A   1      18.155  -2.258  11.833  0.00  0.00    -0.025 A 
ATOM      5  C24 ZIN A   1      19.456  -2.378  12.320  0.00  0.00     0.013 A 
ATOM      6  C25 ZIN A   1      19.990  -1.373  13.102  0.00  0.00     0.010 A 
ENDROOT
BRANCH   1   7
ATOM      7  C8  ZIN A   1      19.824   0.833  14.269  0.00  0.00     0.165 C 
BRANCH   7   8
ATOM      8  N7  ZIN A   1      18.744   1.639  14.843  0.00  0.00    -0.333 N 
ATOM      9  C5  ZIN A   1      18.271   2.708  14.173  0.00  0.00     0.220 C 
ATOM     10  O6  ZIN A   1      17.440   3.428  14.686  0.00  0.00    -0.273 OA
BRANCH   9  11
ATOM     11  C4  ZIN A   1      18.775   3.011  12.785  0.00  0.00     0.103 C 
BRANCH  11  12
ATOM     12  C3  ZIN A   1      17.644   3.614  11.952  0.00  0.00     0.009 C 
BRANCH  12  13
ATOM     13  C2  ZIN A   1      17.761   3.129  10.506  0.00  0.00    -0.004 C 
ATOM     14  C1  ZIN A   1      19.157   2.545  10.275  0.00  0.00     0.005 C 
ENDBRANCH  12  13
ENDBRANCH  11  12
ENDBRANCH   9  11
BRANCH   8  15
ATOM     15  C26 ZIN A   1      18.177   1.283  16.146  0.00  0.00     0.191 C 
BRANCH  15  16
ATOM     16  C28 ZIN A   1      18.649   2.266  17.186  0.00  0.00     0.197 C 
ATOM     17  O29 ZIN A   1      19.780   2.719  17.130  0.00  0.00    -0.646 OA
ATOM     18  O30 ZIN A   1      17.900   2.608  18.085  0.00  0.00    -0.646 OA
ENDBRANCH  15  16
BRANCH  15  19
ATOM     19  C31 ZIN A   1      18.634  -0.125  16.533  0.00  0.00     0.011 C 
ATOM     20  C32 ZIN A   1      19.279  -0.090  17.920  0.00  0.00     0.012 C 
ATOM     21  C33 ZIN A   1      17.426  -1.064  16.557  0.00  0.00     0.012 C 
ENDBRANCH  15  19
ENDBRANCH   8  15
ENDBRANCH   7   8
ENDBRANCH   1   7
BRANCH   4  22
ATOM     22  C13 ZIN A   1      17.577  -3.331  10.990  0.00  0.00    -0.012 A 
ATOM     23  C18 ZIN A   1      17.569  -3.203   9.592  0.00  0.00     0.026 A 
ATOM     24  C17 ZIN A   1      17.018  -4.215   8.811  0.00  0.00     0.016 A 
ATOM     25  C16 ZIN A   1      16.480  -5.336   9.412  0.00  0.00     0.001 A 
ATOM     26  C15 ZIN A   1      16.488  -5.462  10.790  0.00  0.00     0.001 A 
ATOM     27  C14 ZIN A   1      17.031  -4.468  11.579  0.00  0.00     0.013 A 
BRANCH  23  28
ATOM     28  C19 ZIN A   1      18.147  -1.997   8.950  0.00  0.00     0.207 A 
ATOM     29  N23 ZIN A   1      19.428  -1.785   8.668  0.00  0.00    -0.106 NA
ATOM     30  N22 ZIN A   1      19.518  -0.623   8.117  0.00  0.00    -0.021 NA
ATOM     31  N21 ZIN A   1      18.344  -0.100   8.042  0.00  0.00    -0.021 NA
ATOM     32  N20 ZIN A   1      17.483  -0.922   8.540  0.00  0.00    -0.106 NA
ENDBRANCH  23  28
ENDBRANCH   4  22
TORSDOF 10
ENDMDL
MODEL 6
REMARK VINA RESULT:      -8.0      3.343      7.644
REMARK  10 active torsions:
REMARK  status: ('A' for Active; 'I' for Inactive)
REMARK    1  A    between atoms: C2_2  and  C3_3 
REMARK    2  A    between atoms: C3_3  and  C4_4 
REMARK    3  A    between atoms: C4_4  and  C5_5 
REMARK       I    between atoms: C5_5  and  N7_7 
REMARK    4  A    between atoms: N7_7  and  C8_8 
REMARK    5  A    between atoms: N7_7  and  C26_26 
REMARK    6  A    between atoms: C8_8  and  C9_9 
REMARK    7  A    between atoms: C12_12  and  C13_13 
REMARK    8  A    between atoms: C18_18  and  C19_19 
REMARK    9  A    between atoms: C26_26  and  C28_27 
REMARK   10  A    between atoms: C26_26  and  C31_30 
ROOT
ATOM      1  C9  ZIN A   1      19.235  -0.415   9.207  0.00  0.00    -0.040 A 
ATOM      2  C10 ZIN A   1      17.927  -0.385   9.654  0.00  0.00     0.010 A 
ATOM      3  C11 ZIN A   1      17.434   0.741  10.282  0.00  0.00     0.013 A 
ATOM      4  C12 ZIN A   1      18.258   1.850  10.465  0.00  0.00    -0.025 A 
ATOM      5  C24 ZIN A   1      19.575   1.817  10.008  0.00  0.00     0.013 A 
ATOM      6  C25 ZIN A   1      20.057   0.682   9.386  0.00  0.00     0.010 A 
ENDROOT
BRANCH   1   7
ATOM      7  C8  ZIN A   1      19.767  -1.647   8.523  0.00  0.00     0.165 C 
BRANCH   7   8
ATOM      8  N7  ZIN A   1      18.648  -2.446   8.017  0.00  0.00    -0.333 N 
ATOM      9  C5  ZIN A   1      18.151  -3.455   8.758  0.00  0.00     0.220 C 
ATOM     10  O6  ZIN A   1      17.285  -4.173   8.302  0.00  0.00    -0.273 OA
BRANCH   9  11
ATOM     11  C4  ZIN A   1      18.671  -3.693  10.152  0.00  0.00     0.103 C 
BRANCH  11  12
ATOM     12  C3  ZIN A   1      17.520  -3.575  11.153  0.00  0.00     0.009 C 
BRANCH  12  13
ATOM     13  C2  ZIN A   1      17.963  -2.717  12.339  0.00  0.00    -0.004 C 
ATOM     14  C1  ZIN A   1      19.478  -2.509  12.281  0.00  0.00     0.005 C 
ENDBRANCH  12  13
ENDBRANCH  11  12
ENDBRANCH   9  11
BRANCH   8  15
ATOM     15  C26 ZIN A   1      18.069  -2.147   6.704  0.00  0.00     0.191 C 
BRANCH  15  16
ATOM     16  C28 ZIN A   1      18.631  -3.097   5.678  0.00  0.00     0.197 C 
ATOM     17  O29 ZIN A   1      17.907  -3.557   4.812  0.00  0.00    -0.646 OA
ATOM     18  O30 ZIN A   1      19.809  -3.408   5.716  0.00  0.00    -0.646 OA
ENDBRANCH  15  16
BRANCH  15  19
ATOM     19  C31 ZIN A   1      18.415  -0.710   6.309  0.00  0.00     0.011 C 
ATOM     20  C32 ZIN A   1      19.181  -0.714   4.985  0.00  0.00     0.012 C 
ATOM     21  C33 ZIN A   1      17.126   0.099   6.150  0.00  0.00     0.012 C 
ENDBRANCH  15  19
ENDBRANCH   8  15
ENDBRANCH   7   8
ENDBRANCH   1   7
BRANCH   4  22
ATOM     22  C13 ZIN A   1      17.735   3.063  11.136  0.00  0.00    -0.012 A 
ATOM     23  C18 ZIN A   1      17.692   3.130  12.538  0.00  0.00     0.026 A 
ATOM     24  C17 ZIN A   1      17.194   4.273  13.157  0.00  0.00     0.016 A 
ATOM     25  C16 ZIN A   1      16.743   5.331  12.393  0.00  0.00     0.001 A 
ATOM     26  C15 ZIN A   1      16.786   5.265  11.012  0.00  0.00     0.001 A 
ATOM     27  C14 ZIN A   1      17.277   4.140  10.382  0.00  0.00     0.013 A 
BRANCH  23  28
ATOM     28  C19 ZIN A   1      18.177   1.991  13.355  0.00  0.00     0.207 A 
ATOM     29  N23 ZIN A   1      17.439   1.012  13.869  0.00  0.00    -0.106 NA
ATOM     30  N22 ZIN A   1      18.232   0.222  14.509  0.00  0.00    -0.021 NA
ATOM     31  N21 ZIN A   1      19.436   0.667  14.415  0.00  0.00    -0.021 NA
ATOM     32  N20 ZIN A   1      19.434   1.747  13.708  0.00  0.00    -0.106 NA
ENDBRANCH  23  28
ENDBRANCH   4  22
TORSDOF 10
ENDMDL
MODEL 7
REMARK VINA RESULT:      -7.9      2.803      7.483
REMARK  10 active torsions:
REMARK  status: ('A' for Active; 'I' for Inactive)
REMARK    1  A    between atoms: C2_2  and  C3_3 
REMARK    2  A    between atoms: C3_3  and  C4_4 
REMARK    3  A    between atoms: C4_4  and  C5_5 
REMARK       I    between atoms: C5_5  and  N7_7 
REMARK    4  A    between atoms: N7_7  and  C8_8 
REMARK    5  A    between atoms: N7_7  and  C26_26 
REMARK    6  A    between atoms: C8_8  and  C9_9 
REMARK    7  A    between atoms: C12_12  and  C13_13 
REMARK    8  A    between atoms: C18_18  and  C19_19 
REMARK    9  A    between atoms: C26_26  and  C28_27 
REMARK   10  A    between atoms: C26_26  and  C31_30 
ROOT
ATOM      1  C9  ZIN A   1      17.360  -1.120  10.724  0.00  0.00    -0.040 A 
ATOM      2  C10 ZIN A   1      16.734  -0.076  11.381  0.00  0.00     0.010 A 
ATOM      3  C11 ZIN A   1      17.044   0.200  12.697  0.00  0.00     0.013 A 
ATOM      4  C12 ZIN A   1      17.990  -0.577  13.364  0.00  0.00    -0.025 A 
ATOM      5  C24 ZIN A   1      18.622  -1.624  12.696  0.00  0.00     0.013 A 
ATOM      6  C25 ZIN A   1      18.299  -1.894  11.381  0.00  0.00     0.010 A 
ENDROOT
BRANCH   1   7
ATOM      7  C8  ZIN A   1      17.015  -1.417   9.288  0.00  0.00     0.165 C 
BRANCH   7   8
ATOM      8  N7  ZIN A   1      18.243  -1.700   8.540  0.00  0.00    -0.333 N 
ATOM      9  C5  ZIN A   1      18.617  -2.975   8.317  0.00  0.00     0.220 C 
ATOM     10  O6  ZIN A   1      19.679  -3.211   7.778  0.00  0.00    -0.273 OA
BRANCH   9  11
ATOM     11  C4  ZIN A   1      17.719  -4.109   8.740  0.00  0.00     0.103 C 
BRANCH  11  12
ATOM     12  C3  ZIN A   1      18.449  -4.986   9.759  0.00  0.00     0.009 C 
BRANCH  12  13
ATOM     13  C2  ZIN A   1      17.429  -5.813  10.542  0.00  0.00    -0.004 C 
ATOM     14  C1  ZIN A   1      17.512  -5.452  12.028  0.00  0.00     0.005 C 
ENDBRANCH  12  13
ENDBRANCH  11  12
ENDBRANCH   9  11
BRANCH   8  15
ATOM     15  C26 ZIN A   1      19.064  -0.597   8.035  0.00  0.00     0.191 C 
BRANCH  15  16
ATOM     16  C28 ZIN A   1      19.787   0.060   9.183  0.00  0.00     0.197 C 
ATOM     17  O29 ZIN A   1      19.420   1.148   9.592  0.00  0.00    -0.646 OA
ATOM     18  O30 ZIN A   1      20.739  -0.497   9.701  0.00  0.00    -0.646 OA
ENDBRANCH  15  16
BRANCH  15  19
ATOM     19  C31 ZIN A   1      18.167   0.431   7.343  0.00  0.00     0.011 C 
ATOM     20  C32 ZIN A   1      19.036   1.488   6.658  0.00  0.00     0.012 C 
ATOM     21  C33 ZIN A   1      17.299  -0.271   6.297  0.00  0.00     0.012 C 
ENDBRANCH  15  19
ENDBRANCH   8  15
ENDBRANCH   7   8
ENDBRANCH   1   7
BRANCH   4  22
ATOM     22  C13 ZIN A   1      18.330  -0.285  14.778  0.00  0.00    -0.012 A 
ATOM     23  C18 ZIN A   1      18.717   1.010  15.157  0.00  0.00     0.026 A 
ATOM     24  C17 ZIN A   1      19.038   1.271  16.486  0.00  0.00     0.016 A 
ATOM     25  C16 ZIN A   1      18.980   0.257  17.422  0.00  0.00     0.001 A 
ATOM     26  C15 ZIN A   1      18.599  -1.020  17.048  0.00  0.00     0.001 A 
ATOM     27  C14 ZIN A   1      18.276  -1.295  15.734  0.00  0.00     0.013 A 
BRANCH  23  28
ATOM     28  C19 ZIN A   1      18.779   2.096  14.148  0.00  0.00     0.207 A 
ATOM     29  N23 ZIN A   1      18.022   3.187  14.109  0.00  0.00    -0.106 NA
ATOM     30  N22 ZIN A   1      18.386   3.877  13.082  0.00  0.00    -0.021 NA
ATOM     31  N21 ZIN A   1      19.341   3.260  12.478  0.00  0.00    -0.021 NA
ATOM     32  N20 ZIN A   1      19.607   2.169  13.112  0.00  0.00    -0.106 NA
ENDBRANCH  23  28
ENDBRANCH   4  22
TORSDOF 10
ENDMDL
MODEL 8
REMARK VINA RESULT:      -7.7      2.884      7.846
REMARK  10 active torsions:
REMARK  status: ('A' for Active; 'I' for Inactive)
REMARK    1  A    between atoms: C2_2  and  C3_3 
REMARK    2  A    between atoms: C3_3  and  C4_4 
REMARK    3  A    between atoms: C4_4  and  C5_5 
REMARK       I    between atoms: C5_5  and  N7_7 
REMARK    4  A    between atoms: N7_7  and  C8_8 
REMARK    5  A    between atoms: N7_7  and  C26_26 
REMARK    6  A    between atoms: C8_8  and  C9_9 
REMARK    7  A    between atoms: C12_12  and  C13_13 
REMARK    8  A    between atoms: C18_18  and  C19_19 
REMARK    9  A    between atoms: C26_26  and  C28_27 
REMARK   10  A    between atoms: C26_26  and  C31_30 
ROOT
ATOM      1  C9  ZIN A   1      19.737  -0.881  11.907  0.00  0.00    -0.040 A 
ATOM      2  C10 ZIN A   1      18.676  -1.465  12.576  0.00  0.00     0.010 A 
ATOM      3  C11 ZIN A   1      18.395  -1.103  13.877  0.00  0.00     0.013 A 
ATOM      4  C12 ZIN A   1      19.181  -0.147  14.517  0.00  0.00    -0.025 A 
ATOM      5  C24 ZIN A   1      20.245   0.442  13.837  0.00  0.00     0.013 A 
ATOM      6  C25 ZIN A   1      20.521   0.067  12.537  0.00  0.00     0.010 A 
ENDROOT
BRANCH   1   7
ATOM      7  C8  ZIN A   1      20.040  -1.282  10.486  0.00  0.00     0.165 C 
BRANCH   7   8
ATOM      8  N7  ZIN A   1      18.786  -1.532   9.772  0.00  0.00    -0.333 N 
ATOM      9  C5  ZIN A   1      18.305  -2.786   9.672  0.00  0.00     0.220 C 
ATOM     10  O6  ZIN A   1      17.316  -3.007   9.005  0.00  0.00    -0.273 OA
BRANCH   9  11
ATOM     11  C4  ZIN A   1      18.998  -3.918  10.388  0.00  0.00     0.103 C 
BRANCH  11  12
ATOM     12  C3  ZIN A   1      18.544  -5.252   9.793  0.00  0.00     0.009 C 
BRANCH  12  13
ATOM     13  C2  ZIN A   1      17.430  -5.843  10.659  0.00  0.00    -0.004 C 
ATOM     14  C1  ZIN A   1      17.539  -5.286  12.081  0.00  0.00     0.005 C 
ENDBRANCH  12  13
ENDBRANCH  11  12
ENDBRANCH   9  11
BRANCH   8  15
ATOM     15  C26 ZIN A   1      18.054  -0.417   9.165  0.00  0.00     0.191 C 
BRANCH  15  16
ATOM     16  C28 ZIN A   1      18.170  -0.495   7.665  0.00  0.00     0.197 C 
ATOM     17  O29 ZIN A   1      17.211  -0.223   6.963  0.00  0.00    -0.646 OA
ATOM     18  O30 ZIN A   1      19.224  -0.833   7.153  0.00  0.00    -0.646 OA
ENDBRANCH  15  16
BRANCH  15  19
ATOM     19  C31 ZIN A   1      18.644   0.907   9.653  0.00  0.00     0.011 C 
ATOM     20  C32 ZIN A   1      19.058   1.756   8.450  0.00  0.00     0.012 C 
ATOM     21  C33 ZIN A   1      17.595   1.662  10.473  0.00  0.00     0.012 C 
ENDBRANCH  15  19
ENDBRANCH   8  15
ENDBRANCH   7   8
ENDBRANCH   1   7
BRANCH   4  22
ATOM     22  C13 ZIN A   1      18.883   0.249  15.915  0.00  0.00    -0.012 A 
ATOM     23  C18 ZIN A   1      18.550   1.579  16.216  0.00  0.00     0.026 A 
ATOM     24  C17 ZIN A   1      18.277   1.939  17.532  0.00  0.00     0.016 A 
ATOM     25  C16 ZIN A   1      18.338   0.991  18.534  0.00  0.00     0.001 A 
ATOM     26  C15 ZIN A   1      18.667  -0.320  18.237  0.00  0.00     0.001 A 
ATOM     27  C14 ZIN A   1      18.940  -0.694  16.937  0.00  0.00     0.013 A 
BRANCH  23  28
ATOM     28  C19 ZIN A   1      18.485   2.594  15.136  0.00  0.00     0.207 A 
ATOM     29  N23 ZIN A   1      17.625   2.622  14.123  0.00  0.00    -0.106 NA
ATOM     30  N22 ZIN A   1      17.900   3.660  13.409  0.00  0.00    -0.021 NA
ATOM     31  N21 ZIN A   1      18.896   4.283  13.935  0.00  0.00    -0.021 NA
ATOM     32  N20 ZIN A   1      19.272   3.656  14.998  0.00  0.00    -0.106 NA
ENDBRANCH  23  28
ENDBRANCH   4  22
TORSDOF 10
ENDMDL
MODEL 9
REMARK VINA RESULT:      -7.6      3.331      8.227
REMARK  10 active torsions:
REMARK  status: ('A' for Active; 'I' for Inactive)
REMARK    1  A    between atoms: C2_2  and  C3_3 
REMARK    2  A    between atoms: C3_3  and  C4_4 
REMARK    3  A    between atoms: C4_4  and  C5_5 
REMARK       I    between atoms: C5_5  and  N7_7 
REMARK    4  A    between atoms: N7_7  and  C8_8 
REMARK    5  A    between atoms: N7_7  and  C26_26 
REMARK    6  A    between atoms: C8_8  and  C9_9 
REMARK    7  A    between atoms: C12_12  and  C13_13 
REMARK    8  A    between atoms: C18_18  and  C19_19 
REMARK    9  A    between atoms: C26_26  and  C28_27 
REMARK   10  A    between atoms: C26_26  and  C31_30 
ROOT
ATOM      1  C9  ZIN A   1      17.920  -1.339   9.462  0.00  0.00    -0.040 A 
ATOM      2  C10 ZIN A   1      16.998  -0.893  10.392  0.00  0.00     0.010 A 
ATOM      3  C11 ZIN A   1      17.254   0.244  11.131  0.00  0.00     0.013 A 
ATOM      4  C12 ZIN A   1      18.445   0.942  10.940  0.00  0.00    -0.025 A 
ATOM      5  C24 ZIN A   1      19.369   0.491   9.998  0.00  0.00     0.013 A 
ATOM      6  C25 ZIN A   1      19.103  -0.651   9.269  0.00  0.00     0.010 A 
ENDROOT
BRANCH   1   7
ATOM      7  C8  ZIN A   1      17.635  -2.582   8.659  0.00  0.00     0.165 C 
BRANCH   7   8
ATOM      8  N7  ZIN A   1      18.898  -3.174   8.212  0.00  0.00    -0.333 N 
ATOM      9  C5  ZIN A   1      19.352  -2.933   6.967  0.00  0.00     0.220 C 
ATOM     10  O6  ZIN A   1      20.350  -3.494   6.565  0.00  0.00    -0.273 OA
BRANCH   9  11
ATOM     11  C4  ZIN A   1      18.619  -1.967   6.071  0.00  0.00     0.103 C 
BRANCH  11  12
ATOM     12  C3  ZIN A   1      19.628  -1.199   5.215  0.00  0.00     0.009 C 
BRANCH  12  13
ATOM     13  C2  ZIN A   1      19.051   0.171   4.854  0.00  0.00    -0.004 C 
ATOM     14  C1  ZIN A   1      18.641   0.905   6.132  0.00  0.00     0.005 C 
ENDBRANCH  12  13
ENDBRANCH  11  12
ENDBRANCH   9  11
BRANCH   8  15
ATOM     15  C26 ZIN A   1      19.668  -4.029   9.119  0.00  0.00     0.191 C 
BRANCH  15  16
ATOM     16  C28 ZIN A   1      19.488  -5.472   8.724  0.00  0.00     0.197 C 
ATOM     17  O29 ZIN A   1      18.424  -5.851   8.265  0.00  0.00    -0.646 OA
ATOM     18  O30 ZIN A   1      20.406  -6.261   8.866  0.00  0.00    -0.646 OA
ENDBRANCH  15  16
BRANCH  15  19
ATOM     19  C31 ZIN A   1      19.173  -3.828  10.553  0.00  0.00     0.011 C 
ATOM     20  C32 ZIN A   1      18.360  -5.049  10.988  0.00  0.00     0.012 C 
ATOM     21  C33 ZIN A   1      20.372  -3.654  11.486  0.00  0.00     0.012 C 
ENDBRANCH  15  19
ENDBRANCH   8  15
ENDBRANCH   7   8
ENDBRANCH   1   7
BRANCH   4  22
ATOM     22  C13 ZIN A   1      18.726   2.165  11.729  0.00  0.00    -0.012 A 
ATOM     23  C18 ZIN A   1      18.998   2.071  13.103  0.00  0.00     0.026 A 
ATOM     24  C17 ZIN A   1      19.255   3.227  13.834  0.00  0.00     0.016 A 
ATOM     25  C16 ZIN A   1      19.238   4.458  13.209  0.00  0.00     0.001 A 
ATOM     26  C15 ZIN A   1      18.969   4.551  11.854  0.00  0.00     0.001 A 
ATOM     27  C14 ZIN A   1      18.713   3.414  11.114  0.00  0.00     0.013 A 
BRANCH  23  28
ATOM     28  C19 ZIN A   1      19.015   0.747  13.771  0.00  0.00     0.207 A 
ATOM     29  N23 ZIN A   1      18.048   0.221  14.515  0.00  0.00    -0.106 NA
ATOM     30  N22 ZIN A   1      18.448  -0.939  14.910  0.00  0.00    -0.021 NA
ATOM     31  N21 ZIN A   1      19.627  -1.160  14.442  0.00  0.00    -0.021 NA
ATOM     32  N20 ZIN A   1      19.998  -0.147  13.736  0.00  0.00    -0.106 NA
ENDBRANCH  23  28
ENDBRANCH   4  22
TORSDOF 10
ENDMDL
