MODEL 1
REMARK VINA RESULT:       4.9      0.000      0.000
REMARK  7 active torsions:
REMARK  status: ('A' for Active; 'I' for Inactive)
REMARK    1  A    between atoms: O2_2  and  C3_3 
REMARK    2  A    between atoms: C8_8  and  O9_9 
REMARK    3  A    between atoms: C19_18  and  O20_19 
REMARK    4  A    between atoms: O20_19  and  C21_20 
REMARK    5  A    between atoms: C44_40  and  O45_41 
REMARK    6  A    between atoms: C46_42  and  O47_43 
REMARK    7  A    between atoms: C56_51  and  O58_52 
ROOT
ATOM      1  C3  ZIN A   1      13.914  -8.298   5.412  0.00  0.00     0.101 A 
ATOM      2  C4  ZIN A   1      14.602  -7.203   5.912  0.00  0.00     0.050 A 
ATOM      3  C5  ZIN A   1      15.880  -7.355   6.425  0.00  0.00    -0.011 A 
ATOM      4  C6  ZIN A   1      16.478  -8.596   6.441  0.00  0.00    -0.044 A 
ATOM      5  C7  ZIN A   1      15.791  -9.697   5.935  0.00  0.00     0.047 A 
ATOM      6  C8  ZIN A   1      14.517  -9.554   5.423  0.00  0.00     0.099 A 
ATOM      7  C10 ZIN A   1      17.858  -8.839   6.985  0.00  0.00     0.058 C 
ATOM      8  C11 ZIN A   1      18.558  -7.538   7.366  0.00  0.00     0.120 C 
ATOM      9  N12 ZIN A   1      17.603  -6.589   7.916  0.00  0.00    -0.400 N 
ATOM     10  C13 ZIN A   1      16.598  -6.137   6.961  0.00  0.00     0.151 C 
ATOM     11  C14 ZIN A   1      15.575  -5.240   7.665  0.00  0.00     0.121 C 
ATOM     12  S15 ZIN A   1      16.218  -4.459   9.179  0.00  0.00    -0.154 SA
ATOM     13  C16 ZIN A   1      17.687  -3.638   8.607  0.00  0.00     0.119 C 
ATOM     14  C18 ZIN A   1      19.027  -4.319   8.657  0.00  0.00     0.004 A 
ATOM     15  C19 ZIN A   1      19.381  -5.074   9.763  0.00  0.00     0.096 A 
ATOM     16  C24 ZIN A   1      20.571  -5.794   9.820  0.00  0.00     0.009 A 
ATOM     17  C25 ZIN A   1      20.929  -6.607  11.037  0.00  0.00     0.054 C 
ATOM     18  C26 ZIN A   1      21.416  -5.739   8.723  0.00  0.00     0.114 A 
ATOM     19  O27 ZIN A   1      22.596  -6.355   8.501  0.00  0.00    -0.322 OA
ATOM     20  C28 ZIN A   1      22.841  -6.237   7.085  0.00  0.00     0.352 C 
ATOM     21  O29 ZIN A   1      22.071  -5.093   6.677  0.00  0.00    -0.322 OA
ATOM     22  C30 ZIN A   1      21.089  -4.958   7.602  0.00  0.00     0.114 A 
ATOM     23  C31 ZIN A   1      19.923  -4.232   7.567  0.00  0.00     0.024 A 
ATOM     24  C32 ZIN A   1      19.569  -3.349   6.357  0.00  0.00     0.287 C 
ATOM     25  C34 ZIN A   1      19.229  -4.102   5.108  0.00  0.00     0.220 C 
ATOM     26  O35 ZIN A   1      18.533  -5.307   5.557  0.00  0.00    -0.317 OA
ATOM     27  C36 ZIN A   1      17.250  -5.408   5.820  0.00  0.00     0.292 C 
ATOM     28  O37 ZIN A   1      16.496  -4.852   5.047  0.00  0.00    -0.262 OA
ATOM     29  N38 ZIN A   1      18.931  -2.126   6.940  0.00  0.00     0.139 NA
ATOM     30  C39 ZIN A   1      17.631  -2.488   7.626  0.00  0.00     0.280 C 
ATOM     31  C41 ZIN A   1      17.099  -1.219   8.296  0.00  0.00     0.259 C 
ATOM     32  C43 ZIN A   1      18.105  -0.715   9.298  0.00  0.00     0.017 A 
ATOM     33  C44 ZIN A   1      18.016  -1.117  10.621  0.00  0.00     0.108 A 
ATOM     34  C46 ZIN A   1      18.953  -0.670  11.552  0.00  0.00     0.107 A 
ATOM     35  C49 ZIN A   1      19.965   0.181  11.140  0.00  0.00    -0.025 A 
ATOM     36  C50 ZIN A   1      20.991   0.664  12.134  0.00  0.00     0.051 C 
ATOM     37  C51 ZIN A   1      20.038   0.586   9.826  0.00  0.00     0.017 A 
ATOM     38  C52 ZIN A   1      19.102   0.150   8.897  0.00  0.00    -0.044 A 
ATOM     39  C53 ZIN A   1      19.205   0.638   7.479  0.00  0.00     0.077 C 
ATOM     40  C54 ZIN A   1      18.113   0.109   6.569  0.00  0.00     0.251 C 
ATOM     41  C56 ZIN A   1      18.594  -1.168   5.860  0.00  0.00     0.389 C 
ATOM     42  N59 ZIN A   1      16.868  -0.182   7.280  0.00  0.00    -0.056 N 
ATOM     43  H60 ZIN A   1      16.185  -0.528   6.614  0.00  0.00     0.281 HD
ATOM     44  C61 ZIN A   1      16.335   1.034   7.901  0.00  0.00     0.271 C 
ATOM     45  H72 ZIN A   1      17.364  -6.654   8.859  0.00  0.00     0.154 HD
ENDROOT
BRANCH   1  46
ATOM     46  O2  ZIN A   1      12.659  -8.147   4.915  0.00  0.00    -0.353 OA
ATOM     47  C1  ZIN A   1      12.532  -8.019   3.498  0.00  0.00     0.210 C 
ENDBRANCH   1  46
BRANCH   6  48
ATOM     48  O9  ZIN A   1      13.853 -10.635   4.934  0.00  0.00    -0.358 OA
ATOM     49  H67 ZIN A   1      13.647 -10.576   3.991  0.00  0.00     0.217 HD
ENDBRANCH   6  48
BRANCH  15  50
ATOM     50  O20 ZIN A   1      18.545  -5.110  10.836  0.00  0.00    -0.278 OA
BRANCH  50  51
ATOM     51  C21 ZIN A   1      18.833  -4.293  11.861  0.00  0.00     0.260 C 
ATOM     52  C22 ZIN A   1      20.208  -3.686  11.977  0.00  0.00     0.126 C 
ATOM     53  O23 ZIN A   1      17.989  -4.043  12.688  0.00  0.00    -0.265 OA
ENDBRANCH  50  51
ENDBRANCH  15  50
BRANCH  41  54
ATOM     54  O58 ZIN A   1      17.558  -1.677   5.028  0.00  0.00    -0.366 OA
ATOM     55  H95 ZIN A   1      16.829  -1.058   4.883  0.00  0.00     0.212 HD
ENDBRANCH  41  54
BRANCH  33  56
ATOM     56  O45 ZIN A   1      17.016  -1.948  11.020  0.00  0.00    -0.357 OA
ATOM     57  H85 ZIN A   1      17.184  -2.388  11.865  0.00  0.00     0.217 HD
ENDBRANCH  33  56
BRANCH  34  58
ATOM     58  O47 ZIN A   1      18.870  -1.064  12.851  0.00  0.00    -0.353 OA
ATOM     59  C48 ZIN A   1      17.989  -0.324  13.698  0.00  0.00     0.210 C 
ENDBRANCH  34  58
TORSDOF 7
ENDMDL
