MODEL 1
REMARK VINA RESULT:      -6.3      0.000      0.000
REMARK  3 active torsions:
REMARK  status: ('A' for Active; 'I' for Inactive)
REMARK    1  A    between atoms: N1_1  and  C2_2 
REMARK    2  A    between atoms: C4_4  and  N5_5 
REMARK    3  A    between atoms: C12_12  and  N13_13 
ROOT
ATOM      1  C2  <0> d   1      18.540   1.317  10.510  0.00  0.00     0.152 A 
ATOM      2  C3  <0> d   1      18.157   0.939   9.227  0.00  0.00     0.102 A 
ATOM      3  C4  <0> d   1      18.946   0.020   8.544  0.00  0.00     0.148 A 
ATOM      4  N11 <0> d   1      20.035  -0.465   9.136  0.00  0.00    -0.045 NA
ATOM      5  C12 <0> d   1      20.370  -0.082  10.359  0.00  0.00     0.730 A 
ATOM      6  N14 <0> d   1      19.645   0.795  11.037  0.00  0.00     0.001 N 
ATOM      7  O15 <0> d   1      20.046   1.173  12.341  0.00  0.00    -0.063 OA
ENDROOT
BRANCH   3   8
ATOM      8  N5  <0> d   1      18.603  -0.387   7.262  0.00  0.00    -0.365 N 
ATOM      9  C10 <0> d   1      18.414  -1.812   6.956  0.00  0.00     0.124 C 
ATOM     10  C9  <0> d   1      19.294  -2.186   5.765  0.00  0.00     0.020 C 
ATOM     11  C8  <0> d   1      18.995  -1.245   4.595  0.00  0.00     0.003 C 
ATOM     12  C7  <0> d   1      19.315   0.195   5.002  0.00  0.00     0.020 C 
ATOM     13  C6  <0> d   1      18.429   0.597   6.185  0.00  0.00     0.124 C 
ENDBRANCH   3   8
BRANCH   1  14
ATOM     14  N1  <0> d   1      17.783   2.233  11.230  0.00  0.00    -0.383 N 
ATOM     15  H16 <0> d   1      17.577   3.100  10.846  0.00  0.00     0.157 HD
ATOM     16  H17 <0> d   1      17.457   2.003  12.113  0.00  0.00     0.157 HD
ENDBRANCH   1  14
BRANCH   5  17
ATOM     17  N13 <0> d   1      21.512  -0.609  10.943  0.00  0.00    -0.230 N 
ATOM     18  H29 <0> d   1      21.462  -1.019  11.821  0.00  0.00     0.174 HD
ATOM     19  H30 <0> d   1      22.359  -0.569  10.474  0.00  0.00     0.174 HD
ENDBRANCH   5  17
TORSDOF 3
ENDMDL
MODEL 2
REMARK VINA RESULT:      -6.2      5.040      8.012
REMARK  3 active torsions:
REMARK  status: ('A' for Active; 'I' for Inactive)
REMARK    1  A    between atoms: N1_1  and  C2_2 
REMARK    2  A    between atoms: C4_4  and  N5_5 
REMARK    3  A    between atoms: C12_12  and  N13_13 
ROOT
ATOM      1  C2  <0> d   1      18.774  -1.578  12.774  0.00  0.00     0.152 A 
ATOM      2  C3  <0> d   1      18.362  -1.135  14.027  0.00  0.00     0.102 A 
ATOM      3  C4  <0> d   1      19.039  -0.069  14.609  0.00  0.00     0.148 A 
ATOM      4  N11 <0> d   1      20.052   0.491  13.951  0.00  0.00    -0.045 NA
ATOM      5  C12 <0> d   1      20.418   0.043  12.759  0.00  0.00     0.730 A 
ATOM      6  N14 <0> d   1      19.799  -0.973  12.177  0.00  0.00     0.001 N 
ATOM      7  O15 <0> d   1      20.227  -1.415  10.902  0.00  0.00    -0.063 OA
ENDROOT
BRANCH   3   8
ATOM      8  N5  <0> d   1      18.664   0.406  15.857  0.00  0.00    -0.365 N 
ATOM      9  C10 <0> d   1      18.461   1.845  16.079  0.00  0.00     0.124 C 
ATOM     10  C9  <0> d   1      19.311   2.289  17.268  0.00  0.00     0.020 C 
ATOM     11  C8  <0> d   1      18.988   1.413  18.481  0.00  0.00     0.003 C 
ATOM     12  C7  <0> d   1      19.324  -0.046  18.162  0.00  0.00     0.020 C 
ATOM     13  C6  <0> d   1      18.468  -0.517  16.983  0.00  0.00     0.124 C 
ENDBRANCH   3   8
BRANCH   1  14
ATOM     14  N1  <0> d   1      18.128  -2.640  12.154  0.00  0.00    -0.383 N 
ATOM     15  H16 <0> d   1      17.243  -2.516  11.776  0.00  0.00     0.157 HD
ATOM     16  H17 <0> d   1      18.563  -3.505  12.097  0.00  0.00     0.157 HD
ENDBRANCH   1  14
BRANCH   5  17
ATOM     17  N13 <0> d   1      21.477   0.652  12.104  0.00  0.00    -0.230 N 
ATOM     18  H29 <0> d   1      21.478   1.613  11.972  0.00  0.00     0.174 HD
ATOM     19  H30 <0> d   1      22.218   0.117  11.780  0.00  0.00     0.174 HD
ENDBRANCH   5  17
TORSDOF 3
ENDMDL
MODEL 3
REMARK VINA RESULT:      -6.1      0.702      2.095
REMARK  3 active torsions:
REMARK  status: ('A' for Active; 'I' for Inactive)
REMARK    1  A    between atoms: N1_1  and  C2_2 
REMARK    2  A    between atoms: C4_4  and  N5_5 
REMARK    3  A    between atoms: C12_12  and  N13_13 
ROOT
ATOM      1  C2  <0> d   1      20.339  -0.064  10.397  0.00  0.00     0.152 A 
ATOM      2  C3  <0> d   1      20.032  -0.498   9.112  0.00  0.00     0.102 A 
ATOM      3  C4  <0> d   1      18.904   0.023   8.488  0.00  0.00     0.148 A 
ATOM      4  N11 <0> d   1      18.159   0.916   9.137  0.00  0.00    -0.045 NA
ATOM      5  C12 <0> d   1      18.481   1.306  10.361  0.00  0.00     0.730 A 
ATOM      6  N14 <0> d   1      19.545   0.827  10.987  0.00  0.00     0.001 N 
ATOM      7  O15 <0> d   1      19.847   1.276  12.296  0.00  0.00    -0.063 OA
ENDROOT
BRANCH   3   8
ATOM      8  N5  <0> d   1      18.558  -0.381   7.206  0.00  0.00    -0.365 N 
ATOM      9  C10 <0> d   1      18.361  -1.804   6.899  0.00  0.00     0.124 C 
ATOM     10  C9  <0> d   1      19.239  -2.181   5.707  0.00  0.00     0.020 C 
ATOM     11  C8  <0> d   1      18.942  -1.238   4.538  0.00  0.00     0.003 C 
ATOM     12  C7  <0> d   1      19.270   0.201   4.946  0.00  0.00     0.020 C 
ATOM     13  C6  <0> d   1      18.387   0.605   6.130  0.00  0.00     0.124 C 
ENDBRANCH   3   8
BRANCH   1  14
ATOM     14  N1  <0> d   1      21.456  -0.558  11.060  0.00  0.00    -0.383 N 
ATOM     15  H16 <0> d   1      21.359  -0.970  11.932  0.00  0.00     0.157 HD
ATOM     16  H17 <0> d   1      22.331  -0.493  10.648  0.00  0.00     0.157 HD
ENDBRANCH   1  14
BRANCH   5  17
ATOM     17  N13 <0> d   1      17.682   2.238  11.005  0.00  0.00    -0.230 N 
ATOM     18  H29 <0> d   1      17.776   3.181  10.801  0.00  0.00     0.174 HD
ATOM     19  H30 <0> d   1      17.028   1.946  11.659  0.00  0.00     0.174 HD
ENDBRANCH   5  17
TORSDOF 3
ENDMDL
MODEL 4
REMARK VINA RESULT:      -6.0      4.864      7.984
REMARK  3 active torsions:
REMARK  status: ('A' for Active; 'I' for Inactive)
REMARK    1  A    between atoms: N1_1  and  C2_2 
REMARK    2  A    between atoms: C4_4  and  N5_5 
REMARK    3  A    between atoms: C12_12  and  N13_13 
ROOT
ATOM      1  C2  <0> d   1      20.342   0.102  12.598  0.00  0.00     0.152 A 
ATOM      2  C3  <0> d   1      20.042   0.465  13.907  0.00  0.00     0.102 A 
ATOM      3  C4  <0> d   1      18.861  -0.005  14.472  0.00  0.00     0.148 A 
ATOM      4  N11 <0> d   1      18.062  -0.783  13.746  0.00  0.00    -0.045 NA
ATOM      5  C12 <0> d   1      18.379  -1.110  12.502  0.00  0.00     0.730 A 
ATOM      6  N14 <0> d   1      19.492  -0.676  11.931  0.00  0.00     0.001 N 
ATOM      7  O15 <0> d   1      19.787  -1.053  10.598  0.00  0.00    -0.063 OA
ENDROOT
BRANCH   3   8
ATOM      8  N5  <0> d   1      18.520   0.332  15.774  0.00  0.00    -0.365 N 
ATOM      9  C10 <0> d   1      18.373   1.741  16.167  0.00  0.00     0.124 C 
ATOM     10  C9  <0> d   1      19.254   2.012  17.385  0.00  0.00     0.020 C 
ATOM     11  C8  <0> d   1      18.915   1.010  18.492  0.00  0.00     0.003 C 
ATOM     12  C7  <0> d   1      19.193  -0.411  17.999  0.00  0.00     0.020 C 
ATOM     13  C6  <0> d   1      18.305  -0.710  16.787  0.00  0.00     0.124 C 
ENDBRANCH   3   8
BRANCH   1  14
ATOM     14  N1  <0> d   1      21.510   0.548  11.993  0.00  0.00    -0.383 N 
ATOM     15  H16 <0> d   1      22.206  -0.085  11.757  0.00  0.00     0.157 HD
ATOM     16  H17 <0> d   1      21.627   1.492  11.804  0.00  0.00     0.157 HD
ENDBRANCH   1  14
BRANCH   5  17
ATOM     17  N13 <0> d   1      17.521  -1.923  11.777  0.00  0.00    -0.230 N 
ATOM     18  H29 <0> d   1      17.537  -1.902  10.808  0.00  0.00     0.174 HD
ATOM     19  H30 <0> d   1      16.907  -2.513  12.240  0.00  0.00     0.174 HD
ENDBRANCH   5  17
TORSDOF 3
ENDMDL
MODEL 5
REMARK VINA RESULT:      -5.9      2.696      5.118
REMARK  3 active torsions:
REMARK  status: ('A' for Active; 'I' for Inactive)
REMARK    1  A    between atoms: N1_1  and  C2_2 
REMARK    2  A    between atoms: C4_4  and  N5_5 
REMARK    3  A    between atoms: C12_12  and  N13_13 
ROOT
ATOM      1  C2  <0> d   1      19.250  -0.137   5.885  0.00  0.00     0.152 A 
ATOM      2  C3  <0> d   1      19.095   0.642   7.027  0.00  0.00     0.102 A 
ATOM      3  C4  <0> d   1      19.137   0.015   8.268  0.00  0.00     0.148 A 
ATOM      4  N11 <0> d   1      19.323  -1.302   8.322  0.00  0.00    -0.045 NA
ATOM      5  C12 <0> d   1      19.468  -2.013   7.214  0.00  0.00     0.730 A 
ATOM      6  N14 <0> d   1      19.428  -1.450   6.016  0.00  0.00     0.001 N 
ATOM      7  O15 <0> d   1      19.587  -2.254   4.861  0.00  0.00    -0.063 OA
ENDROOT
BRANCH   3   8
ATOM      8  N5  <0> d   1      18.986   0.752   9.434  0.00  0.00    -0.365 N 
ATOM      9  C10 <0> d   1      18.554   0.101  10.679  0.00  0.00     0.124 C 
ATOM     10  C9  <0> d   1      17.340   0.843  11.234  0.00  0.00     0.020 C 
ATOM     11  C8  <0> d   1      17.677   2.328  11.384  0.00  0.00     0.003 C 
ATOM     12  C7  <0> d   1      18.021   2.917  10.014  0.00  0.00     0.020 C 
ATOM     13  C6  <0> d   1      19.249   2.198   9.448  0.00  0.00     0.124 C 
ENDBRANCH   3   8
BRANCH   1  14
ATOM     14  N1  <0> d   1      19.215   0.446   4.625  0.00  0.00    -0.383 N 
ATOM     15  H16 <0> d   1      19.394  -0.092   3.837  0.00  0.00     0.157 HD
ATOM     16  H17 <0> d   1      19.007   1.388   4.533  0.00  0.00     0.157 HD
ENDBRANCH   1  14
BRANCH   5  17
ATOM     17  N13 <0> d   1      19.661  -3.382   7.310  0.00  0.00    -0.230 N 
ATOM     18  H29 <0> d   1      19.539  -3.945   6.529  0.00  0.00     0.174 HD
ATOM     19  H30 <0> d   1      19.918  -3.777   8.157  0.00  0.00     0.174 HD
ENDBRANCH   5  17
TORSDOF 3
ENDMDL
MODEL 6
REMARK VINA RESULT:      -5.8      4.386      5.746
REMARK  3 active torsions:
REMARK  status: ('A' for Active; 'I' for Inactive)
REMARK    1  A    between atoms: N1_1  and  C2_2 
REMARK    2  A    between atoms: C4_4  and  N5_5 
REMARK    3  A    between atoms: C12_12  and  N13_13 
ROOT
ATOM      1  C2  <0> d   1      17.823   0.566  15.307  0.00  0.00     0.152 A 
ATOM      2  C3  <0> d   1      17.851   1.646  14.430  0.00  0.00     0.102 A 
ATOM      3  C4  <0> d   1      18.637   1.552  13.287  0.00  0.00     0.148 A 
ATOM      4  N11 <0> d   1      19.332   0.438  13.069  0.00  0.00    -0.045 NA
ATOM      5  C12 <0> d   1      19.282  -0.572  13.925  0.00  0.00     0.730 A 
ATOM      6  N14 <0> d   1      18.549  -0.514  15.027  0.00  0.00     0.001 N 
ATOM      7  O15 <0> d   1      18.529  -1.620  15.911  0.00  0.00    -0.063 OA
ENDROOT
BRANCH   3   8
ATOM      8  N5  <0> d   1      18.696   2.605  12.384  0.00  0.00    -0.365 N 
ATOM      9  C10 <0> d   1      18.053   3.890  12.692  0.00  0.00     0.124 C 
ATOM     10  C9  <0> d   1      17.119   4.266  11.544  0.00  0.00     0.020 C 
ATOM     11  C8  <0> d   1      17.899   4.252  10.227  0.00  0.00     0.003 C 
ATOM     12  C7  <0> d   1      18.443   2.844   9.969  0.00  0.00     0.020 C 
ATOM     13  C6  <0> d   1      19.397   2.454  11.102  0.00  0.00     0.124 C 
ENDBRANCH   3   8
BRANCH   1  14
ATOM     14  N1  <0> d   1      17.053   0.616  16.462  0.00  0.00    -0.383 N 
ATOM     15  H16 <0> d   1      16.185   0.183  16.485  0.00  0.00     0.157 HD
ATOM     16  H17 <0> d   1      17.385   1.080  17.245  0.00  0.00     0.157 HD
ENDBRANCH   1  14
BRANCH   5  17
ATOM     17  N13 <0> d   1      20.019  -1.716  13.664  0.00  0.00    -0.230 N 
ATOM     18  H29 <0> d   1      20.832  -1.893  14.164  0.00  0.00     0.174 HD
ATOM     19  H30 <0> d   1      19.723  -2.339  12.984  0.00  0.00     0.174 HD
ENDBRANCH   5  17
TORSDOF 3
ENDMDL
MODEL 7
REMARK VINA RESULT:      -5.8      2.630      5.489
REMARK  3 active torsions:
REMARK  status: ('A' for Active; 'I' for Inactive)
REMARK    1  A    between atoms: N1_1  and  C2_2 
REMARK    2  A    between atoms: C4_4  and  N5_5 
REMARK    3  A    between atoms: C12_12  and  N13_13 
ROOT
ATOM      1  C2  <0> d   1      19.071   0.945   7.765  0.00  0.00     0.152 A 
ATOM      2  C3  <0> d   1      18.885   2.120   8.486  0.00  0.00     0.102 A 
ATOM      3  C4  <0> d   1      19.093   2.095   9.861  0.00  0.00     0.148 A 
ATOM      4  N11 <0> d   1      19.461   0.954  10.439  0.00  0.00    -0.045 NA
ATOM      5  C12 <0> d   1      19.629  -0.147   9.721  0.00  0.00     0.730 A 
ATOM      6  N14 <0> d   1      19.435  -0.161   8.411  0.00  0.00     0.001 N 
ATOM      7  O15 <0> d   1      19.627  -1.363   7.688  0.00  0.00    -0.063 OA
ENDROOT
BRANCH   3   8
ATOM      8  N5  <0> d   1      18.919   3.243  10.621  0.00  0.00    -0.365 N 
ATOM      9  C10 <0> d   1      19.712   3.460  11.839  0.00  0.00     0.124 C 
ATOM     10  C9  <0> d   1      18.765   3.744  13.004  0.00  0.00     0.020 C 
ATOM     11  C8  <0> d   1      17.843   4.910  12.637  0.00  0.00     0.003 C 
ATOM     12  C7  <0> d   1      17.006   4.534  11.412  0.00  0.00     0.020 C 
ATOM     13  C6  <0> d   1      17.936   4.261  10.227  0.00  0.00     0.124 C 
ENDBRANCH   3   8
BRANCH   1  14
ATOM     14  N1  <0> d   1      18.875   0.923   6.390  0.00  0.00    -0.383 N 
ATOM     15  H16 <0> d   1      18.086   0.497   6.020  0.00  0.00     0.157 HD
ATOM     16  H17 <0> d   1      19.523   1.338   5.802  0.00  0.00     0.157 HD
ENDBRANCH   1  14
BRANCH   5  17
ATOM     17  N13 <0> d   1      20.013  -1.317  10.358  0.00  0.00    -0.230 N 
ATOM     18  H29 <0> d   1      19.455  -2.108  10.297  0.00  0.00     0.174 HD
ATOM     19  H30 <0> d   1      20.840  -1.344  10.864  0.00  0.00     0.174 HD
ENDBRANCH   5  17
TORSDOF 3
ENDMDL
MODEL 8
REMARK VINA RESULT:      -5.8      2.261      3.472
REMARK  3 active torsions:
REMARK  status: ('A' for Active; 'I' for Inactive)
REMARK    1  A    between atoms: N1_1  and  C2_2 
REMARK    2  A    between atoms: C4_4  and  N5_5 
REMARK    3  A    between atoms: C12_12  and  N13_13 
ROOT
ATOM      1  C2  <0> d   1      17.971   4.261  10.612  0.00  0.00     0.152 A 
ATOM      2  C3  <0> d   1      18.303   3.316   9.647  0.00  0.00     0.102 A 
ATOM      3  C4  <0> d   1      19.045   2.205  10.034  0.00  0.00     0.148 A 
ATOM      4  N11 <0> d   1      19.411   2.083  11.308  0.00  0.00    -0.045 NA
ATOM      5  C12 <0> d   1      19.078   3.004  12.201  0.00  0.00     0.730 A 
ATOM      6  N14 <0> d   1      18.377   4.076  11.866  0.00  0.00     0.001 N 
ATOM      7  O15 <0> d   1      18.046   5.032  12.858  0.00  0.00    -0.063 OA
ENDROOT
BRANCH   3   8
ATOM      8  N5  <0> d   1      19.400   1.236   9.106  0.00  0.00    -0.365 N 
ATOM      9  C10 <0> d   1      19.233   1.483   7.667  0.00  0.00     0.124 C 
ATOM     10  C9  <0> d   1      18.415   0.346   7.059  0.00  0.00     0.020 C 
ATOM     11  C8  <0> d   1      19.077  -0.993   7.395  0.00  0.00     0.003 C 
ATOM     12  C7  <0> d   1      19.112  -1.179   8.914  0.00  0.00     0.020 C 
ATOM     13  C6  <0> d   1      19.943  -0.057   9.542  0.00  0.00     0.124 C 
ENDBRANCH   3   8
BRANCH   1  14
ATOM     14  N1  <0> d   1      17.232   5.386  10.271  0.00  0.00    -0.383 N 
ATOM     15  H16 <0> d   1      17.124   5.631   9.338  0.00  0.00     0.157 HD
ATOM     16  H17 <0> d   1      16.822   5.925  10.964  0.00  0.00     0.157 HD
ENDBRANCH   1  14
BRANCH   5  17
ATOM     17  N13 <0> d   1      19.477   2.842  13.519  0.00  0.00    -0.230 N 
ATOM     18  H29 <0> d   1      20.400   2.626  13.722  0.00  0.00     0.174 HD
ATOM     19  H30 <0> d   1      18.834   2.947  14.236  0.00  0.00     0.174 HD
ENDBRANCH   5  17
TORSDOF 3
ENDMDL
MODEL 9
REMARK VINA RESULT:      -5.7      2.872      3.723
REMARK  3 active torsions:
REMARK  status: ('A' for Active; 'I' for Inactive)
REMARK    1  A    between atoms: N1_1  and  C2_2 
REMARK    2  A    between atoms: C4_4  and  N5_5 
REMARK    3  A    between atoms: C12_12  and  N13_13 
ROOT
ATOM      1  C2  <0> d   1      18.395   1.375  10.718  0.00  0.00     0.152 A 
ATOM      2  C3  <0> d   1      17.899   0.106  10.434  0.00  0.00     0.102 A 
ATOM      3  C4  <0> d   1      18.684  -0.998  10.748  0.00  0.00     0.148 A 
ATOM      4  N11 <0> d   1      19.878  -0.806  11.305  0.00  0.00    -0.045 NA
ATOM      5  C12 <0> d   1      20.319   0.417  11.561  0.00  0.00     0.730 A 
ATOM      6  N14 <0> d   1      19.600   1.491  11.271  0.00  0.00     0.001 N 
ATOM      7  O15 <0> d   1      20.116   2.776  11.564  0.00  0.00    -0.063 OA
ENDROOT
BRANCH   3   8
ATOM      8  N5  <0> d   1      18.231  -2.283  10.483  0.00  0.00    -0.365 N 
ATOM      9  C10 <0> d   1      17.547  -3.063  11.524  0.00  0.00     0.124 C 
ATOM     10  C9  <0> d   1      18.247  -4.413  11.673  0.00  0.00     0.020 C 
ATOM     11  C8  <0> d   1      18.315  -5.104  10.309  0.00  0.00     0.003 C 
ATOM     12  C7  <0> d   1      19.125  -4.243   9.338  0.00  0.00     0.020 C 
ATOM     13  C6  <0> d   1      18.430  -2.890   9.160  0.00  0.00     0.124 C 
ENDBRANCH   3   8
BRANCH   1  14
ATOM     14  N1  <0> d   1      17.645   2.506  10.422  0.00  0.00    -0.383 N 
ATOM     15  H16 <0> d   1      16.698   2.530  10.632  0.00  0.00     0.157 HD
ATOM     16  H17 <0> d   1      18.069   3.273  10.008  0.00  0.00     0.157 HD
ENDBRANCH   1  14
BRANCH   5  17
ATOM     17  N13 <0> d   1      21.567   0.577  12.142  0.00  0.00    -0.230 N 
ATOM     18  H29 <0> d   1      22.084  -0.202  12.401  0.00  0.00     0.174 HD
ATOM     19  H30 <0> d   1      21.922   1.466  12.290  0.00  0.00     0.174 HD
ENDBRANCH   5  17
TORSDOF 3
ENDMDL
