MODEL 1
REMARK VINA RESULT:      -9.9      0.000      0.000
REMARK  3 active torsions:
REMARK  status: ('A' for Active; 'I' for Inactive)
REMARK    1  A    between atoms: C2_2  and  C4_4 
REMARK    2  A    between atoms: C4_4  and  O5_5 
REMARK    3  A    between atoms: C26_23  and  O28_24 
ROOT
ATOM      1  C4  <0> d   1      19.510   0.131  13.650  0.00  0.00     0.125 C 
ATOM      2  C6  <0> d   1      19.452  -1.368  14.034  0.00  0.00     0.047 C 
ATOM      3  C7  <0> d   1      19.001  -2.131  12.758  0.00  0.00     0.009 C 
ATOM      4  C8  <0> d   1      19.416  -1.183  11.628  0.00  0.00     0.005 C 
ATOM      5  C10 <0> d   1      18.683  -1.365  10.311  0.00  0.00     0.035 C 
ATOM      6  C12 <0> d   1      18.970  -2.756   9.743  0.00  0.00     0.017 C 
ATOM      7  C13 <0> d   1      18.200  -2.950   8.434  0.00  0.00     0.012 C 
ATOM      8  C15 <0> d   1      18.584  -4.288   7.800  0.00  0.00     0.015 C 
ATOM      9  C16 <0> d   1      18.570  -1.814   7.498  0.00  0.00    -0.057 A 
ATOM     10  C17 <0> d   1      18.977  -2.101   6.269  0.00  0.00     0.059 A 
ATOM     11  C18 <0> d   1      19.364  -1.029   5.339  0.00  0.00     0.172 A 
ATOM     12  O19 <0> d   1      19.699  -1.286   4.198  0.00  0.00    -0.289 OA
ATOM     13  C20 <0> d   1      19.336   0.363   5.821  0.00  0.00     0.052 A 
ATOM     14  C21 <0> d   1      18.920   0.626   7.050  0.00  0.00    -0.006 A 
ATOM     15  C22 <0> d   1      18.455  -0.410   8.014  0.00  0.00     0.037 A 
ATOM     16  C23 <0> d   1      16.978  -0.142   8.311  0.00  0.00     0.028 C 
ATOM     17  C24 <0> d   1      19.191  -0.279   9.349  0.00  0.00     0.147 C 
ATOM     18  F25 <0> d   1      20.560  -0.476   9.141  0.00  0.00    -0.238 F 
ATOM     19  C26 <0> d   1      18.983   1.128   9.904  0.00  0.00     0.160 C 
ATOM     20  C29 <0> d   1      19.596   1.282  11.304  0.00  0.00     0.048 C 
ATOM     21  C30 <0> d   1      19.011   0.198  12.209  0.00  0.00     0.001 C 
ATOM     22  C31 <0> d   1      17.483   0.268  12.181  0.00  0.00     0.019 C 
ENDROOT
BRANCH   1  23
ATOM     23  C2  <0> d   1      18.610   0.936  14.551  0.00  0.00     0.158 C 
ATOM     24  C1  <0> d   1      17.687   0.236  15.516  0.00  0.00     0.094 C 
ATOM     25  O3  <0> d   1      18.627   2.142  14.501  0.00  0.00    -0.295 OA
ENDBRANCH   1  23
BRANCH   1  26
ATOM     26  O5  <0> d   1      20.852   0.614  13.732  0.00  0.00    -0.381 OA
ATOM     27  H35 <0> d   1      20.920   1.577  13.795  0.00  0.00     0.211 HD
ENDBRANCH   1  26
BRANCH  19  28
ATOM     28  O28 <0> d   1      17.582   1.398   9.976  0.00  0.00    -0.392 OA
ATOM     29  H51 <0> d   1      17.203   1.733   9.152  0.00  0.00     0.210 HD
ENDBRANCH  19  28
TORSDOF 3
ENDMDL
MODEL 2
REMARK VINA RESULT:      -9.4      2.362      7.431
REMARK  3 active torsions:
REMARK  status: ('A' for Active; 'I' for Inactive)
REMARK    1  A    between atoms: C2_2  and  C4_4 
REMARK    2  A    between atoms: C4_4  and  O5_5 
REMARK    3  A    between atoms: C26_23  and  O28_24 
ROOT
ATOM      1  C4  <0> d   1      19.387   0.040   9.299  0.00  0.00     0.125 C 
ATOM      2  C6  <0> d   1      19.377   1.541   8.915  0.00  0.00     0.047 C 
ATOM      3  C7  <0> d   1      18.969   2.319  10.197  0.00  0.00     0.009 C 
ATOM      4  C8  <0> d   1      19.366   1.356  11.322  0.00  0.00     0.005 C 
ATOM      5  C10 <0> d   1      18.657   1.564  12.648  0.00  0.00     0.035 C 
ATOM      6  C12 <0> d   1      19.000   2.944  13.212  0.00  0.00     0.017 C 
ATOM      7  C13 <0> d   1      18.254   3.164  14.531  0.00  0.00     0.012 C 
ATOM      8  C15 <0> d   1      18.693   4.488  15.159  0.00  0.00     0.015 C 
ATOM      9  C16 <0> d   1      18.597   2.016  15.462  0.00  0.00    -0.057 A 
ATOM     10  C17 <0> d   1      19.029   2.288  16.686  0.00  0.00     0.059 A 
ATOM     11  C18 <0> d   1      19.391   1.203  17.611  0.00  0.00     0.172 A 
ATOM     12  O19 <0> d   1      19.750   1.448  18.748  0.00  0.00    -0.289 OA
ATOM     13  C20 <0> d   1      19.309  -0.187  17.129  0.00  0.00     0.052 A 
ATOM     14  C21 <0> d   1      18.868  -0.435  15.906  0.00  0.00    -0.006 A 
ATOM     15  C22 <0> d   1      18.426   0.617  14.948  0.00  0.00     0.037 A 
ATOM     16  C23 <0> d   1      16.937   0.401  14.670  0.00  0.00     0.028 C 
ATOM     17  C24 <0> d   1      19.139   0.460  13.603  0.00  0.00     0.147 C 
ATOM     18  F25 <0> d   1      20.518   0.609  13.793  0.00  0.00    -0.238 F 
ATOM     19  C26 <0> d   1      18.876  -0.938  13.052  0.00  0.00     0.160 C 
ATOM     20  C29 <0> d   1      19.464  -1.113  11.644  0.00  0.00     0.048 C 
ATOM     21  C30 <0> d   1      18.906  -0.009  10.746  0.00  0.00     0.001 C 
ATOM     22  C31 <0> d   1      17.377  -0.026  10.794  0.00  0.00     0.019 C 
ENDROOT
BRANCH   1  23
ATOM     23  C2  <0> d   1      18.448  -0.732   8.410  0.00  0.00     0.158 C 
ATOM     24  C1  <0> d   1      17.507   0.000   7.489  0.00  0.00     0.094 C 
ATOM     25  O3  <0> d   1      18.449  -1.940   8.435  0.00  0.00    -0.295 OA
ENDBRANCH   1  23
BRANCH   1  26
ATOM     26  O5  <0> d   1      20.711  -0.489   9.200  0.00  0.00    -0.381 OA
ATOM     27  H35 <0> d   1      20.773  -1.294   8.666  0.00  0.00     0.211 HD
ENDBRANCH   1  26
BRANCH  19  28
ATOM     28  O28 <0> d   1      17.465  -1.160  12.998  0.00  0.00    -0.392 OA
ATOM     29  H51 <0> d   1      17.135  -1.375  12.115  0.00  0.00     0.210 HD
ENDBRANCH  19  28
TORSDOF 3
ENDMDL
MODEL 3
REMARK VINA RESULT:      -9.0      2.627      6.316
REMARK  3 active torsions:
REMARK  status: ('A' for Active; 'I' for Inactive)
REMARK    1  A    between atoms: C2_2  and  C4_4 
REMARK    2  A    between atoms: C4_4  and  O5_5 
REMARK    3  A    between atoms: C26_23  and  O28_24 
ROOT
ATOM      1  C4  <0> d   1      17.395  -5.196   9.129  0.00  0.00     0.125 C 
ATOM      2  C6  <0> d   1      17.310  -5.978  10.463  0.00  0.00     0.047 C 
ATOM      3  C7  <0> d   1      17.913  -5.050  11.554  0.00  0.00     0.009 C 
ATOM      4  C8  <0> d   1      17.731  -3.652  10.953  0.00  0.00     0.005 C 
ATOM      5  C10 <0> d   1      18.650  -2.574  11.500  0.00  0.00     0.035 C 
ATOM      6  C12 <0> d   1      18.380  -2.367  12.991  0.00  0.00     0.017 C 
ATOM      7  C13 <0> d   1      19.334  -1.306  13.546  0.00  0.00     0.012 C 
ATOM      8  C15 <0> d   1      18.982  -1.006  15.004  0.00  0.00     0.015 C 
ATOM      9  C16 <0> d   1      19.176  -0.048  12.712  0.00  0.00    -0.057 A 
ATOM     10  C17 <0> d   1      18.952   1.106  13.325  0.00  0.00     0.059 A 
ATOM     11  C18 <0> d   1      18.773   2.343  12.549  0.00  0.00     0.172 A 
ATOM     12  O19 <0> d   1      18.607   3.410  13.109  0.00  0.00    -0.289 OA
ATOM     13  C20 <0> d   1      18.801   2.260  11.079  0.00  0.00     0.052 A 
ATOM     14  C21 <0> d   1      19.033   1.098  10.488  0.00  0.00    -0.006 A 
ATOM     15  C22 <0> d   1      19.286  -0.174  11.221  0.00  0.00     0.037 A 
ATOM     16  C23 <0> d   1      20.710  -0.627  10.894  0.00  0.00     0.028 C 
ATOM     17  C24 <0> d   1      18.358  -1.283  10.718  0.00  0.00     0.147 C 
ATOM     18  F25 <0> d   1      17.029  -0.914  10.952  0.00  0.00    -0.238 F 
ATOM     19  C26 <0> d   1      18.553  -1.460   9.215  0.00  0.00     0.160 C 
ATOM     20  C29 <0> d   1      17.738  -2.645   8.673  0.00  0.00     0.048 C 
ATOM     21  C30 <0> d   1      18.115  -3.895   9.468  0.00  0.00     0.001 C 
ATOM     22  C31 <0> d   1      19.630  -4.101   9.422  0.00  0.00     0.019 C 
ENDROOT
BRANCH   1  23
ATOM     23  C2  <0> d   1      18.185  -5.980   8.113  0.00  0.00     0.158 C 
ATOM     24  C1  <0> d   1      18.089  -5.633   6.650  0.00  0.00     0.094 C 
ATOM     25  O3  <0> d   1      18.896  -6.889   8.472  0.00  0.00    -0.295 OA
ENDBRANCH   1  23
BRANCH   1  26
ATOM     26  O5  <0> d   1      16.084  -4.921   8.629  0.00  0.00    -0.381 OA
ATOM     27  H35 <0> d   1      16.065  -4.666   7.696  0.00  0.00     0.211 HD
ENDBRANCH   1  26
BRANCH  19  28
ATOM     28  O28 <0> d   1      19.938  -1.687   8.947  0.00  0.00    -0.392 OA
ATOM     29  H51 <0> d   1      20.104  -2.194   8.140  0.00  0.00     0.210 HD
ENDBRANCH  19  28
TORSDOF 3
ENDMDL
MODEL 4
REMARK VINA RESULT:      -8.9      2.520      4.333
REMARK  3 active torsions:
REMARK  status: ('A' for Active; 'I' for Inactive)
REMARK    1  A    between atoms: C2_2  and  C4_4 
REMARK    2  A    between atoms: C4_4  and  O5_5 
REMARK    3  A    between atoms: C26_23  and  O28_24 
ROOT
ATOM      1  C4  <0> d   1      18.177   3.535  11.618  0.00  0.00     0.125 C 
ATOM      2  C6  <0> d   1      18.457   3.983  10.163  0.00  0.00     0.047 C 
ATOM      3  C7  <0> d   1      18.772   2.691   9.359  0.00  0.00     0.009 C 
ATOM      4  C8  <0> d   1      18.077   1.599  10.180  0.00  0.00     0.005 C 
ATOM      5  C10 <0> d   1      18.599   0.188   9.977  0.00  0.00     0.035 C 
ATOM      6  C12 <0> d   1      18.372  -0.247   8.528  0.00  0.00     0.017 C 
ATOM      7  C13 <0> d   1      18.934  -1.657   8.319  0.00  0.00     0.012 C 
ATOM      8  C15 <0> d   1      18.596  -2.143   6.908  0.00  0.00     0.015 C 
ATOM      9  C16 <0> d   1      18.295  -2.575   9.344  0.00  0.00    -0.057 A 
ATOM     10  C17 <0> d   1      17.725  -3.699   8.933  0.00  0.00     0.059 A 
ATOM     11  C18 <0> d   1      17.078  -4.605   9.895  0.00  0.00     0.172 A 
ATOM     12  O19 <0> d   1      16.589  -5.657   9.527  0.00  0.00    -0.289 OA
ATOM     13  C20 <0> d   1      17.035  -4.209  11.314  0.00  0.00     0.052 A 
ATOM     14  C21 <0> d   1      17.617  -3.086  11.702  0.00  0.00    -0.006 A 
ATOM     15  C22 <0> d   1      18.343  -2.162  10.785  0.00  0.00     0.037 A 
ATOM     16  C23 <0> d   1      19.811  -2.136  11.215  0.00  0.00     0.028 C 
ATOM     17  C24 <0> d   1      17.827  -0.729  10.939  0.00  0.00     0.147 C 
ATOM     18  F25 <0> d   1      16.470  -0.689  10.597  0.00  0.00    -0.238 F 
ATOM     19  C26 <0> d   1      17.971  -0.294  12.395  0.00  0.00     0.160 C 
ATOM     20  C29 <0> d   1      17.584   1.180  12.587  0.00  0.00     0.048 C 
ATOM     21  C30 <0> d   1      18.422   2.029  11.631  0.00  0.00     0.001 C 
ATOM     22  C31 <0> d   1      19.908   1.737  11.846  0.00  0.00     0.019 C 
ENDROOT
BRANCH   1  23
ATOM     23  C2  <0> d   1      19.122   4.225  12.568  0.00  0.00     0.158 C 
ATOM     24  C1  <0> d   1      18.793   4.303  14.036  0.00  0.00     0.094 C 
ATOM     25  O3  <0> d   1      20.143   4.718  12.151  0.00  0.00    -0.295 OA
ENDBRANCH   1  23
BRANCH   1  26
ATOM     26  O5  <0> d   1      16.823   3.819  11.974  0.00  0.00    -0.381 OA
ATOM     27  H35 <0> d   1      16.322   3.043  12.264  0.00  0.00     0.211 HD
ENDBRANCH   1  26
BRANCH  19  28
ATOM     28  O28 <0> d   1      19.328  -0.476  12.804  0.00  0.00    -0.392 OA
ATOM     29  H51 <0> d   1      19.729   0.312  13.196  0.00  0.00     0.210 HD
ENDBRANCH  19  28
TORSDOF 3
ENDMDL
MODEL 5
REMARK VINA RESULT:      -8.8      2.468      6.189
REMARK  3 active torsions:
REMARK  status: ('A' for Active; 'I' for Inactive)
REMARK    1  A    between atoms: C2_2  and  C4_4 
REMARK    2  A    between atoms: C4_4  and  O5_5 
REMARK    3  A    between atoms: C26_23  and  O28_24 
ROOT
ATOM      1  C4  <0> d   1      18.242  -3.903   9.453  0.00  0.00     0.125 C 
ATOM      2  C6  <0> d   1      17.519  -4.586  10.640  0.00  0.00     0.047 C 
ATOM      3  C7  <0> d   1      17.675  -3.631  11.856  0.00  0.00     0.009 C 
ATOM      4  C8  <0> d   1      17.899  -2.267  11.193  0.00  0.00     0.005 C 
ATOM      5  C10 <0> d   1      18.588  -1.222  12.053  0.00  0.00     0.035 C 
ATOM      6  C12 <0> d   1      17.721  -0.896  13.271  0.00  0.00     0.017 C 
ATOM      7  C13 <0> d   1      18.435   0.131  14.154  0.00  0.00     0.012 C 
ATOM      8  C15 <0> d   1      17.518   0.552  15.303  0.00  0.00     0.015 C 
ATOM      9  C16 <0> d   1      18.769   1.337  13.296  0.00  0.00    -0.057 A 
ATOM     10  C17 <0> d   1      18.409   2.543  13.715  0.00  0.00     0.059 A 
ATOM     11  C18 <0> d   1      18.698   3.734  12.901  0.00  0.00     0.172 A 
ATOM     12  O19 <0> d   1      18.405   4.846  13.301  0.00  0.00    -0.289 OA
ATOM     13  C20 <0> d   1      19.349   3.551  11.593  0.00  0.00     0.052 A 
ATOM     14  C21 <0> d   1      19.705   2.339  11.198  0.00  0.00    -0.006 A 
ATOM     15  C22 <0> d   1      19.498   1.104  12.006  0.00  0.00     0.037 A 
ATOM     16  C23 <0> d   1      20.876   0.532  12.346  0.00  0.00     0.028 C 
ATOM     17  C24 <0> d   1      18.781   0.031  11.183  0.00  0.00     0.147 C 
ATOM     18  F25 <0> d   1      17.521   0.507  10.804  0.00  0.00    -0.238 F 
ATOM     19  C26 <0> d   1      19.588  -0.260   9.921  0.00  0.00     0.160 C 
ATOM     20  C29 <0> d   1      18.982  -1.419   9.115  0.00  0.00     0.048 C 
ATOM     21  C30 <0> d   1      18.861  -2.635  10.032  0.00  0.00     0.001 C 
ATOM     22  C31 <0> d   1      20.222  -2.949  10.657  0.00  0.00     0.019 C 
ENDROOT
BRANCH   1  23
ATOM     23  C2  <0> d   1      19.317  -4.807   8.907  0.00  0.00     0.158 C 
ATOM     24  C1  <0> d   1      19.809  -4.627   7.494  0.00  0.00     0.094 C 
ATOM     25  O3  <0> d   1      19.784  -5.677   9.602  0.00  0.00    -0.295 OA
ENDBRANCH   1  23
BRANCH   1  26
ATOM     26  O5  <0> d   1      17.306  -3.571   8.425  0.00  0.00    -0.381 OA
ATOM     27  H35 <0> d   1      17.254  -2.625   8.232  0.00  0.00     0.211 HD
ENDBRANCH   1  26
BRANCH  19  28
ATOM     28  O28 <0> d   1      20.925  -0.600  10.290  0.00  0.00    -0.392 OA
ATOM     29  H51 <0> d   1      21.600  -0.237   9.699  0.00  0.00     0.210 HD
ENDBRANCH  19  28
TORSDOF 3
ENDMDL
MODEL 6
REMARK VINA RESULT:      -8.8      2.585      4.438
REMARK  3 active torsions:
REMARK  status: ('A' for Active; 'I' for Inactive)
REMARK    1  A    between atoms: C2_2  and  C4_4 
REMARK    2  A    between atoms: C4_4  and  O5_5 
REMARK    3  A    between atoms: C26_23  and  O28_24 
ROOT
ATOM      1  C4  <0> d   1      18.238   3.967  13.591  0.00  0.00     0.125 C 
ATOM      2  C6  <0> d   1      17.489   4.635  12.412  0.00  0.00     0.047 C 
ATOM      3  C7  <0> d   1      17.602   3.656  11.210  0.00  0.00     0.009 C 
ATOM      4  C8  <0> d   1      17.832   2.303  11.892  0.00  0.00     0.005 C 
ATOM      5  C10 <0> d   1      18.486   1.234  11.034  0.00  0.00     0.035 C 
ATOM      6  C12 <0> d   1      17.583   0.895   9.847  0.00  0.00     0.017 C 
ATOM      7  C13 <0> d   1      18.263  -0.156   8.964  0.00  0.00     0.012 C 
ATOM      8  C15 <0> d   1      17.311  -0.588   7.848  0.00  0.00     0.015 C 
ATOM      9  C16 <0> d   1      18.609  -1.349   9.835  0.00  0.00    -0.057 A 
ATOM     10  C17 <0> d   1      18.226  -2.559   9.449  0.00  0.00     0.059 A 
ATOM     11  C18 <0> d   1      18.525  -3.738  10.276  0.00  0.00     0.172 A 
ATOM     12  O19 <0> d   1      18.211  -4.853   9.906  0.00  0.00    -0.289 OA
ATOM     13  C20 <0> d   1      19.213  -3.536  11.563  0.00  0.00     0.052 A 
ATOM     14  C21 <0> d   1      19.592  -2.321  11.925  0.00  0.00    -0.006 A 
ATOM     15  C22 <0> d   1      19.375  -1.099  11.100  0.00  0.00     0.037 A 
ATOM     16  C23 <0> d   1      20.749  -0.548  10.712  0.00  0.00     0.028 C 
ATOM     17  C24 <0> d   1      18.691  -0.004  11.921  0.00  0.00     0.147 C 
ATOM     18  F25 <0> d   1      17.438  -0.460  12.343  0.00  0.00    -0.238 F 
ATOM     19  C26 <0> d   1      19.535   0.302  13.156  0.00  0.00     0.160 C 
ATOM     20  C29 <0> d   1      18.962   1.482  13.956  0.00  0.00     0.048 C 
ATOM     21  C30 <0> d   1      18.829   2.682  13.019  0.00  0.00     0.001 C 
ATOM     22  C31 <0> d   1      20.175   2.971  12.352  0.00  0.00     0.019 C 
ENDROOT
BRANCH   1  23
ATOM     23  C2  <0> d   1      19.336   4.870  14.090  0.00  0.00     0.158 C 
ATOM     24  C1  <0> d   1      19.764   4.810  15.534  0.00  0.00     0.094 C 
ATOM     25  O3  <0> d   1      19.873   5.643  13.333  0.00  0.00    -0.295 OA
ENDBRANCH   1  23
BRANCH   1  26
ATOM     26  O5  <0> d   1      17.327   3.664  14.650  0.00  0.00    -0.381 OA
ATOM     27  H35 <0> d   1      17.696   3.795  15.535  0.00  0.00     0.211 HD
ENDBRANCH   1  26
BRANCH  19  28
ATOM     28  O28 <0> d   1      20.865   0.622  12.744  0.00  0.00    -0.392 OA
ATOM     29  H51 <0> d   1      21.468  -0.135  12.741  0.00  0.00     0.210 HD
ENDBRANCH  19  28
TORSDOF 3
ENDMDL
MODEL 7
REMARK VINA RESULT:      -8.7      2.136      6.832
REMARK  3 active torsions:
REMARK  status: ('A' for Active; 'I' for Inactive)
REMARK    1  A    between atoms: C2_2  and  C4_4 
REMARK    2  A    between atoms: C4_4  and  O5_5 
REMARK    3  A    between atoms: C26_23  and  O28_24 
ROOT
ATOM      1  C4  <0> d   1      19.621  -4.064   6.869  0.00  0.00     0.125 C 
ATOM      2  C6  <0> d   1      19.253  -2.906   5.910  0.00  0.00     0.047 C 
ATOM      3  C7  <0> d   1      18.659  -1.775   6.795  0.00  0.00     0.009 C 
ATOM      4  C8  <0> d   1      19.267  -2.064   8.172  0.00  0.00     0.005 C 
ATOM      5  C10 <0> d   1      18.517  -1.484   9.358  0.00  0.00     0.035 C 
ATOM      6  C12 <0> d   1      18.513   0.043   9.276  0.00  0.00     0.017 C 
ATOM      7  C13 <0> d   1      17.725   0.622  10.454  0.00  0.00     0.012 C 
ATOM      8  C15 <0> d   1      17.827   2.149  10.444  0.00  0.00     0.015 C 
ATOM      9  C16 <0> d   1      18.327   0.077  11.736  0.00  0.00    -0.057 A 
ATOM     10  C17 <0> d   1      18.671   0.925  12.696  0.00  0.00     0.059 A 
ATOM     11  C18 <0> d   1      19.275   0.436  13.945  0.00  0.00     0.172 A 
ATOM     12  O19 <0> d   1      19.555   1.207  14.844  0.00  0.00    -0.289 OA
ATOM     13  C20 <0> d   1      19.534  -1.008  14.082  0.00  0.00     0.052 A 
ATOM     14  C21 <0> d   1      19.177  -1.836  13.113  0.00  0.00    -0.006 A 
ATOM     15  C22 <0> d   1      18.502  -1.408  11.855  0.00  0.00     0.037 A 
ATOM     16  C23 <0> d   1      17.111  -2.045  11.830  0.00  0.00     0.028 C 
ATOM     17  C24 <0> d   1      19.243  -1.950  10.631  0.00  0.00     0.147 C 
ATOM     18  F25 <0> d   1      20.544  -1.433  10.614  0.00  0.00    -0.238 F 
ATOM     19  C26 <0> d   1      19.329  -3.470  10.725  0.00  0.00     0.160 C 
ATOM     20  C29 <0> d   1      19.954  -4.083   9.462  0.00  0.00     0.048 C 
ATOM     21  C30 <0> d   1      19.154  -3.610   8.249  0.00  0.00     0.001 C 
ATOM     22  C31 <0> d   1      17.673  -3.945   8.442  0.00  0.00     0.019 C 
ENDROOT
BRANCH   1  23
ATOM     23  C2  <0> d   1      18.903  -5.326   6.464  0.00  0.00     0.158 C 
ATOM     24  C1  <0> d   1      17.867  -5.286   5.371  0.00  0.00     0.094 C 
ATOM     25  O3  <0> d   1      19.158  -6.369   7.016  0.00  0.00    -0.295 OA
ENDBRANCH   1  23
BRANCH   1  26
ATOM     26  O5  <0> d   1      21.034  -4.278   6.871  0.00  0.00    -0.381 OA
ATOM     27  H35 <0> d   1      21.479  -3.972   6.069  0.00  0.00     0.211 HD
ENDBRANCH   1  26
BRANCH  19  28
ATOM     28  O28 <0> d   1      18.014  -4.002  10.898  0.00  0.00    -0.392 OA
ATOM     29  H51 <0> d   1      17.314  -3.446  10.529  0.00  0.00     0.210 HD
ENDBRANCH  19  28
TORSDOF 3
ENDMDL
MODEL 8
REMARK VINA RESULT:      -8.5      2.662      5.886
REMARK  3 active torsions:
REMARK  status: ('A' for Active; 'I' for Inactive)
REMARK    1  A    between atoms: C2_2  and  C4_4 
REMARK    2  A    between atoms: C4_4  and  O5_5 
REMARK    3  A    between atoms: C26_23  and  O28_24 
ROOT
ATOM      1  C4  <0> d   1      18.821  -5.337   9.037  0.00  0.00     0.125 C 
ATOM      2  C6  <0> d   1      18.913  -5.058   7.516  0.00  0.00     0.047 C 
ATOM      3  C7  <0> d   1      18.689  -3.531   7.336  0.00  0.00     0.009 C 
ATOM      4  C8  <0> d   1      19.093  -2.962   8.701  0.00  0.00     0.005 C 
ATOM      5  C10 <0> d   1      18.522  -1.597   9.042  0.00  0.00     0.035 C 
ATOM      6  C12 <0> d   1      19.035  -0.555   8.048  0.00  0.00     0.017 C 
ATOM      7  C13 <0> d   1      18.428   0.813   8.373  0.00  0.00     0.012 C 
ATOM      8  C15 <0> d   1      19.037   1.879   7.461  0.00  0.00     0.015 C 
ATOM      9  C16 <0> d   1      18.745   1.136   9.821  0.00  0.00    -0.057 A 
ATOM     10  C17 <0> d   1      19.304   2.303  10.112  0.00  0.00     0.059 A 
ATOM     11  C18 <0> d   1      19.645   2.643  11.502  0.00  0.00     0.172 A 
ATOM     12  O19 <0> d   1      20.120   3.729  11.778  0.00  0.00    -0.289 OA
ATOM     13  C20 <0> d   1      19.397   1.641  12.552  0.00  0.00     0.052 A 
ATOM     14  C21 <0> d   1      18.832   0.485  12.240  0.00  0.00    -0.006 A 
ATOM     15  C22 <0> d   1      18.406   0.110  10.862  0.00  0.00     0.037 A 
ATOM     16  C23 <0> d   1      16.885  -0.058  10.873  0.00  0.00     0.028 C 
ATOM     17  C24 <0> d   1      18.984  -1.251  10.467  0.00  0.00     0.147 C 
ATOM     18  F25 <0> d   1      20.381  -1.177  10.476  0.00  0.00    -0.238 F 
ATOM     19  C26 <0> d   1      18.549  -2.299  11.487  0.00  0.00     0.160 C 
ATOM     20  C29 <0> d   1      18.996  -3.710  11.077  0.00  0.00     0.048 C 
ATOM     21  C30 <0> d   1      18.464  -3.996   9.673  0.00  0.00     0.001 C 
ATOM     22  C31 <0> d   1      16.949  -3.783   9.638  0.00  0.00     0.019 C 
ENDROOT
BRANCH   1  23
ATOM     23  C2  <0> d   1      17.744  -6.351   9.317  0.00  0.00     0.158 C 
ATOM     24  C1  <0> d   1      17.114  -7.116   8.182  0.00  0.00     0.094 C 
ATOM     25  O3  <0> d   1      17.383  -6.551  10.453  0.00  0.00    -0.295 OA
ENDBRANCH   1  23
BRANCH   1  26
ATOM     26  O5  <0> d   1      20.078  -5.800   9.535  0.00  0.00    -0.381 OA
ATOM     27  H35 <0> d   1      20.024  -6.632  10.025  0.00  0.00     0.211 HD
ENDBRANCH   1  26
BRANCH  19  28
ATOM     28  O28 <0> d   1      17.125  -2.277  11.601  0.00  0.00    -0.392 OA
ATOM     29  H51 <0> d   1      16.670  -2.841  10.960  0.00  0.00     0.210 HD
ENDBRANCH  19  28
TORSDOF 3
ENDMDL
MODEL 9
REMARK VINA RESULT:      -8.4      1.810      6.605
REMARK  3 active torsions:
REMARK  status: ('A' for Active; 'I' for Inactive)
REMARK    1  A    between atoms: C2_2  and  C4_4 
REMARK    2  A    between atoms: C4_4  and  O5_5 
REMARK    3  A    between atoms: C26_23  and  O28_24 
ROOT
ATOM      1  C4  <0> d   1      17.905  -1.025   7.707  0.00  0.00     0.125 C 
ATOM      2  C6  <0> d   1      17.762  -2.457   8.279  0.00  0.00     0.047 C 
ATOM      3  C7  <0> d   1      18.197  -2.380   9.768  0.00  0.00     0.009 C 
ATOM      4  C8  <0> d   1      17.966  -0.906  10.116  0.00  0.00     0.005 C 
ATOM      5  C10 <0> d   1      18.752  -0.377  11.303  0.00  0.00     0.035 C 
ATOM      6  C12 <0> d   1      18.337  -1.120  12.575  0.00  0.00     0.017 C 
ATOM      7  C13 <0> d   1      19.158  -0.610  13.763  0.00  0.00     0.012 C 
ATOM      8  C15 <0> d   1      18.657  -1.260  15.054  0.00  0.00     0.015 C 
ATOM      9  C16 <0> d   1      18.982   0.895  13.845  0.00  0.00    -0.057 A 
ATOM     10  C17 <0> d   1      18.620   1.438  14.999  0.00  0.00     0.059 A 
ATOM     11  C18 <0> d   1      18.420   2.891  15.112  0.00  0.00     0.172 A 
ATOM     12  O19 <0> d   1      18.127   3.397  16.179  0.00  0.00    -0.289 OA
ATOM     13  C20 <0> d   1      18.582   3.719  13.904  0.00  0.00     0.052 A 
ATOM     14  C21 <0> d   1      18.950   3.156  12.764  0.00  0.00    -0.006 A 
ATOM     15  C22 <0> d   1      19.230   1.701  12.604  0.00  0.00     0.037 A 
ATOM     16  C23 <0> d   1      20.708   1.547  12.236  0.00  0.00     0.028 C 
ATOM     17  C24 <0> d   1      18.435   1.121  11.432  0.00  0.00     0.147 C 
ATOM     18  F25 <0> d   1      17.067   1.266  11.688  0.00  0.00    -0.238 F 
ATOM     19  C26 <0> d   1      18.773   1.895  10.161  0.00  0.00     0.160 C 
ATOM     20  C29 <0> d   1      18.099   1.280   8.925  0.00  0.00     0.048 C 
ATOM     21  C30 <0> d   1      18.495  -0.194   8.843  0.00  0.00     0.001 C 
ATOM     22  C31 <0> d   1      20.020  -0.323   8.855  0.00  0.00     0.019 C 
ENDROOT
BRANCH   1  23
ATOM     23  C2  <0> d   1      18.837  -1.027   6.523  0.00  0.00     0.158 C 
ATOM     24  C1  <0> d   1      18.883   0.161   5.598  0.00  0.00     0.094 C 
ATOM     25  O3  <0> d   1      19.547  -1.982   6.315  0.00  0.00    -0.295 OA
ENDBRANCH   1  23
BRANCH   1  26
ATOM     26  O5  <0> d   1      16.627  -0.510   7.329  0.00  0.00    -0.381 OA
ATOM     27  H35 <0> d   1      16.216   0.052   8.001  0.00  0.00     0.211 HD
ENDBRANCH   1  26
BRANCH  19  28
ATOM     28  O28 <0> d   1      20.189   1.885   9.971  0.00  0.00    -0.392 OA
ATOM     29  H51 <0> d   1      20.659   2.562  10.478  0.00  0.00     0.210 HD
ENDBRANCH  19  28
TORSDOF 3
ENDMDL
