MODEL 1
REMARK VINA RESULT:      -8.1      0.000      0.000
REMARK  5 active torsions:
REMARK  status: ('A' for Active; 'I' for Inactive)
REMARK    1  A    between atoms: O1_1  and  C2_2 
REMARK    2  A    between atoms: N9_8  and  C11_10 
REMARK    3  A    between atoms: C11_10  and  C12_11 
REMARK    4  A    between atoms: C24_22  and  O26_23 
REMARK    5  A    between atoms: C29_26  and  O30_27 
ROOT
ATOM      1  C2  <0> d   1      19.844   3.080  11.494  0.00  0.00     0.099 A 
ATOM      2  C3  <0> d   1      18.690   3.403  10.784  0.00  0.00     0.040 A 
ATOM      3  C4  <0> d   1      17.725   2.471  10.440  0.00  0.00     0.011 A 
ATOM      4  C5  <0> d   1      17.885   1.141  10.787  0.00  0.00    -0.046 A 
ATOM      5  C6  <0> d   1      16.865   0.071  10.563  0.00  0.00     0.075 C 
ATOM      6  C7  <0> d   1      17.333  -1.305  11.004  0.00  0.00     0.227 C 
ATOM      7  N9  <0> d   1      18.027  -1.990   9.904  0.00  0.00    -0.063 N 
ATOM      8  H10 <0> d   1      17.420  -2.019   9.099  0.00  0.00     0.280 HD
ATOM      9  C16 <0> d   1      19.265  -1.293   9.545  0.00  0.00     0.236 C 
ATOM     10  C17 <0> d   1      20.222  -1.251  10.745  0.00  0.00     0.048 C 
ATOM     11  C18 <0> d   1      19.501  -0.542  11.893  0.00  0.00     0.054 C 
ATOM     12  C19 <0> d   1      19.062   0.825  11.425  0.00  0.00    -0.001 A 
ATOM     13  C20 <0> d   1      20.025   1.735  11.835  0.00  0.00     0.110 A 
ATOM     14  O21 <0> d   1      20.984   1.107  12.553  0.00  0.00    -0.339 OA
ATOM     15  C22 <0> d   1      20.441  -0.171  13.026  0.00  0.00     0.174 C 
ATOM     16  C24 <0> d   1      19.772   0.111  14.356  0.00  0.00     0.148 C 
ATOM     17  C27 <0> d   1      18.523  -0.690  14.642  0.00  0.00     0.037 C 
ATOM     18  C28 <0> d   1      17.542  -0.635  13.471  0.00  0.00     0.043 C 
ATOM     19  C29 <0> d   1      18.252  -1.303  12.224  0.00  0.00     0.101 C 
ENDROOT
BRANCH   7  20
ATOM     20  C11 <0> d   1      18.348  -3.361  10.317  0.00  0.00     0.240 C 
BRANCH  20  21
ATOM     21  C12 <0> d   1      17.482  -4.347   9.530  0.00  0.00     0.011 C 
ATOM     22  C15 <0> d   1      16.539  -5.181  10.412  0.00  0.00     0.006 C 
ATOM     23  C14 <0> d   1      16.875  -6.377   9.506  0.00  0.00     0.001 C 
ATOM     24  C13 <0> d   1      18.200  -5.664   9.189  0.00  0.00     0.006 C 
ENDBRANCH  20  21
ENDBRANCH   7  20
BRANCH  19  25
ATOM     25  O30 <0> d   1      18.603  -2.650  12.546  0.00  0.00    -0.386 OA
ATOM     26  H54 <0> d   1      18.022  -3.314  12.149  0.00  0.00     0.210 HD
ENDBRANCH  19  25
BRANCH  16  27
ATOM     27  O26 <0> d   1      19.429   1.498  14.400  0.00  0.00    -0.393 OA
ATOM     28  H49 <0> d   1      20.168   2.092  14.208  0.00  0.00     0.210 HD
ENDBRANCH  16  27
BRANCH   1  29
ATOM     29  O1  <0> d   1      20.757   4.029  11.836  0.00  0.00    -0.358 OA
ATOM     30  H31 <0> d   1      21.671   3.781  11.646  0.00  0.00     0.217 HD
ENDBRANCH   1  29
TORSDOF 5
ENDMDL
MODEL 2
REMARK VINA RESULT:      -8.0      2.571      4.590
REMARK  5 active torsions:
REMARK  status: ('A' for Active; 'I' for Inactive)
REMARK    1  A    between atoms: O1_1  and  C2_2 
REMARK    2  A    between atoms: N9_8  and  C11_10 
REMARK    3  A    between atoms: C11_10  and  C12_11 
REMARK    4  A    between atoms: C24_22  and  O26_23 
REMARK    5  A    between atoms: C29_26  and  O30_27 
ROOT
ATOM      1  C2  <0> d   1      18.461  -0.144  15.441  0.00  0.00     0.099 A 
ATOM      2  C3  <0> d   1      19.318  -1.214  15.195  0.00  0.00     0.040 A 
ATOM      3  C4  <0> d   1      19.802  -1.526  13.935  0.00  0.00     0.011 A 
ATOM      4  C5  <0> d   1      19.427  -0.770  12.838  0.00  0.00    -0.046 A 
ATOM      5  C6  <0> d   1      19.966  -0.947  11.455  0.00  0.00     0.075 C 
ATOM      6  C7  <0> d   1      19.338  -0.006  10.441  0.00  0.00     0.227 C 
ATOM      7  N9  <0> d   1      18.135  -0.610   9.854  0.00  0.00    -0.063 N 
ATOM      8  H10 <0> d   1      18.375  -1.508   9.461  0.00  0.00     0.280 HD
ATOM      9  C16 <0> d   1      17.088  -0.792  10.863  0.00  0.00     0.236 C 
ATOM     10  C17 <0> d   1      16.684   0.561  11.464  0.00  0.00     0.048 C 
ATOM     11  C18 <0> d   1      17.935   1.195  12.074  0.00  0.00     0.054 C 
ATOM     12  C19 <0> d   1      18.525   0.238  13.084  0.00  0.00    -0.001 A 
ATOM     13  C20 <0> d   1      18.061   0.616  14.335  0.00  0.00     0.110 A 
ATOM     14  O21 <0> d   1      17.299   1.728  14.234  0.00  0.00    -0.339 OA
ATOM     15  C22 <0> d   1      17.610   2.384  12.959  0.00  0.00     0.174 C 
ATOM     16  C24 <0> d   1      18.767   3.325  13.230  0.00  0.00     0.148 C 
ATOM     17  C27 <0> d   1      19.769   3.468  12.107  0.00  0.00     0.037 C 
ATOM     18  C28 <0> d   1      20.231   2.106  11.592  0.00  0.00     0.043 C 
ATOM     19  C29 <0> d   1      18.964   1.367  10.997  0.00  0.00     0.101 C 
ENDROOT
BRANCH   7  20
ATOM     20  C11 <0> d   1      17.629   0.264   8.788  0.00  0.00     0.240 C 
BRANCH  20  21
ATOM     21  C12 <0> d   1      18.175  -0.209   7.439  0.00  0.00     0.011 C 
ATOM     22  C15 <0> d   1      18.982   0.863   6.690  0.00  0.00     0.006 C 
ATOM     23  C14 <0> d   1      18.304   0.364   5.403  0.00  0.00     0.001 C 
ATOM     24  C13 <0> d   1      17.150  -0.125   6.295  0.00  0.00     0.006 C 
ENDBRANCH  20  21
ENDBRANCH   7  20
BRANCH  19  25
ATOM     25  O30 <0> d   1      18.405   2.159   9.947  0.00  0.00    -0.386 OA
ATOM     26  H54 <0> d   1      17.734   1.700   9.423  0.00  0.00     0.210 HD
ENDBRANCH  19  25
BRANCH  16  27
ATOM     27  O26 <0> d   1      19.463   2.858  14.388  0.00  0.00    -0.393 OA
ATOM     28  H49 <0> d   1      20.357   3.215  14.481  0.00  0.00     0.210 HD
ENDBRANCH  16  27
BRANCH   1  29
ATOM     29  O1  <0> d   1      18.027   0.146  16.696  0.00  0.00    -0.358 OA
ATOM     30  H31 <0> d   1      17.129  -0.157  16.882  0.00  0.00     0.217 HD
ENDBRANCH   1  29
TORSDOF 5
ENDMDL
MODEL 3
REMARK VINA RESULT:      -7.9      2.510      5.209
REMARK  5 active torsions:
REMARK  status: ('A' for Active; 'I' for Inactive)
REMARK    1  A    between atoms: O1_1  and  C2_2 
REMARK    2  A    between atoms: N9_8  and  C11_10 
REMARK    3  A    between atoms: C11_10  and  C12_11 
REMARK    4  A    between atoms: C24_22  and  O26_23 
REMARK    5  A    between atoms: C29_26  and  O30_27 
ROOT
ATOM      1  C2  <0> d   1      18.352   0.505   7.744  0.00  0.00     0.099 A 
ATOM      2  C3  <0> d   1      19.182   1.587   8.029  0.00  0.00     0.040 A 
ATOM      3  C4  <0> d   1      19.704   1.833   9.288  0.00  0.00     0.011 A 
ATOM      4  C5  <0> d   1      19.396   0.996  10.347  0.00  0.00    -0.046 A 
ATOM      5  C6  <0> d   1      19.981   1.102  11.718  0.00  0.00     0.075 C 
ATOM      6  C7  <0> d   1      19.423   0.076  12.689  0.00  0.00     0.227 C 
ATOM      7  N9  <0> d   1      18.224   0.599  13.358  0.00  0.00    -0.063 N 
ATOM      8  H10 <0> d   1      18.450   1.477  13.800  0.00  0.00     0.280 HD
ATOM      9  C16 <0> d   1      17.134   0.809  12.401  0.00  0.00     0.236 C 
ATOM     10  C17 <0> d   1      16.752  -0.515  11.727  0.00  0.00     0.048 C 
ATOM     11  C18 <0> d   1      17.999  -1.065  11.032  0.00  0.00     0.054 C 
ATOM     12  C19 <0> d   1      18.518  -0.025  10.067  0.00  0.00    -0.001 A 
ATOM     13  C20 <0> d   1      18.019  -0.338   8.811  0.00  0.00     0.110 A 
ATOM     14  O21 <0> d   1      17.298  -1.480   8.867  0.00  0.00    -0.339 OA
ATOM     15  C22 <0> d   1      17.679  -2.206  10.083  0.00  0.00     0.174 C 
ATOM     16  C24 <0> d   1      18.855  -3.086   9.710  0.00  0.00     0.148 C 
ATOM     17  C27 <0> d   1      19.903  -3.266  10.784  0.00  0.00     0.037 C 
ATOM     18  C28 <0> d   1      20.340  -1.924  11.371  0.00  0.00     0.043 C 
ATOM     19  C29 <0> d   1      19.073  -1.270  12.058  0.00  0.00     0.101 C 
ENDROOT
BRANCH   7  20
ATOM     20  C11 <0> d   1      17.788  -0.359  14.382  0.00  0.00     0.240 C 
BRANCH  20  21
ATOM     21  C12 <0> d   1      18.359   0.052  15.740  0.00  0.00     0.011 C 
ATOM     22  C15 <0> d   1      18.998  -1.109  16.518  0.00  0.00     0.006 C 
ATOM     23  C14 <0> d   1      18.361  -0.511  17.783  0.00  0.00     0.001 C 
ATOM     24  C13 <0> d   1      17.305   0.117  16.859  0.00  0.00     0.006 C 
ENDBRANCH  20  21
ENDBRANCH   7  20
BRANCH  19  25
ATOM     25  O30 <0> d   1      18.581  -2.147  13.073  0.00  0.00    -0.386 OA
ATOM     26  H54 <0> d   1      18.119  -1.696  13.793  0.00  0.00     0.210 HD
ENDBRANCH  19  25
BRANCH  16  27
ATOM     27  O26 <0> d   1      19.490  -2.521   8.561  0.00  0.00    -0.393 OA
ATOM     28  H49 <0> d   1      20.063  -3.138   8.085  0.00  0.00     0.210 HD
ENDBRANCH  16  27
BRANCH   1  29
ATOM     29  O1  <0> d   1      17.881   0.282   6.489  0.00  0.00    -0.358 OA
ATOM     30  H31 <0> d   1      17.972   1.038   5.894  0.00  0.00     0.217 HD
ENDBRANCH   1  29
TORSDOF 5
ENDMDL
MODEL 4
REMARK VINA RESULT:      -7.9      2.436      5.310
REMARK  5 active torsions:
REMARK  status: ('A' for Active; 'I' for Inactive)
REMARK    1  A    between atoms: O1_1  and  C2_2 
REMARK    2  A    between atoms: N9_8  and  C11_10 
REMARK    3  A    between atoms: C11_10  and  C12_11 
REMARK    4  A    between atoms: C24_22  and  O26_23 
REMARK    5  A    between atoms: C29_26  and  O30_27 
ROOT
ATOM      1  C2  <0> d   1      19.155  -2.434   7.361  0.00  0.00     0.099 A 
ATOM      2  C3  <0> d   1      18.317  -3.512   7.635  0.00  0.00     0.040 A 
ATOM      3  C4  <0> d   1      17.713  -3.712   8.865  0.00  0.00     0.011 A 
ATOM      4  C5  <0> d   1      17.940  -2.827   9.905  0.00  0.00    -0.046 A 
ATOM      5  C6  <0> d   1      17.264  -2.882  11.236  0.00  0.00     0.075 C 
ATOM      6  C7  <0> d   1      17.744  -1.809  12.198  0.00  0.00     0.227 C 
ATOM      7  N9  <0> d   1      18.900  -2.290  12.969  0.00  0.00    -0.063 N 
ATOM      8  H10 <0> d   1      18.652  -3.151  13.432  0.00  0.00     0.280 HD
ATOM      9  C16 <0> d   1      20.054  -2.527  12.098  0.00  0.00     0.236 C 
ATOM     10  C17 <0> d   1      20.470  -1.227  11.395  0.00  0.00     0.048 C 
ATOM     11  C18 <0> d   1      19.268  -0.723  10.595  0.00  0.00     0.054 C 
ATOM     12  C19 <0> d   1      18.826  -1.808   9.642  0.00  0.00    -0.001 A 
ATOM     13  C20 <0> d   1      19.407  -1.543   8.411  0.00  0.00     0.110 A 
ATOM     14  O21 <0> d   1      20.112  -0.391   8.466  0.00  0.00    -0.339 OA
ATOM     15  C22 <0> d   1      19.642   0.381   9.622  0.00  0.00     0.174 C 
ATOM     16  C24 <0> d   1      18.487   1.230   9.132  0.00  0.00     0.148 C 
ATOM     17  C27 <0> d   1      17.367   1.444  10.124  0.00  0.00     0.037 C 
ATOM     18  C28 <0> d   1      16.903   0.123  10.736  0.00  0.00     0.043 C 
ATOM     19  C29 <0> d   1      18.125  -0.487  11.536  0.00  0.00     0.101 C 
ENDROOT
BRANCH   7  20
ATOM     20  C11 <0> d   1      19.256  -1.284  13.978  0.00  0.00     0.240 C 
BRANCH  20  21
ATOM     21  C12 <0> d   1      18.402  -1.493  15.230  0.00  0.00     0.011 C 
ATOM     22  C15 <0> d   1      17.675  -0.223  15.700  0.00  0.00     0.006 C 
ATOM     23  C14 <0> d   1      18.012  -0.656  17.137  0.00  0.00     0.001 C 
ATOM     24  C13 <0> d   1      19.203  -1.426  16.541  0.00  0.00     0.006 C 
ENDBRANCH  20  21
ENDBRANCH   7  20
BRANCH  19  25
ATOM     25  O30 <0> d   1      18.539   0.438  12.543  0.00  0.00    -0.386 OA
ATOM     26  H54 <0> d   1      17.854   0.644  13.193  0.00  0.00     0.210 HD
ENDBRANCH  19  25
BRANCH  16  27
ATOM     27  O26 <0> d   1      17.937   0.610   7.968  0.00  0.00    -0.393 OA
ATOM     28  H49 <0> d   1      17.867   1.199   7.204  0.00  0.00     0.210 HD
ENDBRANCH  16  27
BRANCH   1  29
ATOM     29  O1  <0> d   1      19.709  -2.259   6.132  0.00  0.00    -0.358 OA
ATOM     30  H31 <0> d   1      19.794  -3.073   5.619  0.00  0.00     0.217 HD
ENDBRANCH   1  29
TORSDOF 5
ENDMDL
MODEL 5
REMARK VINA RESULT:      -7.9      1.677      2.036
REMARK  5 active torsions:
REMARK  status: ('A' for Active; 'I' for Inactive)
REMARK    1  A    between atoms: O1_1  and  C2_2 
REMARK    2  A    between atoms: N9_8  and  C11_10 
REMARK    3  A    between atoms: C11_10  and  C12_11 
REMARK    4  A    between atoms: C24_22  and  O26_23 
REMARK    5  A    between atoms: C29_26  and  O30_27 
ROOT
ATOM      1  C2  <0> d   1      19.605   3.379  11.840  0.00  0.00     0.099 A 
ATOM      2  C3  <0> d   1      18.512   3.808  11.092  0.00  0.00     0.040 A 
ATOM      3  C4  <0> d   1      17.699   2.948  10.373  0.00  0.00     0.011 A 
ATOM      4  C5  <0> d   1      17.961   1.589  10.359  0.00  0.00    -0.046 A 
ATOM      5  C6  <0> d   1      17.095   0.559   9.709  0.00  0.00     0.075 C 
ATOM      6  C7  <0> d   1      17.656  -0.849   9.814  0.00  0.00     0.227 C 
ATOM      7  N9  <0> d   1      18.540  -1.138   8.677  0.00  0.00    -0.063 N 
ATOM      8  H10 <0> d   1      18.036  -0.979   7.818  0.00  0.00     0.280 HD
ATOM      9  C16 <0> d   1      19.729  -0.281   8.701  0.00  0.00     0.236 C 
ATOM     10  C17 <0> d   1      20.532  -0.517   9.988  0.00  0.00     0.048 C 
ATOM     11  C18 <0> d   1      19.612  -0.221  11.175  0.00  0.00     0.054 C 
ATOM     12  C19 <0> d   1      19.084   1.188  11.044  0.00  0.00    -0.001 A 
ATOM     13  C20 <0> d   1      19.890   2.008  11.819  0.00  0.00     0.110 A 
ATOM     14  O21 <0> d   1      20.822   1.271  12.464  0.00  0.00    -0.339 OA
ATOM     15  C22 <0> d   1      20.371  -0.124  12.486  0.00  0.00     0.174 C 
ATOM     16  C24 <0> d   1      19.527  -0.284  13.735  0.00  0.00     0.148 C 
ATOM     17  C27 <0> d   1      18.348  -1.221  13.611  0.00  0.00     0.037 C 
ATOM     18  C28 <0> d   1      17.508  -0.901  12.374  0.00  0.00     0.043 C 
ATOM     19  C29 <0> d   1      18.423  -1.132  11.104  0.00  0.00     0.101 C 
ENDROOT
BRANCH   7  20
ATOM     20  C11 <0> d   1      18.959  -2.544   8.738  0.00  0.00     0.240 C 
BRANCH  20  21
ATOM     21  C12 <0> d   1      18.599  -3.240   7.424  0.00  0.00     0.011 C 
ATOM     22  C15 <0> d   1      19.816  -3.801   6.670  0.00  0.00     0.006 C 
ATOM     23  C14 <0> d   1      19.142  -3.313   5.377  0.00  0.00     0.001 C 
ATOM     24  C13 <0> d   1      18.413  -2.272   6.243  0.00  0.00     0.006 C 
ENDBRANCH  20  21
ENDBRANCH   7  20
BRANCH  19  25
ATOM     25  O30 <0> d   1      18.879  -2.486  11.089  0.00  0.00    -0.386 OA
ATOM     26  H54 <0> d   1      18.787  -2.923  10.231  0.00  0.00     0.210 HD
ENDBRANCH  19  25
BRANCH  16  27
ATOM     27  O26 <0> d   1      19.034   1.003  14.110  0.00  0.00    -0.393 OA
ATOM     28  H49 <0> d   1      19.386   1.730  13.578  0.00  0.00     0.210 HD
ENDBRANCH  16  27
BRANCH   1  29
ATOM     29  O1  <0> d   1      20.365   4.251  12.554  0.00  0.00    -0.358 OA
ATOM     30  H31 <0> d   1      20.862   4.876  12.010  0.00  0.00     0.217 HD
ENDBRANCH   1  29
TORSDOF 5
ENDMDL
MODEL 6
REMARK VINA RESULT:      -7.8      2.681      6.274
REMARK  5 active torsions:
REMARK  status: ('A' for Active; 'I' for Inactive)
REMARK    1  A    between atoms: O1_1  and  C2_2 
REMARK    2  A    between atoms: N9_8  and  C11_10 
REMARK    3  A    between atoms: C11_10  and  C12_11 
REMARK    4  A    between atoms: C24_22  and  O26_23 
REMARK    5  A    between atoms: C29_26  and  O30_27 
ROOT
ATOM      1  C2  <0> d   1      19.906  -2.675  11.715  0.00  0.00     0.099 A 
ATOM      2  C3  <0> d   1      18.785  -2.898  12.511  0.00  0.00     0.040 A 
ATOM      3  C4  <0> d   1      17.798  -1.948  12.716  0.00  0.00     0.011 A 
ATOM      4  C5  <0> d   1      17.900  -0.699  12.130  0.00  0.00    -0.046 A 
ATOM      5  C6  <0> d   1      16.850   0.363  12.194  0.00  0.00     0.075 C 
ATOM      6  C7  <0> d   1      17.255   1.651  11.498  0.00  0.00     0.227 C 
ATOM      7  N9  <0> d   1      17.956   2.543  12.432  0.00  0.00    -0.063 N 
ATOM      8  H10 <0> d   1      17.372   2.699  13.239  0.00  0.00     0.280 HD
ATOM      9  C16 <0> d   1      19.228   1.960  12.866  0.00  0.00     0.236 C 
ATOM     10  C17 <0> d   1      20.150   1.730  11.661  0.00  0.00     0.048 C 
ATOM     11  C18 <0> d   1      19.422   0.804  10.684  0.00  0.00     0.054 C 
ATOM     12  C19 <0> d   1      19.046  -0.468  11.406  0.00  0.00    -0.001 A 
ATOM     13  C20 <0> d   1      20.029  -1.408  11.132  0.00  0.00     0.110 A 
ATOM     14  O21 <0> d   1      20.943  -0.892  10.280  0.00  0.00    -0.339 OA
ATOM     15  C22 <0> d   1      20.342   0.263   9.604  0.00  0.00     0.174 C 
ATOM     16  C24 <0> d   1      19.645  -0.274   8.371  0.00  0.00     0.148 C 
ATOM     17  C27 <0> d   1      18.360   0.424   7.990  0.00  0.00     0.037 C 
ATOM     18  C28 <0> d   1      17.417   0.552   9.185  0.00  0.00     0.043 C 
ATOM     19  C29 <0> d   1      18.138   1.456  10.266  0.00  0.00     0.101 C 
ENDROOT
BRANCH   7  20
ATOM     20  C11 <0> d   1      18.216   3.826  11.768  0.00  0.00     0.240 C 
BRANCH  20  21
ATOM     21  C12 <0> d   1      17.780   4.971  12.684  0.00  0.00     0.011 C 
ATOM     22  C15 <0> d   1      17.339   4.509  14.082  0.00  0.00     0.006 C 
ATOM     23  C14 <0> d   1      16.216   5.556  13.988  0.00  0.00     0.001 C 
ATOM     24  C13 <0> d   1      16.327   5.422  12.460  0.00  0.00     0.006 C 
ENDBRANCH  20  21
ENDBRANCH   7  20
BRANCH  19  25
ATOM     25  O30 <0> d   1      18.432   2.732   9.696  0.00  0.00    -0.386 OA
ATOM     26  H54 <0> d   1      19.100   2.706   8.997  0.00  0.00     0.210 HD
ENDBRANCH  19  25
BRANCH  16  27
ATOM     27  O26 <0> d   1      19.350  -1.656   8.588  0.00  0.00    -0.393 OA
ATOM     28  H49 <0> d   1      20.105  -2.175   8.900  0.00  0.00     0.210 HD
ENDBRANCH  16  27
BRANCH   1  29
ATOM     29  O1  <0> d   1      20.841  -3.641  11.517  0.00  0.00    -0.358 OA
ATOM     30  H31 <0> d   1      20.534  -4.534  11.724  0.00  0.00     0.217 HD
ENDBRANCH   1  29
TORSDOF 5
ENDMDL
MODEL 7
REMARK VINA RESULT:      -7.7      2.687      6.500
REMARK  5 active torsions:
REMARK  status: ('A' for Active; 'I' for Inactive)
REMARK    1  A    between atoms: O1_1  and  C2_2 
REMARK    2  A    between atoms: N9_8  and  C11_10 
REMARK    3  A    between atoms: C11_10  and  C12_11 
REMARK    4  A    between atoms: C24_22  and  O26_23 
REMARK    5  A    between atoms: C29_26  and  O30_27 
ROOT
ATOM      1  C2  <0> d   1      18.773  -4.258   9.561  0.00  0.00     0.099 A 
ATOM      2  C3  <0> d   1      17.897  -4.230  10.643  0.00  0.00     0.040 A 
ATOM      3  C4  <0> d   1      17.367  -3.060  11.162  0.00  0.00     0.011 A 
ATOM      4  C5  <0> d   1      17.713  -1.836  10.615  0.00  0.00    -0.046 A 
ATOM      5  C6  <0> d   1      17.125  -0.523  11.020  0.00  0.00     0.075 C 
ATOM      6  C7  <0> d   1      17.729   0.658  10.280  0.00  0.00     0.227 C 
ATOM      7  N9  <0> d   1      18.905   1.169  10.998  0.00  0.00    -0.063 N 
ATOM      8  H10 <0> d   1      18.642   1.392  11.946  0.00  0.00     0.280 HD
ATOM      9  C16 <0> d   1      19.983   0.177  11.019  0.00  0.00     0.236 C 
ATOM     10  C17 <0> d   1      20.422  -0.166   9.589  0.00  0.00     0.048 C 
ATOM     11  C18 <0> d   1      19.199  -0.695   8.838  0.00  0.00     0.054 C 
ATOM     12  C19 <0> d   1      18.634  -1.874   9.594  0.00  0.00    -0.001 A 
ATOM     13  C20 <0> d   1      19.144  -3.025   9.012  0.00  0.00     0.110 A 
ATOM     14  O21 <0> d   1      19.914  -2.707   7.947  0.00  0.00    -0.339 OA
ATOM     15  C22 <0> d   1      19.567  -1.348   7.518  0.00  0.00     0.174 C 
ATOM     16  C24 <0> d   1      18.430  -1.487   6.526  0.00  0.00     0.148 C 
ATOM     17  C27 <0> d   1      17.392  -0.389   6.563  0.00  0.00     0.037 C 
ATOM     18  C28 <0> d   1      16.898  -0.134   7.986  0.00  0.00     0.043 C 
ATOM     19  C29 <0> d   1      18.136   0.363   8.838  0.00  0.00     0.101 C 
ENDROOT
BRANCH   7  20
ATOM     20  C11 <0> d   1      19.384   2.387  10.331  0.00  0.00     0.240 C 
BRANCH  20  21
ATOM     21  C12 <0> d   1      18.866   3.616  11.081  0.00  0.00     0.011 C 
ATOM     22  C15 <0> d   1      17.885   3.278  12.216  0.00  0.00     0.006 C 
ATOM     23  C14 <0> d   1      17.075   4.509  11.776  0.00  0.00     0.001 C 
ATOM     24  C13 <0> d   1      17.691   4.318  10.380  0.00  0.00     0.006 C 
ENDBRANCH  20  21
ENDBRANCH   7  20
BRANCH  19  25
ATOM     25  O30 <0> d   1      18.668   1.551   8.251  0.00  0.00    -0.386 OA
ATOM     26  H54 <0> d   1      18.462   2.359   8.741  0.00  0.00     0.210 HD
ENDBRANCH  19  25
BRANCH  16  27
ATOM     27  O26 <0> d   1      17.769  -2.730   6.772  0.00  0.00    -0.393 OA
ATOM     28  H49 <0> d   1      17.852  -3.046   7.683  0.00  0.00     0.210 HD
ENDBRANCH  16  27
BRANCH   1  29
ATOM     29  O1  <0> d   1      19.252  -5.430   9.065  0.00  0.00    -0.358 OA
ATOM     30  H31 <0> d   1      18.592  -5.959   8.599  0.00  0.00     0.217 HD
ENDBRANCH   1  29
TORSDOF 5
ENDMDL
MODEL 8
REMARK VINA RESULT:      -7.5      2.851      6.052
REMARK  5 active torsions:
REMARK  status: ('A' for Active; 'I' for Inactive)
REMARK    1  A    between atoms: O1_1  and  C2_2 
REMARK    2  A    between atoms: N9_8  and  C11_10 
REMARK    3  A    between atoms: C11_10  and  C12_11 
REMARK    4  A    between atoms: C24_22  and  O26_23 
REMARK    5  A    between atoms: C29_26  and  O30_27 
ROOT
ATOM      1  C2  <0> d   1      17.794  -0.172   7.106  0.00  0.00     0.099 A 
ATOM      2  C3  <0> d   1      18.537   0.921   6.667  0.00  0.00     0.040 A 
ATOM      3  C4  <0> d   1      19.237   1.757   7.521  0.00  0.00     0.011 A 
ATOM      4  C5  <0> d   1      19.210   1.538   8.888  0.00  0.00    -0.046 A 
ATOM      5  C6  <0> d   1      20.007   2.306   9.892  0.00  0.00     0.075 C 
ATOM      6  C7  <0> d   1      19.740   1.877  11.324  0.00  0.00     0.227 C 
ATOM      7  N9  <0> d   1      18.624   2.646  11.893  0.00  0.00    -0.063 N 
ATOM      8  H10 <0> d   1      18.825   3.630  11.808  0.00  0.00     0.280 HD
ATOM      9  C16 <0> d   1      17.369   2.350  11.196  0.00  0.00     0.236 C 
ATOM     10  C17 <0> d   1      17.024   0.860  11.326  0.00  0.00     0.048 C 
ATOM     11  C18 <0> d   1      18.186   0.057  10.738  0.00  0.00     0.054 C 
ATOM     12  C19 <0> d   1      18.414   0.500   9.313  0.00  0.00    -0.001 A 
ATOM     13  C20 <0> d   1      17.744  -0.391   8.488  0.00  0.00     0.110 A 
ATOM     14  O21 <0> d   1      17.172  -1.370   9.225  0.00  0.00    -0.339 OA
ATOM     15  C22 <0> d   1      17.834  -1.406  10.534  0.00  0.00     0.174 C 
ATOM     16  C24 <0> d   1      19.017  -2.342  10.393  0.00  0.00     0.148 C 
ATOM     17  C27 <0> d   1      20.248  -1.964  11.185  0.00  0.00     0.037 C 
ATOM     18  C28 <0> d   1      20.630  -0.501  10.960  0.00  0.00     0.043 C 
ATOM     19  C29 <0> d   1      19.436   0.390  11.496  0.00  0.00     0.101 C 
ENDROOT
BRANCH   7  20
ATOM     20  C11 <0> d   1      18.478   2.303  13.313  0.00  0.00     0.240 C 
BRANCH  20  21
ATOM     21  C12 <0> d   1      18.652   3.564  14.162  0.00  0.00     0.011 C 
ATOM     22  C15 <0> d   1      17.377   4.417  14.266  0.00  0.00     0.006 C 
ATOM     23  C14 <0> d   1      18.286   5.651  14.135  0.00  0.00     0.001 C 
ATOM     24  C13 <0> d   1      19.283   4.741  13.398  0.00  0.00     0.006 C 
ENDBRANCH  20  21
ENDBRANCH   7  20
BRANCH  19  25
ATOM     25  O30 <0> d   1      19.225   0.114  12.881  0.00  0.00    -0.386 OA
ATOM     26  H54 <0> d   1      18.521  -0.528  13.052  0.00  0.00     0.210 HD
ENDBRANCH  19  25
BRANCH  16  27
ATOM     27  O26 <0> d   1      19.380  -2.402   9.012  0.00  0.00    -0.393 OA
ATOM     28  H49 <0> d   1      19.797  -1.595   8.679  0.00  0.00     0.210 HD
ENDBRANCH  16  27
BRANCH   1  29
ATOM     29  O1  <0> d   1      17.140  -0.984   6.233  0.00  0.00    -0.358 OA
ATOM     30  H31 <0> d   1      17.244  -1.926   6.420  0.00  0.00     0.217 HD
ENDBRANCH   1  29
TORSDOF 5
ENDMDL
MODEL 9
REMARK VINA RESULT:      -7.5      2.479      6.042
REMARK  5 active torsions:
REMARK  status: ('A' for Active; 'I' for Inactive)
REMARK    1  A    between atoms: O1_1  and  C2_2 
REMARK    2  A    between atoms: N9_8  and  C11_10 
REMARK    3  A    between atoms: C11_10  and  C12_11 
REMARK    4  A    between atoms: C24_22  and  O26_23 
REMARK    5  A    between atoms: C29_26  and  O30_27 
ROOT
ATOM      1  C2  <0> d   1      19.049  -2.250   9.472  0.00  0.00     0.099 A 
ATOM      2  C3  <0> d   1      18.007  -2.903  10.126  0.00  0.00     0.040 A 
ATOM      3  C4  <0> d   1      17.377  -2.394  11.249  0.00  0.00     0.011 A 
ATOM      4  C5  <0> d   1      17.784  -1.186  11.789  0.00  0.00    -0.046 A 
ATOM      5  C6  <0> d   1      17.112  -0.491  12.930  0.00  0.00     0.075 C 
ATOM      6  C7  <0> d   1      17.805   0.797  13.339  0.00  0.00     0.227 C 
ATOM      7  N9  <0> d   1      18.838   0.527  14.349  0.00  0.00    -0.063 N 
ATOM      8  H10 <0> d   1      18.419   0.041  15.127  0.00  0.00     0.280 HD
ATOM      9  C16 <0> d   1      19.918  -0.295  13.795  0.00  0.00     0.236 C 
ATOM     10  C17 <0> d   1      20.591   0.429  12.621  0.00  0.00     0.048 C 
ATOM     11  C18 <0> d   1      19.518   0.714  11.569  0.00  0.00     0.054 C 
ATOM     12  C19 <0> d   1      18.860  -0.587  11.177  0.00  0.00    -0.001 A 
ATOM     13  C20 <0> d   1      19.481  -1.036  10.021  0.00  0.00     0.110 A 
ATOM     14  O21 <0> d   1      20.409  -0.142   9.612  0.00  0.00    -0.339 OA
ATOM     15  C22 <0> d   1      20.110   1.150  10.241  0.00  0.00     0.174 C 
ATOM     16  C24 <0> d   1      19.154   1.870   9.311  0.00  0.00     0.148 C 
ATOM     17  C27 <0> d   1      18.103   2.721   9.987  0.00  0.00     0.037 C 
ATOM     18  C28 <0> d   1      17.377   1.946  11.086  0.00  0.00     0.043 C 
ATOM     19  C29 <0> d   1      18.449   1.565  12.187  0.00  0.00     0.101 C 
ENDROOT
BRANCH   7  20
ATOM     20  C11 <0> d   1      19.396   1.801  14.819  0.00  0.00     0.240 C 
BRANCH  20  21
ATOM     21  C12 <0> d   1      18.752   2.177  16.155  0.00  0.00     0.011 C 
ATOM     22  C15 <0> d   1      19.511   3.276  16.917  0.00  0.00     0.006 C 
ATOM     23  C14 <0> d   1      19.219   2.479  18.200  0.00  0.00     0.001 C 
ATOM     24  C13 <0> d   1      19.125   1.230  17.308  0.00  0.00     0.006 C 
ENDBRANCH  20  21
ENDBRANCH   7  20
BRANCH  19  25
ATOM     25  O30 <0> d   1      19.047   2.758  12.698  0.00  0.00    -0.386 OA
ATOM     26  H54 <0> d   1      18.417   3.373  13.099  0.00  0.00     0.210 HD
ENDBRANCH  19  25
BRANCH  16  27
ATOM     27  O26 <0> d   1      18.486   0.893   8.510  0.00  0.00    -0.393 OA
ATOM     28  H49 <0> d   1      17.850   0.352   8.999  0.00  0.00     0.210 HD
ENDBRANCH  16  27
BRANCH   1  29
ATOM     29  O1  <0> d   1      19.626  -2.770   8.356  0.00  0.00    -0.358 OA
ATOM     30  H31 <0> d   1      19.072  -3.410   7.889  0.00  0.00     0.217 HD
ENDBRANCH   1  29
TORSDOF 5
ENDMDL
