MODEL 1
REMARK VINA RESULT:      -7.1      0.000      0.000
REMARK  5 active torsions:
REMARK  status: ('A' for Active; 'I' for Inactive)
REMARK    1  A    between atoms: N2_2  and  C5_5 
REMARK    2  A    between atoms: C5_5  and  C6_6 
REMARK    3  A    between atoms: C6_6  and  C7_7 
REMARK    4  A    between atoms: C13_13  and  C14_14 
REMARK    5  A    between atoms: C14_14  and  C15_15 
ROOT
ATOM      1  C7  ZIN A   1      17.656   0.049  12.140  0.00  0.00    -0.029 A 
ATOM      2  C8  ZIN A   1      17.550   0.888  13.183  0.00  0.00     0.096 A 
ATOM      3  N9  ZIN A   1      17.844   2.164  12.788  0.00  0.00    -0.365 N 
ATOM      4  C10 ZIN A   1      18.155   2.178  11.446  0.00  0.00     0.043 A 
ATOM      5  C11 ZIN A   1      18.519   3.185  10.559  0.00  0.00     0.031 A 
ATOM      6  C12 ZIN A   1      18.772   2.875   9.240  0.00  0.00     0.009 A 
ATOM      7  C13 ZIN A   1      18.668   1.568   8.787  0.00  0.00    -0.055 A 
ATOM      8  C22 ZIN A   1      18.311   0.564   9.642  0.00  0.00     0.021 A 
ATOM      9  C23 ZIN A   1      18.056   0.854  10.983  0.00  0.00    -0.001 A 
ATOM     10  H35 ZIN A   1      17.836   2.943  13.366  0.00  0.00     0.165 HD
ENDROOT
BRANCH   7  11
ATOM     11  C14 ZIN A   1      18.949   1.254   7.340  0.00  0.00     0.066 C 
BRANCH  11  12
ATOM     12  C15 ZIN A   1      18.417  -0.142   7.009  0.00  0.00     0.115 A 
ATOM     13  N21 ZIN A   1      19.438  -0.931   6.302  0.00  0.00    -0.330 N 
ATOM     14  C19 ZIN A   1      18.968  -1.252   5.085  0.00  0.00     0.361 A 
ATOM     15  H42 ZIN A   1      20.308  -1.175   6.653  0.00  0.00     0.165 HD
ATOM     16  O18 ZIN A   1      17.736  -0.791   4.842  0.00  0.00    -0.302 OA
ATOM     17  O20 ZIN A   1      19.605  -1.902   4.280  0.00  0.00    -0.239 OA
ATOM     18  C17 ZIN A   1      17.255  -0.053   6.002  0.00  0.00     0.206 A 
ENDBRANCH  11  12
ENDBRANCH   7  11
BRANCH   1  19
ATOM     19  C6  ZIN A   1      17.414  -1.438  12.158  0.00  0.00     0.068 C 
BRANCH  19  20
ATOM     20  C5  ZIN A   1      18.747  -2.170  12.324  0.00  0.00     0.238 C 
BRANCH  20  21
ATOM     21  N2  ZIN A   1      18.704  -3.440  11.587  0.00  0.00    -0.079 N 
ATOM     22  C1  ZIN A   1      18.122  -3.215  10.258  0.00  0.00     0.269 C 
ATOM     23  H3  ZIN A   1      18.139  -4.104  12.095  0.00  0.00     0.278 HD
ATOM     24  C4  ZIN A   1      20.068  -3.968  11.442  0.00  0.00     0.269 C 
ENDBRANCH  20  21
ENDBRANCH  19  20
ENDBRANCH   1  19
TORSDOF 5
ENDMDL
MODEL 2
REMARK VINA RESULT:      -7.0      5.492      8.601
REMARK  5 active torsions:
REMARK  status: ('A' for Active; 'I' for Inactive)
REMARK    1  A    between atoms: N2_2  and  C5_5 
REMARK    2  A    between atoms: C5_5  and  C6_6 
REMARK    3  A    between atoms: C6_6  and  C7_7 
REMARK    4  A    between atoms: C13_13  and  C14_14 
REMARK    5  A    between atoms: C14_14  and  C15_15 
ROOT
ATOM      1  C7  ZIN A   1      18.670   1.195  12.387  0.00  0.00    -0.029 A 
ATOM      2  C8  ZIN A   1      19.712   0.662  11.728  0.00  0.00     0.096 A 
ATOM      3  N9  ZIN A   1      20.258  -0.354  12.465  0.00  0.00    -0.365 N 
ATOM      4  C10 ZIN A   1      19.565  -0.502  13.645  0.00  0.00     0.043 A 
ATOM      5  C11 ZIN A   1      19.694  -1.362  14.730  0.00  0.00     0.031 A 
ATOM      6  C12 ZIN A   1      18.821  -1.261  15.791  0.00  0.00     0.009 A 
ATOM      7  C13 ZIN A   1      17.811  -0.309  15.789  0.00  0.00    -0.055 A 
ATOM      8  C22 ZIN A   1      17.665   0.546  14.732  0.00  0.00     0.021 A 
ATOM      9  C23 ZIN A   1      18.543   0.466  13.650  0.00  0.00    -0.001 A 
ATOM     10  H35 ZIN A   1      21.021  -0.889  12.196  0.00  0.00     0.165 HD
ENDROOT
BRANCH   7  11
ATOM     11  C14 ZIN A   1      16.867  -0.217  16.961  0.00  0.00     0.066 C 
BRANCH  11  12
ATOM     12  C15 ZIN A   1      17.482   0.675  18.041  0.00  0.00     0.115 A 
ATOM     13  N21 ZIN A   1      17.922   1.955  17.465  0.00  0.00    -0.330 N 
ATOM     14  C19 ZIN A   1      19.250   2.070  17.633  0.00  0.00     0.361 A 
ATOM     15  H42 ZIN A   1      17.350   2.607  17.033  0.00  0.00     0.165 HD
ATOM     16  O18 ZIN A   1      19.808   1.029  18.261  0.00  0.00    -0.302 OA
ATOM     17  O20 ZIN A   1      19.885   3.032  17.250  0.00  0.00    -0.239 OA
ATOM     18  C17 ZIN A   1      18.780   0.048  18.585  0.00  0.00     0.206 A 
ENDBRANCH  11  12
ENDBRANCH   7  11
BRANCH   1  19
ATOM     19  C6  ZIN A   1      17.800   2.333  11.917  0.00  0.00     0.068 C 
BRANCH  19  20
ATOM     20  C5  ZIN A   1      18.667   3.385  11.223  0.00  0.00     0.238 C 
BRANCH  20  21
ATOM     21  N2  ZIN A   1      18.355   4.713  11.765  0.00  0.00    -0.079 N 
ATOM     22  C1  ZIN A   1      16.897   4.870  11.869  0.00  0.00     0.269 C 
ATOM     23  H3  ZIN A   1      18.727   5.423  11.152  0.00  0.00     0.278 HD
ATOM     24  C4  ZIN A   1      18.958   4.853  13.098  0.00  0.00     0.269 C 
ENDBRANCH  20  21
ENDBRANCH  19  20
ENDBRANCH   1  19
TORSDOF 5
ENDMDL
MODEL 3
REMARK VINA RESULT:      -6.9      1.703      2.281
REMARK  5 active torsions:
REMARK  status: ('A' for Active; 'I' for Inactive)
REMARK    1  A    between atoms: N2_2  and  C5_5 
REMARK    2  A    between atoms: C5_5  and  C6_6 
REMARK    3  A    between atoms: C6_6  and  C7_7 
REMARK    4  A    between atoms: C13_13  and  C14_14 
REMARK    5  A    between atoms: C14_14  and  C15_15 
ROOT
ATOM      1  C7  ZIN A   1      18.352  -0.636  10.865  0.00  0.00    -0.029 A 
ATOM      2  C8  ZIN A   1      19.401  -0.053  11.467  0.00  0.00     0.096 A 
ATOM      3  N9  ZIN A   1      20.053   0.763  10.582  0.00  0.00    -0.365 N 
ATOM      4  C10 ZIN A   1      19.423   0.723   9.358  0.00  0.00     0.043 A 
ATOM      5  C11 ZIN A   1      19.661   1.347   8.139  0.00  0.00     0.031 A 
ATOM      6  C12 ZIN A   1      18.829   1.099   7.069  0.00  0.00     0.009 A 
ATOM      7  C13 ZIN A   1      17.752   0.233   7.195  0.00  0.00    -0.055 A 
ATOM      8  C22 ZIN A   1      17.499  -0.390   8.386  0.00  0.00     0.021 A 
ATOM      9  C23 ZIN A   1      18.333  -0.158   9.480  0.00  0.00    -0.001 A 
ATOM     10  H35 ZIN A   1      20.841   1.289  10.787  0.00  0.00     0.165 HD
ENDROOT
BRANCH   7  11
ATOM     11  C14 ZIN A   1      16.855  -0.023   6.011  0.00  0.00     0.066 C 
BRANCH  11  12
ATOM     12  C15 ZIN A   1      17.480  -1.100   5.123  0.00  0.00     0.115 A 
ATOM     13  N21 ZIN A   1      18.036  -2.188   5.942  0.00  0.00    -0.330 N 
ATOM     14  C19 ZIN A   1      19.360  -2.260   5.722  0.00  0.00     0.361 A 
ATOM     15  H42 ZIN A   1      17.533  -2.757   6.544  0.00  0.00     0.165 HD
ATOM     16  O18 ZIN A   1      19.813  -1.358   4.844  0.00  0.00    -0.302 OA
ATOM     17  O20 ZIN A   1      20.078  -3.071   6.271  0.00  0.00    -0.239 OA
ATOM     18  C17 ZIN A   1      18.704  -0.539   4.373  0.00  0.00     0.206 A 
ENDBRANCH  11  12
ENDBRANCH   7  11
BRANCH   1  19
ATOM     19  C6  ZIN A   1      17.380  -1.602  11.493  0.00  0.00     0.068 C 
BRANCH  19  20
ATOM     20  C5  ZIN A   1      18.094  -2.922  11.791  0.00  0.00     0.238 C 
BRANCH  20  21
ATOM     21  N2  ZIN A   1      18.638  -3.478  10.545  0.00  0.00    -0.079 N 
ATOM     22  C1  ZIN A   1      19.768  -4.364  10.856  0.00  0.00     0.269 C 
ATOM     23  H3  ZIN A   1      18.953  -2.726   9.951  0.00  0.00     0.278 HD
ATOM     24  C4  ZIN A   1      17.592  -4.243   9.852  0.00  0.00     0.269 C 
ENDBRANCH  20  21
ENDBRANCH  19  20
ENDBRANCH   1  19
TORSDOF 5
ENDMDL
MODEL 4
REMARK VINA RESULT:      -6.9      4.734      7.869
REMARK  5 active torsions:
REMARK  status: ('A' for Active; 'I' for Inactive)
REMARK    1  A    between atoms: N2_2  and  C5_5 
REMARK    2  A    between atoms: C5_5  and  C6_6 
REMARK    3  A    between atoms: C6_6  and  C7_7 
REMARK    4  A    between atoms: C13_13  and  C14_14 
REMARK    5  A    between atoms: C14_14  and  C15_15 
ROOT
ATOM      1  C7  ZIN A   1      17.703   1.105  10.539  0.00  0.00    -0.029 A 
ATOM      2  C8  ZIN A   1      17.547   0.544   9.329  0.00  0.00     0.096 A 
ATOM      3  N9  ZIN A   1      17.662  -0.816   9.427  0.00  0.00    -0.365 N 
ATOM      4  C10 ZIN A   1      17.901  -1.173  10.736  0.00  0.00     0.043 A 
ATOM      5  C11 ZIN A   1      18.093  -2.392  11.376  0.00  0.00     0.031 A 
ATOM      6  C12 ZIN A   1      18.316  -2.423  12.735  0.00  0.00     0.009 A 
ATOM      7  C13 ZIN A   1      18.350  -1.250  13.474  0.00  0.00    -0.055 A 
ATOM      8  C22 ZIN A   1      18.163  -0.040  12.865  0.00  0.00     0.021 A 
ATOM      9  C23 ZIN A   1      17.943   0.015  11.488  0.00  0.00    -0.001 A 
ATOM     10  H35 ZIN A   1      17.586  -1.436   8.686  0.00  0.00     0.165 HD
ENDROOT
BRANCH   7  11
ATOM     11  C14 ZIN A   1      18.595  -1.309  14.961  0.00  0.00     0.066 C 
BRANCH  11  12
ATOM     12  C15 ZIN A   1      18.100  -0.015  15.610  0.00  0.00     0.115 A 
ATOM     13  N21 ZIN A   1      19.214   0.701  16.251  0.00  0.00    -0.330 N 
ATOM     14  C19 ZIN A   1      18.965   0.795  17.568  0.00  0.00     0.361 A 
ATOM     15  H42 ZIN A   1      20.000   1.045  15.800  0.00  0.00     0.165 HD
ATOM     16  O18 ZIN A   1      17.807   0.237  17.941  0.00  0.00    -0.302 OA
ATOM     17  O20 ZIN A   1      19.721   1.339  18.348  0.00  0.00    -0.239 OA
ATOM     18  C17 ZIN A   1      17.141  -0.327  16.774  0.00  0.00     0.206 A 
ENDBRANCH  11  12
ENDBRANCH   7  11
BRANCH   1  19
ATOM     19  C6  ZIN A   1      17.648   2.577  10.859  0.00  0.00     0.068 C 
BRANCH  19  20
ATOM     20  C5  ZIN A   1      19.056   3.083  11.178  0.00  0.00     0.238 C 
BRANCH  20  21
ATOM     21  N2  ZIN A   1      19.104   3.553  12.569  0.00  0.00    -0.079 N 
ATOM     22  C1  ZIN A   1      19.843   4.821  12.630  0.00  0.00     0.269 C 
ATOM     23  H3  ZIN A   1      19.569   2.864  13.140  0.00  0.00     0.278 HD
ATOM     24  C4  ZIN A   1      17.736   3.758  13.065  0.00  0.00     0.269 C 
ENDBRANCH  20  21
ENDBRANCH  19  20
ENDBRANCH   1  19
TORSDOF 5
ENDMDL
MODEL 5
REMARK VINA RESULT:      -6.8      1.565      2.380
REMARK  5 active torsions:
REMARK  status: ('A' for Active; 'I' for Inactive)
REMARK    1  A    between atoms: N2_2  and  C5_5 
REMARK    2  A    between atoms: C5_5  and  C6_6 
REMARK    3  A    between atoms: C6_6  and  C7_7 
REMARK    4  A    between atoms: C13_13  and  C14_14 
REMARK    5  A    between atoms: C14_14  and  C15_15 
ROOT
ATOM      1  C7  ZIN A   1      17.722   0.676  10.781  0.00  0.00    -0.029 A 
ATOM      2  C8  ZIN A   1      18.425   1.690  11.312  0.00  0.00     0.096 A 
ATOM      3  N9  ZIN A   1      19.095   2.360  10.326  0.00  0.00    -0.365 N 
ATOM      4  C10 ZIN A   1      18.835   1.779   9.105  0.00  0.00     0.043 A 
ATOM      5  C11 ZIN A   1      19.247   2.055   7.806  0.00  0.00     0.031 A 
ATOM      6  C12 ZIN A   1      18.801   1.271   6.765  0.00  0.00     0.009 A 
ATOM      7  C13 ZIN A   1      17.941   0.207   6.998  0.00  0.00    -0.055 A 
ATOM      8  C22 ZIN A   1      17.522  -0.081   8.267  0.00  0.00     0.021 A 
ATOM      9  C23 ZIN A   1      17.968   0.696   9.337  0.00  0.00    -0.001 A 
ATOM     10  H35 ZIN A   1      19.669   3.129  10.466  0.00  0.00     0.165 HD
ENDROOT
BRANCH   7  11
ATOM     11  C14 ZIN A   1      17.464  -0.637   5.844  0.00  0.00     0.066 C 
BRANCH  11  12
ATOM     12  C15 ZIN A   1      18.665  -1.315   5.181  0.00  0.00     0.115 A 
ATOM     13  N21 ZIN A   1      18.241  -2.067   3.989  0.00  0.00    -0.330 N 
ATOM     14  C19 ZIN A   1      18.525  -3.366   4.175  0.00  0.00     0.361 A 
ATOM     15  H42 ZIN A   1      17.822  -1.688   3.201  0.00  0.00     0.165 HD
ATOM     16  O18 ZIN A   1      19.104  -3.631   5.352  0.00  0.00    -0.302 OA
ATOM     17  O20 ZIN A   1      18.281  -4.223   3.348  0.00  0.00    -0.239 OA
ATOM     18  C17 ZIN A   1      19.256  -2.395   6.108  0.00  0.00     0.206 A 
ENDBRANCH  11  12
ENDBRANCH   7  11
BRANCH   1  19
ATOM     19  C6  ZIN A   1      16.850  -0.299  11.529  0.00  0.00     0.068 C 
BRANCH  19  20
ATOM     20  C5  ZIN A   1      17.599  -0.812  12.760  0.00  0.00     0.238 C 
BRANCH  20  21
ATOM     21  N2  ZIN A   1      18.143  -2.148  12.483  0.00  0.00    -0.079 N 
ATOM     22  C1  ZIN A   1      17.391  -2.763  11.381  0.00  0.00     0.269 C 
ATOM     23  H3  ZIN A   1      18.061  -2.722  13.308  0.00  0.00     0.278 HD
ATOM     24  C4  ZIN A   1      19.559  -2.033  12.106  0.00  0.00     0.269 C 
ENDBRANCH  20  21
ENDBRANCH  19  20
ENDBRANCH   1  19
TORSDOF 5
ENDMDL
MODEL 6
REMARK VINA RESULT:      -6.8      2.196      3.094
REMARK  5 active torsions:
REMARK  status: ('A' for Active; 'I' for Inactive)
REMARK    1  A    between atoms: N2_2  and  C5_5 
REMARK    2  A    between atoms: C5_5  and  C6_6 
REMARK    3  A    between atoms: C6_6  and  C7_7 
REMARK    4  A    between atoms: C13_13  and  C14_14 
REMARK    5  A    between atoms: C14_14  and  C15_15 
ROOT
ATOM      1  C7  ZIN A   1      17.667   1.361  11.841  0.00  0.00    -0.029 A 
ATOM      2  C8  ZIN A   1      17.605   2.689  12.028  0.00  0.00     0.096 A 
ATOM      3  N9  ZIN A   1      18.043   3.340  10.907  0.00  0.00    -0.365 N 
ATOM      4  C10 ZIN A   1      18.407   2.423   9.946  0.00  0.00     0.043 A 
ATOM      5  C11 ZIN A   1      18.907   2.538   8.654  0.00  0.00     0.031 A 
ATOM      6  C12 ZIN A   1      19.180   1.403   7.922  0.00  0.00     0.009 A 
ATOM      7  C13 ZIN A   1      18.960   0.144   8.461  0.00  0.00    -0.055 A 
ATOM      8  C22 ZIN A   1      18.469   0.007   9.729  0.00  0.00     0.021 A 
ATOM      9  C23 ZIN A   1      18.192   1.144  10.491  0.00  0.00    -0.001 A 
ATOM     10  H35 ZIN A   1      18.091   4.303  10.805  0.00  0.00     0.165 HD
ENDROOT
BRANCH   7  11
ATOM     11  C14 ZIN A   1      19.266  -1.084   7.641  0.00  0.00     0.066 C 
BRANCH  11  12
ATOM     12  C15 ZIN A   1      18.557  -0.983   6.289  0.00  0.00     0.115 A 
ATOM     13  N21 ZIN A   1      18.123  -2.312   5.832  0.00  0.00    -0.330 N 
ATOM     14  C19 ZIN A   1      18.741  -2.593   4.673  0.00  0.00     0.361 A 
ATOM     15  H42 ZIN A   1      17.497  -2.891   6.292  0.00  0.00     0.165 HD
ATOM     16  O18 ZIN A   1      19.560  -1.624   4.248  0.00  0.00    -0.302 OA
ATOM     17  O20 ZIN A   1      18.571  -3.631   4.067  0.00  0.00    -0.239 OA
ATOM     18  C17 ZIN A   1      19.540  -0.519   5.197  0.00  0.00     0.206 A 
ENDBRANCH  11  12
ENDBRANCH   7  11
BRANCH   1  19
ATOM     19  C6  ZIN A   1      17.274   0.296  12.832  0.00  0.00     0.068 C 
BRANCH  19  20
ATOM     20  C5  ZIN A   1      18.245   0.317  14.014  0.00  0.00     0.238 C 
BRANCH  20  21
ATOM     21  N2  ZIN A   1      17.607   0.978  15.160  0.00  0.00    -0.079 N 
ATOM     22  C1  ZIN A   1      17.332  -0.016  16.207  0.00  0.00     0.269 C 
ATOM     23  H3  ZIN A   1      16.742   1.404  14.864  0.00  0.00     0.278 HD
ATOM     24  C4  ZIN A   1      18.505   2.013  15.691  0.00  0.00     0.269 C 
ENDBRANCH  20  21
ENDBRANCH  19  20
ENDBRANCH   1  19
TORSDOF 5
ENDMDL
MODEL 7
REMARK VINA RESULT:      -6.8      3.049      5.540
REMARK  5 active torsions:
REMARK  status: ('A' for Active; 'I' for Inactive)
REMARK    1  A    between atoms: N2_2  and  C5_5 
REMARK    2  A    between atoms: C5_5  and  C6_6 
REMARK    3  A    between atoms: C6_6  and  C7_7 
REMARK    4  A    between atoms: C13_13  and  C14_14 
REMARK    5  A    between atoms: C14_14  and  C15_15 
ROOT
ATOM      1  C7  ZIN A   1      19.061  -2.872   7.698  0.00  0.00    -0.029 A 
ATOM      2  C8  ZIN A   1      19.009  -3.457   6.491  0.00  0.00     0.096 A 
ATOM      3  N9  ZIN A   1      18.988  -2.504   5.510  0.00  0.00    -0.365 N 
ATOM      4  C10 ZIN A   1      19.026  -1.249   6.076  0.00  0.00     0.043 A 
ATOM      5  C11 ZIN A   1      19.027   0.038   5.551  0.00  0.00     0.031 A 
ATOM      6  C12 ZIN A   1      19.073   1.123   6.399  0.00  0.00     0.009 A 
ATOM      7  C13 ZIN A   1      19.121   0.945   7.774  0.00  0.00    -0.055 A 
ATOM      8  C22 ZIN A   1      19.122  -0.312   8.312  0.00  0.00     0.021 A 
ATOM      9  C23 ZIN A   1      19.068  -1.424   7.471  0.00  0.00    -0.001 A 
ATOM     10  H35 ZIN A   1      18.950  -2.684   4.558  0.00  0.00     0.165 HD
ENDROOT
BRANCH   7  11
ATOM     11  C14 ZIN A   1      19.172   2.147   8.683  0.00  0.00     0.066 C 
BRANCH  11  12
ATOM     12  C15 ZIN A   1      18.668   1.756  10.073  0.00  0.00     0.115 A 
ATOM     13  N21 ZIN A   1      17.466   2.528  10.424  0.00  0.00    -0.330 N 
ATOM     14  C19 ZIN A   1      17.729   3.263  11.517  0.00  0.00     0.361 A 
ATOM     15  H42 ZIN A   1      16.624   2.512   9.944  0.00  0.00     0.165 HD
ATOM     16  O18 ZIN A   1      18.970   3.105  11.990  0.00  0.00    -0.302 OA
ATOM     17  O20 ZIN A   1      16.912   4.002  12.030  0.00  0.00    -0.239 OA
ATOM     18  C17 ZIN A   1      19.693   2.157  11.152  0.00  0.00     0.206 A 
ENDBRANCH  11  12
ENDBRANCH   7  11
BRANCH   1  19
ATOM     19  C6  ZIN A   1      19.099  -3.570   9.033  0.00  0.00     0.068 C 
BRANCH  19  20
ATOM     20  C5  ZIN A   1      17.718  -3.499   9.686  0.00  0.00     0.238 C 
BRANCH  20  21
ATOM     21  N2  ZIN A   1      17.866  -3.188  11.114  0.00  0.00    -0.079 N 
ATOM     22  C1  ZIN A   1      19.254  -3.433  11.526  0.00  0.00     0.269 C 
ATOM     23  H3  ZIN A   1      17.246  -3.776  11.651  0.00  0.00     0.278 HD
ATOM     24  C4  ZIN A   1      17.527  -1.778  11.346  0.00  0.00     0.269 C 
ENDBRANCH  20  21
ENDBRANCH  19  20
ENDBRANCH   1  19
TORSDOF 5
ENDMDL
MODEL 8
REMARK VINA RESULT:      -6.7      2.360      3.312
REMARK  5 active torsions:
REMARK  status: ('A' for Active; 'I' for Inactive)
REMARK    1  A    between atoms: N2_2  and  C5_5 
REMARK    2  A    between atoms: C5_5  and  C6_6 
REMARK    3  A    between atoms: C6_6  and  C7_7 
REMARK    4  A    between atoms: C13_13  and  C14_14 
REMARK    5  A    between atoms: C14_14  and  C15_15 
ROOT
ATOM      1  C7  ZIN A   1      18.016   1.742  13.954  0.00  0.00    -0.029 A 
ATOM      2  C8  ZIN A   1      18.347   2.928  14.489  0.00  0.00     0.096 A 
ATOM      3  N9  ZIN A   1      18.613   3.831  13.495  0.00  0.00    -0.365 N 
ATOM      4  C10 ZIN A   1      18.456   3.232  12.265  0.00  0.00     0.043 A 
ATOM      5  C11 ZIN A   1      18.596   3.681  10.957  0.00  0.00     0.031 A 
ATOM      6  C12 ZIN A   1      18.361   2.819   9.909  0.00  0.00     0.009 A 
ATOM      7  C13 ZIN A   1      17.985   1.504  10.144  0.00  0.00    -0.055 A 
ATOM      8  C22 ZIN A   1      17.841   1.041  11.422  0.00  0.00     0.021 A 
ATOM      9  C23 ZIN A   1      18.081   1.896  12.499  0.00  0.00    -0.001 A 
ATOM     10  H35 ZIN A   1      18.874   4.754  13.636  0.00  0.00     0.165 HD
ENDROOT
BRANCH   7  11
ATOM     11  C14 ZIN A   1      17.734   0.578   8.981  0.00  0.00     0.066 C 
BRANCH  11  12
ATOM     12  C15 ZIN A   1      19.028   0.396   8.186  0.00  0.00     0.115 A 
ATOM     13  N21 ZIN A   1      18.897   0.980   6.842  0.00  0.00    -0.330 N 
ATOM     14  C19 ZIN A   1      19.051   0.005   5.931  0.00  0.00     0.361 A 
ATOM     15  H42 ZIN A   1      18.725   1.913   6.646  0.00  0.00     0.165 HD
ATOM     16  O18 ZIN A   1      19.279  -1.202   6.463  0.00  0.00    -0.302 OA
ATOM     17  O20 ZIN A   1      18.989   0.201   4.734  0.00  0.00    -0.239 OA
ATOM     18  C17 ZIN A   1      19.291  -1.098   7.917  0.00  0.00     0.206 A 
ENDBRANCH  11  12
ENDBRANCH   7  11
BRANCH   1  19
ATOM     19  C6  ZIN A   1      17.652   0.489  14.708  0.00  0.00     0.068 C 
BRANCH  19  20
ATOM     20  C5  ZIN A   1      18.923  -0.165  15.253  0.00  0.00     0.238 C 
BRANCH  20  21
ATOM     21  N2  ZIN A   1      18.678  -0.652  16.617  0.00  0.00    -0.079 N 
ATOM     22  C1  ZIN A   1      19.084   0.378  17.584  0.00  0.00     0.269 C 
ATOM     23  H3  ZIN A   1      19.213  -1.492  16.775  0.00  0.00     0.278 HD
ATOM     24  C4  ZIN A   1      17.247  -0.944  16.784  0.00  0.00     0.269 C 
ENDBRANCH  20  21
ENDBRANCH  19  20
ENDBRANCH   1  19
TORSDOF 5
ENDMDL
MODEL 9
REMARK VINA RESULT:      -6.6      5.620      8.351
REMARK  5 active torsions:
REMARK  status: ('A' for Active; 'I' for Inactive)
REMARK    1  A    between atoms: N2_2  and  C5_5 
REMARK    2  A    between atoms: C5_5  and  C6_6 
REMARK    3  A    between atoms: C6_6  and  C7_7 
REMARK    4  A    between atoms: C13_13  and  C14_14 
REMARK    5  A    between atoms: C14_14  and  C15_15 
ROOT
ATOM      1  C7  ZIN A   1      18.871   4.036  12.176  0.00  0.00    -0.029 A 
ATOM      2  C8  ZIN A   1      18.118   4.292  11.095  0.00  0.00     0.096 A 
ATOM      3  N9  ZIN A   1      17.429   3.168  10.729  0.00  0.00    -0.365 N 
ATOM      4  C10 ZIN A   1      17.731   2.134  11.588  0.00  0.00     0.043 A 
ATOM      5  C11 ZIN A   1      17.321   0.808  11.671  0.00  0.00     0.031 A 
ATOM      6  C12 ZIN A   1      17.815   0.001  12.673  0.00  0.00     0.009 A 
ATOM      7  C13 ZIN A   1      18.718   0.498  13.602  0.00  0.00    -0.055 A 
ATOM      8  C22 ZIN A   1      19.134   1.798  13.538  0.00  0.00     0.021 A 
ATOM      9  C23 ZIN A   1      18.652   2.631  12.528  0.00  0.00    -0.001 A 
ATOM     10  H35 ZIN A   1      16.820   3.107   9.977  0.00  0.00     0.165 HD
ENDROOT
BRANCH   7  11
ATOM     11  C14 ZIN A   1      19.245  -0.404  14.689  0.00  0.00     0.066 C 
BRANCH  11  12
ATOM     12  C15 ZIN A   1      18.415  -0.207  15.959  0.00  0.00     0.115 A 
ATOM     13  N21 ZIN A   1      18.768   1.061  16.616  0.00  0.00    -0.330 N 
ATOM     14  C19 ZIN A   1      19.253   0.793  17.840  0.00  0.00     0.361 A 
ATOM     15  H42 ZIN A   1      18.671   1.945  16.229  0.00  0.00     0.165 HD
ATOM     16  O18 ZIN A   1      19.284  -0.511  18.136  0.00  0.00    -0.302 OA
ATOM     17  O20 ZIN A   1      19.627   1.657  18.607  0.00  0.00    -0.239 OA
ATOM     18  C17 ZIN A   1      18.771  -1.278  17.008  0.00  0.00     0.206 A 
ENDBRANCH  11  12
ENDBRANCH   7  11
BRANCH   1  19
ATOM     19  C6  ZIN A   1      19.776   5.008  12.889  0.00  0.00     0.068 C 
BRANCH  19  20
ATOM     20  C5  ZIN A   1      19.192   5.333  14.265  0.00  0.00     0.238 C 
BRANCH  20  21
ATOM     21  N2  ZIN A   1      20.101   4.846  15.311  0.00  0.00    -0.079 N 
ATOM     22  C1  ZIN A   1      21.125   5.864  15.582  0.00  0.00     0.269 C 
ATOM     23  H3  ZIN A   1      20.546   3.996  14.999  0.00  0.00     0.278 HD
ATOM     24  C4  ZIN A   1      19.339   4.578  16.537  0.00  0.00     0.269 C 
ENDBRANCH  20  21
ENDBRANCH  19  20
ENDBRANCH   1  19
TORSDOF 5
ENDMDL
