MODEL 1
REMARK VINA RESULT:      -5.5      0.000      0.000
REMARK  4 active torsions:
REMARK  status: ('A' for Active; 'I' for Inactive)
REMARK    1  A    between atoms: C2_2  and  C3_3 
REMARK    2  A    between atoms: C3_3  and  N4_4 
REMARK    3  A    between atoms: N4_4  and  C7_7 
REMARK    4  A    between atoms: C15_14  and  N16_15 
ROOT
ATOM      1  C7  <0> d   1      18.904   1.267   8.693  0.00  0.00     0.191 C 
ATOM      2  C9  <0> d   1      17.675   0.401   8.989  0.00  0.00     0.039 C 
ATOM      3  C10 <0> d   1      17.920  -1.020   8.478  0.00  0.00     0.062 C 
ATOM      4  C11 <0> d   1      18.378  -0.947   7.030  0.00  0.00     0.050 A 
ATOM      5  C12 <0> d   1      18.850   0.181   6.474  0.00  0.00     0.013 A 
ATOM      6  C13 <0> d   1      18.994   1.508   7.182  0.00  0.00     0.081 C 
ATOM      7  S14 <0> d   1      19.269  -0.147   4.797  0.00  0.00    -0.055 SA
ATOM      8  C15 <0> d   1      18.776  -1.773   4.982  0.00  0.00     0.165 A 
ATOM      9  N17 <0> d   1      18.357  -1.976   6.189  0.00  0.00    -0.228 NA
ENDROOT
BRANCH   1  10
ATOM     10  N4  <0> d   1      18.777   2.555   9.390  0.00  0.00    -0.071 N 
ATOM     11  H5  <0> d   1      18.517   3.270   8.728  0.00  0.00     0.277 HD
ATOM     12  H6  <0> d   1      19.660   2.796   9.814  0.00  0.00     0.277 HD
BRANCH  10  13
ATOM     13  C3  <0> d   1      17.745   2.450  10.429  0.00  0.00     0.232 C 
BRANCH  13  14
ATOM     14  C2  <0> d   1      17.713   3.742  11.249  0.00  0.00     0.023 C 
ATOM     15  C1  <0> d   1      17.390   4.921  10.329  0.00  0.00     0.007 C 
ENDBRANCH  13  14
ENDBRANCH  10  13
ENDBRANCH   1  10
BRANCH   8  16
ATOM     16  N16 <0> d   1      18.821  -2.735   3.985  0.00  0.00    -0.378 N 
ATOM     17  H31 <0> d   1      19.250  -3.588   4.153  0.00  0.00     0.158 HD
ATOM     18  H32 <0> d   1      18.423  -2.554   3.118  0.00  0.00     0.158 HD
ENDBRANCH   8  16
TORSDOF 4
ENDMDL
MODEL 2
REMARK VINA RESULT:      -5.4      3.717      6.152
REMARK  4 active torsions:
REMARK  status: ('A' for Active; 'I' for Inactive)
REMARK    1  A    between atoms: C2_2  and  C3_3 
REMARK    2  A    between atoms: C3_3  and  N4_4 
REMARK    3  A    between atoms: N4_4  and  C7_7 
REMARK    4  A    between atoms: C15_14  and  N16_15 
ROOT
ATOM      1  C7  <0> d   1      20.220  -0.337  10.652  0.00  0.00     0.191 C 
ATOM      2  C9  <0> d   1      19.616  -0.394   9.245  0.00  0.00     0.039 C 
ATOM      3  C10 <0> d   1      19.594   1.013   8.643  0.00  0.00     0.062 C 
ATOM      4  C11 <0> d   1      18.938   1.959   9.637  0.00  0.00     0.050 A 
ATOM      5  C12 <0> d   1      18.787   1.656  10.937  0.00  0.00     0.013 A 
ATOM      6  C13 <0> d   1      19.235   0.370  11.591  0.00  0.00     0.081 C 
ATOM      7  S14 <0> d   1      17.988   3.002  11.741  0.00  0.00    -0.055 SA
ATOM      8  C15 <0> d   1      17.924   3.860  10.264  0.00  0.00     0.165 A 
ATOM      9  N17 <0> d   1      18.458   3.157   9.319  0.00  0.00    -0.228 NA
ENDROOT
BRANCH   1  10
ATOM     10  N4  <0> d   1      20.467  -1.702  11.137  0.00  0.00    -0.071 N 
ATOM     11  H5  <0> d   1      21.384  -1.749  11.554  0.00  0.00     0.277 HD
ATOM     12  H6  <0> d   1      20.416  -2.348  10.364  0.00  0.00     0.277 HD
BRANCH  10  13
ATOM     13  C3  <0> d   1      19.454  -2.056  12.140  0.00  0.00     0.232 C 
BRANCH  13  14
ATOM     14  C2  <0> d   1      18.894  -3.446  11.830  0.00  0.00     0.023 C 
ATOM     15  C1  <0> d   1      19.913  -4.235  11.006  0.00  0.00     0.007 C 
ENDBRANCH  13  14
ENDBRANCH  10  13
ENDBRANCH   1  10
BRANCH   8  16
ATOM     16  N16 <0> d   1      17.379   5.124  10.103  0.00  0.00    -0.378 N 
ATOM     17  H31 <0> d   1      16.527   5.341  10.512  0.00  0.00     0.158 HD
ATOM     18  H32 <0> d   1      17.851   5.792   9.581  0.00  0.00     0.158 HD
ENDBRANCH   8  16
TORSDOF 4
ENDMDL
MODEL 3
REMARK VINA RESULT:      -5.4      5.045      6.711
REMARK  4 active torsions:
REMARK  status: ('A' for Active; 'I' for Inactive)
REMARK    1  A    between atoms: C2_2  and  C3_3 
REMARK    2  A    between atoms: C3_3  and  N4_4 
REMARK    3  A    between atoms: N4_4  and  C7_7 
REMARK    4  A    between atoms: C15_14  and  N16_15 
ROOT
ATOM      1  C7  <0> d   1      19.249   0.030  12.873  0.00  0.00     0.191 C 
ATOM      2  C9  <0> d   1      17.737  -0.179  12.757  0.00  0.00     0.039 C 
ATOM      3  C10 <0> d   1      17.219   0.533  11.505  0.00  0.00     0.062 C 
ATOM      4  C11 <0> d   1      17.719   1.970  11.519  0.00  0.00     0.050 A 
ATOM      5  C12 <0> d   1      18.740   2.376  12.290  0.00  0.00     0.013 A 
ATOM      6  C13 <0> d   1      19.527   1.494  13.231  0.00  0.00     0.081 C 
ATOM      7  S14 <0> d   1      19.004   4.094  12.018  0.00  0.00    -0.055 SA
ATOM      8  C15 <0> d   1      17.721   4.124  10.890  0.00  0.00     0.165 A 
ATOM      9  N17 <0> d   1      17.199   2.946  10.780  0.00  0.00    -0.228 NA
ENDROOT
BRANCH   1  10
ATOM     10  N4  <0> d   1      19.787  -0.843  13.926  0.00  0.00    -0.071 N 
ATOM     11  H5  <0> d   1      20.291  -0.286  14.599  0.00  0.00     0.277 HD
ATOM     12  H6  <0> d   1      20.412  -1.520  13.515  0.00  0.00     0.277 HD
BRANCH  10  13
ATOM     13  C3  <0> d   1      18.682  -1.539  14.596  0.00  0.00     0.232 C 
BRANCH  13  14
ATOM     14  C2  <0> d   1      18.765  -1.296  16.105  0.00  0.00     0.023 C 
ATOM     15  C1  <0> d   1      17.455  -0.676  16.595  0.00  0.00     0.007 C 
ENDBRANCH  13  14
ENDBRANCH  10  13
ENDBRANCH   1  10
BRANCH   8  16
ATOM     16  N16 <0> d   1      17.301   5.246  10.194  0.00  0.00    -0.378 N 
ATOM     17  H31 <0> d   1      17.831   5.588   9.458  0.00  0.00     0.158 HD
ATOM     18  H32 <0> d   1      16.475   5.692  10.445  0.00  0.00     0.158 HD
ENDBRANCH   8  16
TORSDOF 4
ENDMDL
MODEL 4
REMARK VINA RESULT:      -5.4      2.816      6.195
REMARK  4 active torsions:
REMARK  status: ('A' for Active; 'I' for Inactive)
REMARK    1  A    between atoms: C2_2  and  C3_3 
REMARK    2  A    between atoms: C3_3  and  N4_4 
REMARK    3  A    between atoms: N4_4  and  C7_7 
REMARK    4  A    between atoms: C15_14  and  N16_15 
ROOT
ATOM      1  C7  <0> d   1      18.097  -0.143   8.376  0.00  0.00     0.191 C 
ATOM      2  C9  <0> d   1      18.531   1.185   7.748  0.00  0.00     0.039 C 
ATOM      3  C10 <0> d   1      19.590   1.844   8.634  0.00  0.00     0.062 C 
ATOM      4  C11 <0> d   1      19.070   1.895  10.063  0.00  0.00     0.050 A 
ATOM      5  C12 <0> d   1      18.049   1.135  10.490  0.00  0.00     0.013 A 
ATOM      6  C13 <0> d   1      17.285   0.144   9.644  0.00  0.00     0.081 C 
ATOM      7  S14 <0> d   1      17.756   1.487  12.189  0.00  0.00    -0.055 SA
ATOM      8  C15 <0> d   1      19.032   2.625  12.184  0.00  0.00     0.165 A 
ATOM      9  N17 <0> d   1      19.570   2.682  11.010  0.00  0.00    -0.228 NA
ENDROOT
BRANCH   1  10
ATOM     10  N4  <0> d   1      17.268  -0.892   7.421  0.00  0.00    -0.071 N 
ATOM     11  H5  <0> d   1      16.341  -1.009   7.801  0.00  0.00     0.277 HD
ATOM     12  H6  <0> d   1      17.680  -1.798   7.256  0.00  0.00     0.277 HD
BRANCH  10  13
ATOM     13  C3  <0> d   1      17.190  -0.151   6.156  0.00  0.00     0.232 C 
BRANCH  13  14
ATOM     14  C2  <0> d   1      17.619  -1.062   5.004  0.00  0.00     0.023 C 
ATOM     15  C1  <0> d   1      19.042  -0.702   4.571  0.00  0.00     0.007 C 
ENDBRANCH  13  14
ENDBRANCH  10  13
ENDBRANCH   1  10
BRANCH   8  16
ATOM     16  N16 <0> d   1      19.431   3.375  13.278  0.00  0.00    -0.378 N 
ATOM     17  H31 <0> d   1      18.837   4.045  13.651  0.00  0.00     0.158 HD
ATOM     18  H32 <0> d   1      20.307   3.231  13.672  0.00  0.00     0.158 HD
ENDBRANCH   8  16
TORSDOF 4
ENDMDL
MODEL 5
REMARK VINA RESULT:      -5.3      3.815      7.400
REMARK  4 active torsions:
REMARK  status: ('A' for Active; 'I' for Inactive)
REMARK    1  A    between atoms: C2_2  and  C3_3 
REMARK    2  A    between atoms: C3_3  and  N4_4 
REMARK    3  A    between atoms: N4_4  and  C7_7 
REMARK    4  A    between atoms: C15_14  and  N16_15 
ROOT
ATOM      1  C7  <0> d   1      19.421   2.615  10.449  0.00  0.00     0.191 C 
ATOM      2  C9  <0> d   1      18.098   3.224   9.974  0.00  0.00     0.039 C 
ATOM      3  C10 <0> d   1      17.788   4.474  10.801  0.00  0.00     0.062 C 
ATOM      4  C11 <0> d   1      17.895   4.123  12.277  0.00  0.00     0.050 A 
ATOM      5  C12 <0> d   1      18.532   3.026  12.718  0.00  0.00     0.013 A 
ATOM      6  C13 <0> d   1      19.220   2.006  11.841  0.00  0.00     0.081 C 
ATOM      7  S14 <0> d   1      18.431   2.982  14.474  0.00  0.00    -0.055 SA
ATOM      8  C15 <0> d   1      17.541   4.441  14.470  0.00  0.00     0.165 A 
ATOM      9  N17 <0> d   1      17.377   4.857  13.256  0.00  0.00    -0.228 NA
ENDROOT
BRANCH   1  10
ATOM     10  N4  <0> d   1      19.844   1.566   9.510  0.00  0.00    -0.071 N 
ATOM     11  H5  <0> d   1      19.621   0.661   9.896  0.00  0.00     0.277 HD
ATOM     12  H6  <0> d   1      20.840   1.631   9.361  0.00  0.00     0.277 HD
BRANCH  10  13
ATOM     13  C3  <0> d   1      19.144   1.741   8.232  0.00  0.00     0.232 C 
BRANCH  13  14
ATOM     14  C2  <0> d   1      18.717   0.375   7.693  0.00  0.00     0.023 C 
ATOM     15  C1  <0> d   1      17.405  -0.049   8.355  0.00  0.00     0.007 C 
ENDBRANCH  13  14
ENDBRANCH  10  13
ENDBRANCH   1  10
BRANCH   8  16
ATOM     16  N16 <0> d   1      17.067   5.085  15.601  0.00  0.00    -0.378 N 
ATOM     17  H31 <0> d   1      16.265   5.628  15.551  0.00  0.00     0.158 HD
ATOM     18  H32 <0> d   1      17.538   4.994  16.445  0.00  0.00     0.158 HD
ENDBRANCH   8  16
TORSDOF 4
ENDMDL
MODEL 6
REMARK VINA RESULT:      -5.2      6.848      9.686
REMARK  4 active torsions:
REMARK  status: ('A' for Active; 'I' for Inactive)
REMARK    1  A    between atoms: C2_2  and  C3_3 
REMARK    2  A    between atoms: C3_3  and  N4_4 
REMARK    3  A    between atoms: N4_4  and  C7_7 
REMARK    4  A    between atoms: C15_14  and  N16_15 
ROOT
ATOM      1  C7  <0> d   1      18.581  -0.378  14.292  0.00  0.00     0.191 C 
ATOM      2  C9  <0> d   1      19.115  -1.329  15.367  0.00  0.00     0.039 C 
ATOM      3  C10 <0> d   1      18.555  -0.921  16.732  0.00  0.00     0.062 C 
ATOM      4  C11 <0> d   1      18.807   0.565  16.938  0.00  0.00     0.050 A 
ATOM      5  C12 <0> d   1      19.104   1.398  15.928  0.00  0.00     0.013 A 
ATOM      6  C13 <0> d   1      19.227   1.000  14.476  0.00  0.00     0.081 C 
ATOM      7  S14 <0> d   1      19.321   3.019  16.578  0.00  0.00    -0.055 SA
ATOM      8  C15 <0> d   1      18.994   2.442  18.153  0.00  0.00     0.165 A 
ATOM      9  N17 <0> d   1      18.758   1.171  18.120  0.00  0.00    -0.228 NA
ENDROOT
BRANCH   1  10
ATOM     10  N4  <0> d   1      18.914  -0.904  12.961  0.00  0.00    -0.071 N 
ATOM     11  H5  <0> d   1      19.567  -1.667  13.055  0.00  0.00     0.277 HD
ATOM     12  H6  <0> d   1      19.331  -0.172  12.405  0.00  0.00     0.277 HD
BRANCH  10  13
ATOM     13  C3  <0> d   1      17.692  -1.382  12.303  0.00  0.00     0.232 C 
BRANCH  13  14
ATOM     14  C2  <0> d   1      17.951  -2.757  11.683  0.00  0.00     0.023 C 
ATOM     15  C1  <0> d   1      19.409  -3.157  11.920  0.00  0.00     0.007 C 
ENDBRANCH  13  14
ENDBRANCH  10  13
ENDBRANCH   1  10
BRANCH   8  16
ATOM     16  N16 <0> d   1      18.983   3.223  19.298  0.00  0.00    -0.378 N 
ATOM     17  H31 <0> d   1      19.505   4.039  19.334  0.00  0.00     0.158 HD
ATOM     18  H32 <0> d   1      18.452   2.952  20.064  0.00  0.00     0.158 HD
ENDBRANCH   8  16
TORSDOF 4
ENDMDL
MODEL 7
REMARK VINA RESULT:      -5.2      3.786      6.983
REMARK  4 active torsions:
REMARK  status: ('A' for Active; 'I' for Inactive)
REMARK    1  A    between atoms: C2_2  and  C3_3 
REMARK    2  A    between atoms: C3_3  and  N4_4 
REMARK    3  A    between atoms: N4_4  and  C7_7 
REMARK    4  A    between atoms: C15_14  and  N16_15 
ROOT
ATOM      1  C7  <0> d   1      19.369   2.355  10.263  0.00  0.00     0.191 C 
ATOM      2  C9  <0> d   1      17.937   2.890  10.354  0.00  0.00     0.039 C 
ATOM      3  C10 <0> d   1      17.750   3.619  11.687  0.00  0.00     0.062 C 
ATOM      4  C11 <0> d   1      18.219   2.709  12.812  0.00  0.00     0.050 A 
ATOM      5  C12 <0> d   1      19.008   1.643  12.602  0.00  0.00     0.013 A 
ATOM      6  C13 <0> d   1      19.537   1.200  11.258  0.00  0.00     0.081 C 
ATOM      7  S14 <0> d   1      19.321   0.859  14.146  0.00  0.00    -0.055 SA
ATOM      8  C15 <0> d   1      18.366   2.029  14.945  0.00  0.00     0.165 A 
ATOM      9  N17 <0> d   1      17.898   2.880  14.090  0.00  0.00    -0.228 NA
ENDROOT
BRANCH   1  10
ATOM     10  N4  <0> d   1      19.628   1.870   8.900  0.00  0.00    -0.071 N 
ATOM     11  H5  <0> d   1      20.549   2.160   8.610  0.00  0.00     0.277 HD
ATOM     12  H6  <0> d   1      18.940   2.256   8.270  0.00  0.00     0.277 HD
BRANCH  10  13
ATOM     13  C3  <0> d   1      19.546   0.404   8.878  0.00  0.00     0.232 C 
BRANCH  13  14
ATOM     14  C2  <0> d   1      18.882  -0.050   7.576  0.00  0.00     0.023 C 
ATOM     15  C1  <0> d   1      18.875   1.108   6.576  0.00  0.00     0.007 C 
ENDBRANCH  13  14
ENDBRANCH  10  13
ENDBRANCH   1  10
BRANCH   8  16
ATOM     16  N16 <0> d   1      18.128   2.063  16.310  0.00  0.00    -0.378 N 
ATOM     17  H31 <0> d   1      18.715   1.586  16.917  0.00  0.00     0.158 HD
ATOM     18  H32 <0> d   1      17.373   2.564  16.659  0.00  0.00     0.158 HD
ENDBRANCH   8  16
TORSDOF 4
ENDMDL
MODEL 8
REMARK VINA RESULT:      -5.1      3.540      4.960
REMARK  4 active torsions:
REMARK  status: ('A' for Active; 'I' for Inactive)
REMARK    1  A    between atoms: C2_2  and  C3_3 
REMARK    2  A    between atoms: C3_3  and  N4_4 
REMARK    3  A    between atoms: N4_4  and  C7_7 
REMARK    4  A    between atoms: C15_14  and  N16_15 
ROOT
ATOM      1  C7  <0> d   1      19.109   1.677  12.697  0.00  0.00     0.191 C 
ATOM      2  C9  <0> d   1      19.574   3.041  12.177  0.00  0.00     0.039 C 
ATOM      3  C10 <0> d   1      18.895   3.332  10.837  0.00  0.00     0.062 C 
ATOM      4  C11 <0> d   1      19.098   2.137   9.917  0.00  0.00     0.050 A 
ATOM      5  C12 <0> d   1      19.458   0.926  10.370  0.00  0.00     0.013 A 
ATOM      6  C13 <0> d   1      19.708   0.574  11.818  0.00  0.00     0.081 C 
ATOM      7  S14 <0> d   1      19.587  -0.173   9.001  0.00  0.00    -0.055 SA
ATOM      8  C15 <0> d   1      19.145   1.087   7.935  0.00  0.00     0.165 A 
ATOM      9  N17 <0> d   1      18.939   2.178   8.598  0.00  0.00    -0.228 NA
ENDROOT
BRANCH   1  10
ATOM     10  N4  <0> d   1      19.561   1.500  14.085  0.00  0.00    -0.071 N 
ATOM     11  H5  <0> d   1      19.978   2.357  14.414  0.00  0.00     0.277 HD
ATOM     12  H6  <0> d   1      20.244   0.758  14.123  0.00  0.00     0.277 HD
BRANCH  10  13
ATOM     13  C3  <0> d   1      18.414   1.155  14.933  0.00  0.00     0.232 C 
BRANCH  13  14
ATOM     14  C2  <0> d   1      18.790  -0.009  15.852  0.00  0.00     0.023 C 
ATOM     15  C1  <0> d   1      18.465  -1.333  15.157  0.00  0.00     0.007 C 
ENDBRANCH  13  14
ENDBRANCH  10  13
ENDBRANCH   1  10
BRANCH   8  16
ATOM     16  N16 <0> d   1      19.023   0.958   6.561  0.00  0.00    -0.378 N 
ATOM     17  H31 <0> d   1      18.571   1.645   6.047  0.00  0.00     0.158 HD
ATOM     18  H32 <0> d   1      19.389   0.179   6.112  0.00  0.00     0.158 HD
ENDBRANCH   8  16
TORSDOF 4
ENDMDL
MODEL 9
REMARK VINA RESULT:      -5.1      1.557      2.184
REMARK  4 active torsions:
REMARK  status: ('A' for Active; 'I' for Inactive)
REMARK    1  A    between atoms: C2_2  and  C3_3 
REMARK    2  A    between atoms: C3_3  and  N4_4 
REMARK    3  A    between atoms: N4_4  and  C7_7 
REMARK    4  A    between atoms: C15_14  and  N16_15 
ROOT
ATOM      1  C7  <0> d   1      19.049   2.029  10.359  0.00  0.00     0.191 C 
ATOM      2  C9  <0> d   1      17.587   1.661  10.625  0.00  0.00     0.039 C 
ATOM      3  C10 <0> d   1      17.291   0.284  10.026  0.00  0.00     0.062 C 
ATOM      4  C11 <0> d   1      17.752   0.274   8.576  0.00  0.00     0.050 A 
ATOM      5  C12 <0> d   1      18.609   1.181   8.080  0.00  0.00     0.013 A 
ATOM      6  C13 <0> d   1      19.230   2.314   8.864  0.00  0.00     0.081 C 
ATOM      7  S14 <0> d   1      18.885   0.826   6.379  0.00  0.00    -0.055 SA
ATOM      8  C15 <0> d   1      17.826  -0.511   6.475  0.00  0.00     0.165 A 
ATOM      9  N17 <0> d   1      17.356  -0.620   7.675  0.00  0.00    -0.228 NA
ENDROOT
BRANCH   1  10
ATOM     10  N4  <0> d   1      19.404   3.227  11.134  0.00  0.00    -0.071 N 
ATOM     11  H5  <0> d   1      20.041   3.797  10.598  0.00  0.00     0.277 HD
ATOM     12  H6  <0> d   1      19.847   2.950  11.997  0.00  0.00     0.277 HD
BRANCH  10  13
ATOM     13  C3  <0> d   1      18.189   3.996  11.430  0.00  0.00     0.232 C 
BRANCH  13  14
ATOM     14  C2  <0> d   1      18.360   4.727  12.763  0.00  0.00     0.023 C 
ATOM     15  C1  <0> d   1      19.838   5.063  12.975  0.00  0.00     0.007 C 
ENDBRANCH  13  14
ENDBRANCH  10  13
ENDBRANCH   1  10
BRANCH   8  16
ATOM     16  N16 <0> d   1      17.518  -1.357   5.422  0.00  0.00    -0.378 N 
ATOM     17  H31 <0> d   1      17.992  -2.197   5.319  0.00  0.00     0.158 HD
ATOM     18  H32 <0> d   1      16.827  -1.109   4.787  0.00  0.00     0.158 HD
ENDBRANCH   8  16
TORSDOF 4
ENDMDL
