MODEL 1
REMARK VINA RESULT:      -9.2      0.000      0.000
REMARK  6 active torsions:
REMARK  status: ('A' for Active; 'I' for Inactive)
REMARK    1  A    between atoms: C5_5  and  O7_6 
REMARK    2  A    between atoms: C10_9  and  C11_10 
REMARK    3  A    between atoms: C22_20  and  C24_21 
REMARK    4  A    between atoms: C24_21  and  C27_23 
REMARK    5  A    between atoms: C28_24  and  C29_25 
REMARK    6  A    between atoms: C29_25  and  C32_27 
ROOT
ATOM      1  C11 <0> d   1      19.034  -2.374   8.866  0.00  0.00     0.004 C 
ATOM      2  C12 <0> d   1      19.380  -1.116   8.592  0.00  0.00    -0.075 C 
ATOM      3  C13 <0> d   1      19.105  -0.469   7.243  0.00  0.00     0.034 C 
ATOM      4  C14 <0> d   1      18.417   0.884   7.422  0.00  0.00     0.005 C 
ATOM      5  C15 <0> d   1      19.140   1.757   8.462  0.00  0.00     0.010 C 
ATOM      6  C16 <0> d   1      19.143   1.000   9.770  0.00  0.00    -0.032 C 
ATOM      7  C17 <0> d   1      17.726   0.510  10.074  0.00  0.00     0.016 C 
ATOM      8  C18 <0> d   1      20.064  -0.235   9.596  0.00  0.00     0.023 C 
ATOM      9  C20 <0> d   1      20.139  -0.755  11.033  0.00  0.00     0.010 C 
ATOM     10  C21 <0> d   1      20.305   0.549  11.863  0.00  0.00     0.007 C 
ATOM     11  C22 <0> d   1      19.713   1.688  11.000  0.00  0.00     0.002 C 
ENDROOT
BRANCH   1  12
ATOM     12  C10 <0> d   1      18.367  -3.187   7.846  0.00  0.00     0.008 C 
ATOM     13  C9  <0> d   1      18.079  -4.481   8.098  0.00  0.00    -0.050 C 
ATOM     14  C2  <0> d   1      18.422  -5.119   9.386  0.00  0.00    -0.061 C 
ATOM     15  C8  <0> d   1      17.388  -5.358   7.067  0.00  0.00     0.070 C 
ATOM     16  C1  <0> d   1      19.600  -4.914   9.976  0.00  0.00     0.019 C 
ATOM     17  C3  <0> d   1      17.367  -6.013  10.008  0.00  0.00     0.041 C 
ATOM     18  C4  <0> d   1      16.824  -6.946   8.920  0.00  0.00     0.036 C 
ATOM     19  C5  <0> d   1      16.257  -6.120   7.765  0.00  0.00     0.122 C 
BRANCH  19  20
ATOM     20  O7  <0> d   1      15.623  -6.990   6.825  0.00  0.00    -0.395 OA
ATOM     21  H41 <0> d   1      14.962  -6.555   6.269  0.00  0.00     0.210 HD
ENDBRANCH  19  20
ENDBRANCH   1  12
BRANCH  11  22
ATOM     22  C24 <0> d   1      18.604   2.412  11.766  0.00  0.00     0.008 C 
ATOM     23  C26 <0> d   1      18.792   3.924  11.628  0.00  0.00     0.014 C 
BRANCH  22  24
ATOM     24  C27 <0> d   1      18.668   2.030  13.223  0.00  0.00    -0.026 C 
ATOM     25  C28 <0> d   1      17.743   1.259  13.739  0.00  0.00    -0.026 C 
BRANCH  25  26
ATOM     26  C29 <0> d   1      17.806   0.876  15.195  0.00  0.00     0.007 C 
ATOM     27  C31 <0> d   1      19.082   1.447  15.818  0.00  0.00     0.014 C 
BRANCH  26  28
ATOM     28  C32 <0> d   1      17.814  -0.649  15.322  0.00  0.00    -0.015 C 
ATOM     29  C33 <0> d   1      19.221  -1.177  15.034  0.00  0.00     0.010 C 
ATOM     30  C34 <0> d   1      17.402  -1.043  16.742  0.00  0.00     0.010 C 
ENDBRANCH  26  28
ENDBRANCH  25  26
ENDBRANCH  22  24
ENDBRANCH  11  22
TORSDOF 6
ENDMDL
MODEL 2
REMARK VINA RESULT:      -9.1      3.979      9.052
REMARK  6 active torsions:
REMARK  status: ('A' for Active; 'I' for Inactive)
REMARK    1  A    between atoms: C5_5  and  O7_6 
REMARK    2  A    between atoms: C10_9  and  C11_10 
REMARK    3  A    between atoms: C22_20  and  C24_21 
REMARK    4  A    between atoms: C24_21  and  C27_23 
REMARK    5  A    between atoms: C28_24  and  C29_25 
REMARK    6  A    between atoms: C29_25  and  C32_27 
ROOT
ATOM      1  C11 <0> d   1      19.134   2.673  14.911  0.00  0.00     0.004 C 
ATOM      2  C12 <0> d   1      19.096   1.371  15.197  0.00  0.00    -0.075 C 
ATOM      3  C13 <0> d   1      18.483   0.837  16.483  0.00  0.00     0.034 C 
ATOM      4  C14 <0> d   1      17.493  -0.287  16.184  0.00  0.00     0.005 C 
ATOM      5  C15 <0> d   1      18.090  -1.333  15.227  0.00  0.00     0.010 C 
ATOM      6  C16 <0> d   1      18.466  -0.620  13.949  0.00  0.00    -0.032 C 
ATOM      7  C17 <0> d   1      17.282   0.225  13.474  0.00  0.00     0.016 C 
ATOM      8  C18 <0> d   1      19.649   0.329  14.271  0.00  0.00     0.023 C 
ATOM      9  C20 <0> d   1      20.049   0.794  12.869  0.00  0.00     0.010 C 
ATOM     10  C21 <0> d   1      19.972  -0.517  12.037  0.00  0.00     0.007 C 
ATOM     11  C22 <0> d   1      18.991  -1.449  12.788  0.00  0.00     0.002 C 
ENDROOT
BRANCH   1  12
ATOM     12  C10 <0> d   1      18.577   3.646  15.854  0.00  0.00     0.008 C 
ATOM     13  C9  <0> d   1      17.942   4.743  15.393  0.00  0.00    -0.050 C 
ATOM     14  C2  <0> d   1      17.790   5.007  13.947  0.00  0.00    -0.061 C 
ATOM     15  C8  <0> d   1      17.351   5.776  16.338  0.00  0.00     0.070 C 
ATOM     16  C1  <0> d   1      18.794   4.814  13.092  0.00  0.00     0.019 C 
ATOM     17  C3  <0> d   1      16.434   5.500  13.482  0.00  0.00     0.041 C 
ATOM     18  C4  <0> d   1      15.983   6.625  14.420  0.00  0.00     0.036 C 
ATOM     19  C5  <0> d   1      15.935   6.112  15.859  0.00  0.00     0.122 C 
BRANCH  19  20
ATOM     20  O7  <0> d   1      15.375   7.118  16.705  0.00  0.00    -0.395 OA
ATOM     21  H41 <0> d   1      15.910   7.920  16.770  0.00  0.00     0.210 HD
ENDBRANCH  19  20
ENDBRANCH   1  12
BRANCH  11  22
ATOM     22  C24 <0> d   1      17.842  -1.862  11.866  0.00  0.00     0.008 C 
ATOM     23  C26 <0> d   1      17.775  -3.389  11.787  0.00  0.00     0.014 C 
BRANCH  22  24
ATOM     24  C27 <0> d   1      18.076  -1.298  10.488  0.00  0.00    -0.026 C 
ATOM     25  C28 <0> d   1      17.322  -0.324  10.043  0.00  0.00    -0.026 C 
BRANCH  25  26
ATOM     26  C29 <0> d   1      17.555   0.240   8.665  0.00  0.00     0.007 C 
ATOM     27  C31 <0> d   1      17.742  -0.906   7.669  0.00  0.00     0.014 C 
BRANCH  26  28
ATOM     28  C32 <0> d   1      18.811   1.116   8.677  0.00  0.00    -0.015 C 
ATOM     29  C33 <0> d   1      19.106   1.602   7.256  0.00  0.00     0.010 C 
ATOM     30  C34 <0> d   1      18.582   2.320   9.592  0.00  0.00     0.010 C 
ENDBRANCH  26  28
ENDBRANCH  25  26
ENDBRANCH  22  24
ENDBRANCH  11  22
TORSDOF 6
ENDMDL
MODEL 3
REMARK VINA RESULT:      -9.0      2.277      3.193
REMARK  6 active torsions:
REMARK  status: ('A' for Active; 'I' for Inactive)
REMARK    1  A    between atoms: C5_5  and  O7_6 
REMARK    2  A    between atoms: C10_9  and  C11_10 
REMARK    3  A    between atoms: C22_20  and  C24_21 
REMARK    4  A    between atoms: C24_21  and  C27_23 
REMARK    5  A    between atoms: C28_24  and  C29_25 
REMARK    6  A    between atoms: C29_25  and  C32_27 
ROOT
ATOM      1  C11 <0> d   1      19.284  -1.768   9.725  0.00  0.00     0.004 C 
ATOM      2  C12 <0> d   1      19.496  -0.612   9.094  0.00  0.00    -0.075 C 
ATOM      3  C13 <0> d   1      19.363  -0.472   7.585  0.00  0.00     0.034 C 
ATOM      4  C14 <0> d   1      18.477   0.720   7.229  0.00  0.00     0.005 C 
ATOM      5  C15 <0> d   1      18.889   1.987   7.997  0.00  0.00     0.010 C 
ATOM      6  C16 <0> d   1      18.778   1.681   9.473  0.00  0.00    -0.032 C 
ATOM      7  C17 <0> d   1      17.411   1.057   9.759  0.00  0.00     0.016 C 
ATOM      8  C18 <0> d   1      19.875   0.643   9.822  0.00  0.00     0.023 C 
ATOM      9  C20 <0> d   1      19.781   0.611  11.349  0.00  0.00     0.010 C 
ATOM     10  C21 <0> d   1      19.626   2.113  11.716  0.00  0.00     0.007 C 
ATOM     11  C22 <0> d   1      19.035   2.805  10.465  0.00  0.00     0.002 C 
ENDROOT
BRANCH   1  12
ATOM     12  C10 <0> d   1      18.915  -2.962   8.962  0.00  0.00     0.008 C 
ATOM     13  C9  <0> d   1      18.639  -4.115   9.606  0.00  0.00    -0.050 C 
ATOM     14  C2  <0> d   1      18.702  -4.220  11.079  0.00  0.00    -0.061 C 
ATOM     15  C8  <0> d   1      18.252  -5.375   8.851  0.00  0.00     0.070 C 
ATOM     16  C1  <0> d   1      19.698  -3.673  11.776  0.00  0.00     0.019 C 
ATOM     17  C3  <0> d   1      17.576  -4.972  11.759  0.00  0.00     0.041 C 
ATOM     18  C4  <0> d   1      17.348  -6.285  11.002  0.00  0.00     0.036 C 
ATOM     19  C5  <0> d   1      17.027  -5.990   9.536  0.00  0.00     0.122 C 
BRANCH  19  20
ATOM     20  O7  <0> d   1      16.673  -7.205   8.873  0.00  0.00    -0.395 OA
ATOM     21  H41 <0> d   1      16.777  -7.996   9.418  0.00  0.00     0.210 HD
ENDBRANCH  19  20
ENDBRANCH   1  12
BRANCH  11  22
ATOM     22  C24 <0> d   1      17.725   3.513  10.818  0.00  0.00     0.008 C 
ATOM     23  C26 <0> d   1      17.641   4.838  10.059  0.00  0.00     0.014 C 
BRANCH  22  24
ATOM     24  C27 <0> d   1      17.684   3.781  12.301  0.00  0.00    -0.026 C 
ATOM     25  C28 <0> d   1      17.489   4.999  12.741  0.00  0.00    -0.026 C 
BRANCH  25  26
ATOM     26  C29 <0> d   1      17.447   5.268  14.223  0.00  0.00     0.007 C 
ATOM     27  C31 <0> d   1      16.054   5.765  14.613  0.00  0.00     0.014 C 
BRANCH  26  28
ATOM     28  C32 <0> d   1      18.487   6.333  14.578  0.00  0.00    -0.015 C 
ATOM     29  C33 <0> d   1      18.394   6.659  16.070  0.00  0.00     0.010 C 
ATOM     30  C34 <0> d   1      19.887   5.805  14.257  0.00  0.00     0.010 C 
ENDBRANCH  26  28
ENDBRANCH  25  26
ENDBRANCH  22  24
ENDBRANCH  11  22
TORSDOF 6
ENDMDL
MODEL 4
REMARK VINA RESULT:      -8.3      3.664      9.004
REMARK  6 active torsions:
REMARK  status: ('A' for Active; 'I' for Inactive)
REMARK    1  A    between atoms: C5_5  and  O7_6 
REMARK    2  A    between atoms: C10_9  and  C11_10 
REMARK    3  A    between atoms: C22_20  and  C24_21 
REMARK    4  A    between atoms: C24_21  and  C27_23 
REMARK    5  A    between atoms: C28_24  and  C29_25 
REMARK    6  A    between atoms: C29_25  and  C32_27 
ROOT
ATOM      1  C11 <0> d   1      19.037   2.264  13.892  0.00  0.00     0.004 C 
ATOM      2  C12 <0> d   1      19.364   0.996  14.145  0.00  0.00    -0.075 C 
ATOM      3  C13 <0> d   1      19.038   0.319  15.468  0.00  0.00     0.034 C 
ATOM      4  C14 <0> d   1      18.347  -1.024  15.231  0.00  0.00     0.005 C 
ATOM      5  C15 <0> d   1      19.100  -1.877  14.195  0.00  0.00     0.010 C 
ATOM      6  C16 <0> d   1      19.154  -1.088  12.907  0.00  0.00    -0.032 C 
ATOM      7  C17 <0> d   1      17.752  -0.579  12.567  0.00  0.00     0.016 C 
ATOM      8  C18 <0> d   1      20.076   0.135  13.144  0.00  0.00     0.023 C 
ATOM      9  C20 <0> d   1      20.205   0.691  11.724  0.00  0.00     0.010 C 
ATOM     10  C21 <0> d   1      20.390  -0.593  10.868  0.00  0.00     0.007 C 
ATOM     11  C22 <0> d   1      19.761  -1.749  11.680  0.00  0.00     0.002 C 
ENDROOT
BRANCH   1  12
ATOM     12  C10 <0> d   1      18.341   3.057  14.908  0.00  0.00     0.008 C 
ATOM     13  C9  <0> d   1      17.940   4.313  14.624  0.00  0.00    -0.050 C 
ATOM     14  C2  <0> d   1      18.185   4.931  13.304  0.00  0.00    -0.061 C 
ATOM     15  C8  <0> d   1      17.215   5.168  15.650  0.00  0.00     0.070 C 
ATOM     16  C1  <0> d   1      19.355   4.800  12.679  0.00  0.00     0.019 C 
ATOM     17  C3  <0> d   1      17.040   5.714  12.693  0.00  0.00     0.041 C 
ATOM     18  C4  <0> d   1      16.460   6.638  13.768  0.00  0.00     0.036 C 
ATOM     19  C5  <0> d   1      16.002   5.811  14.970  0.00  0.00     0.122 C 
BRANCH  19  20
ATOM     20  O7  <0> d   1      15.331   6.660  15.904  0.00  0.00    -0.395 OA
ATOM     21  H41 <0> d   1      15.323   6.321  16.809  0.00  0.00     0.210 HD
ENDBRANCH  19  20
ENDBRANCH   1  12
BRANCH  11  22
ATOM     22  C24 <0> d   1      18.674  -2.445  10.858  0.00  0.00     0.008 C 
ATOM     23  C26 <0> d   1      18.765  -3.958  11.068  0.00  0.00     0.014 C 
BRANCH  22  24
ATOM     24  C27 <0> d   1      18.870  -2.129   9.398  0.00  0.00    -0.026 C 
ATOM     25  C28 <0> d   1      18.178  -2.771   8.490  0.00  0.00    -0.026 C 
BRANCH  25  26
ATOM     26  C29 <0> d   1      18.373  -2.456   7.030  0.00  0.00     0.007 C 
ATOM     27  C31 <0> d   1      19.565  -3.250   6.491  0.00  0.00     0.014 C 
BRANCH  26  28
ATOM     28  C32 <0> d   1      18.639  -0.958   6.861  0.00  0.00    -0.015 C 
ATOM     29  C33 <0> d   1      19.328  -0.711   5.517  0.00  0.00     0.010 C 
ATOM     30  C34 <0> d   1      17.311  -0.198   6.901  0.00  0.00     0.010 C 
ENDBRANCH  26  28
ENDBRANCH  25  26
ENDBRANCH  22  24
ENDBRANCH  11  22
TORSDOF 6
ENDMDL
MODEL 5
REMARK VINA RESULT:      -8.2      3.360      8.126
REMARK  6 active torsions:
REMARK  status: ('A' for Active; 'I' for Inactive)
REMARK    1  A    between atoms: C5_5  and  O7_6 
REMARK    2  A    between atoms: C10_9  and  C11_10 
REMARK    3  A    between atoms: C22_20  and  C24_21 
REMARK    4  A    between atoms: C24_21  and  C27_23 
REMARK    5  A    between atoms: C28_24  and  C29_25 
REMARK    6  A    between atoms: C29_25  and  C32_27 
ROOT
ATOM      1  C11 <0> d   1      18.064   1.352  13.587  0.00  0.00     0.004 C 
ATOM      2  C12 <0> d   1      17.665   1.930  12.453  0.00  0.00    -0.075 C 
ATOM      3  C13 <0> d   1      17.591   3.441  12.291  0.00  0.00     0.034 C 
ATOM      4  C14 <0> d   1      18.307   3.883  11.015  0.00  0.00     0.005 C 
ATOM      5  C15 <0> d   1      17.875   3.044   9.800  0.00  0.00     0.010 C 
ATOM      6  C16 <0> d   1      18.201   1.600  10.103  0.00  0.00    -0.032 C 
ATOM      7  C17 <0> d   1      19.647   1.500  10.593  0.00  0.00     0.016 C 
ATOM      8  C18 <0> d   1      17.262   1.137  11.246  0.00  0.00     0.023 C 
ATOM      9  C20 <0> d   1      17.551  -0.366  11.279  0.00  0.00     0.010 C 
ATOM     10  C21 <0> d   1      17.607  -0.739   9.771  0.00  0.00     0.007 C 
ATOM     11  C22 <0> d   1      17.965   0.563   9.017  0.00  0.00     0.002 C 
ENDROOT
BRANCH   1  12
ATOM     12  C10 <0> d   1      18.446   2.179  14.734  0.00  0.00     0.008 C 
ATOM     13  C9  <0> d   1      18.296   1.703  15.987  0.00  0.00    -0.050 C 
ATOM     14  C2  <0> d   1      17.744   0.357  16.249  0.00  0.00    -0.061 C 
ATOM     15  C8  <0> d   1      18.681   2.528  17.204  0.00  0.00     0.070 C 
ATOM     16  C1  <0> d   1      16.687  -0.107  15.582  0.00  0.00     0.019 C 
ATOM     17  C3  <0> d   1      18.442  -0.473  17.308  0.00  0.00     0.041 C 
ATOM     18  C4  <0> d   1      18.670   0.409  18.540  0.00  0.00     0.036 C 
ATOM     19  C5  <0> d   1      19.492   1.639  18.151  0.00  0.00     0.122 C 
BRANCH  19  20
ATOM     20  O7  <0> d   1      19.825   2.380  19.327  0.00  0.00    -0.395 OA
ATOM     21  H41 <0> d   1      19.176   2.301  20.039  0.00  0.00     0.210 HD
ENDBRANCH  19  20
ENDBRANCH   1  12
BRANCH  11  22
ATOM     22  C24 <0> d   1      19.235   0.363   8.187  0.00  0.00     0.008 C 
ATOM     23  C26 <0> d   1      19.023   0.934   6.784  0.00  0.00     0.014 C 
BRANCH  22  24
ATOM     24  C27 <0> d   1      19.544  -1.109   8.088  0.00  0.00    -0.026 C 
ATOM     25  C28 <0> d   1      19.183  -1.784   7.025  0.00  0.00    -0.026 C 
BRANCH  25  26
ATOM     26  C29 <0> d   1      19.490  -3.256   6.926  0.00  0.00     0.007 C 
ATOM     27  C31 <0> d   1      18.644  -3.879   5.814  0.00  0.00     0.014 C 
BRANCH  26  28
ATOM     28  C32 <0> d   1      19.166  -3.937   8.257  0.00  0.00    -0.015 C 
ATOM     29  C33 <0> d   1      17.669  -4.252   8.317  0.00  0.00     0.010 C 
ATOM     30  C34 <0> d   1      19.966  -5.236   8.373  0.00  0.00     0.010 C 
ENDBRANCH  26  28
ENDBRANCH  25  26
ENDBRANCH  22  24
ENDBRANCH  11  22
TORSDOF 6
ENDMDL
MODEL 6
REMARK VINA RESULT:      -8.1      1.905      2.476
REMARK  6 active torsions:
REMARK  status: ('A' for Active; 'I' for Inactive)
REMARK    1  A    between atoms: C5_5  and  O7_6 
REMARK    2  A    between atoms: C10_9  and  C11_10 
REMARK    3  A    between atoms: C22_20  and  C24_21 
REMARK    4  A    between atoms: C24_21  and  C27_23 
REMARK    5  A    between atoms: C28_24  and  C29_25 
REMARK    6  A    between atoms: C29_25  and  C32_27 
ROOT
ATOM      1  C11 <0> d   1      18.938  -2.008   7.490  0.00  0.00     0.004 C 
ATOM      2  C12 <0> d   1      19.308  -0.803   7.923  0.00  0.00    -0.075 C 
ATOM      3  C13 <0> d   1      19.196   0.444   7.058  0.00  0.00     0.034 C 
ATOM      4  C14 <0> d   1      18.484   1.565   7.814  0.00  0.00     0.005 C 
ATOM      5  C15 <0> d   1      19.069   1.762   9.223  0.00  0.00     0.010 C 
ATOM      6  C16 <0> d   1      18.916   0.456   9.968  0.00  0.00    -0.032 C 
ATOM      7  C17 <0> d   1      17.476  -0.040   9.829  0.00  0.00     0.016 C 
ATOM      8  C18 <0> d   1      19.858  -0.578   9.300  0.00  0.00     0.023 C 
ATOM      9  C20 <0> d   1      19.760  -1.748  10.281  0.00  0.00     0.010 C 
ATOM     10  C21 <0> d   1      19.815  -1.042  11.665  0.00  0.00     0.007 C 
ATOM     11  C22 <0> d   1      19.326   0.407  11.431  0.00  0.00     0.002 C 
ENDROOT
BRANCH   1  12
ATOM     12  C10 <0> d   1      18.407  -2.167   6.134  0.00  0.00     0.008 C 
ATOM     13  C9  <0> d   1      18.415  -3.381   5.545  0.00  0.00    -0.050 C 
ATOM     14  C2  <0> d   1      18.956  -4.575   6.227  0.00  0.00    -0.061 C 
ATOM     15  C8  <0> d   1      17.873  -3.588   4.140  0.00  0.00     0.070 C 
ATOM     16  C1  <0> d   1      20.093  -4.528   6.921  0.00  0.00     0.019 C 
ATOM     17  C3  <0> d   1      18.151  -5.854   6.106  0.00  0.00     0.041 C 
ATOM     18  C4  <0> d   1      17.762  -6.041   4.635  0.00  0.00     0.036 C 
ATOM     19  C5  <0> d   1      16.970  -4.826   4.151  0.00  0.00     0.122 C 
BRANCH  19  20
ATOM     20  O7  <0> d   1      16.486  -5.070   2.829  0.00  0.00    -0.395 OA
ATOM     21  H41 <0> d   1      16.273  -5.996   2.652  0.00  0.00     0.210 HD
ENDBRANCH  19  20
ENDBRANCH   1  12
BRANCH  11  22
ATOM     22  C24 <0> d   1      18.128   0.715  12.330  0.00  0.00     0.008 C 
ATOM     23  C26 <0> d   1      18.065   2.220  12.599  0.00  0.00     0.014 C 
BRANCH  22  24
ATOM     24  C27 <0> d   1      18.278  -0.021  13.637  0.00  0.00    -0.026 C 
ATOM     25  C28 <0> d   1      18.705   0.612  14.700  0.00  0.00    -0.026 C 
BRANCH  25  26
ATOM     26  C29 <0> d   1      18.857  -0.123  16.007  0.00  0.00     0.007 C 
ATOM     27  C31 <0> d   1      18.456  -1.588  15.817  0.00  0.00     0.014 C 
BRANCH  26  28
ATOM     28  C32 <0> d   1      17.955   0.520  17.063  0.00  0.00    -0.015 C 
ATOM     29  C33 <0> d   1      16.628  -0.240  17.131  0.00  0.00     0.010 C 
ATOM     30  C34 <0> d   1      18.647   0.463  18.426  0.00  0.00     0.010 C 
ENDBRANCH  26  28
ENDBRANCH  25  26
ENDBRANCH  22  24
ENDBRANCH  11  22
TORSDOF 6
ENDMDL
MODEL 7
REMARK VINA RESULT:      -8.1      3.194      9.135
REMARK  6 active torsions:
REMARK  status: ('A' for Active; 'I' for Inactive)
REMARK    1  A    between atoms: C5_5  and  O7_6 
REMARK    2  A    between atoms: C10_9  and  C11_10 
REMARK    3  A    between atoms: C22_20  and  C24_21 
REMARK    4  A    between atoms: C24_21  and  C27_23 
REMARK    5  A    between atoms: C28_24  and  C29_25 
REMARK    6  A    between atoms: C29_25  and  C32_27 
ROOT
ATOM      1  C11 <0> d   1      18.114  -2.210   9.784  0.00  0.00     0.004 C 
ATOM      2  C12 <0> d   1      18.198  -3.455  10.254  0.00  0.00    -0.075 C 
ATOM      3  C13 <0> d   1      17.775  -3.822  11.669  0.00  0.00     0.034 C 
ATOM      4  C14 <0> d   1      16.837  -5.027  11.657  0.00  0.00     0.005 C 
ATOM      5  C15 <0> d   1      17.391  -6.172  10.792  0.00  0.00     0.010 C 
ATOM      6  C16 <0> d   1      17.568  -5.639   9.389  0.00  0.00    -0.032 C 
ATOM      7  C17 <0> d   1      16.283  -4.937   8.948  0.00  0.00     0.016 C 
ATOM      8  C18 <0> d   1      18.712  -4.594   9.425  0.00  0.00     0.023 C 
ATOM      9  C20 <0> d   1      18.916  -4.324   7.933  0.00  0.00     0.010 C 
ATOM     10  C21 <0> d   1      18.835  -5.746   7.311  0.00  0.00     0.007 C 
ATOM     11  C22 <0> d   1      18.012  -6.605   8.301  0.00  0.00     0.002 C 
ENDROOT
BRANCH   1  12
ATOM     12  C10 <0> d   1      17.604  -1.137  10.640  0.00  0.00     0.008 C 
ATOM     13  C9  <0> d   1      18.147   0.096  10.572  0.00  0.00    -0.050 C 
ATOM     14  C2  <0> d   1      19.262   0.407   9.653  0.00  0.00    -0.061 C 
ATOM     15  C8  <0> d   1      17.647   1.236  11.443  0.00  0.00     0.070 C 
ATOM     16  C1  <0> d   1      20.291  -0.426   9.496  0.00  0.00     0.019 C 
ATOM     17  C3  <0> d   1      19.174   1.715   8.891  0.00  0.00     0.041 C 
ATOM     18  C4  <0> d   1      18.790   2.822   9.878  0.00  0.00     0.036 C 
ATOM     19  C5  <0> d   1      17.466   2.474  10.558  0.00  0.00     0.122 C 
BRANCH  19  20
ATOM     20  O7  <0> d   1      17.042   3.574  11.365  0.00  0.00    -0.395 OA
ATOM     21  H41 <0> d   1      17.734   4.226  11.539  0.00  0.00     0.210 HD
ENDBRANCH  19  20
ENDBRANCH   1  12
BRANCH  11  22
ATOM     22  C24 <0> d   1      16.796  -7.209   7.597  0.00  0.00     0.008 C 
ATOM     23  C26 <0> d   1      16.749  -8.715   7.862  0.00  0.00     0.014 C 
BRANCH  22  24
ATOM     24  C27 <0> d   1      16.903  -6.964   6.113  0.00  0.00    -0.026 C 
ATOM     25  C28 <0> d   1      16.017  -6.212   5.508  0.00  0.00    -0.026 C 
BRANCH  25  26
ATOM     26  C29 <0> d   1      16.123  -5.967   4.025  0.00  0.00     0.007 C 
ATOM     27  C31 <0> d   1      17.440  -6.547   3.505  0.00  0.00     0.014 C 
BRANCH  26  28
ATOM     28  C32 <0> d   1      16.085  -4.462   3.752  0.00  0.00    -0.015 C 
ATOM     29  C33 <0> d   1      17.422  -3.836   4.155  0.00  0.00     0.010 C 
ATOM     30  C34 <0> d   1      15.837  -4.221   2.261  0.00  0.00     0.010 C 
ENDBRANCH  26  28
ENDBRANCH  25  26
ENDBRANCH  22  24
ENDBRANCH  11  22
TORSDOF 6
ENDMDL
MODEL 8
REMARK VINA RESULT:      -7.9      3.393      8.755
REMARK  6 active torsions:
REMARK  status: ('A' for Active; 'I' for Inactive)
REMARK    1  A    between atoms: C5_5  and  O7_6 
REMARK    2  A    between atoms: C10_9  and  C11_10 
REMARK    3  A    between atoms: C22_20  and  C24_21 
REMARK    4  A    between atoms: C24_21  and  C27_23 
REMARK    5  A    between atoms: C28_24  and  C29_25 
REMARK    6  A    between atoms: C29_25  and  C32_27 
ROOT
ATOM      1  C11 <0> d   1      17.826   0.604  11.161  0.00  0.00     0.004 C 
ATOM      2  C12 <0> d   1      18.741  -0.365  11.207  0.00  0.00    -0.075 C 
ATOM      3  C13 <0> d   1      19.658  -0.565  12.405  0.00  0.00     0.034 C 
ATOM      4  C14 <0> d   1      19.638  -2.022  12.863  0.00  0.00     0.005 C 
ATOM      5  C15 <0> d   1      19.833  -2.993  11.685  0.00  0.00     0.010 C 
ATOM      6  C16 <0> d   1      18.715  -2.744  10.700  0.00  0.00    -0.032 C 
ATOM      7  C17 <0> d   1      17.377  -2.744  11.442  0.00  0.00     0.016 C 
ATOM      8  C18 <0> d   1      18.935  -1.339  10.083  0.00  0.00     0.023 C 
ATOM      9  C20 <0> d   1      17.882  -1.332   8.974  0.00  0.00     0.010 C 
ATOM     10  C21 <0> d   1      18.010  -2.758   8.368  0.00  0.00     0.007 C 
ATOM     11  C22 <0> d   1      18.613  -3.648   9.481  0.00  0.00     0.002 C 
ENDROOT
BRANCH   1  12
ATOM     12  C10 <0> d   1      17.681   1.527  12.290  0.00  0.00     0.008 C 
ATOM     13  C9  <0> d   1      17.751   2.858  12.084  0.00  0.00    -0.050 C 
ATOM     14  C2  <0> d   1      17.978   3.429  10.741  0.00  0.00    -0.061 C 
ATOM     15  C8  <0> d   1      17.605   3.848  13.228  0.00  0.00     0.070 C 
ATOM     16  C1  <0> d   1      18.878   2.910   9.904  0.00  0.00     0.019 C 
ATOM     17  C3  <0> d   1      17.135   4.629  10.356  0.00  0.00     0.041 C 
ATOM     18  C4  <0> d   1      17.156   5.625  11.520  0.00  0.00     0.036 C 
ATOM     19  C5  <0> d   1      16.634   4.950  12.789  0.00  0.00     0.122 C 
BRANCH  19  20
ATOM     20  O7  <0> d   1      16.518   5.921  13.831  0.00  0.00    -0.395 OA
ATOM     21  H41 <0> d   1      16.032   6.717  13.576  0.00  0.00     0.210 HD
ENDBRANCH  19  20
ENDBRANCH   1  12
BRANCH  11  22
ATOM     22  C24 <0> d   1      17.691  -4.833   9.772  0.00  0.00     0.008 C 
ATOM     23  C26 <0> d   1      18.522  -6.113   9.876  0.00  0.00     0.014 C 
BRANCH  22  24
ATOM     24  C27 <0> d   1      16.689  -4.975   8.655  0.00  0.00    -0.026 C 
ATOM     25  C28 <0> d   1      15.862  -5.991   8.642  0.00  0.00    -0.026 C 
BRANCH  25  26
ATOM     26  C29 <0> d   1      14.861  -6.135   7.526  0.00  0.00     0.007 C 
ATOM     27  C31 <0> d   1      13.447  -6.170   8.110  0.00  0.00     0.014 C 
BRANCH  26  28
ATOM     28  C32 <0> d   1      15.130  -7.433   6.761  0.00  0.00    -0.015 C 
ATOM     29  C33 <0> d   1      16.020  -7.137   5.552  0.00  0.00     0.010 C 
ATOM     30  C34 <0> d   1      15.836  -8.429   7.682  0.00  0.00     0.010 C 
ENDBRANCH  26  28
ENDBRANCH  25  26
ENDBRANCH  22  24
ENDBRANCH  11  22
TORSDOF 6
ENDMDL
MODEL 9
REMARK VINA RESULT:      -7.9      2.905      5.216
REMARK  6 active torsions:
REMARK  status: ('A' for Active; 'I' for Inactive)
REMARK    1  A    between atoms: C5_5  and  O7_6 
REMARK    2  A    between atoms: C10_9  and  C11_10 
REMARK    3  A    between atoms: C22_20  and  C24_21 
REMARK    4  A    between atoms: C24_21  and  C27_23 
REMARK    5  A    between atoms: C28_24  and  C29_25 
REMARK    6  A    between atoms: C29_25  and  C32_27 
ROOT
ATOM      1  C11 <0> d   1      18.911   0.252  10.297  0.00  0.00     0.004 C 
ATOM      2  C12 <0> d   1      18.426  -0.324  11.398  0.00  0.00    -0.075 C 
ATOM      3  C13 <0> d   1      18.523  -1.822  11.644  0.00  0.00     0.034 C 
ATOM      4  C14 <0> d   1      19.093  -2.105  13.033  0.00  0.00     0.005 C 
ATOM      5  C15 <0> d   1      18.384  -1.280  14.120  0.00  0.00     0.010 C 
ATOM      6  C16 <0> d   1      18.564   0.181  13.774  0.00  0.00    -0.032 C 
ATOM      7  C17 <0> d   1      20.041   0.453  13.486  0.00  0.00     0.016 C 
ATOM      8  C18 <0> d   1      17.752   0.461  12.483  0.00  0.00     0.023 C 
ATOM      9  C20 <0> d   1      17.849   1.985  12.395  0.00  0.00     0.010 C 
ATOM     10  C21 <0> d   1      17.634   2.430  13.869  0.00  0.00     0.007 C 
ATOM     11  C22 <0> d   1      18.040   1.224  14.748  0.00  0.00     0.002 C 
ENDROOT
BRANCH   1  12
ATOM     12  C10 <0> d   1      19.561  -0.566   9.269  0.00  0.00     0.008 C 
ATOM     13  C9  <0> d   1      18.906  -0.857   8.127  0.00  0.00    -0.050 C 
ATOM     14  C2  <0> d   1      17.532  -0.378   7.871  0.00  0.00    -0.061 C 
ATOM     15  C8  <0> d   1      19.545  -1.701   7.036  0.00  0.00     0.070 C 
ATOM     16  C1  <0> d   1      16.593  -0.413   8.817  0.00  0.00     0.019 C 
ATOM     17  C3  <0> d   1      17.243   0.162   6.485  0.00  0.00     0.041 C 
ATOM     18  C4  <0> d   1      17.812  -0.821   5.456  0.00  0.00     0.036 C 
ATOM     19  C5  <0> d   1      19.311  -1.006   5.691  0.00  0.00     0.122 C 
BRANCH  19  20
ATOM     20  O7  <0> d   1      19.861  -1.807   4.643  0.00  0.00    -0.395 OA
ATOM     21  H41 <0> d   1      20.556  -1.367   4.134  0.00  0.00     0.210 HD
ENDBRANCH  19  20
ENDBRANCH   1  12
BRANCH  11  22
ATOM     22  C24 <0> d   1      19.138   1.630  15.733  0.00  0.00     0.008 C 
ATOM     23  C26 <0> d   1      19.079   0.725  16.965  0.00  0.00     0.014 C 
BRANCH  22  24
ATOM     24  C27 <0> d   1      18.930   3.063  16.153  0.00  0.00    -0.026 C 
ATOM     25  C28 <0> d   1      19.812   3.975  15.830  0.00  0.00    -0.026 C 
BRANCH  25  26
ATOM     26  C29 <0> d   1      19.605   5.407  16.250  0.00  0.00     0.007 C 
ATOM     27  C31 <0> d   1      18.388   5.497  17.173  0.00  0.00     0.014 C 
BRANCH  26  28
ATOM     28  C32 <0> d   1      19.371   6.274  15.011  0.00  0.00    -0.015 C 
ATOM     29  C33 <0> d   1      20.092   5.654  13.812  0.00  0.00     0.010 C 
ATOM     30  C34 <0> d   1      17.871   6.352  14.721  0.00  0.00     0.010 C 
ENDBRANCH  26  28
ENDBRANCH  25  26
ENDBRANCH  22  24
ENDBRANCH  11  22
TORSDOF 6
ENDMDL
