MODEL 1
REMARK VINA RESULT:      -8.7      0.000      0.000
REMARK  5 active torsions:
REMARK  status: ('A' for Active; 'I' for Inactive)
REMARK       I    between atoms: C2_2  and  N3_3 
REMARK    1  A    between atoms: C2_2  and  C25_24 
REMARK    2  A    between atoms: N3_3  and  C4_4 
REMARK    3  A    between atoms: C4_4  and  C5_5 
REMARK    4  A    between atoms: N8_7  and  C9_8 
REMARK    5  A    between atoms: C12_11  and  N13_12 
ROOT
ATOM      1  C5  <0> d   1      17.996   5.600  13.778  0.00  0.00     0.170 A 
ATOM      2  C7  <0> d   1      18.598   4.334  13.138  0.00  0.00     0.168 A 
ATOM      3  N8  <0> d   1      17.726   4.078  11.980  0.00  0.00    -0.291 N 
ATOM      4  C22 <0> d   1      16.775   5.021  11.937  0.00  0.00     0.368 A 
ATOM      5  O23 <0> d   1      15.914   5.054  11.080  0.00  0.00    -0.238 OA
ATOM      6  O24 <0> d   1      16.860   5.924  12.924  0.00  0.00    -0.295 OA
ENDROOT
BRANCH   3   7
ATOM      7  C9  <0> d   1      17.868   3.020  11.072  0.00  0.00     0.039 A 
ATOM      8  C21 <0> d   1      17.288   1.788  11.346  0.00  0.00     0.032 A 
ATOM      9  C20 <0> d   1      17.423   0.748  10.449  0.00  0.00     0.032 A 
ATOM     10  C12 <0> d   1      18.149   0.930   9.279  0.00  0.00     0.037 A 
ATOM     11  C11 <0> d   1      18.734   2.160   9.008  0.00  0.00     0.032 A 
ATOM     12  C10 <0> d   1      18.593   3.202   9.903  0.00  0.00     0.032 A 
BRANCH  10  13
ATOM     13  N13 <0> d   1      18.290  -0.128   8.371  0.00  0.00    -0.314 N 
ATOM     14  C18 <0> d   1      19.187  -1.087   8.634  0.00  0.00     0.248 C 
ATOM     15  C17 <0> d   1      19.431  -2.238   7.700  0.00  0.00     0.271 C 
ATOM     16  O19 <0> d   1      19.819  -1.027   9.668  0.00  0.00    -0.271 OA
ATOM     17  O16 <0> d   1      18.364  -2.331   6.755  0.00  0.00    -0.380 OA
ATOM     18  C15 <0> d   1      18.062  -1.080   6.125  0.00  0.00     0.188 C 
ATOM     19  C14 <0> d   1      17.458  -0.139   7.171  0.00  0.00     0.158 C 
ENDBRANCH  10  13
ENDBRANCH   3   7
BRANCH   1  20
ATOM     20  C4  <0> d   1      17.528   5.309  15.204  0.00  0.00     0.157 C 
BRANCH  20  21
ATOM     21  N3  <0> d   1      17.792   3.906  15.530  0.00  0.00    -0.354 N 
ATOM     22  C2  <0> d   1      18.491   3.590  16.639  0.00  0.00     0.258 C 
ATOM     23  O1  <0> d   1      18.902   4.472  17.370  0.00  0.00    -0.267 OA
ATOM     24  H31 <0> d   1      17.464   3.203  14.947  0.00  0.00     0.162 HD
BRANCH  22  25
ATOM     25  C25 <0> d   1      18.760   2.188  16.960  0.00  0.00     0.074 A 
ATOM     26  S30 <0> d   1      18.699   0.850  15.820  0.00  0.00    -0.072 SA
ATOM     27  C28 <0> d   1      19.126  -0.268  17.037  0.00  0.00     0.075 A 
ATOM     28  C27 <0> d   1      19.292   0.348  18.215  0.00  0.00     0.033 A 
ATOM     29 Cl29 <0> d   1      19.314  -1.975  16.783  0.00  0.00    -0.076 Cl
ATOM     30  C26 <0> d   1      19.094   1.707  18.196  0.00  0.00     0.027 A 
ENDBRANCH  22  25
ENDBRANCH  20  21
ENDBRANCH   1  20
TORSDOF 5
ENDMDL
MODEL 2
REMARK VINA RESULT:      -8.5      1.574      2.012
REMARK  5 active torsions:
REMARK  status: ('A' for Active; 'I' for Inactive)
REMARK       I    between atoms: C2_2  and  N3_3 
REMARK    1  A    between atoms: C2_2  and  C25_24 
REMARK    2  A    between atoms: N3_3  and  C4_4 
REMARK    3  A    between atoms: C4_4  and  C5_5 
REMARK    4  A    between atoms: N8_7  and  C9_8 
REMARK    5  A    between atoms: C12_11  and  N13_12 
ROOT
ATOM      1  C5  <0> d   1      19.356   4.852  12.732  0.00  0.00     0.170 A 
ATOM      2  C7  <0> d   1      19.788   3.669  11.844  0.00  0.00     0.168 A 
ATOM      3  N8  <0> d   1      18.609   3.416  10.999  0.00  0.00    -0.291 N 
ATOM      4  C22 <0> d   1      17.648   4.291  11.324  0.00  0.00     0.368 A 
ATOM      5  O23 <0> d   1      16.560   4.312  10.783  0.00  0.00    -0.238 OA
ATOM      6  O24 <0> d   1      17.995   5.143  12.300  0.00  0.00    -0.295 OA
ENDROOT
BRANCH   3   7
ATOM      7  C9  <0> d   1      18.510   2.423  10.016  0.00  0.00     0.039 A 
ATOM      8  C21 <0> d   1      19.187   2.568   8.812  0.00  0.00     0.032 A 
ATOM      9  C20 <0> d   1      19.093   1.587   7.846  0.00  0.00     0.032 A 
ATOM     10  C12 <0> d   1      18.312   0.460   8.073  0.00  0.00     0.037 A 
ATOM     11  C11 <0> d   1      17.630   0.319   9.275  0.00  0.00     0.032 A 
ATOM     12  C10 <0> d   1      17.730   1.298  10.243  0.00  0.00     0.032 A 
BRANCH  10  13
ATOM     13  N13 <0> d   1      18.212  -0.533   7.090  0.00  0.00    -0.314 N 
ATOM     14  C18 <0> d   1      18.943  -1.647   7.224  0.00  0.00     0.248 C 
ATOM     15  C17 <0> d   1      18.925  -2.748   6.202  0.00  0.00     0.271 C 
ATOM     16  O19 <0> d   1      19.636  -1.775   8.211  0.00  0.00    -0.271 OA
ATOM     17  O16 <0> d   1      17.803  -2.587   5.333  0.00  0.00    -0.380 OA
ATOM     18  C15 <0> d   1      17.686  -1.257   4.810  0.00  0.00     0.188 C 
ATOM     19  C14 <0> d   1      17.319  -0.311   5.956  0.00  0.00     0.158 C 
ENDBRANCH  10  13
ENDBRANCH   3   7
BRANCH   1  20
ATOM     20  C4  <0> d   1      19.376   4.451  14.207  0.00  0.00     0.157 C 
BRANCH  20  21
ATOM     21  N3  <0> d   1      19.103   3.018  14.329  0.00  0.00    -0.354 N 
ATOM     22  C2  <0> d   1      18.839   2.481  15.537  0.00  0.00     0.258 C 
ATOM     23  O1  <0> d   1      18.828   3.188  16.527  0.00  0.00    -0.267 OA
ATOM     24  H31 <0> d   1      19.111   2.454  13.539  0.00  0.00     0.162 HD
BRANCH  22  25
ATOM     25  C25 <0> d   1      18.572   1.047  15.658  0.00  0.00     0.074 A 
ATOM     26  S30 <0> d   1      17.554   0.299  16.882  0.00  0.00    -0.072 SA
ATOM     27  C28 <0> d   1      17.846  -1.256  16.241  0.00  0.00     0.075 A 
ATOM     28  C27 <0> d   1      18.663  -1.191  15.182  0.00  0.00     0.033 A 
ATOM     29 Cl29 <0> d   1      17.179  -2.726  16.881  0.00  0.00    -0.076 Cl
ATOM     30  C26 <0> d   1      19.077   0.073  14.842  0.00  0.00     0.027 A 
ENDBRANCH  22  25
ENDBRANCH  20  21
ENDBRANCH   1  20
TORSDOF 5
ENDMDL
MODEL 3
REMARK VINA RESULT:      -8.4      4.222      9.083
REMARK  5 active torsions:
REMARK  status: ('A' for Active; 'I' for Inactive)
REMARK       I    between atoms: C2_2  and  N3_3 
REMARK    1  A    between atoms: C2_2  and  C25_24 
REMARK    2  A    between atoms: N3_3  and  C4_4 
REMARK    3  A    between atoms: C4_4  and  C5_5 
REMARK    4  A    between atoms: N8_7  and  C9_8 
REMARK    5  A    between atoms: C12_11  and  N13_12 
ROOT
ATOM      1  C5  <0> d   1      17.783  -0.152   8.173  0.00  0.00     0.170 A 
ATOM      2  C7  <0> d   1      17.751  -0.586   9.651  0.00  0.00     0.168 A 
ATOM      3  N8  <0> d   1      18.345   0.556  10.365  0.00  0.00    -0.291 N 
ATOM      4  C22 <0> d   1      18.672   1.502   9.473  0.00  0.00     0.368 A 
ATOM      5  O23 <0> d   1      19.183   2.559   9.785  0.00  0.00    -0.238 OA
ATOM      6  O24 <0> d   1      18.383   1.175   8.204  0.00  0.00    -0.295 OA
ENDROOT
BRANCH   3   7
ATOM      7  C9  <0> d   1      18.537   0.641  11.750  0.00  0.00     0.039 A 
ATOM      8  C21 <0> d   1      19.797   0.420  12.290  0.00  0.00     0.032 A 
ATOM      9  C20 <0> d   1      19.987   0.509  13.654  0.00  0.00     0.032 A 
ATOM     10  C12 <0> d   1      18.917   0.807  14.487  0.00  0.00     0.037 A 
ATOM     11  C11 <0> d   1      17.656   1.023  13.947  0.00  0.00     0.032 A 
ATOM     12  C10 <0> d   1      17.467   0.939  12.582  0.00  0.00     0.032 A 
BRANCH  10  13
ATOM     13  N13 <0> d   1      19.109   0.892  15.872  0.00  0.00    -0.314 N 
ATOM     14  C18 <0> d   1      19.050  -0.230  16.600  0.00  0.00     0.248 C 
ATOM     15  C17 <0> d   1      19.208  -0.229  18.095  0.00  0.00     0.271 C 
ATOM     16  O19 <0> d   1      18.871  -1.286  16.032  0.00  0.00    -0.271 OA
ATOM     17  O16 <0> d   1      19.767   1.015  18.523  0.00  0.00    -0.380 OA
ATOM     18  C15 <0> d   1      19.090   2.152  17.973  0.00  0.00     0.188 C 
ATOM     19  C14 <0> d   1      19.361   2.202  16.468  0.00  0.00     0.158 C 
ENDBRANCH  10  13
ENDBRANCH   3   7
BRANCH   1  20
ATOM     20  C4  <0> d   1      18.645  -1.111   7.351  0.00  0.00     0.157 C 
BRANCH  20  21
ATOM     21  N3  <0> d   1      18.193  -2.486   7.569  0.00  0.00    -0.354 N 
ATOM     22  C2  <0> d   1      18.917  -3.519   7.093  0.00  0.00     0.258 C 
ATOM     23  O1  <0> d   1      19.947  -3.308   6.481  0.00  0.00    -0.267 OA
ATOM     24  H31 <0> d   1      17.371  -2.654   8.057  0.00  0.00     0.162 HD
BRANCH  22  25
ATOM     25  C25 <0> d   1      18.460  -4.893   7.307  0.00  0.00     0.074 A 
ATOM     26  S30 <0> d   1      18.351  -6.136   6.067  0.00  0.00    -0.072 SA
ATOM     27  C28 <0> d   1      17.772  -7.277   7.196  0.00  0.00     0.075 A 
ATOM     28  C27 <0> d   1      17.669  -6.733   8.416  0.00  0.00     0.033 A 
ATOM     29 Cl29 <0> d   1      17.363  -8.921   6.814  0.00  0.00    -0.076 Cl
ATOM     30  C26 <0> d   1      18.045  -5.415   8.500  0.00  0.00     0.027 A 
ENDBRANCH  22  25
ENDBRANCH  20  21
ENDBRANCH   1  20
TORSDOF 5
ENDMDL
MODEL 4
REMARK VINA RESULT:      -8.3      4.539      9.902
REMARK  5 active torsions:
REMARK  status: ('A' for Active; 'I' for Inactive)
REMARK       I    between atoms: C2_2  and  N3_3 
REMARK    1  A    between atoms: C2_2  and  C25_24 
REMARK    2  A    between atoms: N3_3  and  C4_4 
REMARK    3  A    between atoms: C4_4  and  C5_5 
REMARK    4  A    between atoms: N8_7  and  C9_8 
REMARK    5  A    between atoms: C12_11  and  N13_12 
ROOT
ATOM      1  C5  <0> d   1      17.986  -0.167   8.216  0.00  0.00     0.170 A 
ATOM      2  C7  <0> d   1      17.935  -0.593   9.696  0.00  0.00     0.168 A 
ATOM      3  N8  <0> d   1      18.477   0.571  10.415  0.00  0.00    -0.291 N 
ATOM      4  C22 <0> d   1      18.794   1.521   9.525  0.00  0.00     0.368 A 
ATOM      5  O23 <0> d   1      19.266   2.595   9.842  0.00  0.00    -0.238 OA
ATOM      6  O24 <0> d   1      18.543   1.179   8.253  0.00  0.00    -0.295 OA
ENDROOT
BRANCH   3   7
ATOM      7  C9  <0> d   1      18.636   0.669  11.804  0.00  0.00     0.039 A 
ATOM      8  C21 <0> d   1      19.875   0.417  12.380  0.00  0.00     0.032 A 
ATOM      9  C20 <0> d   1      20.033   0.519  13.747  0.00  0.00     0.032 A 
ATOM     10  C12 <0> d   1      18.951   0.861  14.548  0.00  0.00     0.037 A 
ATOM     11  C11 <0> d   1      17.712   1.108  13.972  0.00  0.00     0.032 A 
ATOM     12  C10 <0> d   1      17.556   1.011  12.604  0.00  0.00     0.032 A 
BRANCH  10  13
ATOM     13  N13 <0> d   1      19.110   0.960  15.936  0.00  0.00    -0.314 N 
ATOM     14  C18 <0> d   1      19.024  -0.154  16.674  0.00  0.00     0.248 C 
ATOM     15  C17 <0> d   1      19.147  -0.138  18.172  0.00  0.00     0.271 C 
ATOM     16  O19 <0> d   1      18.850  -1.215  16.112  0.00  0.00    -0.271 OA
ATOM     17  O16 <0> d   1      19.706   1.105  18.600  0.00  0.00    -0.380 OA
ATOM     18  C15 <0> d   1      19.052   2.242  18.023  0.00  0.00     0.188 C 
ATOM     19  C14 <0> d   1      19.359   2.274  16.524  0.00  0.00     0.158 C 
ENDBRANCH  10  13
ENDBRANCH   3   7
BRANCH   1  20
ATOM     20  C4  <0> d   1      18.895  -1.102   7.419  0.00  0.00     0.157 C 
BRANCH  20  21
ATOM     21  N3  <0> d   1      18.077  -2.035   6.641  0.00  0.00    -0.354 N 
ATOM     22  C2  <0> d   1      18.500  -2.460   5.434  0.00  0.00     0.258 C 
ATOM     23  O1  <0> d   1      19.563  -2.067   4.990  0.00  0.00    -0.267 OA
ATOM     24  H31 <0> d   1      17.230  -2.348   6.996  0.00  0.00     0.162 HD
BRANCH  22  25
ATOM     25  C25 <0> d   1      17.678  -3.388   4.655  0.00  0.00     0.074 A 
ATOM     26  S30 <0> d   1      17.669  -5.137   4.833  0.00  0.00    -0.072 SA
ATOM     27  C28 <0> d   1      16.498  -5.303   3.602  0.00  0.00     0.075 A 
ATOM     28  C27 <0> d   1      16.159  -4.108   3.101  0.00  0.00     0.033 A 
ATOM     29 Cl29 <0> d   1      15.841  -6.818   3.066  0.00  0.00    -0.076 Cl
ATOM     30  C26 <0> d   1      16.800  -3.034   3.669  0.00  0.00     0.027 A 
ENDBRANCH  22  25
ENDBRANCH  20  21
ENDBRANCH   1  20
TORSDOF 5
ENDMDL
MODEL 5
REMARK VINA RESULT:      -8.3      3.558      5.046
REMARK  5 active torsions:
REMARK  status: ('A' for Active; 'I' for Inactive)
REMARK       I    between atoms: C2_2  and  N3_3 
REMARK    1  A    between atoms: C2_2  and  C25_24 
REMARK    2  A    between atoms: N3_3  and  C4_4 
REMARK    3  A    between atoms: C4_4  and  C5_5 
REMARK    4  A    between atoms: N8_7  and  C9_8 
REMARK    5  A    between atoms: C12_11  and  N13_12 
ROOT
ATOM      1  C5  <0> d   1      17.882   0.203  14.705  0.00  0.00     0.170 A 
ATOM      2  C7  <0> d   1      17.738   0.547  13.210  0.00  0.00     0.168 A 
ATOM      3  N8  <0> d   1      18.487  -0.523  12.531  0.00  0.00    -0.291 N 
ATOM      4  C22 <0> d   1      18.986  -1.356  13.454  0.00  0.00     0.368 A 
ATOM      5  O23 <0> d   1      19.651  -2.333  13.174  0.00  0.00    -0.238 OA
ATOM      6  O24 <0> d   1      18.685  -1.013  14.715  0.00  0.00    -0.295 OA
ENDROOT
BRANCH   3   7
ATOM      7  C9  <0> d   1      18.650  -0.649  11.145  0.00  0.00     0.039 A 
ATOM      8  C21 <0> d   1      19.846  -0.270  10.550  0.00  0.00     0.032 A 
ATOM      9  C20 <0> d   1      20.009  -0.399   9.185  0.00  0.00     0.032 A 
ATOM     10  C12 <0> d   1      18.973  -0.898   8.406  0.00  0.00     0.037 A 
ATOM     11  C11 <0> d   1      17.775  -1.271   9.001  0.00  0.00     0.032 A 
ATOM     12  C10 <0> d   1      17.615  -1.147  10.366  0.00  0.00     0.032 A 
BRANCH  10  13
ATOM     13  N13 <0> d   1      19.136  -1.024   7.021  0.00  0.00    -0.314 N 
ATOM     14  C18 <0> d   1      19.040   0.073   6.258  0.00  0.00     0.248 C 
ATOM     15  C17 <0> d   1      19.166   0.025   4.761  0.00  0.00     0.271 C 
ATOM     16  O19 <0> d   1      18.853   1.143   6.797  0.00  0.00    -0.271 OA
ATOM     17  O16 <0> d   1      19.739  -1.221   4.362  0.00  0.00    -0.380 OA
ATOM     18  C15 <0> d   1      19.096  -2.352   4.963  0.00  0.00     0.188 C 
ATOM     19  C14 <0> d   1      19.401  -2.348   6.463  0.00  0.00     0.158 C 
ENDBRANCH  10  13
ENDBRANCH   3   7
BRANCH   1  20
ATOM     20  C4  <0> d   1      18.603   1.328  15.448  0.00  0.00     0.157 C 
BRANCH  20  21
ATOM     21  N3  <0> d   1      18.053   2.620  15.033  0.00  0.00    -0.354 N 
ATOM     22  C2  <0> d   1      18.572   3.764  15.523  0.00  0.00     0.258 C 
ATOM     23  O1  <0> d   1      19.499   3.722  16.311  0.00  0.00    -0.267 OA
ATOM     24  H31 <0> d   1      17.314   2.653  14.405  0.00  0.00     0.162 HD
BRANCH  22  25
ATOM     25  C25 <0> d   1      18.018   5.055  15.112  0.00  0.00     0.074 A 
ATOM     26  S30 <0> d   1      18.720   6.627  15.468  0.00  0.00    -0.072 SA
ATOM     27  C28 <0> d   1      17.461   7.429  14.641  0.00  0.00     0.075 A 
ATOM     28  C27 <0> d   1      16.579   6.551  14.145  0.00  0.00     0.033 A 
ATOM     29 Cl29 <0> d   1      17.336   9.153  14.473  0.00  0.00    -0.076 Cl
ATOM     30  C26 <0> d   1      16.868   5.232  14.394  0.00  0.00     0.027 A 
ENDBRANCH  22  25
ENDBRANCH  20  21
ENDBRANCH   1  20
TORSDOF 5
ENDMDL
MODEL 6
REMARK VINA RESULT:      -8.0      5.516      8.437
REMARK  5 active torsions:
REMARK  status: ('A' for Active; 'I' for Inactive)
REMARK       I    between atoms: C2_2  and  N3_3 
REMARK    1  A    between atoms: C2_2  and  C25_24 
REMARK    2  A    between atoms: N3_3  and  C4_4 
REMARK    3  A    between atoms: C4_4  and  C5_5 
REMARK    4  A    between atoms: N8_7  and  C9_8 
REMARK    5  A    between atoms: C12_11  and  N13_12 
ROOT
ATOM      1  C5  <0> d   1      18.466  -1.921  12.531  0.00  0.00     0.170 A 
ATOM      2  C7  <0> d   1      17.504  -2.444  11.447  0.00  0.00     0.168 A 
ATOM      3  N8  <0> d   1      18.219  -3.594  10.870  0.00  0.00    -0.291 N 
ATOM      4  C22 <0> d   1      19.395  -3.732  11.497  0.00  0.00     0.368 A 
ATOM      5  O23 <0> d   1      20.194  -4.606  11.223  0.00  0.00    -0.238 OA
ATOM      6  O24 <0> d   1      19.610  -2.820  12.456  0.00  0.00    -0.295 OA
ENDROOT
BRANCH   3   7
ATOM      7  C9  <0> d   1      17.746  -4.411   9.835  0.00  0.00     0.039 A 
ATOM      8  C21 <0> d   1      18.092  -4.132   8.518  0.00  0.00     0.032 A 
ATOM      9  C20 <0> d   1      17.631  -4.939   7.498  0.00  0.00     0.032 A 
ATOM     10  C12 <0> d   1      16.812  -6.024   7.787  0.00  0.00     0.037 A 
ATOM     11  C11 <0> d   1      16.462  -6.299   9.102  0.00  0.00     0.032 A 
ATOM     12  C10 <0> d   1      16.928  -5.494  10.123  0.00  0.00     0.032 A 
BRANCH  10  13
ATOM     13  N13 <0> d   1      16.340  -6.840   6.751  0.00  0.00    -0.314 N 
ATOM     14  C18 <0> d   1      17.087  -7.880   6.360  0.00  0.00     0.248 C 
ATOM     15  C17 <0> d   1      16.675  -8.787   5.234  0.00  0.00     0.271 C 
ATOM     16  O19 <0> d   1      18.128  -8.102   6.940  0.00  0.00    -0.271 OA
ATOM     17  O16 <0> d   1      15.291  -8.596   4.938  0.00  0.00    -0.380 OA
ATOM     18  C15 <0> d   1      14.937  -7.217   4.778  0.00  0.00     0.188 C 
ATOM     19  C14 <0> d   1      15.053  -6.522   6.137  0.00  0.00     0.158 C 
ENDBRANCH  10  13
ENDBRANCH   3   7
BRANCH   1  20
ATOM     20  C4  <0> d   1      18.892  -0.485  12.223  0.00  0.00     0.157 C 
BRANCH  20  21
ATOM     21  N3  <0> d   1      18.610  -0.181  10.818  0.00  0.00    -0.354 N 
ATOM     22  C2  <0> d   1      19.608  -0.188   9.912  0.00  0.00     0.258 C 
ATOM     23  O1  <0> d   1      20.745  -0.447  10.262  0.00  0.00    -0.267 OA
ATOM     24  H31 <0> d   1      17.703   0.025  10.540  0.00  0.00     0.162 HD
BRANCH  22  25
ATOM     25  C25 <0> d   1      19.326   0.121   8.509  0.00  0.00     0.074 A 
ATOM     26  S30 <0> d   1      19.126  -1.062   7.224  0.00  0.00    -0.072 SA
ATOM     27  C28 <0> d   1      18.853   0.167   6.072  0.00  0.00     0.075 A 
ATOM     28  C27 <0> d   1      18.920   1.378   6.639  0.00  0.00     0.033 A 
ATOM     29 Cl29 <0> d   1      18.538  -0.115   4.387  0.00  0.00    -0.076 Cl
ATOM     30  C26 <0> d   1      19.181   1.377   7.988  0.00  0.00     0.027 A 
ENDBRANCH  22  25
ENDBRANCH  20  21
ENDBRANCH   1  20
TORSDOF 5
ENDMDL
MODEL 7
REMARK VINA RESULT:      -7.9      2.353      3.513
REMARK  5 active torsions:
REMARK  status: ('A' for Active; 'I' for Inactive)
REMARK       I    between atoms: C2_2  and  N3_3 
REMARK    1  A    between atoms: C2_2  and  C25_24 
REMARK    2  A    between atoms: N3_3  and  C4_4 
REMARK    3  A    between atoms: C4_4  and  C5_5 
REMARK    4  A    between atoms: N8_7  and  C9_8 
REMARK    5  A    between atoms: C12_11  and  N13_12 
ROOT
ATOM      1  C5  <0> d   1      18.552   3.509  10.932  0.00  0.00     0.170 A 
ATOM      2  C7  <0> d   1      19.102   2.362  10.062  0.00  0.00     0.168 A 
ATOM      3  N8  <0> d   1      18.274   1.206  10.442  0.00  0.00    -0.291 N 
ATOM      4  C22 <0> d   1      17.389   1.593  11.371  0.00  0.00     0.368 A 
ATOM      5  O23 <0> d   1      16.576   0.839  11.867  0.00  0.00    -0.238 OA
ATOM      6  O24 <0> d   1      17.482   2.889  11.703  0.00  0.00    -0.295 OA
ENDROOT
BRANCH   3   7
ATOM      7  C9  <0> d   1      18.391  -0.088   9.917  0.00  0.00     0.039 A 
ATOM      8  C21 <0> d   1      19.208  -1.019  10.546  0.00  0.00     0.032 A 
ATOM      9  C20 <0> d   1      19.320  -2.296  10.032  0.00  0.00     0.032 A 
ATOM     10  C12 <0> d   1      18.625  -2.645   8.881  0.00  0.00     0.037 A 
ATOM     11  C11 <0> d   1      17.814  -1.711   8.250  0.00  0.00     0.032 A 
ATOM     12  C10 <0> d   1      17.698  -0.437   8.767  0.00  0.00     0.032 A 
BRANCH  10  13
ATOM     13  N13 <0> d   1      18.743  -3.938   8.357  0.00  0.00    -0.314 N 
ATOM     14  C18 <0> d   1      19.472  -4.120   7.248  0.00  0.00     0.248 C 
ATOM     15  C17 <0> d   1      19.624  -5.466   6.597  0.00  0.00     0.271 C 
ATOM     16  O19 <0> d   1      20.037  -3.165   6.758  0.00  0.00    -0.271 OA
ATOM     17  O16 <0> d   1      19.210  -6.492   7.501  0.00  0.00    -0.380 OA
ATOM     18  C15 <0> d   1      17.931  -6.235   8.093  0.00  0.00     0.188 C 
ATOM     19  C14 <0> d   1      18.061  -5.037   9.037  0.00  0.00     0.158 C 
ENDBRANCH  10  13
ENDBRANCH   3   7
BRANCH   1  20
ATOM     20  C4  <0> d   1      19.641   4.045  11.862  0.00  0.00     0.157 C 
BRANCH  20  21
ATOM     21  N3  <0> d   1      19.623   3.297  13.121  0.00  0.00    -0.354 N 
ATOM     22  C2  <0> d   1      19.185   3.888  14.251  0.00  0.00     0.258 C 
ATOM     23  O1  <0> d   1      18.806   5.044  14.226  0.00  0.00    -0.267 OA
ATOM     24  H31 <0> d   1      19.925   2.375  13.141  0.00  0.00     0.162 HD
BRANCH  22  25
ATOM     25  C25 <0> d   1      19.173   3.140  15.510  0.00  0.00     0.074 A 
ATOM     26  S30 <0> d   1      18.881   1.414  15.668  0.00  0.00    -0.072 SA
ATOM     27  C28 <0> d   1      19.060   1.492  17.364  0.00  0.00     0.075 A 
ATOM     28  C27 <0> d   1      19.315   2.746  17.761  0.00  0.00     0.033 A 
ATOM     29 Cl29 <0> d   1      18.922   0.130  18.432  0.00  0.00    -0.076 Cl
ATOM     30  C26 <0> d   1      19.382   3.674  16.751  0.00  0.00     0.027 A 
ENDBRANCH  22  25
ENDBRANCH  20  21
ENDBRANCH   1  20
TORSDOF 5
ENDMDL
MODEL 8
REMARK VINA RESULT:      -7.9      4.449     10.195
REMARK  5 active torsions:
REMARK  status: ('A' for Active; 'I' for Inactive)
REMARK       I    between atoms: C2_2  and  N3_3 
REMARK    1  A    between atoms: C2_2  and  C25_24 
REMARK    2  A    between atoms: N3_3  and  C4_4 
REMARK    3  A    between atoms: C4_4  and  C5_5 
REMARK    4  A    between atoms: N8_7  and  C9_8 
REMARK    5  A    between atoms: C12_11  and  N13_12 
ROOT
ATOM      1  C5  <0> d   1      18.607  -0.904   4.918  0.00  0.00     0.170 A 
ATOM      2  C7  <0> d   1      18.206   0.289   5.806  0.00  0.00     0.168 A 
ATOM      3  N8  <0> d   1      18.631  -0.119   7.155  0.00  0.00    -0.291 N 
ATOM      4  C22 <0> d   1      19.186  -1.337   7.084  0.00  0.00     0.368 A 
ATOM      5  O23 <0> d   1      19.627  -1.921   8.054  0.00  0.00    -0.238 OA
ATOM      6  O24 <0> d   1      19.211  -1.851   5.846  0.00  0.00    -0.295 OA
ENDROOT
BRANCH   3   7
ATOM      7  C9  <0> d   1      18.480   0.642   8.322  0.00  0.00     0.039 A 
ATOM      8  C21 <0> d   1      17.543   0.268   9.277  0.00  0.00     0.032 A 
ATOM      9  C20 <0> d   1      17.398   1.014  10.429  0.00  0.00     0.032 A 
ATOM     10  C12 <0> d   1      18.180   2.145  10.627  0.00  0.00     0.037 A 
ATOM     11  C11 <0> d   1      19.112   2.522   9.669  0.00  0.00     0.032 A 
ATOM     12  C10 <0> d   1      19.260   1.772   8.520  0.00  0.00     0.032 A 
BRANCH  10  13
ATOM     13  N13 <0> d   1      18.028   2.906  11.794  0.00  0.00    -0.314 N 
ATOM     14  C18 <0> d   1      17.238   3.987  11.760  0.00  0.00     0.248 C 
ATOM     15  C17 <0> d   1      17.046   4.880  12.953  0.00  0.00     0.271 C 
ATOM     16  O19 <0> d   1      16.650   4.248  10.732  0.00  0.00    -0.271 OA
ATOM     17  O16 <0> d   1      17.505   4.219  14.134  0.00  0.00    -0.380 OA
ATOM     18  C15 <0> d   1      18.816   3.659  13.988  0.00  0.00     0.188 C 
ATOM     19  C14 <0> d   1      18.742   2.493  13.000  0.00  0.00     0.158 C 
ENDBRANCH  10  13
ENDBRANCH   3   7
BRANCH   1  20
ATOM     20  C4  <0> d   1      17.373  -1.518   4.255  0.00  0.00     0.157 C 
BRANCH  20  21
ATOM     21  N3  <0> d   1      17.180  -2.883   4.748  0.00  0.00    -0.354 N 
ATOM     22  C2  <0> d   1      16.629  -3.818   3.948  0.00  0.00     0.258 C 
ATOM     23  O1  <0> d   1      16.293  -3.528   2.816  0.00  0.00    -0.267 OA
ATOM     24  H31 <0> d   1      17.449  -3.114   5.651  0.00  0.00     0.162 HD
BRANCH  22  25
ATOM     25  C25 <0> d   1      16.431  -5.181   4.444  0.00  0.00     0.074 A 
ATOM     26  S30 <0> d   1      17.702  -6.252   5.020  0.00  0.00    -0.072 SA
ATOM     27  C28 <0> d   1      16.574  -7.489   5.349  0.00  0.00     0.075 A 
ATOM     28  C27 <0> d   1      15.331  -7.101   5.032  0.00  0.00     0.033 A 
ATOM     29 Cl29 <0> d   1      16.982  -9.046   6.001  0.00  0.00    -0.076 Cl
ATOM     30  C26 <0> d   1      15.229  -5.827   4.530  0.00  0.00     0.027 A 
ENDBRANCH  22  25
ENDBRANCH  20  21
ENDBRANCH   1  20
TORSDOF 5
ENDMDL
MODEL 9
REMARK VINA RESULT:      -7.9      3.927      8.959
REMARK  5 active torsions:
REMARK  status: ('A' for Active; 'I' for Inactive)
REMARK       I    between atoms: C2_2  and  N3_3 
REMARK    1  A    between atoms: C2_2  and  C25_24 
REMARK    2  A    between atoms: N3_3  and  C4_4 
REMARK    3  A    between atoms: C4_4  and  C5_5 
REMARK    4  A    between atoms: N8_7  and  C9_8 
REMARK    5  A    between atoms: C12_11  and  N13_12 
ROOT
ATOM      1  C5  <0> d   1      18.269  -2.821  12.188  0.00  0.00     0.170 A 
ATOM      2  C7  <0> d   1      18.966  -1.705  12.988  0.00  0.00     0.168 A 
ATOM      3  N8  <0> d   1      18.097  -0.534  12.786  0.00  0.00    -0.291 N 
ATOM      4  C22 <0> d   1      17.066  -0.889  12.007  0.00  0.00     0.368 A 
ATOM      5  O23 <0> d   1      16.189  -0.116  11.676  0.00  0.00    -0.238 OA
ATOM      6  O24 <0> d   1      17.091  -2.174  11.625  0.00  0.00    -0.295 OA
ENDROOT
BRANCH   3   7
ATOM      7  C9  <0> d   1      18.312   0.742  13.322  0.00  0.00     0.039 A 
ATOM      8  C21 <0> d   1      18.903   1.731  12.545  0.00  0.00     0.032 A 
ATOM      9  C20 <0> d   1      19.110   2.990  13.071  0.00  0.00     0.032 A 
ATOM     10  C12 <0> d   1      18.740   3.265  14.381  0.00  0.00     0.037 A 
ATOM     11  C11 <0> d   1      18.155   2.275  15.160  0.00  0.00     0.032 A 
ATOM     12  C10 <0> d   1      17.942   1.017  14.631  0.00  0.00     0.032 A 
BRANCH  10  13
ATOM     13  N13 <0> d   1      18.955   4.541  14.917  0.00  0.00    -0.314 N 
ATOM     14  C18 <0> d   1      18.145   5.541  14.545  0.00  0.00     0.248 C 
ATOM     15  C17 <0> d   1      18.324   6.948  15.042  0.00  0.00     0.271 C 
ATOM     16  O19 <0> d   1      17.229   5.299  13.787  0.00  0.00    -0.271 OA
ATOM     17  O16 <0> d   1      19.192   6.956  16.177  0.00  0.00    -0.380 OA
ATOM     18  C15 <0> d   1      20.402   6.219  15.961  0.00  0.00     0.188 C 
ATOM     19  C14 <0> d   1      20.058   4.732  15.856  0.00  0.00     0.158 C 
ENDBRANCH  10  13
ENDBRANCH   3   7
BRANCH   1  20
ATOM     20  C4  <0> d   1      19.182  -3.334  11.073  0.00  0.00     0.157 C 
BRANCH  20  21
ATOM     21  N3  <0> d   1      19.216  -2.359   9.981  0.00  0.00    -0.354 N 
ATOM     22  C2  <0> d   1      18.540  -2.598   8.841  0.00  0.00     0.258 C 
ATOM     23  O1  <0> d   1      17.900  -3.626   8.718  0.00  0.00    -0.267 OA
ATOM     24  H31 <0> d   1      19.727  -1.539  10.080  0.00  0.00     0.162 HD
BRANCH  22  25
ATOM     25  C25 <0> d   1      18.580  -1.625   7.747  0.00  0.00     0.074 A 
ATOM     26  S30 <0> d   1      18.831  -2.009   6.049  0.00  0.00    -0.072 SA
ATOM     27  C28 <0> d   1      18.720  -0.363   5.613  0.00  0.00     0.075 A 
ATOM     28  C27 <0> d   1      18.514   0.405   6.692  0.00  0.00     0.033 A 
ATOM     29 Cl29 <0> d   1      18.861   0.238   3.990  0.00  0.00    -0.076 Cl
ATOM     30  C26 <0> d   1      18.434  -0.273   7.883  0.00  0.00     0.027 A 
ENDBRANCH  22  25
ENDBRANCH  20  21
ENDBRANCH   1  20
TORSDOF 5
ENDMDL
