MODEL 1
REMARK VINA RESULT:      -7.1      0.000      0.000
REMARK  11 active torsions:
REMARK  status: ('A' for Active; 'I' for Inactive)
REMARK    1  A    between atoms: O2_2  and  C3_3 
REMARK    2  A    between atoms: C3_3  and  C5_5 
REMARK    3  A    between atoms: C5_5  and  C6_6 
REMARK    4  A    between atoms: C6_6  and  C7_7 
REMARK    5  A    between atoms: C10_10  and  O11_11 
REMARK    6  A    between atoms: O11_11  and  C12_12 
REMARK    7  A    between atoms: C12_12  and  C13_13 
REMARK    8  A    between atoms: C13_13  and  O15_14 
REMARK    9  A    between atoms: C13_13  and  C16_15 
REMARK   10  A    between atoms: C16_15  and  N17_16 
REMARK   11  A    between atoms: N17_16  and  C20_19 
ROOT
ATOM      1  C7  ZIN A   1      18.210   0.726   7.398  0.00  0.00    -0.058 A 
ATOM      2  C8  ZIN A   1      17.463   0.032   8.332  0.00  0.00     0.010 A 
ATOM      3  C9  ZIN A   1      17.549   0.361   9.670  0.00  0.00     0.037 A 
ATOM      4  C10 ZIN A   1      18.386   1.391  10.077  0.00  0.00     0.068 A 
ATOM      5  C23 ZIN A   1      19.135   2.085   9.138  0.00  0.00     0.037 A 
ATOM      6  C24 ZIN A   1      19.049   1.748   7.802  0.00  0.00     0.010 A 
ENDROOT
BRANCH   4   7
ATOM      7  O11 ZIN A   1      18.472   1.717  11.393  0.00  0.00    -0.349 OA
BRANCH   7   8
ATOM      8  C12 ZIN A   1      19.782   1.906  11.931  0.00  0.00     0.209 C 
BRANCH   8   9
ATOM      9  C13 ZIN A   1      20.395   0.545  12.271  0.00  0.00     0.168 C 
BRANCH   9  10
ATOM     10  O15 ZIN A   1      21.818   0.624  12.168  0.00  0.00    -0.392 OA
ATOM     11  H36 ZIN A   1      22.151   1.518  12.012  0.00  0.00     0.210 HD
ENDBRANCH   9  10
BRANCH   9  12
ATOM     12  C16 ZIN A   1      20.008   0.154  13.699  0.00  0.00     0.266 C 
BRANCH  12  13
ATOM     13  N17 ZIN A   1      19.593   1.355  14.439  0.00  0.00    -0.069 N 
ATOM     14  H18 ZIN A   1      20.407   1.810  14.823  0.00  0.00     0.277 HD
ATOM     15  H19 ZIN A   1      19.118   1.987  13.814  0.00  0.00     0.277 HD
BRANCH  13  16
ATOM     16  C20 ZIN A   1      18.688   0.969  15.529  0.00  0.00     0.178 C 
ATOM     17  C21 ZIN A   1      18.753  -0.546  15.734  0.00  0.00     0.039 C 
ATOM     18  C22 ZIN A   1      19.111   1.677  16.817  0.00  0.00     0.039 C 
ENDBRANCH  13  16
ENDBRANCH  12  13
ENDBRANCH   9  12
ENDBRANCH   8   9
ENDBRANCH   7   8
ENDBRANCH   4   7
BRANCH   1  19
ATOM     19  C6  ZIN A   1      18.115   0.363   5.938  0.00  0.00     0.048 C 
BRANCH  19  20
ATOM     20  C5  ZIN A   1      17.986  -1.155   5.796  0.00  0.00     0.115 C 
BRANCH  20  21
ATOM     21  C3  ZIN A   1      19.287  -1.726   5.298  0.00  0.00     0.258 C 
ATOM     22  O4  ZIN A   1      19.880  -1.181   4.395  0.00  0.00    -0.265 OA
BRANCH  21  23
ATOM     23  O2  ZIN A   1      19.790  -2.838   5.855  0.00  0.00    -0.326 OA
ATOM     24  C1  ZIN A   1      19.340  -3.165   7.196  0.00  0.00     0.213 C 
ENDBRANCH  21  23
ENDBRANCH  20  21
ENDBRANCH  19  20
ENDBRANCH   1  19
TORSDOF 11
ENDMDL
MODEL 2
REMARK VINA RESULT:      -6.8      2.212      2.992
REMARK  11 active torsions:
REMARK  status: ('A' for Active; 'I' for Inactive)
REMARK    1  A    between atoms: O2_2  and  C3_3 
REMARK    2  A    between atoms: C3_3  and  C5_5 
REMARK    3  A    between atoms: C5_5  and  C6_6 
REMARK    4  A    between atoms: C6_6  and  C7_7 
REMARK    5  A    between atoms: C10_10  and  O11_11 
REMARK    6  A    between atoms: O11_11  and  C12_12 
REMARK    7  A    between atoms: C12_12  and  C13_13 
REMARK    8  A    between atoms: C13_13  and  O15_14 
REMARK    9  A    between atoms: C13_13  and  C16_15 
REMARK   10  A    between atoms: C16_15  and  N17_16 
REMARK   11  A    between atoms: N17_16  and  C20_19 
ROOT
ATOM      1  C7  ZIN A   1      18.229   0.456   6.723  0.00  0.00    -0.058 A 
ATOM      2  C8  ZIN A   1      19.061   1.416   7.267  0.00  0.00     0.010 A 
ATOM      3  C9  ZIN A   1      19.097   1.606   8.635  0.00  0.00     0.037 A 
ATOM      4  C10 ZIN A   1      18.298   0.830   9.462  0.00  0.00     0.068 A 
ATOM      5  C23 ZIN A   1      17.464  -0.133   8.914  0.00  0.00     0.037 A 
ATOM      6  C24 ZIN A   1      17.427  -0.314   7.545  0.00  0.00     0.010 A 
ENDROOT
BRANCH   4   7
ATOM      7  O11 ZIN A   1      18.333   1.014  10.808  0.00  0.00    -0.349 OA
BRANCH   7   8
ATOM      8  C12 ZIN A   1      19.576   1.436  11.373  0.00  0.00     0.209 C 
BRANCH   8   9
ATOM      9  C13 ZIN A   1      20.549   0.256  11.405  0.00  0.00     0.168 C 
BRANCH   9  10
ATOM     10  O15 ZIN A   1      21.686   0.598  12.201  0.00  0.00    -0.392 OA
ATOM     11  H36 ZIN A   1      22.403   1.013  11.703  0.00  0.00     0.210 HD
ENDBRANCH   9  10
BRANCH   9  12
ATOM     12  C16 ZIN A   1      19.852  -0.963  12.012  0.00  0.00     0.266 C 
BRANCH  12  13
ATOM     13  N17 ZIN A   1      20.329  -2.183  11.344  0.00  0.00    -0.069 N 
ATOM     14  H18 ZIN A   1      20.929  -1.930  10.573  0.00  0.00     0.277 HD
ATOM     15  H19 ZIN A   1      20.846  -2.746  12.002  0.00  0.00     0.277 HD
BRANCH  13  16
ATOM     16  C20 ZIN A   1      19.180  -2.947  10.840  0.00  0.00     0.178 C 
ATOM     17  C21 ZIN A   1      19.488  -4.443  10.919  0.00  0.00     0.039 C 
ATOM     18  C22 ZIN A   1      17.948  -2.635  11.692  0.00  0.00     0.039 C 
ENDBRANCH  13  16
ENDBRANCH  12  13
ENDBRANCH   9  12
ENDBRANCH   8   9
ENDBRANCH   7   8
ENDBRANCH   4   7
BRANCH   1  19
ATOM     19  C6  ZIN A   1      18.190   0.252   5.230  0.00  0.00     0.048 C 
BRANCH  19  20
ATOM     20  C5  ZIN A   1      19.391  -0.593   4.798  0.00  0.00     0.115 C 
BRANCH  20  21
ATOM     21  C3  ZIN A   1      19.020  -2.052   4.840  0.00  0.00     0.258 C 
ATOM     22  O4  ZIN A   1      17.986  -2.428   4.338  0.00  0.00    -0.265 OA
BRANCH  21  23
ATOM     23  O2  ZIN A   1      19.837  -2.936   5.433  0.00  0.00    -0.326 OA
ATOM     24  C1  ZIN A   1      19.618  -3.190   6.846  0.00  0.00     0.213 C 
ENDBRANCH  21  23
ENDBRANCH  20  21
ENDBRANCH  19  20
ENDBRANCH   1  19
TORSDOF 11
ENDMDL
MODEL 3
REMARK VINA RESULT:      -6.6      1.742      2.039
REMARK  11 active torsions:
REMARK  status: ('A' for Active; 'I' for Inactive)
REMARK    1  A    between atoms: O2_2  and  C3_3 
REMARK    2  A    between atoms: C3_3  and  C5_5 
REMARK    3  A    between atoms: C5_5  and  C6_6 
REMARK    4  A    between atoms: C6_6  and  C7_7 
REMARK    5  A    between atoms: C10_10  and  O11_11 
REMARK    6  A    between atoms: O11_11  and  C12_12 
REMARK    7  A    between atoms: C12_12  and  C13_13 
REMARK    8  A    between atoms: C13_13  and  O15_14 
REMARK    9  A    between atoms: C13_13  and  C16_15 
REMARK   10  A    between atoms: C16_15  and  N17_16 
REMARK   11  A    between atoms: N17_16  and  C20_19 
ROOT
ATOM      1  C7  ZIN A   1      18.599   1.144   7.936  0.00  0.00    -0.058 A 
ATOM      2  C8  ZIN A   1      17.780   0.254   8.605  0.00  0.00     0.010 A 
ATOM      3  C9  ZIN A   1      17.337   0.546   9.880  0.00  0.00     0.037 A 
ATOM      4  C10 ZIN A   1      17.715   1.734  10.489  0.00  0.00     0.068 A 
ATOM      5  C23 ZIN A   1      18.538   2.625   9.816  0.00  0.00     0.037 A 
ATOM      6  C24 ZIN A   1      18.982   2.326   8.543  0.00  0.00     0.010 A 
ENDROOT
BRANCH   4   7
ATOM      7  O11 ZIN A   1      17.279   2.023  11.744  0.00  0.00    -0.349 OA
BRANCH   7   8
ATOM      8  C12 ZIN A   1      18.002   3.022  12.467  0.00  0.00     0.209 C 
BRANCH   8   9
ATOM      9  C13 ZIN A   1      18.268   2.529  13.891  0.00  0.00     0.168 C 
BRANCH   9  10
ATOM     10  O15 ZIN A   1      17.554   3.348  14.819  0.00  0.00    -0.392 OA
ATOM     11  H36 ZIN A   1      17.311   2.896  15.638  0.00  0.00     0.210 HD
ENDBRANCH   9  10
BRANCH   9  12
ATOM     12  C16 ZIN A   1      17.797   1.079  14.024  0.00  0.00     0.266 C 
BRANCH  12  13
ATOM     13  N17 ZIN A   1      17.320   0.844  15.394  0.00  0.00    -0.069 N 
ATOM     14  H18 ZIN A   1      17.450   1.681  15.943  0.00  0.00     0.277 HD
ATOM     15  H19 ZIN A   1      16.340   0.605  15.372  0.00  0.00     0.277 HD
BRANCH  13  16
ATOM     16  C20 ZIN A   1      18.081  -0.259  15.995  0.00  0.00     0.178 C 
ATOM     17  C21 ZIN A   1      17.163  -1.073  16.910  0.00  0.00     0.039 C 
ATOM     18  C22 ZIN A   1      18.629  -1.162  14.889  0.00  0.00     0.039 C 
ENDBRANCH  13  16
ENDBRANCH  12  13
ENDBRANCH   9  12
ENDBRANCH   8   9
ENDBRANCH   7   8
ENDBRANCH   4   7
BRANCH   1  19
ATOM     19  C6  ZIN A   1      19.083   0.823   6.545  0.00  0.00     0.048 C 
BRANCH  19  20
ATOM     20  C5  ZIN A   1      18.347  -0.412   6.021  0.00  0.00     0.115 C 
BRANCH  20  21
ATOM     21  C3  ZIN A   1      19.344  -1.390   5.457  0.00  0.00     0.258 C 
ATOM     22  O4  ZIN A   1      19.824  -1.202   4.363  0.00  0.00    -0.265 OA
BRANCH  21  23
ATOM     23  O2  ZIN A   1      19.702  -2.470   6.169  0.00  0.00    -0.326 OA
ATOM     24  C1  ZIN A   1      18.692  -3.054   7.034  0.00  0.00     0.213 C 
ENDBRANCH  21  23
ENDBRANCH  20  21
ENDBRANCH  19  20
ENDBRANCH   1  19
TORSDOF 11
ENDMDL
MODEL 4
REMARK VINA RESULT:      -6.5      3.065      8.106
REMARK  11 active torsions:
REMARK  status: ('A' for Active; 'I' for Inactive)
REMARK    1  A    between atoms: O2_2  and  C3_3 
REMARK    2  A    between atoms: C3_3  and  C5_5 
REMARK    3  A    between atoms: C5_5  and  C6_6 
REMARK    4  A    between atoms: C6_6  and  C7_7 
REMARK    5  A    between atoms: C10_10  and  O11_11 
REMARK    6  A    between atoms: O11_11  and  C12_12 
REMARK    7  A    between atoms: C12_12  and  C13_13 
REMARK    8  A    between atoms: C13_13  and  O15_14 
REMARK    9  A    between atoms: C13_13  and  C16_15 
REMARK   10  A    between atoms: C16_15  and  N17_16 
REMARK   11  A    between atoms: N17_16  and  C20_19 
ROOT
ATOM      1  C7  ZIN A   1      17.824  -0.405  15.889  0.00  0.00    -0.058 A 
ATOM      2  C8  ZIN A   1      17.332   0.538  15.005  0.00  0.00     0.010 A 
ATOM      3  C9  ZIN A   1      17.592   0.423  13.654  0.00  0.00     0.037 A 
ATOM      4  C10 ZIN A   1      18.349  -0.641  13.183  0.00  0.00     0.068 A 
ATOM      5  C23 ZIN A   1      18.842  -1.585  14.071  0.00  0.00     0.037 A 
ATOM      6  C24 ZIN A   1      18.584  -1.462  15.422  0.00  0.00     0.010 A 
ENDROOT
BRANCH   4   7
ATOM      7  O11 ZIN A   1      18.605  -0.757  11.854  0.00  0.00    -0.349 OA
BRANCH   7   8
ATOM      8  C12 ZIN A   1      19.949  -1.063  11.476  0.00  0.00     0.209 C 
BRANCH   8   9
ATOM      9  C13 ZIN A   1      20.271  -0.388  10.142  0.00  0.00     0.168 C 
BRANCH   9  10
ATOM     10  O15 ZIN A   1      19.869  -1.241   9.068  0.00  0.00    -0.392 OA
ATOM     11  H36 ZIN A   1      20.519  -1.309   8.355  0.00  0.00     0.210 HD
ENDBRANCH   9  10
BRANCH   9  12
ATOM     12  C16 ZIN A   1      19.518   0.940  10.047  0.00  0.00     0.266 C 
BRANCH  12  13
ATOM     13  N17 ZIN A   1      19.969   1.836  11.121  0.00  0.00    -0.069 N 
ATOM     14  H18 ZIN A   1      19.763   1.418  12.016  0.00  0.00     0.277 HD
ATOM     15  H19 ZIN A   1      20.964   1.984  11.040  0.00  0.00     0.277 HD
BRANCH  13  16
ATOM     16  C20 ZIN A   1      19.271   3.124  11.011  0.00  0.00     0.178 C 
ATOM     17  C21 ZIN A   1      17.896   2.905  10.377  0.00  0.00     0.039 C 
ATOM     18  C22 ZIN A   1      19.099   3.732  12.404  0.00  0.00     0.039 C 
ENDBRANCH  13  16
ENDBRANCH  12  13
ENDBRANCH   9  12
ENDBRANCH   8   9
ENDBRANCH   7   8
ENDBRANCH   4   7
BRANCH   1  19
ATOM     19  C6  ZIN A   1      17.540  -0.276  17.363  0.00  0.00     0.048 C 
BRANCH  19  20
ATOM     20  C5  ZIN A   1      17.759   1.173  17.801  0.00  0.00     0.115 C 
BRANCH  20  21
ATOM     21  C3  ZIN A   1      19.234   1.430  17.971  0.00  0.00     0.258 C 
ATOM     22  O4  ZIN A   1      19.951   0.563  18.413  0.00  0.00    -0.265 OA
BRANCH  21  23
ATOM     23  O2  ZIN A   1      19.752   2.620  17.630  0.00  0.00    -0.326 OA
ATOM     24  C1  ZIN A   1      18.817   3.713  17.427  0.00  0.00     0.213 C 
ENDBRANCH  21  23
ENDBRANCH  20  21
ENDBRANCH  19  20
ENDBRANCH   1  19
TORSDOF 11
ENDMDL
MODEL 5
REMARK VINA RESULT:      -6.5      1.980      2.830
REMARK  11 active torsions:
REMARK  status: ('A' for Active; 'I' for Inactive)
REMARK    1  A    between atoms: O2_2  and  C3_3 
REMARK    2  A    between atoms: C3_3  and  C5_5 
REMARK    3  A    between atoms: C5_5  and  C6_6 
REMARK    4  A    between atoms: C6_6  and  C7_7 
REMARK    5  A    between atoms: C10_10  and  O11_11 
REMARK    6  A    between atoms: O11_11  and  C12_12 
REMARK    7  A    between atoms: C12_12  and  C13_13 
REMARK    8  A    between atoms: C13_13  and  O15_14 
REMARK    9  A    between atoms: C13_13  and  C16_15 
REMARK   10  A    between atoms: C16_15  and  N17_16 
REMARK   11  A    between atoms: N17_16  and  C20_19 
ROOT
ATOM      1  C7  ZIN A   1      19.152   1.065   8.118  0.00  0.00    -0.058 A 
ATOM      2  C8  ZIN A   1      19.639   0.018   8.878  0.00  0.00     0.010 A 
ATOM      3  C9  ZIN A   1      19.834   0.179  10.235  0.00  0.00     0.037 A 
ATOM      4  C10 ZIN A   1      19.541   1.394  10.837  0.00  0.00     0.068 A 
ATOM      5  C23 ZIN A   1      19.053   2.444  10.073  0.00  0.00     0.037 A 
ATOM      6  C24 ZIN A   1      18.865   2.279   8.714  0.00  0.00     0.010 A 
ENDROOT
BRANCH   4   7
ATOM      7  O11 ZIN A   1      19.731   1.555  12.173  0.00  0.00    -0.349 OA
BRANCH   7   8
ATOM      8  C12 ZIN A   1      20.380   0.489  12.868  0.00  0.00     0.209 C 
BRANCH   8   9
ATOM      9  C13 ZIN A   1      19.566   0.119  14.110  0.00  0.00     0.168 C 
BRANCH   9  10
ATOM     10  O15 ZIN A   1      18.593   1.136  14.361  0.00  0.00    -0.392 OA
ATOM     11  H36 ZIN A   1      18.609   1.481  15.264  0.00  0.00     0.210 HD
ENDBRANCH   9  10
BRANCH   9  12
ATOM     12  C16 ZIN A   1      18.858  -1.216  13.876  0.00  0.00     0.266 C 
BRANCH  12  13
ATOM     13  N17 ZIN A   1      19.696  -2.071  13.023  0.00  0.00    -0.069 N 
ATOM     14  H18 ZIN A   1      20.244  -1.493  12.403  0.00  0.00     0.277 HD
ATOM     15  H19 ZIN A   1      20.312  -2.623  13.601  0.00  0.00     0.277 HD
BRANCH  13  16
ATOM     16  C20 ZIN A   1      18.838  -2.963  12.230  0.00  0.00     0.178 C 
ATOM     17  C21 ZIN A   1      17.609  -2.191  11.748  0.00  0.00     0.039 C 
ATOM     18  C22 ZIN A   1      19.621  -3.481  11.023  0.00  0.00     0.039 C 
ENDBRANCH  13  16
ENDBRANCH  12  13
ENDBRANCH   9  12
ENDBRANCH   8   9
ENDBRANCH   7   8
ENDBRANCH   4   7
BRANCH   1  19
ATOM     19  C6  ZIN A   1      18.941   0.887   6.636  0.00  0.00     0.048 C 
BRANCH  19  20
ATOM     20  C5  ZIN A   1      18.433  -0.529   6.359  0.00  0.00     0.115 C 
BRANCH  20  21
ATOM     21  C3  ZIN A   1      19.396  -1.240   5.446  0.00  0.00     0.258 C 
ATOM     22  O4  ZIN A   1      19.910  -0.644   4.527  0.00  0.00    -0.265 OA
BRANCH  21  23
ATOM     23  O2  ZIN A   1      19.686  -2.534   5.651  0.00  0.00    -0.326 OA
ATOM     24  C1  ZIN A   1      19.353  -3.087   6.952  0.00  0.00     0.213 C 
ENDBRANCH  21  23
ENDBRANCH  20  21
ENDBRANCH  19  20
ENDBRANCH   1  19
TORSDOF 11
ENDMDL
MODEL 6
REMARK VINA RESULT:      -6.5      3.339      8.550
REMARK  11 active torsions:
REMARK  status: ('A' for Active; 'I' for Inactive)
REMARK    1  A    between atoms: O2_2  and  C3_3 
REMARK    2  A    between atoms: C3_3  and  C5_5 
REMARK    3  A    between atoms: C5_5  and  C6_6 
REMARK    4  A    between atoms: C6_6  and  C7_7 
REMARK    5  A    between atoms: C10_10  and  O11_11 
REMARK    6  A    between atoms: O11_11  and  C12_12 
REMARK    7  A    between atoms: C12_12  and  C13_13 
REMARK    8  A    between atoms: C13_13  and  O15_14 
REMARK    9  A    between atoms: C13_13  and  C16_15 
REMARK   10  A    between atoms: C16_15  and  N17_16 
REMARK   11  A    between atoms: N17_16  and  C20_19 
ROOT
ATOM      1  C7  ZIN A   1      17.877  -0.291  15.753  0.00  0.00    -0.058 A 
ATOM      2  C8  ZIN A   1      17.545   0.634  14.780  0.00  0.00     0.010 A 
ATOM      3  C9  ZIN A   1      18.139   0.573  13.534  0.00  0.00     0.037 A 
ATOM      4  C10 ZIN A   1      19.070  -0.419  13.260  0.00  0.00     0.068 A 
ATOM      5  C23 ZIN A   1      19.402  -1.345  14.238  0.00  0.00     0.037 A 
ATOM      6  C24 ZIN A   1      18.809  -1.276  15.483  0.00  0.00     0.010 A 
ENDROOT
BRANCH   4   7
ATOM      7  O11 ZIN A   1      19.655  -0.482  12.035  0.00  0.00    -0.349 OA
BRANCH   7   8
ATOM      8  C12 ZIN A   1      18.977   0.169  10.958  0.00  0.00     0.209 C 
BRANCH   8   9
ATOM      9  C13 ZIN A   1      19.589  -0.275   9.628  0.00  0.00     0.168 C 
BRANCH   9  10
ATOM     10  O15 ZIN A   1      21.011  -0.341   9.756  0.00  0.00    -0.392 OA
ATOM     11  H36 ZIN A   1      21.491   0.054   9.017  0.00  0.00     0.210 HD
ENDBRANCH   9  10
BRANCH   9  12
ATOM     12  C16 ZIN A   1      19.046  -1.655   9.252  0.00  0.00     0.266 C 
BRANCH  12  13
ATOM     13  N17 ZIN A   1      19.713  -2.681  10.067  0.00  0.00    -0.069 N 
ATOM     14  H18 ZIN A   1      20.557  -2.981   9.604  0.00  0.00     0.277 HD
ATOM     15  H19 ZIN A   1      19.943  -2.295  10.970  0.00  0.00     0.277 HD
BRANCH  13  16
ATOM     16  C20 ZIN A   1      18.814  -3.830  10.240  0.00  0.00     0.178 C 
ATOM     17  C21 ZIN A   1      19.569  -5.121   9.920  0.00  0.00     0.039 C 
ATOM     18  C22 ZIN A   1      18.316  -3.875  11.685  0.00  0.00     0.039 C 
ENDBRANCH  13  16
ENDBRANCH  12  13
ENDBRANCH   9  12
ENDBRANCH   8   9
ENDBRANCH   7   8
ENDBRANCH   4   7
BRANCH   1  19
ATOM     19  C6  ZIN A   1      17.229  -0.221  17.111  0.00  0.00     0.048 C 
BRANCH  19  20
ATOM     20  C5  ZIN A   1      18.311  -0.164  18.191  0.00  0.00     0.115 C 
BRANCH  20  21
ATOM     21  C3  ZIN A   1      18.702   1.270  18.437  0.00  0.00     0.258 C 
ATOM     22  O4  ZIN A   1      19.868   1.565  18.565  0.00  0.00    -0.265 OA
BRANCH  21  23
ATOM     23  O2  ZIN A   1      17.757   2.220  18.515  0.00  0.00    -0.326 OA
ATOM     24  C1  ZIN A   1      18.208   3.600  18.521  0.00  0.00     0.213 C 
ENDBRANCH  21  23
ENDBRANCH  20  21
ENDBRANCH  19  20
ENDBRANCH   1  19
TORSDOF 11
ENDMDL
MODEL 7
REMARK VINA RESULT:      -6.3      2.168      3.134
REMARK  11 active torsions:
REMARK  status: ('A' for Active; 'I' for Inactive)
REMARK    1  A    between atoms: O2_2  and  C3_3 
REMARK    2  A    between atoms: C3_3  and  C5_5 
REMARK    3  A    between atoms: C5_5  and  C6_6 
REMARK    4  A    between atoms: C6_6  and  C7_7 
REMARK    5  A    between atoms: C10_10  and  O11_11 
REMARK    6  A    between atoms: O11_11  and  C12_12 
REMARK    7  A    between atoms: C12_12  and  C13_13 
REMARK    8  A    between atoms: C13_13  and  O15_14 
REMARK    9  A    between atoms: C13_13  and  C16_15 
REMARK   10  A    between atoms: C16_15  and  N17_16 
REMARK   11  A    between atoms: N17_16  and  C20_19 
ROOT
ATOM      1  C7  ZIN A   1      18.139   0.529   7.275  0.00  0.00    -0.058 A 
ATOM      2  C8  ZIN A   1      19.105   1.442   7.656  0.00  0.00     0.010 A 
ATOM      3  C9  ZIN A   1      19.418   1.601   8.991  0.00  0.00     0.037 A 
ATOM      4  C10 ZIN A   1      18.763   0.843   9.951  0.00  0.00     0.068 A 
ATOM      5  C23 ZIN A   1      17.794  -0.072   9.567  0.00  0.00     0.037 A 
ATOM      6  C24 ZIN A   1      17.481  -0.224   8.230  0.00  0.00     0.010 A 
ENDROOT
BRANCH   4   7
ATOM      7  O11 ZIN A   1      19.070   0.997  11.266  0.00  0.00    -0.349 OA
BRANCH   7   8
ATOM      8  C12 ZIN A   1      17.983   0.977  12.193  0.00  0.00     0.209 C 
BRANCH   8   9
ATOM      9  C13 ZIN A   1      18.409   1.660  13.494  0.00  0.00     0.168 C 
BRANCH   9  10
ATOM     10  O15 ZIN A   1      19.831   1.594  13.623  0.00  0.00    -0.392 OA
ATOM     11  H36 ZIN A   1      20.161   1.875  14.487  0.00  0.00     0.210 HD
ENDBRANCH   9  10
BRANCH   9  12
ATOM     12  C16 ZIN A   1      17.968   3.125  13.469  0.00  0.00     0.266 C 
BRANCH  12  13
ATOM     13  N17 ZIN A   1      17.467   3.461  12.129  0.00  0.00    -0.069 N 
ATOM     14  H18 ZIN A   1      18.067   3.046  11.432  0.00  0.00     0.277 HD
ATOM     15  H19 ZIN A   1      16.529   3.105  12.021  0.00  0.00     0.277 HD
BRANCH  13  16
ATOM     16  C20 ZIN A   1      17.459   4.921  11.961  0.00  0.00     0.178 C 
ATOM     17  C21 ZIN A   1      17.221   5.264  10.490  0.00  0.00     0.039 C 
ATOM     18  C22 ZIN A   1      16.341   5.525  12.813  0.00  0.00     0.039 C 
ENDBRANCH  13  16
ENDBRANCH  12  13
ENDBRANCH   9  12
ENDBRANCH   8   9
ENDBRANCH   7   8
ENDBRANCH   4   7
BRANCH   1  19
ATOM     19  C6  ZIN A   1      17.798   0.358   5.817  0.00  0.00     0.048 C 
BRANCH  19  20
ATOM     20  C5  ZIN A   1      17.860  -1.126   5.448  0.00  0.00     0.115 C 
BRANCH  20  21
ATOM     21  C3  ZIN A   1      19.293  -1.525   5.208  0.00  0.00     0.258 C 
ATOM     22  O4  ZIN A   1      20.019  -0.808   4.559  0.00  0.00    -0.265 OA
BRANCH  21  23
ATOM     23  O2  ZIN A   1      19.764  -2.674   5.716  0.00  0.00    -0.326 OA
ATOM     24  C1  ZIN A   1      18.935  -3.855   5.555  0.00  0.00     0.213 C 
ENDBRANCH  21  23
ENDBRANCH  20  21
ENDBRANCH  19  20
ENDBRANCH   1  19
TORSDOF 11
ENDMDL
MODEL 8
REMARK VINA RESULT:      -6.1      3.500      8.296
REMARK  11 active torsions:
REMARK  status: ('A' for Active; 'I' for Inactive)
REMARK    1  A    between atoms: O2_2  and  C3_3 
REMARK    2  A    between atoms: C3_3  and  C5_5 
REMARK    3  A    between atoms: C5_5  and  C6_6 
REMARK    4  A    between atoms: C6_6  and  C7_7 
REMARK    5  A    between atoms: C10_10  and  O11_11 
REMARK    6  A    between atoms: O11_11  and  C12_12 
REMARK    7  A    between atoms: C12_12  and  C13_13 
REMARK    8  A    between atoms: C13_13  and  O15_14 
REMARK    9  A    between atoms: C13_13  and  C16_15 
REMARK   10  A    between atoms: C16_15  and  N17_16 
REMARK   11  A    between atoms: N17_16  and  C20_19 
ROOT
ATOM      1  C7  ZIN A   1      18.668   0.067  14.245  0.00  0.00    -0.058 A 
ATOM      2  C8  ZIN A   1      17.675   0.576  13.430  0.00  0.00     0.010 A 
ATOM      3  C9  ZIN A   1      17.132  -0.205  12.428  0.00  0.00     0.037 A 
ATOM      4  C10 ZIN A   1      17.585  -1.503  12.242  0.00  0.00     0.068 A 
ATOM      5  C23 ZIN A   1      18.582  -2.012  13.061  0.00  0.00     0.037 A 
ATOM      6  C24 ZIN A   1      19.125  -1.225  14.057  0.00  0.00     0.010 A 
ENDROOT
BRANCH   4   7
ATOM      7  O11 ZIN A   1      17.052  -2.274  11.258  0.00  0.00    -0.349 OA
BRANCH   7   8
ATOM      8  C12 ZIN A   1      17.580  -3.594  11.111  0.00  0.00     0.209 C 
BRANCH   8   9
ATOM      9  C13 ZIN A   1      17.754  -3.912   9.624  0.00  0.00     0.168 C 
BRANCH   9  10
ATOM     10  O15 ZIN A   1      16.552  -4.497   9.118  0.00  0.00    -0.392 OA
ATOM     11  H36 ZIN A   1      16.589  -5.459   9.030  0.00  0.00     0.210 HD
ENDBRANCH   9  10
BRANCH   9  12
ATOM     12  C16 ZIN A   1      18.054  -2.622   8.859  0.00  0.00     0.266 C 
BRANCH  12  13
ATOM     13  N17 ZIN A   1      19.445  -2.218   9.107  0.00  0.00    -0.069 N 
ATOM     14  H18 ZIN A   1      19.715  -2.497  10.039  0.00  0.00     0.277 HD
ATOM     15  H19 ZIN A   1      20.050  -2.665   8.435  0.00  0.00     0.277 HD
BRANCH  13  16
ATOM     16  C20 ZIN A   1      19.562  -0.759   8.980  0.00  0.00     0.178 C 
ATOM     17  C21 ZIN A   1      18.171  -0.150   8.802  0.00  0.00     0.039 C 
ATOM     18  C22 ZIN A   1      20.212  -0.188  10.241  0.00  0.00     0.039 C 
ENDBRANCH  13  16
ENDBRANCH  12  13
ENDBRANCH   9  12
ENDBRANCH   8   9
ENDBRANCH   7   8
ENDBRANCH   4   7
BRANCH   1  19
ATOM     19  C6  ZIN A   1      19.259   0.922  15.337  0.00  0.00     0.048 C 
BRANCH  19  20
ATOM     20  C5  ZIN A   1      18.360   0.866  16.573  0.00  0.00     0.115 C 
BRANCH  20  21
ATOM     21  C3  ZIN A   1      19.181   0.480  17.775  0.00  0.00     0.258 C 
ATOM     22  O4  ZIN A   1      19.481  -0.677  17.956  0.00  0.00    -0.265 OA
BRANCH  21  23
ATOM     23  O2  ZIN A   1      19.580   1.420  18.646  0.00  0.00    -0.326 OA
ATOM     24  C1  ZIN A   1      19.056   2.760  18.457  0.00  0.00     0.213 C 
ENDBRANCH  21  23
ENDBRANCH  20  21
ENDBRANCH  19  20
ENDBRANCH   1  19
TORSDOF 11
ENDMDL
MODEL 9
REMARK VINA RESULT:      -6.0      1.593      1.900
REMARK  11 active torsions:
REMARK  status: ('A' for Active; 'I' for Inactive)
REMARK    1  A    between atoms: O2_2  and  C3_3 
REMARK    2  A    between atoms: C3_3  and  C5_5 
REMARK    3  A    between atoms: C5_5  and  C6_6 
REMARK    4  A    between atoms: C6_6  and  C7_7 
REMARK    5  A    between atoms: C10_10  and  O11_11 
REMARK    6  A    between atoms: O11_11  and  C12_12 
REMARK    7  A    between atoms: C12_12  and  C13_13 
REMARK    8  A    between atoms: C13_13  and  O15_14 
REMARK    9  A    between atoms: C13_13  and  C16_15 
REMARK   10  A    between atoms: C16_15  and  N17_16 
REMARK   11  A    between atoms: N17_16  and  C20_19 
ROOT
ATOM      1  C7  ZIN A   1      18.153   0.631   7.409  0.00  0.00    -0.058 A 
ATOM      2  C8  ZIN A   1      17.666  -0.223   8.381  0.00  0.00     0.010 A 
ATOM      3  C9  ZIN A   1      18.091  -0.098   9.689  0.00  0.00     0.037 A 
ATOM      4  C10 ZIN A   1      19.008   0.887  10.028  0.00  0.00     0.068 A 
ATOM      5  C23 ZIN A   1      19.496   1.742   9.051  0.00  0.00     0.037 A 
ATOM      6  C24 ZIN A   1      19.072   1.610   7.743  0.00  0.00     0.010 A 
ENDROOT
BRANCH   4   7
ATOM      7  O11 ZIN A   1      19.427   1.012  11.314  0.00  0.00    -0.349 OA
BRANCH   7   8
ATOM      8  C12 ZIN A   1      18.810   0.162  12.283  0.00  0.00     0.209 C 
BRANCH   8   9
ATOM      9  C13 ZIN A   1      19.330   0.518  13.678  0.00  0.00     0.168 C 
BRANCH   9  10
ATOM     10  O15 ZIN A   1      19.733   1.888  13.701  0.00  0.00    -0.392 OA
ATOM     11  H36 ZIN A   1      20.342   2.131  12.990  0.00  0.00     0.210 HD
ENDBRANCH   9  10
BRANCH   9  12
ATOM     12  C16 ZIN A   1      18.219   0.297  14.707  0.00  0.00     0.266 C 
BRANCH  12  13
ATOM     13  N17 ZIN A   1      18.169  -1.126  15.075  0.00  0.00    -0.069 N 
ATOM     14  H18 ZIN A   1      17.426  -1.578  14.565  0.00  0.00     0.277 HD
ATOM     15  H19 ZIN A   1      19.049  -1.563  14.847  0.00  0.00     0.277 HD
BRANCH  13  16
ATOM     16  C20 ZIN A   1      17.919  -1.250  16.517  0.00  0.00     0.178 C 
ATOM     17  C21 ZIN A   1      19.191  -0.893  17.288  0.00  0.00     0.039 C 
ATOM     18  C22 ZIN A   1      16.793  -0.297  16.923  0.00  0.00     0.039 C 
ENDBRANCH  13  16
ENDBRANCH  12  13
ENDBRANCH   9  12
ENDBRANCH   8   9
ENDBRANCH   7   8
ENDBRANCH   4   7
BRANCH   1  19
ATOM     19  C6  ZIN A   1      17.689   0.492   5.982  0.00  0.00     0.048 C 
BRANCH  19  20
ATOM     20  C5  ZIN A   1      18.881   0.144   5.089  0.00  0.00     0.115 C 
BRANCH  20  21
ATOM     21  C3  ZIN A   1      18.738  -1.269   4.587  0.00  0.00     0.258 C 
ATOM     22  O4  ZIN A   1      19.722  -1.916   4.312  0.00  0.00    -0.265 OA
BRANCH  21  23
ATOM     23  O2  ZIN A   1      17.518  -1.811   4.444  0.00  0.00    -0.326 OA
ATOM     24  C1  ZIN A   1      17.459  -3.224   4.114  0.00  0.00     0.213 C 
ENDBRANCH  21  23
ENDBRANCH  20  21
ENDBRANCH  19  20
ENDBRANCH   1  19
TORSDOF 11
ENDMDL
