MODEL 1
REMARK VINA RESULT:      -8.7      0.000      0.000
REMARK  8 active torsions:
REMARK  status: ('A' for Active; 'I' for Inactive)
REMARK    1  A    between atoms: O2_2  and  C3_3 
REMARK    2  A    between atoms: C4_4  and  O5_5 
REMARK    3  A    between atoms: O5_5  and  C6_6 
REMARK    4  A    between atoms: C6_6  and  C7_7 
REMARK    5  A    between atoms: C7_7  and  C8_8 
REMARK    6  A    between atoms: C8_8  and  N9_9 
REMARK    7  A    between atoms: C23_23  and  N24_24 
REMARK    8  A    between atoms: N24_24  and  C25_25 
ROOT
ATOM      1  C3  ZIN A   1      17.917  -2.533  10.365  0.00  0.00     0.103 A 
ATOM      2  C4  ZIN A   1      18.416  -1.702  11.377  0.00  0.00     0.103 A 
ATOM      3  C16 ZIN A   1      18.903  -0.460  11.084  0.00  0.00     0.057 A 
ATOM      4  C17 ZIN A   1      18.904  -0.011   9.758  0.00  0.00     0.042 A 
ATOM      5  C18 ZIN A   1      18.401  -0.845   8.729  0.00  0.00     0.075 A 
ATOM      6  C19 ZIN A   1      17.913  -2.117   9.051  0.00  0.00     0.072 A 
ATOM      7  N20 ZIN A   1      18.414  -0.390   7.467  0.00  0.00    -0.241 NA
ATOM      8  C21 ZIN A   1      18.884   0.804   7.194  0.00  0.00     0.236 A 
ATOM      9  N22 ZIN A   1      19.363   1.618   8.122  0.00  0.00    -0.224 NA
ATOM     10  C23 ZIN A   1      19.397   1.267   9.401  0.00  0.00     0.142 A 
ENDROOT
BRANCH   2  11
ATOM     11  O5  ZIN A   1      18.416  -2.138  12.665  0.00  0.00    -0.348 OA
BRANCH  11  12
ATOM     12  C6  ZIN A   1      19.243  -1.428  13.590  0.00  0.00     0.177 C 
BRANCH  12  13
ATOM     13  C7  ZIN A   1      18.440  -1.115  14.854  0.00  0.00     0.054 C 
BRANCH  13  14
ATOM     14  C8  ZIN A   1      18.049   0.364  14.856  0.00  0.00     0.237 C 
BRANCH  14  15
ATOM     15  N9  ZIN A   1      18.199   0.910  16.212  0.00  0.00    -0.067 N 
ATOM     16  H10 ZIN A   1      17.289   1.112  16.596  0.00  0.00     0.280 HD
ATOM     17  C15 ZIN A   1      18.884  -0.075  17.062  0.00  0.00     0.261 C 
ATOM     18  C14 ZIN A   1      19.040   0.495  18.474  0.00  0.00     0.195 C 
ATOM     19  O13 ZIN A   1      19.764   1.727  18.409  0.00  0.00    -0.388 OA
ATOM     20  C12 ZIN A   1      19.149   2.711  17.572  0.00  0.00     0.195 C 
ATOM     21  C11 ZIN A   1      18.994   2.144  16.158  0.00  0.00     0.261 C 
ENDBRANCH  14  15
ENDBRANCH  13  14
ENDBRANCH  12  13
ENDBRANCH  11  12
ENDBRANCH   2  11
BRANCH   1  22
ATOM     22  O2  ZIN A   1      17.439  -3.765  10.681  0.00  0.00    -0.353 OA
ATOM     23  C1  ZIN A   1      18.229  -4.888  10.285  0.00  0.00     0.210 C 
ENDBRANCH   1  22
BRANCH  10  24
ATOM     24  N24 ZIN A   1      19.899   2.126  10.358  0.00  0.00    -0.340 N 
ATOM     25  H53 ZIN A   1      20.822   2.047  10.644  0.00  0.00     0.167 HD
BRANCH  24  26
ATOM     26  C25 ZIN A   1      19.075   3.109  10.916  0.00  0.00     0.035 A 
ATOM     27  C32 ZIN A   1      19.426   3.713  12.117  0.00  0.00     0.056 A 
ATOM     28  C30 ZIN A   1      18.612   4.687  12.663  0.00  0.00     0.074 A 
ATOM     29  C28 ZIN A   1      17.441   5.054  12.019  0.00  0.00     0.138 A 
ATOM     30 Cl31 ZIN A   1      19.054   5.448  14.160  0.00  0.00    -0.081 Cl
ATOM     31  C27 ZIN A   1      17.087   4.449  10.826  0.00  0.00     0.046 A 
ATOM     32  F29 ZIN A   1      16.645   6.004  12.556  0.00  0.00    -0.204 F 
ATOM     33  C26 ZIN A   1      17.900   3.478  10.274  0.00  0.00     0.032 A 
ENDBRANCH  24  26
ENDBRANCH  10  24
TORSDOF 8
ENDMDL
MODEL 2
REMARK VINA RESULT:      -8.7      4.060      8.509
REMARK  8 active torsions:
REMARK  status: ('A' for Active; 'I' for Inactive)
REMARK    1  A    between atoms: O2_2  and  C3_3 
REMARK    2  A    between atoms: C4_4  and  O5_5 
REMARK    3  A    between atoms: O5_5  and  C6_6 
REMARK    4  A    between atoms: C6_6  and  C7_7 
REMARK    5  A    between atoms: C7_7  and  C8_8 
REMARK    6  A    between atoms: C8_8  and  N9_9 
REMARK    7  A    between atoms: C23_23  and  N24_24 
REMARK    8  A    between atoms: N24_24  and  C25_25 
ROOT
ATOM      1  C3  ZIN A   1      18.508   2.871  12.579  0.00  0.00     0.103 A 
ATOM      2  C4  ZIN A   1      19.231   2.041  11.712  0.00  0.00     0.103 A 
ATOM      3  C16 ZIN A   1      19.480   0.739  12.039  0.00  0.00     0.057 A 
ATOM      4  C17 ZIN A   1      19.008   0.226  13.254  0.00  0.00     0.042 A 
ATOM      5  C18 ZIN A   1      18.277   1.059  14.136  0.00  0.00     0.075 A 
ATOM      6  C19 ZIN A   1      18.038   2.394  13.783  0.00  0.00     0.072 A 
ATOM      7  N20 ZIN A   1      17.836   0.544  15.294  0.00  0.00    -0.241 NA
ATOM      8  C21 ZIN A   1      18.081  -0.709  15.599  0.00  0.00     0.236 A 
ATOM      9  N22 ZIN A   1      18.759  -1.524  14.808  0.00  0.00    -0.224 NA
ATOM     10  C23 ZIN A   1      19.239  -1.115  13.640  0.00  0.00     0.142 A 
ENDROOT
BRANCH   2  11
ATOM     11  O5  ZIN A   1      19.690   2.538  10.533  0.00  0.00    -0.348 OA
BRANCH  11  12
ATOM     12  C6  ZIN A   1      18.809   2.460   9.409  0.00  0.00     0.177 C 
BRANCH  12  13
ATOM     13  C7  ZIN A   1      19.259   1.324   8.488  0.00  0.00     0.054 C 
BRANCH  13  14
ATOM     14  C8  ZIN A   1      18.076   0.395   8.209  0.00  0.00     0.237 C 
BRANCH  14  15
ATOM     15  N9  ZIN A   1      18.258  -0.253   6.903  0.00  0.00    -0.067 N 
ATOM     16  H10 ZIN A   1      17.360  -0.519   6.531  0.00  0.00     0.280 HD
ATOM     17  C15 ZIN A   1      18.913   0.685   5.980  0.00  0.00     0.261 C 
ATOM     18  C14 ZIN A   1      19.103   0.009   4.620  0.00  0.00     0.195 C 
ATOM     19  O13 ZIN A   1      19.871  -1.186   4.789  0.00  0.00    -0.388 OA
ATOM     20  C12 ZIN A   1      19.285  -2.121   5.699  0.00  0.00     0.195 C 
ATOM     21  C11 ZIN A   1      19.097  -1.448   7.061  0.00  0.00     0.261 C 
ENDBRANCH  14  15
ENDBRANCH  13  14
ENDBRANCH  12  13
ENDBRANCH  11  12
ENDBRANCH   2  11
BRANCH   1  22
ATOM     22  O2  ZIN A   1      18.274   4.164  12.233  0.00  0.00    -0.353 OA
ATOM     23  C1  ZIN A   1      17.129   4.794  12.812  0.00  0.00     0.210 C 
ENDBRANCH   1  22
BRANCH  10  24
ATOM     24  N24 ZIN A   1      19.945  -1.977  12.824  0.00  0.00    -0.340 N 
ATOM     25  H53 ZIN A   1      20.914  -1.948  12.811  0.00  0.00     0.167 HD
BRANCH  24  26
ATOM     26  C25 ZIN A   1      19.261  -2.890  12.014  0.00  0.00     0.035 A 
ATOM     27  C32 ZIN A   1      19.968  -3.754  11.188  0.00  0.00     0.056 A 
ATOM     28  C30 ZIN A   1      19.289  -4.657  10.392  0.00  0.00     0.074 A 
ATOM     29  C28 ZIN A   1      17.904  -4.694  10.411  0.00  0.00     0.138 A 
ATOM     30 Cl31 ZIN A   1      20.173  -5.743   9.365  0.00  0.00    -0.081 Cl
ATOM     31  C27 ZIN A   1      17.198  -3.829  11.229  0.00  0.00     0.046 A 
ATOM     32  F29 ZIN A   1      17.242  -5.575   9.630  0.00  0.00    -0.204 F 
ATOM     33  C26 ZIN A   1      17.873  -2.928  12.029  0.00  0.00     0.032 A 
ENDBRANCH  24  26
ENDBRANCH  10  24
TORSDOF 8
ENDMDL
MODEL 3
REMARK VINA RESULT:      -8.7      3.511      5.767
REMARK  8 active torsions:
REMARK  status: ('A' for Active; 'I' for Inactive)
REMARK    1  A    between atoms: O2_2  and  C3_3 
REMARK    2  A    between atoms: C4_4  and  O5_5 
REMARK    3  A    between atoms: O5_5  and  C6_6 
REMARK    4  A    between atoms: C6_6  and  C7_7 
REMARK    5  A    between atoms: C7_7  and  C8_8 
REMARK    6  A    between atoms: C8_8  and  N9_9 
REMARK    7  A    between atoms: C23_23  and  N24_24 
REMARK    8  A    between atoms: N24_24  and  C25_25 
ROOT
ATOM      1  C3  ZIN A   1      18.222   2.529  10.645  0.00  0.00     0.103 A 
ATOM      2  C4  ZIN A   1      17.608   1.320  10.999  0.00  0.00     0.103 A 
ATOM      3  C16 ZIN A   1      17.519   0.294  10.101  0.00  0.00     0.057 A 
ATOM      4  C17 ZIN A   1      18.044   0.452   8.813  0.00  0.00     0.042 A 
ATOM      5  C18 ZIN A   1      18.666   1.672   8.447  0.00  0.00     0.075 A 
ATOM      6  C19 ZIN A   1      18.742   2.712   9.382  0.00  0.00     0.072 A 
ATOM      7  N20 ZIN A   1      19.162   1.797   7.207  0.00  0.00    -0.241 NA
ATOM      8  C21 ZIN A   1      19.070   0.806   6.351  0.00  0.00     0.236 A 
ATOM      9  N22 ZIN A   1      18.499  -0.350   6.647  0.00  0.00    -0.224 NA
ATOM     10  C23 ZIN A   1      17.977  -0.579   7.845  0.00  0.00     0.142 A 
ENDROOT
BRANCH   2  11
ATOM     11  O5  ZIN A   1      17.097   1.166  12.249  0.00  0.00    -0.348 OA
BRANCH  11  12
ATOM     12  C6  ZIN A   1      17.446  -0.030  12.950  0.00  0.00     0.177 C 
BRANCH  12  13
ATOM     13  C7  ZIN A   1      18.372   0.317  14.117  0.00  0.00     0.054 C 
BRANCH  13  14
ATOM     14  C8  ZIN A   1      17.885   1.602  14.790  0.00  0.00     0.237 C 
BRANCH  14  15
ATOM     15  N9  ZIN A   1      18.123   1.518  16.238  0.00  0.00    -0.067 N 
ATOM     16  H10 ZIN A   1      17.239   1.468  16.721  0.00  0.00     0.280 HD
ATOM     17  C15 ZIN A   1      18.914   0.316  16.534  0.00  0.00     0.261 C 
ATOM     18  C14 ZIN A   1      19.161   0.230  18.043  0.00  0.00     0.195 C 
ATOM     19  O13 ZIN A   1      19.826   1.419  18.481  0.00  0.00    -0.388 OA
ATOM     20  C12 ZIN A   1      19.104   2.620  18.192  0.00  0.00     0.195 C 
ATOM     21  C11 ZIN A   1      18.858   2.709  16.683  0.00  0.00     0.261 C 
ENDBRANCH  14  15
ENDBRANCH  13  14
ENDBRANCH  12  13
ENDBRANCH  11  12
ENDBRANCH   2  11
BRANCH   1  22
ATOM     22  O2  ZIN A   1      18.298   3.535  11.555  0.00  0.00    -0.353 OA
ATOM     23  C1  ZIN A   1      19.582   3.797  12.126  0.00  0.00     0.210 C 
ENDBRANCH   1  22
BRANCH  10  24
ATOM     24  N24 ZIN A   1      17.385  -1.791   8.141  0.00  0.00    -0.340 N 
ATOM     25  H53 ZIN A   1      16.418  -1.864   8.167  0.00  0.00     0.167 HD
BRANCH  24  26
ATOM     26  C25 ZIN A   1      18.179  -2.911   8.403  0.00  0.00     0.035 A 
ATOM     27  C32 ZIN A   1      18.625  -3.162   9.695  0.00  0.00     0.056 A 
ATOM     28  C30 ZIN A   1      19.406  -4.272   9.952  0.00  0.00     0.074 A 
ATOM     29  C28 ZIN A   1      19.753  -5.130   8.920  0.00  0.00     0.138 A 
ATOM     30 Cl31 ZIN A   1      19.957  -4.590  11.567  0.00  0.00    -0.081 Cl
ATOM     31  C27 ZIN A   1      19.314  -4.879   7.632  0.00  0.00     0.046 A 
ATOM     32  F29 ZIN A   1      20.519  -6.213   9.173  0.00  0.00    -0.204 F 
ATOM     33  C26 ZIN A   1      18.529  -3.772   7.371  0.00  0.00     0.032 A 
ENDBRANCH  24  26
ENDBRANCH  10  24
TORSDOF 8
ENDMDL
MODEL 4
REMARK VINA RESULT:      -8.7      3.486      5.548
REMARK  8 active torsions:
REMARK  status: ('A' for Active; 'I' for Inactive)
REMARK    1  A    between atoms: O2_2  and  C3_3 
REMARK    2  A    between atoms: C4_4  and  O5_5 
REMARK    3  A    between atoms: O5_5  and  C6_6 
REMARK    4  A    between atoms: C6_6  and  C7_7 
REMARK    5  A    between atoms: C7_7  and  C8_8 
REMARK    6  A    between atoms: C8_8  and  N9_9 
REMARK    7  A    between atoms: C23_23  and  N24_24 
REMARK    8  A    between atoms: N24_24  and  C25_25 
ROOT
ATOM      1  C3  ZIN A   1      18.928   2.861  10.578  0.00  0.00     0.103 A 
ATOM      2  C4  ZIN A   1      19.306   1.732  11.318  0.00  0.00     0.103 A 
ATOM      3  C16 ZIN A   1      19.490   0.525  10.704  0.00  0.00     0.057 A 
ATOM      4  C17 ZIN A   1      19.299   0.414   9.321  0.00  0.00     0.042 A 
ATOM      5  C18 ZIN A   1      18.917   1.551   8.567  0.00  0.00     0.075 A 
ATOM      6  C19 ZIN A   1      18.728   2.777   9.218  0.00  0.00     0.072 A 
ATOM      7  N20 ZIN A   1      18.741   1.418   7.244  0.00  0.00    -0.241 NA
ATOM      8  C21 ZIN A   1      18.919   0.255   6.663  0.00  0.00     0.236 A 
ATOM      9  N22 ZIN A   1      19.276  -0.833   7.326  0.00  0.00    -0.224 NA
ATOM     10  C23 ZIN A   1      19.476  -0.812   8.637  0.00  0.00     0.142 A 
ENDROOT
BRANCH   2  11
ATOM     11  O5  ZIN A   1      19.490   1.838  12.661  0.00  0.00    -0.348 OA
BRANCH  11  12
ATOM     12  C6  ZIN A   1      19.935   0.667  13.349  0.00  0.00     0.177 C 
BRANCH  12  13
ATOM     13  C7  ZIN A   1      18.826   0.171  14.279  0.00  0.00     0.054 C 
BRANCH  13  14
ATOM     14  C8  ZIN A   1      18.017   1.365  14.789  0.00  0.00     0.237 C 
BRANCH  14  15
ATOM     15  N9  ZIN A   1      18.180   1.482  16.245  0.00  0.00    -0.067 N 
ATOM     16  H10 ZIN A   1      17.273   1.558  16.679  0.00  0.00     0.280 HD
ATOM     17  C15 ZIN A   1      18.872   0.291  16.756  0.00  0.00     0.261 C 
ATOM     18  C14 ZIN A   1      19.040   0.414  18.273  0.00  0.00     0.195 C 
ATOM     19  O13 ZIN A   1      19.764   1.611  18.572  0.00  0.00    -0.388 OA
ATOM     20  C12 ZIN A   1      19.141   2.798  18.072  0.00  0.00     0.195 C 
ATOM     21  C11 ZIN A   1      18.973   2.679  16.555  0.00  0.00     0.261 C 
ENDBRANCH  14  15
ENDBRANCH  13  14
ENDBRANCH  12  13
ENDBRANCH  11  12
ENDBRANCH   2  11
BRANCH   1  22
ATOM     22  O2  ZIN A   1      18.750   4.050  11.212  0.00  0.00    -0.353 OA
ATOM     23  C1  ZIN A   1      17.620   4.832  10.818  0.00  0.00     0.210 C 
ENDBRANCH   1  22
BRANCH  10  24
ATOM     24  N24 ZIN A   1      19.848  -1.955   9.316  0.00  0.00    -0.340 N 
ATOM     25  H53 ZIN A   1      20.782  -2.211   9.358  0.00  0.00     0.167 HD
BRANCH  24  26
ATOM     26  C25 ZIN A   1      18.877  -2.744   9.941  0.00  0.00     0.035 A 
ATOM     27  C32 ZIN A   1      18.026  -3.535   9.180  0.00  0.00     0.056 A 
ATOM     28  C30 ZIN A   1      17.071  -4.316   9.801  0.00  0.00     0.074 A 
ATOM     29  C28 ZIN A   1      16.956  -4.305  11.182  0.00  0.00     0.138 A 
ATOM     30 Cl31 ZIN A   1      16.010  -5.310   8.851  0.00  0.00    -0.081 Cl
ATOM     31  C27 ZIN A   1      17.800  -3.513  11.942  0.00  0.00     0.046 A 
ATOM     32  F29 ZIN A   1      16.019  -5.067  11.788  0.00  0.00    -0.204 F 
ATOM     33  C26 ZIN A   1      18.759  -2.733  11.325  0.00  0.00     0.032 A 
ENDBRANCH  24  26
ENDBRANCH  10  24
TORSDOF 8
ENDMDL
MODEL 5
REMARK VINA RESULT:      -8.5      3.274      6.425
REMARK  8 active torsions:
REMARK  status: ('A' for Active; 'I' for Inactive)
REMARK    1  A    between atoms: O2_2  and  C3_3 
REMARK    2  A    between atoms: C4_4  and  O5_5 
REMARK    3  A    between atoms: O5_5  and  C6_6 
REMARK    4  A    between atoms: C6_6  and  C7_7 
REMARK    5  A    between atoms: C7_7  and  C8_8 
REMARK    6  A    between atoms: C8_8  and  N9_9 
REMARK    7  A    between atoms: C23_23  and  N24_24 
REMARK    8  A    between atoms: N24_24  and  C25_25 
ROOT
ATOM      1  C3  ZIN A   1      18.845   0.571   7.393  0.00  0.00     0.103 A 
ATOM      2  C4  ZIN A   1      18.261  -0.476   8.120  0.00  0.00     0.103 A 
ATOM      3  C16 ZIN A   1      17.842  -0.283   9.406  0.00  0.00     0.057 A 
ATOM      4  C17 ZIN A   1      17.998   0.972  10.006  0.00  0.00     0.042 A 
ATOM      5  C18 ZIN A   1      18.588   2.035   9.277  0.00  0.00     0.075 A 
ATOM      6  C19 ZIN A   1      19.016   1.814   7.962  0.00  0.00     0.072 A 
ATOM      7  N20 ZIN A   1      18.726   3.228   9.875  0.00  0.00    -0.241 NA
ATOM      8  C21 ZIN A   1      18.322   3.403  11.111  0.00  0.00     0.236 A 
ATOM      9  N22 ZIN A   1      17.766   2.441  11.830  0.00  0.00    -0.224 NA
ATOM     10  C23 ZIN A   1      17.583   1.224  11.335  0.00  0.00     0.142 A 
ENDROOT
BRANCH   2  11
ATOM     11  O5  ZIN A   1      18.109  -1.695   7.538  0.00  0.00    -0.348 OA
BRANCH  11  12
ATOM     12  C6  ZIN A   1      19.289  -2.486   7.374  0.00  0.00     0.177 C 
BRANCH  12  13
ATOM     13  C7  ZIN A   1      18.917  -3.828   6.741  0.00  0.00     0.054 C 
BRANCH  13  14
ATOM     14  C8  ZIN A   1      18.885  -4.910   7.822  0.00  0.00     0.237 C 
BRANCH  14  15
ATOM     15  N9  ZIN A   1      18.784  -4.278   9.145  0.00  0.00    -0.067 N 
ATOM     16  H10 ZIN A   1      18.992  -3.295   9.064  0.00  0.00     0.280 HD
ATOM     17  C15 ZIN A   1      17.422  -4.451   9.667  0.00  0.00     0.261 C 
ATOM     18  C14 ZIN A   1      17.319  -3.793  11.045  0.00  0.00     0.195 C 
ATOM     19  O13 ZIN A   1      18.293  -4.370  11.918  0.00  0.00    -0.388 OA
ATOM     20  C12 ZIN A   1      19.636  -4.248  11.440  0.00  0.00     0.195 C 
ATOM     21  C11 ZIN A   1      19.743  -4.908  10.063  0.00  0.00     0.261 C 
ENDBRANCH  14  15
ENDBRANCH  13  14
ENDBRANCH  12  13
ENDBRANCH  11  12
ENDBRANCH   2  11
BRANCH   1  22
ATOM     22  O2  ZIN A   1      19.254   0.355   6.115  0.00  0.00    -0.353 OA
ATOM     23  C1  ZIN A   1      18.240   0.303   5.110  0.00  0.00     0.210 C 
ENDBRANCH   1  22
BRANCH  10  24
ATOM     24  N24 ZIN A   1      17.000   0.229  12.096  0.00  0.00    -0.340 N 
ATOM     25  H53 ZIN A   1      16.142  -0.139  11.836  0.00  0.00     0.167 HD
BRANCH  24  26
ATOM     26  C25 ZIN A   1      17.648  -0.244  13.241  0.00  0.00     0.035 A 
ATOM     27  C32 ZIN A   1      17.177   0.101  14.501  0.00  0.00     0.056 A 
ATOM     28  C30 ZIN A   1      17.817  -0.373  15.630  0.00  0.00     0.074 A 
ATOM     29  C28 ZIN A   1      18.934  -1.183  15.506  0.00  0.00     0.138 A 
ATOM     30 Cl31 ZIN A   1      17.223   0.052  17.206  0.00  0.00    -0.081 Cl
ATOM     31  C27 ZIN A   1      19.408  -1.523  14.252  0.00  0.00     0.046 A 
ATOM     32  F29 ZIN A   1      19.560  -1.642  16.612  0.00  0.00    -0.204 F 
ATOM     33  C26 ZIN A   1      18.769  -1.056  13.120  0.00  0.00     0.032 A 
ENDBRANCH  24  26
ENDBRANCH  10  24
TORSDOF 8
ENDMDL
MODEL 6
REMARK VINA RESULT:      -8.4      3.597      5.472
REMARK  8 active torsions:
REMARK  status: ('A' for Active; 'I' for Inactive)
REMARK    1  A    between atoms: O2_2  and  C3_3 
REMARK    2  A    between atoms: C4_4  and  O5_5 
REMARK    3  A    between atoms: O5_5  and  C6_6 
REMARK    4  A    between atoms: C6_6  and  C7_7 
REMARK    5  A    between atoms: C7_7  and  C8_8 
REMARK    6  A    between atoms: C8_8  and  N9_9 
REMARK    7  A    between atoms: C23_23  and  N24_24 
REMARK    8  A    between atoms: N24_24  and  C25_25 
ROOT
ATOM      1  C3  ZIN A   1      18.684   0.185  15.166  0.00  0.00     0.103 A 
ATOM      2  C4  ZIN A   1      18.118   1.155  14.328  0.00  0.00     0.103 A 
ATOM      3  C16 ZIN A   1      17.723   0.836  13.059  0.00  0.00     0.057 A 
ATOM      4  C17 ZIN A   1      17.886  -0.473  12.590  0.00  0.00     0.042 A 
ATOM      5  C18 ZIN A   1      18.458  -1.459  13.432  0.00  0.00     0.075 A 
ATOM      6  C19 ZIN A   1      18.861  -1.109  14.727  0.00  0.00     0.072 A 
ATOM      7  N20 ZIN A   1      18.603  -2.706  12.958  0.00  0.00    -0.241 NA
ATOM      8  C21 ZIN A   1      18.222  -3.002  11.738  0.00  0.00     0.236 A 
ATOM      9  N22 ZIN A   1      17.683  -2.116  10.917  0.00  0.00    -0.224 NA
ATOM     10  C23 ZIN A   1      17.495  -0.855  11.285  0.00  0.00     0.142 A 
ENDROOT
BRANCH   2  11
ATOM     11  O5  ZIN A   1      17.960   2.426  14.782  0.00  0.00    -0.348 OA
BRANCH  11  12
ATOM     12  C6  ZIN A   1      18.818   3.425  14.226  0.00  0.00     0.177 C 
BRANCH  12  13
ATOM     13  C7  ZIN A   1      18.950   4.589  15.210  0.00  0.00     0.054 C 
BRANCH  13  14
ATOM     14  C8  ZIN A   1      19.188   4.040  16.619  0.00  0.00     0.237 C 
BRANCH  14  15
ATOM     15  N9  ZIN A   1      17.913   3.985  17.346  0.00  0.00    -0.067 N 
ATOM     16  H10 ZIN A   1      17.218   3.532  16.772  0.00  0.00     0.280 HD
ATOM     17  C15 ZIN A   1      18.092   3.225  18.591  0.00  0.00     0.261 C 
ATOM     18  C14 ZIN A   1      16.762   3.168  19.347  0.00  0.00     0.195 C 
ATOM     19  O13 ZIN A   1      16.308   4.500  19.605  0.00  0.00    -0.388 OA
ATOM     20  C12 ZIN A   1      16.142   5.289  18.423  0.00  0.00     0.195 C 
ATOM     21  C11 ZIN A   1      17.471   5.349  17.666  0.00  0.00     0.261 C 
ENDBRANCH  14  15
ENDBRANCH  13  14
ENDBRANCH  12  13
ENDBRANCH  11  12
ENDBRANCH   2  11
BRANCH   1  22
ATOM     22  O2  ZIN A   1      19.069   0.526  16.424  0.00  0.00    -0.353 OA
ATOM     23  C1  ZIN A   1      18.689  -0.358  17.481  0.00  0.00     0.210 C 
ENDBRANCH   1  22
BRANCH  10  24
ATOM     24  N24 ZIN A   1      16.931   0.060  10.418  0.00  0.00    -0.340 N 
ATOM     25  H53 ZIN A   1      16.081   0.473  10.635  0.00  0.00     0.167 HD
BRANCH  24  26
ATOM     26  C25 ZIN A   1      17.585   0.389   9.226  0.00  0.00     0.035 A 
ATOM     27  C32 ZIN A   1      17.237  -0.248   8.042  0.00  0.00     0.056 A 
ATOM     28  C30 ZIN A   1      17.882   0.082   6.865  0.00  0.00     0.074 A 
ATOM     29  C28 ZIN A   1      18.882   1.040   6.868  0.00  0.00     0.138 A 
ATOM     30 Cl31 ZIN A   1      17.441  -0.708   5.383  0.00  0.00    -0.081 Cl
ATOM     31  C27 ZIN A   1      19.235   1.671   8.048  0.00  0.00     0.046 A 
ATOM     32  F29 ZIN A   1      19.515   1.359   5.718  0.00  0.00    -0.204 F 
ATOM     33  C26 ZIN A   1      18.590   1.348   9.226  0.00  0.00     0.032 A 
ENDBRANCH  24  26
ENDBRANCH  10  24
TORSDOF 8
ENDMDL
MODEL 7
REMARK VINA RESULT:      -8.4      3.025      6.700
REMARK  8 active torsions:
REMARK  status: ('A' for Active; 'I' for Inactive)
REMARK    1  A    between atoms: O2_2  and  C3_3 
REMARK    2  A    between atoms: C4_4  and  O5_5 
REMARK    3  A    between atoms: O5_5  and  C6_6 
REMARK    4  A    between atoms: C6_6  and  C7_7 
REMARK    5  A    between atoms: C7_7  and  C8_8 
REMARK    6  A    between atoms: C8_8  and  N9_9 
REMARK    7  A    between atoms: C23_23  and  N24_24 
REMARK    8  A    between atoms: N24_24  and  C25_25 
ROOT
ATOM      1  C3  ZIN A   1      18.208  -0.600   9.628  0.00  0.00     0.103 A 
ATOM      2  C4  ZIN A   1      19.045  -1.044  10.661  0.00  0.00     0.103 A 
ATOM      3  C16 ZIN A   1      19.282  -0.257  11.753  0.00  0.00     0.057 A 
ATOM      4  C17 ZIN A   1      18.684   1.006  11.840  0.00  0.00     0.042 A 
ATOM      5  C18 ZIN A   1      17.838   1.461  10.799  0.00  0.00     0.075 A 
ATOM      6  C19 ZIN A   1      17.613   0.641   9.687  0.00  0.00     0.072 A 
ATOM      7  N20 ZIN A   1      17.277   2.675  10.908  0.00  0.00    -0.241 NA
ATOM      8  C21 ZIN A   1      17.512   3.425  11.960  0.00  0.00     0.236 A 
ATOM      9  N22 ZIN A   1      18.295   3.042  12.956  0.00  0.00    -0.224 NA
ATOM     10  C23 ZIN A   1      18.898   1.860  12.948  0.00  0.00     0.142 A 
ENDROOT
BRANCH   2  11
ATOM     11  O5  ZIN A   1      19.626  -2.270  10.577  0.00  0.00    -0.348 OA
BRANCH  11  12
ATOM     12  C6  ZIN A   1      19.656  -3.057  11.770  0.00  0.00     0.177 C 
BRANCH  12  13
ATOM     13  C7  ZIN A   1      19.424  -4.527  11.415  0.00  0.00     0.054 C 
BRANCH  13  14
ATOM     14  C8  ZIN A   1      18.250  -4.637  10.440  0.00  0.00     0.237 C 
BRANCH  14  15
ATOM     15  N9  ZIN A   1      18.744  -4.518   9.062  0.00  0.00    -0.067 N 
ATOM     16  H10 ZIN A   1      19.032  -3.567   8.889  0.00  0.00     0.280 HD
ATOM     17  C15 ZIN A   1      19.888  -5.420   8.872  0.00  0.00     0.261 C 
ATOM     18  C14 ZIN A   1      20.401  -5.295   7.436  0.00  0.00     0.195 C 
ATOM     19  O13 ZIN A   1      19.339  -5.596   6.527  0.00  0.00    -0.388 OA
ATOM     20  C12 ZIN A   1      18.190  -4.758   6.689  0.00  0.00     0.195 C 
ATOM     21  C11 ZIN A   1      17.674  -4.884   8.124  0.00  0.00     0.261 C 
ENDBRANCH  14  15
ENDBRANCH  13  14
ENDBRANCH  12  13
ENDBRANCH  11  12
ENDBRANCH   2  11
BRANCH   1  22
ATOM     22  O2  ZIN A   1      17.988  -1.401   8.552  0.00  0.00    -0.353 OA
ATOM     23  C1  ZIN A   1      18.742  -1.121   7.370  0.00  0.00     0.210 C 
ENDBRANCH   1  22
BRANCH  10  24
ATOM     24  N24 ZIN A   1      19.712   1.474  13.995  0.00  0.00    -0.340 N 
ATOM     25  H53 ZIN A   1      20.664   1.359  13.852  0.00  0.00     0.167 HD
BRANCH  24  26
ATOM     26  C25 ZIN A   1      19.162   1.245  15.261  0.00  0.00     0.035 A 
ATOM     27  C32 ZIN A   1      19.341   2.176  16.276  0.00  0.00     0.056 A 
ATOM     28  C30 ZIN A   1      18.793   1.949  17.524  0.00  0.00     0.074 A 
ATOM     29  C28 ZIN A   1      18.073   0.790  17.765  0.00  0.00     0.138 A 
ATOM     30 Cl31 ZIN A   1      19.011   3.116  18.792  0.00  0.00    -0.081 Cl
ATOM     31  C27 ZIN A   1      17.898  -0.140  16.756  0.00  0.00     0.046 A 
ATOM     32  F29 ZIN A   1      17.540   0.569  18.987  0.00  0.00    -0.204 F 
ATOM     33  C26 ZIN A   1      18.441   0.084  15.506  0.00  0.00     0.032 A 
ENDBRANCH  24  26
ENDBRANCH  10  24
TORSDOF 8
ENDMDL
MODEL 8
REMARK VINA RESULT:      -8.3      3.221      6.593
REMARK  8 active torsions:
REMARK  status: ('A' for Active; 'I' for Inactive)
REMARK    1  A    between atoms: O2_2  and  C3_3 
REMARK    2  A    between atoms: C4_4  and  O5_5 
REMARK    3  A    between atoms: O5_5  and  C6_6 
REMARK    4  A    between atoms: C6_6  and  C7_7 
REMARK    5  A    between atoms: C7_7  and  C8_8 
REMARK    6  A    between atoms: C8_8  and  N9_9 
REMARK    7  A    between atoms: C23_23  and  N24_24 
REMARK    8  A    between atoms: N24_24  and  C25_25 
ROOT
ATOM      1  C3  ZIN A   1      18.552   1.621  14.366  0.00  0.00     0.103 A 
ATOM      2  C4  ZIN A   1      19.279   0.842  13.455  0.00  0.00     0.103 A 
ATOM      3  C16 ZIN A   1      19.388   1.218  12.147  0.00  0.00     0.057 A 
ATOM      4  C17 ZIN A   1      18.766   2.394  11.709  0.00  0.00     0.042 A 
ATOM      5  C18 ZIN A   1      18.029   3.186  12.623  0.00  0.00     0.075 A 
ATOM      6  C19 ZIN A   1      17.926   2.779  13.959  0.00  0.00     0.072 A 
ATOM      7  N20 ZIN A   1      17.443   4.308  12.178  0.00  0.00    -0.241 NA
ATOM      8  C21 ZIN A   1      17.552   4.661  10.919  0.00  0.00     0.236 A 
ATOM      9  N22 ZIN A   1      18.230   3.953  10.029  0.00  0.00    -0.224 NA
ATOM     10  C23 ZIN A   1      18.847   2.827  10.364  0.00  0.00     0.142 A 
ENDROOT
BRANCH   2  11
ATOM     11  O5  ZIN A   1      19.883  -0.300  13.880  0.00  0.00    -0.348 OA
BRANCH  11  12
ATOM     12  C6  ZIN A   1      19.120  -1.506  13.797  0.00  0.00     0.177 C 
BRANCH  12  13
ATOM     13  C7  ZIN A   1      19.255  -2.099  12.393  0.00  0.00     0.054 C 
BRANCH  13  14
ATOM     14  C8  ZIN A   1      17.873  -2.190  11.743  0.00  0.00     0.237 C 
BRANCH  14  15
ATOM     15  N9  ZIN A   1      17.873  -3.262  10.739  0.00  0.00    -0.067 N 
ATOM     16  H10 ZIN A   1      17.533  -2.901   9.861  0.00  0.00     0.280 HD
ATOM     17  C15 ZIN A   1      19.241  -3.769  10.565  0.00  0.00     0.261 C 
ATOM     18  C14 ZIN A   1      19.240  -4.886   9.518  0.00  0.00     0.195 C 
ATOM     19  O13 ZIN A   1      18.345  -5.921   9.934  0.00  0.00    -0.388 OA
ATOM     20  C12 ZIN A   1      17.003  -5.472  10.141  0.00  0.00     0.195 C 
ATOM     21  C11 ZIN A   1      17.001  -4.356  11.189  0.00  0.00     0.261 C 
ENDBRANCH  14  15
ENDBRANCH  13  14
ENDBRANCH  12  13
ENDBRANCH  11  12
ENDBRANCH   2  11
BRANCH   1  22
ATOM     22  O2  ZIN A   1      18.458   1.226  15.663  0.00  0.00    -0.353 OA
ATOM     23  C1  ZIN A   1      19.259   1.929  16.615  0.00  0.00     0.210 C 
ENDBRANCH   1  22
BRANCH  10  24
ATOM     24  N24 ZIN A   1      19.551   2.099   9.426  0.00  0.00    -0.340 N 
ATOM     25  H53 ZIN A   1      20.520   2.114   9.429  0.00  0.00     0.167 HD
BRANCH  24  26
ATOM     26  C25 ZIN A   1      18.865   1.343   8.470  0.00  0.00     0.035 A 
ATOM     27  C32 ZIN A   1      19.298   1.330   7.150  0.00  0.00     0.056 A 
ATOM     28  C30 ZIN A   1      18.621   0.578   6.209  0.00  0.00     0.074 A 
ATOM     29  C28 ZIN A   1      17.505  -0.155   6.579  0.00  0.00     0.138 A 
ATOM     30 Cl31 ZIN A   1      19.167   0.556   4.560  0.00  0.00    -0.081 Cl
ATOM     31  C27 ZIN A   1      17.069  -0.138   7.892  0.00  0.00     0.046 A 
ATOM     32  F29 ZIN A   1      16.842  -0.886   5.657  0.00  0.00    -0.204 F 
ATOM     33  C26 ZIN A   1      17.746   0.608   8.837  0.00  0.00     0.032 A 
ENDBRANCH  24  26
ENDBRANCH  10  24
TORSDOF 8
ENDMDL
MODEL 9
REMARK VINA RESULT:      -8.2      3.772      7.480
REMARK  8 active torsions:
REMARK  status: ('A' for Active; 'I' for Inactive)
REMARK    1  A    between atoms: O2_2  and  C3_3 
REMARK    2  A    between atoms: C4_4  and  O5_5 
REMARK    3  A    between atoms: O5_5  and  C6_6 
REMARK    4  A    between atoms: C6_6  and  C7_7 
REMARK    5  A    between atoms: C7_7  and  C8_8 
REMARK    6  A    between atoms: C8_8  and  N9_9 
REMARK    7  A    between atoms: C23_23  and  N24_24 
REMARK    8  A    between atoms: N24_24  and  C25_25 
ROOT
ATOM      1  C3  ZIN A   1      19.043  -0.191   6.709  0.00  0.00     0.103 A 
ATOM      2  C4  ZIN A   1      18.416  -1.128   7.542  0.00  0.00     0.103 A 
ATOM      3  C16 ZIN A   1      17.946  -0.764   8.772  0.00  0.00     0.057 A 
ATOM      4  C17 ZIN A   1      18.092   0.559   9.206  0.00  0.00     0.042 A 
ATOM      5  C18 ZIN A   1      18.725   1.512   8.370  0.00  0.00     0.075 A 
ATOM      6  C19 ZIN A   1      19.205   1.116   7.116  0.00  0.00     0.072 A 
ATOM      7  N20 ZIN A   1      18.851   2.773   8.810  0.00  0.00    -0.241 NA
ATOM      8  C21 ZIN A   1      18.397   3.114   9.993  0.00  0.00     0.236 A 
ATOM      9  N22 ZIN A   1      17.799   2.259  10.808  0.00  0.00    -0.224 NA
ATOM     10  C23 ZIN A   1      17.623   0.988  10.471  0.00  0.00     0.142 A 
ENDROOT
BRANCH   2  11
ATOM     11  O5  ZIN A   1      18.275  -2.413   7.121  0.00  0.00    -0.348 OA
BRANCH  11  12
ATOM     12  C6  ZIN A   1      19.438  -3.243   7.172  0.00  0.00     0.177 C 
BRANCH  12  13
ATOM     13  C7  ZIN A   1      19.035  -4.657   7.598  0.00  0.00     0.054 C 
BRANCH  13  14
ATOM     14  C8  ZIN A   1      17.857  -4.580   8.571  0.00  0.00     0.237 C 
BRANCH  14  15
ATOM     15  N9  ZIN A   1      16.621  -4.966   7.877  0.00  0.00    -0.067 N 
ATOM     16  H10 ZIN A   1      16.122  -4.137   7.592  0.00  0.00     0.280 HD
ATOM     17  C15 ZIN A   1      16.956  -5.768   6.692  0.00  0.00     0.261 C 
ATOM     18  C14 ZIN A   1      15.667  -6.170   5.970  0.00  0.00     0.195 C 
ATOM     19  O13 ZIN A   1      14.825  -6.892   6.873  0.00  0.00    -0.388 OA
ATOM     20  C12 ZIN A   1      14.491  -6.160   8.056  0.00  0.00     0.195 C 
ATOM     21  C11 ZIN A   1      15.778  -5.759   8.781  0.00  0.00     0.261 C 
ENDBRANCH  14  15
ENDBRANCH  13  14
ENDBRANCH  12  13
ENDBRANCH  11  12
ENDBRANCH   2  11
BRANCH   1  22
ATOM     22  O2  ZIN A   1      19.504  -0.577   5.490  0.00  0.00    -0.353 OA
ATOM     23  C1  ZIN A   1      18.647  -0.344   4.370  0.00  0.00     0.210 C 
ENDBRANCH   1  22
BRANCH  10  24
ATOM     24  N24 ZIN A   1      16.997   0.107  11.330  0.00  0.00    -0.340 N 
ATOM     25  H53 ZIN A   1      16.097  -0.199  11.140  0.00  0.00     0.167 HD
BRANCH  24  26
ATOM     26  C25 ZIN A   1      17.661  -0.342  12.477  0.00  0.00     0.035 A 
ATOM     27  C32 ZIN A   1      17.391   0.237  13.710  0.00  0.00     0.056 A 
ATOM     28  C30 ZIN A   1      18.046  -0.212  14.841  0.00  0.00     0.074 A 
ATOM     29  C28 ZIN A   1      18.978  -1.233  14.743  0.00  0.00     0.138 A 
ATOM     30 Cl31 ZIN A   1      17.704   0.507  16.384  0.00  0.00    -0.081 Cl
ATOM     31  C27 ZIN A   1      19.252  -1.807  13.514  0.00  0.00     0.046 A 
ATOM     32  F29 ZIN A   1      19.620  -1.668  15.850  0.00  0.00    -0.204 F 
ATOM     33  C26 ZIN A   1      18.596  -1.364  12.382  0.00  0.00     0.032 A 
ENDBRANCH  24  26
ENDBRANCH  10  24
TORSDOF 8
ENDMDL
