MODEL 1
REMARK VINA RESULT:      -6.2      0.000      0.000
REMARK  5 active torsions:
REMARK  status: ('A' for Active; 'I' for Inactive)
REMARK    1  A    between atoms: C2_2  and  C3_3 
REMARK    2  A    between atoms: C3_3  and  S4_4 
REMARK    3  A    between atoms: S4_4  and  C5_5 
REMARK    4  A    between atoms: C10_10  and  N11_11 
REMARK       I    between atoms: N11_11  and  C12_12 
REMARK    5  A    between atoms: C12_12  and  O14_14 
ROOT
ATOM      1  C5  ZIN A   1      19.084   1.177   8.363  0.00  0.00     0.003 A 
ATOM      2  C6  ZIN A   1      18.958   2.420   8.981  0.00  0.00     0.021 A 
ATOM      3  C7  ZIN A   1      19.098   2.535  10.349  0.00  0.00     0.034 A 
ATOM      4  C8  ZIN A   1      19.366   1.410  11.115  0.00  0.00     0.078 A 
ATOM      5  N9  ZIN A   1      19.558   1.196  12.471  0.00  0.00    -0.187 N 
ATOM      6  C10 ZIN A   1      19.789  -0.137  12.641  0.00  0.00     0.710 A 
ATOM      7  N16 ZIN A   1      19.752  -0.747  11.484  0.00  0.00    -0.062 NA
ATOM      8  C17 ZIN A   1      19.494   0.154  10.501  0.00  0.00     0.104 A 
ATOM      9  C18 ZIN A   1      19.346   0.045   9.116  0.00  0.00     0.053 A 
ATOM     10  H28 ZIN A   1      19.531   1.870  13.169  0.00  0.00     0.184 HD
ENDROOT
BRANCH   6  11
ATOM     11  N11 ZIN A   1      20.028  -0.754  13.857  0.00  0.00    -0.133 N 
ATOM     12  C12 ZIN A   1      19.021  -0.922  14.736  0.00  0.00     0.378 C 
ATOM     13  O13 ZIN A   1      17.903  -0.532  14.462  0.00  0.00    -0.238 OA
ATOM     14  H29 ZIN A   1      20.920  -1.065  14.077  0.00  0.00     0.190 HD
BRANCH  12  15
ATOM     15  O14 ZIN A   1      19.253  -1.521  15.920  0.00  0.00    -0.308 OA
ATOM     16  C15 ZIN A   1      18.940  -0.761  17.117  0.00  0.00     0.215 C 
ENDBRANCH  12  15
ENDBRANCH   6  11
BRANCH   1  17
ATOM     17  S4  ZIN A   1      18.901   1.045   6.616  0.00  0.00    -0.130 SA
BRANCH  17  18
ATOM     18  C3  ZIN A   1      17.432  -0.004   6.437  0.00  0.00     0.079 C 
BRANCH  18  19
ATOM     19  C2  ZIN A   1      17.601  -0.914   5.219  0.00  0.00     0.006 C 
ATOM     20  C1  ZIN A   1      18.822  -0.465   4.413  0.00  0.00     0.006 C 
ENDBRANCH  18  19
ENDBRANCH  17  18
ENDBRANCH   1  17
TORSDOF 5
ENDMDL
MODEL 2
REMARK VINA RESULT:      -6.2      4.830      7.301
REMARK  5 active torsions:
REMARK  status: ('A' for Active; 'I' for Inactive)
REMARK    1  A    between atoms: C2_2  and  C3_3 
REMARK    2  A    between atoms: C3_3  and  S4_4 
REMARK    3  A    between atoms: S4_4  and  C5_5 
REMARK    4  A    between atoms: C10_10  and  N11_11 
REMARK       I    between atoms: N11_11  and  C12_12 
REMARK    5  A    between atoms: C12_12  and  O14_14 
ROOT
ATOM      1  C5  ZIN A   1      18.138   1.653  10.464  0.00  0.00     0.003 A 
ATOM      2  C6  ZIN A   1      19.050   2.379   9.700  0.00  0.00     0.021 A 
ATOM      3  C7  ZIN A   1      19.319   2.008   8.398  0.00  0.00     0.034 A 
ATOM      4  C8  ZIN A   1      18.680   0.909   7.845  0.00  0.00     0.078 A 
ATOM      5  N9  ZIN A   1      18.727   0.295   6.603  0.00  0.00    -0.187 N 
ATOM      6  C10 ZIN A   1      17.866  -0.762   6.640  0.00  0.00     0.710 A 
ATOM      7  N16 ZIN A   1      17.299  -0.833   7.818  0.00  0.00    -0.062 NA
ATOM      8  C17 ZIN A   1      17.759   0.172   8.608  0.00  0.00     0.104 A 
ATOM      9  C18 ZIN A   1      17.497   0.550   9.927  0.00  0.00     0.053 A 
ATOM     10  H28 ZIN A   1      19.273   0.567   5.847  0.00  0.00     0.184 HD
ENDROOT
BRANCH   6  11
ATOM     11  N11 ZIN A   1      17.627  -1.631   5.589  0.00  0.00    -0.133 N 
ATOM     12  C12 ZIN A   1      18.634  -2.372   5.087  0.00  0.00     0.378 C 
ATOM     13  O13 ZIN A   1      19.751  -2.278   5.555  0.00  0.00    -0.238 OA
ATOM     14  H29 ZIN A   1      16.736  -1.706   5.215  0.00  0.00     0.190 HD
BRANCH  12  15
ATOM     15  O14 ZIN A   1      18.402  -3.217   4.064  0.00  0.00    -0.308 OA
ATOM     16  C15 ZIN A   1      17.015  -3.457   3.709  0.00  0.00     0.215 C 
ENDBRANCH  12  15
ENDBRANCH   6  11
BRANCH   1  17
ATOM     17  S4  ZIN A   1      17.807   2.137  12.125  0.00  0.00    -0.130 SA
BRANCH  17  18
ATOM     18  C3  ZIN A   1      18.496   3.814  12.207  0.00  0.00     0.079 C 
BRANCH  18  19
ATOM     19  C2  ZIN A   1      17.355   4.831  12.273  0.00  0.00     0.006 C 
ATOM     20  C1  ZIN A   1      16.732   4.989  10.884  0.00  0.00     0.006 C 
ENDBRANCH  18  19
ENDBRANCH  17  18
ENDBRANCH   1  17
TORSDOF 5
ENDMDL
MODEL 3
REMARK VINA RESULT:      -6.1      3.644      4.073
REMARK  5 active torsions:
REMARK  status: ('A' for Active; 'I' for Inactive)
REMARK    1  A    between atoms: C2_2  and  C3_3 
REMARK    2  A    between atoms: C3_3  and  S4_4 
REMARK    3  A    between atoms: S4_4  and  C5_5 
REMARK    4  A    between atoms: C10_10  and  N11_11 
REMARK       I    between atoms: N11_11  and  C12_12 
REMARK    5  A    between atoms: C12_12  and  O14_14 
ROOT
ATOM      1  C5  ZIN A   1      18.333  -0.107   8.585  0.00  0.00     0.003 A 
ATOM      2  C6  ZIN A   1      19.118   0.850   7.945  0.00  0.00     0.021 A 
ATOM      3  C7  ZIN A   1      19.212   2.128   8.454  0.00  0.00     0.034 A 
ATOM      4  C8  ZIN A   1      18.523   2.466   9.609  0.00  0.00     0.078 A 
ATOM      5  N9  ZIN A   1      18.412   3.629  10.355  0.00  0.00    -0.187 N 
ATOM      6  C10 ZIN A   1      17.583   3.360  11.404  0.00  0.00     0.710 A 
ATOM      7  N16 ZIN A   1      17.183   2.114  11.347  0.00  0.00    -0.062 NA
ATOM      8  C17 ZIN A   1      17.729   1.508  10.261  0.00  0.00     0.104 A 
ATOM      9  C18 ZIN A   1      17.635   0.217   9.736  0.00  0.00     0.053 A 
ATOM     10  H28 ZIN A   1      18.843   4.478  10.166  0.00  0.00     0.184 HD
ENDROOT
BRANCH   6  11
ATOM     11  N11 ZIN A   1      17.217   4.267  12.383  0.00  0.00    -0.133 N 
ATOM     12  C12 ZIN A   1      18.165   4.909  13.094  0.00  0.00     0.378 C 
ATOM     13  O13 ZIN A   1      19.340   4.692  12.875  0.00  0.00    -0.238 OA
ATOM     14  H29 ZIN A   1      16.279   4.441  12.558  0.00  0.00     0.190 HD
BRANCH  12  15
ATOM     15  O14 ZIN A   1      17.810   5.792  14.047  0.00  0.00    -0.308 OA
ATOM     16  C15 ZIN A   1      16.535   5.572  14.706  0.00  0.00     0.215 C 
ENDBRANCH  12  15
ENDBRANCH   6  11
BRANCH   1  17
ATOM     17  S4  ZIN A   1      18.222  -1.735   7.922  0.00  0.00    -0.130 SA
BRANCH  17  18
ATOM     18  C3  ZIN A   1      19.142  -1.605   6.364  0.00  0.00     0.079 C 
BRANCH  18  19
ATOM     19  C2  ZIN A   1      18.162  -1.394   5.208  0.00  0.00     0.006 C 
ATOM     20  C1  ZIN A   1      18.622  -0.206   4.361  0.00  0.00     0.006 C 
ENDBRANCH  18  19
ENDBRANCH  17  18
ENDBRANCH   1  17
TORSDOF 5
ENDMDL
MODEL 4
REMARK VINA RESULT:      -6.0      2.321      2.789
REMARK  5 active torsions:
REMARK  status: ('A' for Active; 'I' for Inactive)
REMARK    1  A    between atoms: C2_2  and  C3_3 
REMARK    2  A    between atoms: C3_3  and  S4_4 
REMARK    3  A    between atoms: S4_4  and  C5_5 
REMARK    4  A    between atoms: C10_10  and  N11_11 
REMARK       I    between atoms: N11_11  and  C12_12 
REMARK    5  A    between atoms: C12_12  and  O14_14 
ROOT
ATOM      1  C5  ZIN A   1      18.842   2.141  10.064  0.00  0.00     0.003 A 
ATOM      2  C6  ZIN A   1      18.084   3.270  10.365  0.00  0.00     0.021 A 
ATOM      3  C7  ZIN A   1      17.773   3.571  11.675  0.00  0.00     0.034 A 
ATOM      4  C8  ZIN A   1      18.215   2.747  12.699  0.00  0.00     0.078 A 
ATOM      5  N9  ZIN A   1      18.078   2.771  14.078  0.00  0.00    -0.187 N 
ATOM      6  C10 ZIN A   1      18.738   1.684  14.570  0.00  0.00     0.710 A 
ATOM      7  N16 ZIN A   1      19.267   1.001  13.586  0.00  0.00    -0.062 NA
ATOM      8  C17 ZIN A   1      18.980   1.607  12.404  0.00  0.00     0.104 A 
ATOM      9  C18 ZIN A   1      19.287   1.306  11.075  0.00  0.00     0.053 A 
ATOM     10  H28 ZIN A   1      17.600   3.438  14.597  0.00  0.00     0.184 HD
ENDROOT
BRANCH   6  11
ATOM     11  N11 ZIN A   1      18.834   1.351  15.910  0.00  0.00    -0.133 N 
ATOM     12  C12 ZIN A   1      19.430   2.197  16.773  0.00  0.00     0.378 C 
ATOM     13  O13 ZIN A   1      19.882   3.252  16.376  0.00  0.00    -0.238 OA
ATOM     14  H29 ZIN A   1      18.474   0.508  16.227  0.00  0.00     0.190 HD
BRANCH  12  15
ATOM     15  O14 ZIN A   1      19.524   1.872  18.077  0.00  0.00    -0.308 OA
ATOM     16  C15 ZIN A   1      19.173   0.512  18.445  0.00  0.00     0.215 C 
ENDBRANCH  12  15
ENDBRANCH   6  11
BRANCH   1  17
ATOM     17  S4  ZIN A   1      19.231   1.769   8.386  0.00  0.00    -0.130 SA
BRANCH  17  18
ATOM     18  C3  ZIN A   1      18.788   0.016   8.243  0.00  0.00     0.079 C 
BRANCH  18  19
ATOM     19  C2  ZIN A   1      17.329  -0.107   7.799  0.00  0.00     0.006 C 
ATOM     20  C1  ZIN A   1      17.256  -0.054   6.271  0.00  0.00     0.006 C 
ENDBRANCH  18  19
ENDBRANCH  17  18
ENDBRANCH   1  17
TORSDOF 5
ENDMDL
MODEL 5
REMARK VINA RESULT:      -6.0      3.949      7.585
REMARK  5 active torsions:
REMARK  status: ('A' for Active; 'I' for Inactive)
REMARK    1  A    between atoms: C2_2  and  C3_3 
REMARK    2  A    between atoms: C3_3  and  S4_4 
REMARK    3  A    between atoms: S4_4  and  C5_5 
REMARK    4  A    between atoms: C10_10  and  N11_11 
REMARK       I    between atoms: N11_11  and  C12_12 
REMARK    5  A    between atoms: C12_12  and  O14_14 
ROOT
ATOM      1  C5  ZIN A   1      18.728  -0.138  13.759  0.00  0.00     0.003 A 
ATOM      2  C6  ZIN A   1      19.945   0.523  13.604  0.00  0.00     0.021 A 
ATOM      3  C7  ZIN A   1      20.612   0.478  12.397  0.00  0.00     0.034 A 
ATOM      4  C8  ZIN A   1      20.072  -0.228  11.333  0.00  0.00     0.078 A 
ATOM      5  N9  ZIN A   1      20.481  -0.460  10.029  0.00  0.00    -0.187 N 
ATOM      6  C10 ZIN A   1      19.528  -1.236   9.437  0.00  0.00     0.710 A 
ATOM      7  N16 ZIN A   1      18.569  -1.491  10.291  0.00  0.00    -0.062 NA
ATOM      8  C17 ZIN A   1      18.846  -0.896  11.481  0.00  0.00     0.104 A 
ATOM      9  C18 ZIN A   1      18.179  -0.850  12.707  0.00  0.00     0.053 A 
ATOM     10  H28 ZIN A   1      21.295  -0.131   9.614  0.00  0.00     0.184 HD
ENDROOT
BRANCH   6  11
ATOM     11  N11 ZIN A   1      19.568  -1.687   8.130  0.00  0.00    -0.133 N 
ATOM     12  C12 ZIN A   1      19.237  -0.858   7.121  0.00  0.00     0.378 C 
ATOM     13  O13 ZIN A   1      18.903   0.285   7.358  0.00  0.00    -0.238 OA
ATOM     14  H29 ZIN A   1      19.834  -2.600   7.940  0.00  0.00     0.190 HD
BRANCH  12  15
ATOM     15  O14 ZIN A   1      19.276  -1.297   5.848  0.00  0.00    -0.308 OA
ATOM     16  C15 ZIN A   1      19.315  -0.289   4.804  0.00  0.00     0.215 C 
ENDBRANCH  12  15
ENDBRANCH   6  11
BRANCH   1  17
ATOM     17  S4  ZIN A   1      17.888  -0.072  15.307  0.00  0.00    -0.130 SA
BRANCH  17  18
ATOM     18  C3  ZIN A   1      18.851  -1.208  16.343  0.00  0.00     0.079 C 
BRANCH  18  19
ATOM     19  C2  ZIN A   1      19.193  -0.524  17.668  0.00  0.00     0.006 C 
ATOM     20  C1  ZIN A   1      18.044   0.402  18.074  0.00  0.00     0.006 C 
ENDBRANCH  18  19
ENDBRANCH  17  18
ENDBRANCH   1  17
TORSDOF 5
ENDMDL
MODEL 6
REMARK VINA RESULT:      -5.9      4.435      7.293
REMARK  5 active torsions:
REMARK  status: ('A' for Active; 'I' for Inactive)
REMARK    1  A    between atoms: C2_2  and  C3_3 
REMARK    2  A    between atoms: C3_3  and  S4_4 
REMARK    3  A    between atoms: S4_4  and  C5_5 
REMARK    4  A    between atoms: C10_10  and  N11_11 
REMARK       I    between atoms: N11_11  and  C12_12 
REMARK    5  A    between atoms: C12_12  and  O14_14 
ROOT
ATOM      1  C5  ZIN A   1      18.144   1.558  10.542  0.00  0.00     0.003 A 
ATOM      2  C6  ZIN A   1      19.003   2.372   9.806  0.00  0.00     0.021 A 
ATOM      3  C7  ZIN A   1      19.247   2.103   8.475  0.00  0.00     0.034 A 
ATOM      4  C8  ZIN A   1      18.636   1.019   7.864  0.00  0.00     0.078 A 
ATOM      5  N9  ZIN A   1      18.671   0.495   6.581  0.00  0.00    -0.187 N 
ATOM      6  C10 ZIN A   1      17.854  -0.597   6.567  0.00  0.00     0.710 A 
ATOM      7  N16 ZIN A   1      17.326  -0.772   7.752  0.00  0.00    -0.062 NA
ATOM      8  C17 ZIN A   1      17.769   0.194   8.598  0.00  0.00     0.104 A 
ATOM      9  C18 ZIN A   1      17.531   0.469   9.947  0.00  0.00     0.053 A 
ATOM     10  H28 ZIN A   1      19.183   0.841   5.832  0.00  0.00     0.184 HD
ENDROOT
BRANCH   6  11
ATOM     11  N11 ZIN A   1      17.619  -1.401   5.465  0.00  0.00    -0.133 N 
ATOM     12  C12 ZIN A   1      18.567  -2.261   5.045  0.00  0.00     0.378 C 
ATOM     13  O13 ZIN A   1      19.628  -2.332   5.633  0.00  0.00    -0.238 OA
ATOM     14  H29 ZIN A   1      16.772  -1.344   4.996  0.00  0.00     0.190 HD
BRANCH  12  15
ATOM     15  O14 ZIN A   1      18.339  -3.043   3.973  0.00  0.00    -0.308 OA
ATOM     16  C15 ZIN A   1      16.952  -3.319   3.642  0.00  0.00     0.215 C 
ENDBRANCH  12  15
ENDBRANCH   6  11
BRANCH   1  17
ATOM     17  S4  ZIN A   1      17.843   1.913  12.241  0.00  0.00    -0.130 SA
BRANCH  17  18
ATOM     18  C3  ZIN A   1      17.327   0.307  12.909  0.00  0.00     0.079 C 
BRANCH  18  19
ATOM     19  C2  ZIN A   1      18.543  -0.417  13.491  0.00  0.00     0.006 C 
ATOM     20  C1  ZIN A   1      19.669   0.591  13.732  0.00  0.00     0.006 C 
ENDBRANCH  18  19
ENDBRANCH  17  18
ENDBRANCH   1  17
TORSDOF 5
ENDMDL
MODEL 7
REMARK VINA RESULT:      -5.9      3.628      4.810
REMARK  5 active torsions:
REMARK  status: ('A' for Active; 'I' for Inactive)
REMARK    1  A    between atoms: C2_2  and  C3_3 
REMARK    2  A    between atoms: C3_3  and  S4_4 
REMARK    3  A    between atoms: S4_4  and  C5_5 
REMARK    4  A    between atoms: C10_10  and  N11_11 
REMARK       I    between atoms: N11_11  and  C12_12 
REMARK    5  A    between atoms: C12_12  and  O14_14 
ROOT
ATOM      1  C5  ZIN A   1      18.408  -0.451   8.783  0.00  0.00     0.003 A 
ATOM      2  C6  ZIN A   1      19.164   0.446   8.031  0.00  0.00     0.021 A 
ATOM      3  C7  ZIN A   1      19.223   1.778   8.388  0.00  0.00     0.034 A 
ATOM      4  C8  ZIN A   1      18.527   2.228   9.499  0.00  0.00     0.078 A 
ATOM      5  N9  ZIN A   1      18.384   3.467  10.105  0.00  0.00    -0.187 N 
ATOM      6  C10 ZIN A   1      17.565   3.298  11.183  0.00  0.00     0.710 A 
ATOM      7  N16 ZIN A   1      17.201   2.044  11.273  0.00  0.00    -0.062 NA
ATOM      8  C17 ZIN A   1      17.762   1.331  10.262  0.00  0.00     0.104 A 
ATOM      9  C18 ZIN A   1      17.703  -0.014   9.891  0.00  0.00     0.053 A 
ATOM     10  H28 ZIN A   1      18.791   4.299   9.816  0.00  0.00     0.184 HD
ENDROOT
BRANCH   6  11
ATOM     11  N11 ZIN A   1      17.177   4.303  12.052  0.00  0.00    -0.133 N 
ATOM     12  C12 ZIN A   1      18.086   4.884  12.859  0.00  0.00     0.378 C 
ATOM     13  O13 ZIN A   1      19.246   4.527  12.824  0.00  0.00    -0.238 OA
ATOM     14  H29 ZIN A   1      16.250   4.589  12.080  0.00  0.00     0.190 HD
BRANCH  12  15
ATOM     15  O14 ZIN A   1      17.707   5.862  13.705  0.00  0.00    -0.308 OA
ATOM     16  C15 ZIN A   1      16.828   5.484  14.797  0.00  0.00     0.215 C 
ENDBRANCH  12  15
ENDBRANCH   6  11
BRANCH   1  17
ATOM     17  S4  ZIN A   1      18.341  -2.148   8.314  0.00  0.00    -0.130 SA
BRANCH  17  18
ATOM     18  C3  ZIN A   1      17.926  -2.985   9.869  0.00  0.00     0.079 C 
BRANCH  18  19
ATOM     19  C2  ZIN A   1      19.146  -3.761  10.371  0.00  0.00     0.006 C 
ATOM     20  C1  ZIN A   1      19.701  -3.080  11.624  0.00  0.00     0.006 C 
ENDBRANCH  18  19
ENDBRANCH  17  18
ENDBRANCH   1  17
TORSDOF 5
ENDMDL
MODEL 8
REMARK VINA RESULT:      -5.9      4.225      7.737
REMARK  5 active torsions:
REMARK  status: ('A' for Active; 'I' for Inactive)
REMARK    1  A    between atoms: C2_2  and  C3_3 
REMARK    2  A    between atoms: C3_3  and  S4_4 
REMARK    3  A    between atoms: S4_4  and  C5_5 
REMARK    4  A    between atoms: C10_10  and  N11_11 
REMARK       I    between atoms: N11_11  and  C12_12 
REMARK    5  A    between atoms: C12_12  and  O14_14 
ROOT
ATOM      1  C5  ZIN A   1      19.026  -1.204  12.625  0.00  0.00     0.003 A 
ATOM      2  C6  ZIN A   1      18.303  -2.376  12.414  0.00  0.00     0.021 A 
ATOM      3  C7  ZIN A   1      17.971  -2.769  11.134  0.00  0.00     0.034 A 
ATOM      4  C8  ZIN A   1      18.356  -1.994  10.051  0.00  0.00     0.078 A 
ATOM      5  N9  ZIN A   1      18.184  -2.109   8.680  0.00  0.00    -0.187 N 
ATOM      6  C10 ZIN A   1      18.790  -1.031   8.104  0.00  0.00     0.710 A 
ATOM      7  N16 ZIN A   1      19.318  -0.270   9.030  0.00  0.00    -0.062 NA
ATOM      8  C17 ZIN A   1      19.084  -0.811  10.254  0.00  0.00     0.104 A 
ATOM      9  C18 ZIN A   1      19.413  -0.418  11.554  0.00  0.00     0.053 A 
ATOM     10  H28 ZIN A   1      17.719  -2.823   8.216  0.00  0.00     0.184 HD
ENDROOT
BRANCH   6  11
ATOM     11  N11 ZIN A   1      18.840  -0.778   6.744  0.00  0.00    -0.133 N 
ATOM     12  C12 ZIN A   1      19.436  -1.659   5.917  0.00  0.00     0.378 C 
ATOM     13  O13 ZIN A   1      19.930  -2.675   6.364  0.00  0.00    -0.238 OA
ATOM     14  H29 ZIN A   1      18.446   0.033   6.387  0.00  0.00     0.190 HD
BRANCH  12  15
ATOM     15  O14 ZIN A   1      19.485  -1.413   4.594  0.00  0.00    -0.308 OA
ATOM     16  C15 ZIN A   1      18.845  -0.196   4.126  0.00  0.00     0.215 C 
ENDBRANCH  12  15
ENDBRANCH   6  11
BRANCH   1  17
ATOM     17  S4  ZIN A   1      19.443  -0.715  14.266  0.00  0.00    -0.130 SA
BRANCH  17  18
ATOM     18  C3  ZIN A   1      17.868  -0.097  14.921  0.00  0.00     0.079 C 
BRANCH  18  19
ATOM     19  C2  ZIN A   1      17.596  -0.737  16.283  0.00  0.00     0.006 C 
ATOM     20  C1  ZIN A   1      18.814  -1.556  16.714  0.00  0.00     0.006 C 
ENDBRANCH  18  19
ENDBRANCH  17  18
ENDBRANCH   1  17
TORSDOF 5
ENDMDL
MODEL 9
REMARK VINA RESULT:      -5.9      4.492      6.592
REMARK  5 active torsions:
REMARK  status: ('A' for Active; 'I' for Inactive)
REMARK    1  A    between atoms: C2_2  and  C3_3 
REMARK    2  A    between atoms: C3_3  and  S4_4 
REMARK    3  A    between atoms: S4_4  and  C5_5 
REMARK    4  A    between atoms: C10_10  and  N11_11 
REMARK       I    between atoms: N11_11  and  C12_12 
REMARK    5  A    between atoms: C12_12  and  O14_14 
ROOT
ATOM      1  C5  ZIN A   1      19.012   1.630   9.488  0.00  0.00     0.003 A 
ATOM      2  C6  ZIN A   1      18.983   1.886   8.119  0.00  0.00     0.021 A 
ATOM      3  C7  ZIN A   1      18.907   0.844   7.217  0.00  0.00     0.034 A 
ATOM      4  C8  ZIN A   1      18.859  -0.464   7.673  0.00  0.00     0.078 A 
ATOM      5  N9  ZIN A   1      18.782  -1.698   7.045  0.00  0.00    -0.187 N 
ATOM      6  C10 ZIN A   1      18.767  -2.649   8.021  0.00  0.00     0.710 A 
ATOM      7  N16 ZIN A   1      18.829  -2.080   9.198  0.00  0.00    -0.062 NA
ATOM      8  C17 ZIN A   1      18.888  -0.731   9.051  0.00  0.00     0.104 A 
ATOM      9  C18 ZIN A   1      18.971   0.329   9.958  0.00  0.00     0.053 A 
ATOM     10  H28 ZIN A   1      18.746  -1.854   6.087  0.00  0.00     0.184 HD
ENDROOT
BRANCH   6  11
ATOM     11  N11 ZIN A   1      18.696  -4.014   7.801  0.00  0.00    -0.133 N 
ATOM     12  C12 ZIN A   1      19.641  -4.626   7.062  0.00  0.00     0.378 C 
ATOM     13  O13 ZIN A   1      20.556  -3.982   6.588  0.00  0.00    -0.238 OA
ATOM     14  H29 ZIN A   1      17.966  -4.529   8.178  0.00  0.00     0.190 HD
BRANCH  12  15
ATOM     15  O14 ZIN A   1      19.573  -5.954   6.847  0.00  0.00    -0.308 OA
ATOM     16  C15 ZIN A   1      18.324  -6.472   6.316  0.00  0.00     0.215 C 
ENDBRANCH  12  15
ENDBRANCH   6  11
BRANCH   1  17
ATOM     17  S4  ZIN A   1      19.111   2.970  10.627  0.00  0.00    -0.130 SA
BRANCH  17  18
ATOM     18  C3  ZIN A   1      17.399   3.565  10.708  0.00  0.00     0.079 C 
BRANCH  18  19
ATOM     19  C2  ZIN A   1      17.394   5.093  10.789  0.00  0.00     0.006 C 
ATOM     20  C1  ZIN A   1      16.765   5.530  12.114  0.00  0.00     0.006 C 
ENDBRANCH  18  19
ENDBRANCH  17  18
ENDBRANCH   1  17
TORSDOF 5
ENDMDL
