MODEL 1
REMARK VINA RESULT:      -5.0      0.000      0.000
REMARK  1 active torsions:
REMARK  status: ('A' for Active; 'I' for Inactive)
REMARK    1  A    between atoms: N1_1  and  C2_2 
ROOT
ATOM      1  C2  <0> d   1      20.422   0.642  12.859  0.00  0.00     0.701 A 
ATOM      2  N3  <0> d   1      20.039  -0.314  13.673  0.00  0.00    -0.043 NA
ATOM      3  C4  <0> d   1      19.012  -0.129  14.527  0.00  0.00     0.199 A 
ATOM      4  C5  <0> d   1      18.349   1.102  14.541  0.00  0.00     0.121 A 
ATOM      5  N6  <0> d   1      17.361   0.996  15.500  0.00  0.00    -0.345 N 
ATOM      6  C7  <0> d   1      17.447  -0.246  16.021  0.00  0.00     0.210 A 
ATOM      7  N8  <0> d   1      18.418  -0.905  15.448  0.00  0.00    -0.222 NA
ATOM      8  C9  <0> d   1      18.770   2.115  13.665  0.00  0.00     0.147 A 
ATOM      9  S10 <0> d   1      17.989   3.638  13.646  0.00  0.00    -0.057 SA
ATOM     10  N11 <0> d   1      19.811   1.861  12.840  0.00  0.00    -0.178 N 
ATOM     11  H14 <0> d   1      16.726   1.684  15.751  0.00  0.00     0.167 HD
ATOM     12  H16 <0> d   1      20.118   2.546  12.226  0.00  0.00     0.185 HD
ENDROOT
BRANCH   1  13
ATOM     13  N1  <0> d   1      21.472   0.410  12.006  0.00  0.00    -0.233 N 
ATOM     14  H12 <0> d   1      21.754   1.100  11.385  0.00  0.00     0.174 HD
ATOM     15  H13 <0> d   1      21.936  -0.442  12.028  0.00  0.00     0.174 HD
ENDBRANCH   1  13
TORSDOF 1
ENDMDL
MODEL 2
REMARK VINA RESULT:      -5.0      5.102      6.412
REMARK  1 active torsions:
REMARK  status: ('A' for Active; 'I' for Inactive)
REMARK    1  A    between atoms: N1_1  and  C2_2 
ROOT
ATOM      1  C2  <0> d   1      20.440  -0.783  10.174  0.00  0.00     0.701 A 
ATOM      2  N3  <0> d   1      20.098   0.103   9.269  0.00  0.00    -0.043 NA
ATOM      3  C4  <0> d   1      19.056  -0.116   8.442  0.00  0.00     0.199 A 
ATOM      4  C5  <0> d   1      18.333  -1.307   8.555  0.00  0.00     0.121 A 
ATOM      5  N6  <0> d   1      17.343  -1.249   7.593  0.00  0.00    -0.345 N 
ATOM      6  C7  <0> d   1      17.486  -0.072   6.949  0.00  0.00     0.210 A 
ATOM      7  N8  <0> d   1      18.492   0.592   7.449  0.00  0.00    -0.222 NA
ATOM      8  C9  <0> d   1      18.711  -2.246   9.528  0.00  0.00     0.147 A 
ATOM      9  S10 <0> d   1      17.856  -3.719   9.703  0.00  0.00    -0.057 SA
ATOM     10  N11 <0> d   1      19.770  -1.962  10.319  0.00  0.00    -0.178 N 
ATOM     11  H14 <0> d   1      16.673  -1.928   7.415  0.00  0.00     0.167 HD
ATOM     12  H16 <0> d   1      20.048  -2.596  10.999  0.00  0.00     0.185 HD
ENDROOT
BRANCH   1  13
ATOM     13  N1  <0> d   1      21.508  -0.518  10.996  0.00  0.00    -0.233 N 
ATOM     14  H12 <0> d   1      22.074   0.250  10.822  0.00  0.00     0.174 HD
ATOM     15  H13 <0> d   1      21.693  -1.095  11.753  0.00  0.00     0.174 HD
ENDBRANCH   1  13
TORSDOF 1
ENDMDL
MODEL 3
REMARK VINA RESULT:      -5.0      4.598      5.493
REMARK  1 active torsions:
REMARK  status: ('A' for Active; 'I' for Inactive)
REMARK    1  A    between atoms: N1_1  and  C2_2 
ROOT
ATOM      1  C2  <0> d   1      20.517  -0.520  10.689  0.00  0.00     0.701 A 
ATOM      2  N3  <0> d   1      20.001  -1.696  10.961  0.00  0.00    -0.043 NA
ATOM      3  C4  <0> d   1      19.114  -2.274  10.126  0.00  0.00     0.199 A 
ATOM      4  C5  <0> d   1      18.743  -1.606   8.955  0.00  0.00     0.121 A 
ATOM      5  N6  <0> d   1      17.838  -2.430   8.313  0.00  0.00    -0.345 N 
ATOM      6  C7  <0> d   1      17.691  -3.530   9.080  0.00  0.00     0.210 A 
ATOM      7  N8  <0> d   1      18.441  -3.437  10.144  0.00  0.00    -0.222 NA
ATOM      8  C9  <0> d   1      19.303  -0.349   8.679  0.00  0.00     0.147 A 
ATOM      9  S10 <0> d   1      18.878   0.506   7.258  0.00  0.00    -0.057 SA
ATOM     10  N11 <0> d   1      20.182   0.173   9.564  0.00  0.00    -0.178 N 
ATOM     11  H14 <0> d   1      17.393  -2.249   7.471  0.00  0.00     0.167 HD
ATOM     12  H16 <0> d   1      20.582   1.040   9.393  0.00  0.00     0.185 HD
ENDROOT
BRANCH   1  13
ATOM     13  N1  <0> d   1      21.417   0.031  11.568  0.00  0.00    -0.233 N 
ATOM     14  H12 <0> d   1      21.207   0.866  12.016  0.00  0.00     0.174 HD
ATOM     15  H13 <0> d   1      22.259  -0.416  11.745  0.00  0.00     0.174 HD
ENDBRANCH   1  13
TORSDOF 1
ENDMDL
MODEL 4
REMARK VINA RESULT:      -4.9      1.935      2.212
REMARK  1 active torsions:
REMARK  status: ('A' for Active; 'I' for Inactive)
REMARK    1  A    between atoms: N1_1  and  C2_2 
ROOT
ATOM      1  C2  <0> d   1      20.622   0.292  11.600  0.00  0.00     0.701 A 
ATOM      2  N3  <0> d   1      20.446   0.253  12.900  0.00  0.00    -0.043 NA
ATOM      3  C4  <0> d   1      19.569   1.079  13.506  0.00  0.00     0.199 A 
ATOM      4  C5  <0> d   1      18.841   1.989  12.733  0.00  0.00     0.121 A 
ATOM      5  N6  <0> d   1      18.039   2.687  13.614  0.00  0.00    -0.345 N 
ATOM      6  C7  <0> d   1      18.292   2.203  14.848  0.00  0.00     0.210 A 
ATOM      7  N8  <0> d   1      19.191   1.259  14.782  0.00  0.00    -0.222 NA
ATOM      8  C9  <0> d   1      19.041   2.018  11.343  0.00  0.00     0.147 A 
ATOM      9  S10 <0> d   1      18.172   3.115  10.356  0.00  0.00    -0.057 SA
ATOM     10  N11 <0> d   1      19.940   1.165  10.804  0.00  0.00    -0.178 N 
ATOM     11  H14 <0> d   1      17.413   3.393  13.388  0.00  0.00     0.167 HD
ATOM     12  H16 <0> d   1      20.094   1.168   9.847  0.00  0.00     0.185 HD
ENDROOT
BRANCH   1  13
ATOM     13  N1  <0> d   1      21.525  -0.568  11.025  0.00  0.00    -0.233 N 
ATOM     14  H12 <0> d   1      21.871  -1.318  11.533  0.00  0.00     0.174 HD
ATOM     15  H13 <0> d   1      21.813  -0.429  10.109  0.00  0.00     0.174 HD
ENDBRANCH   1  13
TORSDOF 1
ENDMDL
MODEL 5
REMARK VINA RESULT:      -4.9      1.986      2.917
REMARK  1 active torsions:
REMARK  status: ('A' for Active; 'I' for Inactive)
REMARK    1  A    between atoms: N1_1  and  C2_2 
ROOT
ATOM      1  C2  <0> d   1      20.542   0.450  12.331  0.00  0.00     0.701 A 
ATOM      2  N3  <0> d   1      20.062   1.652  12.111  0.00  0.00    -0.043 NA
ATOM      3  C4  <0> d   1      19.185   2.216  12.965  0.00  0.00     0.199 A 
ATOM      4  C5  <0> d   1      18.784   1.505  14.101  0.00  0.00     0.121 A 
ATOM      5  N6  <0> d   1      17.898   2.324  14.774  0.00  0.00    -0.345 N 
ATOM      6  C7  <0> d   1      17.789   3.463  14.058  0.00  0.00     0.210 A 
ATOM      7  N8  <0> d   1      18.546   3.397  12.997  0.00  0.00    -0.222 NA
ATOM      8  C9  <0> d   1      19.306   0.221  14.322  0.00  0.00     0.147 A 
ATOM      9  S10 <0> d   1      18.844  -0.687  15.698  0.00  0.00    -0.057 SA
ATOM     10  N11 <0> d   1      20.177  -0.284  13.420  0.00  0.00    -0.178 N 
ATOM     11  H14 <0> d   1      17.440   2.117  15.604  0.00  0.00     0.167 HD
ATOM     12  H16 <0> d   1      20.551  -1.170  13.553  0.00  0.00     0.185 HD
ENDROOT
BRANCH   1  13
ATOM     13  N1  <0> d   1      21.433  -0.085  11.434  0.00  0.00    -0.233 N 
ATOM     14  H12 <0> d   1      21.113  -0.638  10.704  0.00  0.00     0.174 HD
ATOM     15  H13 <0> d   1      22.382   0.094  11.527  0.00  0.00     0.174 HD
ENDBRANCH   1  13
TORSDOF 1
ENDMDL
MODEL 6
REMARK VINA RESULT:      -4.7      4.200      5.563
REMARK  1 active torsions:
REMARK  status: ('A' for Active; 'I' for Inactive)
REMARK    1  A    between atoms: N1_1  and  C2_2 
ROOT
ATOM      1  C2  <0> d   1      20.674  -0.135  11.431  0.00  0.00     0.701 A 
ATOM      2  N3  <0> d   1      20.199   0.400  10.330  0.00  0.00    -0.043 NA
ATOM      3  C4  <0> d   1      19.385  -0.299   9.514  0.00  0.00     0.199 A 
ATOM      4  C5  <0> d   1      19.046  -1.614   9.850  0.00  0.00     0.121 A 
ATOM      5  N6  <0> d   1      18.215  -2.066   8.844  0.00  0.00    -0.345 N 
ATOM      6  C7  <0> d   1      18.078  -1.056   7.960  0.00  0.00     0.210 A 
ATOM      7  N8  <0> d   1      18.766  -0.019   8.356  0.00  0.00    -0.222 NA
ATOM      8  C9  <0> d   1      19.563  -2.171  11.031  0.00  0.00     0.147 A 
ATOM      9  S10 <0> d   1      19.175  -3.777  11.483  0.00  0.00    -0.057 SA
ATOM     10  N11 <0> d   1      20.377  -1.413  11.798  0.00  0.00    -0.178 N 
ATOM     11  H14 <0> d   1      17.809  -2.945   8.784  0.00  0.00     0.167 HD
ATOM     12  H16 <0> d   1      20.745  -1.779  12.618  0.00  0.00     0.185 HD
ENDROOT
BRANCH   1  13
ATOM     13  N1  <0> d   1      21.499   0.615  12.233  0.00  0.00    -0.233 N 
ATOM     14  H12 <0> d   1      21.862   1.453  11.905  0.00  0.00     0.174 HD
ATOM     15  H13 <0> d   1      21.714   0.310  13.128  0.00  0.00     0.174 HD
ENDBRANCH   1  13
TORSDOF 1
ENDMDL
MODEL 7
REMARK VINA RESULT:      -4.6      2.311      3.842
REMARK  1 active torsions:
REMARK  status: ('A' for Active; 'I' for Inactive)
REMARK    1  A    between atoms: N1_1  and  C2_2 
ROOT
ATOM      1  C2  <0> d   1      20.433   1.147  11.889  0.00  0.00     0.701 A 
ATOM      2  N3  <0> d   1      19.963   1.764  10.831  0.00  0.00    -0.043 NA
ATOM      3  C4  <0> d   1      18.954   2.652  10.935  0.00  0.00     0.199 A 
ATOM      4  C5  <0> d   1      18.404   2.915  12.194  0.00  0.00     0.121 A 
ATOM      5  N6  <0> d   1      17.407   3.849  11.990  0.00  0.00    -0.345 N 
ATOM      6  C7  <0> d   1      17.379   4.116  10.668  0.00  0.00     0.210 A 
ATOM      7  N8  <0> d   1      18.288   3.412  10.051  0.00  0.00    -0.222 NA
ATOM      8  C9  <0> d   1      18.918   2.247  13.317  0.00  0.00     0.147 A 
ATOM      9  S10 <0> d   1      18.276   2.537  14.878  0.00  0.00    -0.057 SA
ATOM     10  N11 <0> d   1      19.927   1.366  13.136  0.00  0.00    -0.178 N 
ATOM     11  H14 <0> d   1      16.834   4.237  12.670  0.00  0.00     0.167 HD
ATOM     12  H16 <0> d   1      20.297   0.894  13.898  0.00  0.00     0.185 HD
ENDROOT
BRANCH   1  13
ATOM     13  N1  <0> d   1      21.463   0.251  11.736  0.00  0.00    -0.233 N 
ATOM     14  H12 <0> d   1      21.365  -0.658  12.060  0.00  0.00     0.174 HD
ATOM     15  H13 <0> d   1      22.284   0.525  11.299  0.00  0.00     0.174 HD
ENDBRANCH   1  13
TORSDOF 1
ENDMDL
MODEL 8
REMARK VINA RESULT:      -4.5      2.866      3.543
REMARK  1 active torsions:
REMARK  status: ('A' for Active; 'I' for Inactive)
REMARK    1  A    between atoms: N1_1  and  C2_2 
ROOT
ATOM      1  C2  <0> d   1      20.027   3.821  16.272  0.00  0.00     0.701 A 
ATOM      2  N3  <0> d   1      19.749   3.239  17.415  0.00  0.00    -0.043 NA
ATOM      3  C4  <0> d   1      18.942   2.160  17.465  0.00  0.00     0.199 A 
ATOM      4  C5  <0> d   1      18.397   1.659  16.279  0.00  0.00     0.121 A 
ATOM      5  N6  <0> d   1      17.627   0.570  16.639  0.00  0.00    -0.345 N 
ATOM      6  C7  <0> d   1      17.721   0.445  17.980  0.00  0.00     0.210 A 
ATOM      7  N8  <0> d   1      18.494   1.379  18.462  0.00  0.00    -0.222 NA
ATOM      8  C9  <0> d   1      18.704   2.293  15.065  0.00  0.00     0.147 A 
ATOM      9  S10 <0> d   1      18.059   1.715  13.587  0.00  0.00    -0.057 SA
ATOM     10  N11 <0> d   1      19.516   3.374  15.090  0.00  0.00    -0.178 N 
ATOM     11  H14 <0> d   1      17.114   0.004  16.041  0.00  0.00     0.167 HD
ATOM     12  H16 <0> d   1      19.742   3.827  14.263  0.00  0.00     0.185 HD
ENDROOT
BRANCH   1  13
ATOM     13  N1  <0> d   1      20.854   4.917  16.268  0.00  0.00    -0.233 N 
ATOM     14  H12 <0> d   1      20.734   5.618  16.928  0.00  0.00     0.174 HD
ATOM     15  H13 <0> d   1      21.562   4.989  15.608  0.00  0.00     0.174 HD
ENDBRANCH   1  13
TORSDOF 1
ENDMDL
MODEL 9
REMARK VINA RESULT:      -4.5      3.882      4.826
REMARK  1 active torsions:
REMARK  status: ('A' for Active; 'I' for Inactive)
REMARK    1  A    between atoms: N1_1  and  C2_2 
ROOT
ATOM      1  C2  <0> d   1      20.234  -1.101  10.834  0.00  0.00     0.701 A 
ATOM      2  N3  <0> d   1      20.151  -0.065  11.635  0.00  0.00    -0.043 NA
ATOM      3  C4  <0> d   1      19.676   1.117  11.192  0.00  0.00     0.199 A 
ATOM      4  C5  <0> d   1      19.269   1.234   9.859  0.00  0.00     0.121 A 
ATOM      5  N6  <0> d   1      18.838   2.537   9.702  0.00  0.00    -0.345 N 
ATOM      6  C7  <0> d   1      18.989   3.151  10.894  0.00  0.00     0.210 A 
ATOM      7  N8  <0> d   1      19.481   2.315  11.767  0.00  0.00    -0.222 NA
ATOM      8  C9  <0> d   1      19.365   0.116   9.016  0.00  0.00     0.147 A 
ATOM      9  S10 <0> d   1      18.878   0.212   7.377  0.00  0.00    -0.057 SA
ATOM     10  N11 <0> d   1      19.855  -1.036   9.526  0.00  0.00    -0.178 N 
ATOM     11  H14 <0> d   1      18.493   2.934   8.887  0.00  0.00     0.167 HD
ATOM     12  H16 <0> d   1      19.930  -1.821   8.961  0.00  0.00     0.185 HD
ENDROOT
BRANCH   1  13
ATOM     13  N1  <0> d   1      20.723  -2.286  11.327  0.00  0.00    -0.233 N 
ATOM     14  H12 <0> d   1      20.401  -3.129  10.971  0.00  0.00     0.174 HD
ATOM     15  H13 <0> d   1      21.394  -2.280  12.027  0.00  0.00     0.174 HD
ENDBRANCH   1  13
TORSDOF 1
ENDMDL
