MODEL 1
REMARK VINA RESULT:      -4.9      0.000      0.000
REMARK  1 active torsions:
REMARK  status: ('A' for Active; 'I' for Inactive)
REMARK    1  A    between atoms: C2_2  and  C4_4 
ROOT
ATOM      1  C4  ZIN A   1      18.646   0.109   6.239  0.00  0.00     0.040 A 
ATOM      2  C5  ZIN A   1      19.268   1.231   6.791  0.00  0.00     0.018 A 
ATOM      3  C6  ZIN A   1      18.955   1.628   8.075  0.00  0.00     0.001 A 
ATOM      4  C7  ZIN A   1      18.028   0.914   8.815  0.00  0.00     0.000 A 
ATOM      5  C8  ZIN A   1      17.409  -0.199   8.274  0.00  0.00     0.001 A 
ATOM      6  C9  ZIN A   1      17.707  -0.603   6.991  0.00  0.00     0.018 A 
ENDROOT
BRANCH   1   7
ATOM      7  C2  ZIN A   1      18.975  -0.320   4.866  0.00  0.00     0.209 C 
ATOM      8  O1  ZIN A   1      20.016  -0.922   4.646  0.00  0.00    -0.644 OA
ATOM      9  O3  ZIN A   1      18.203  -0.078   3.949  0.00  0.00    -0.644 OA
ENDBRANCH   1   7
TORSDOF 1
ENDMDL
MODEL 2
REMARK VINA RESULT:      -4.9      0.004      1.891
REMARK  1 active torsions:
REMARK  status: ('A' for Active; 'I' for Inactive)
REMARK    1  A    between atoms: C2_2  and  C4_4 
ROOT
ATOM      1  C4  ZIN A   1      18.643   0.107   6.238  0.00  0.00     0.040 A 
ATOM      2  C5  ZIN A   1      17.710  -0.608   6.993  0.00  0.00     0.018 A 
ATOM      3  C6  ZIN A   1      17.409  -0.201   8.276  0.00  0.00     0.001 A 
ATOM      4  C7  ZIN A   1      18.027   0.914   8.814  0.00  0.00     0.000 A 
ATOM      5  C8  ZIN A   1      18.953   1.627   8.072  0.00  0.00     0.001 A 
ATOM      6  C9  ZIN A   1      19.268   1.228   6.790  0.00  0.00     0.018 A 
ENDROOT
BRANCH   1   7
ATOM      7  C2  ZIN A   1      18.971  -0.323   4.866  0.00  0.00     0.209 C 
ATOM      8  O1  ZIN A   1      18.202  -0.078   3.947  0.00  0.00    -0.644 OA
ATOM      9  O3  ZIN A   1      20.016  -0.920   4.645  0.00  0.00    -0.644 OA
ENDBRANCH   1   7
TORSDOF 1
ENDMDL
MODEL 3
REMARK VINA RESULT:      -4.8      3.869      4.933
REMARK  1 active torsions:
REMARK  status: ('A' for Active; 'I' for Inactive)
REMARK    1  A    between atoms: C2_2  and  C4_4 
ROOT
ATOM      1  C4  ZIN A   1      17.739   0.801   9.801  0.00  0.00     0.040 A 
ATOM      2  C5  ZIN A   1      17.331  -0.071   8.788  0.00  0.00     0.018 A 
ATOM      3  C6  ZIN A   1      17.857   0.056   7.519  0.00  0.00     0.001 A 
ATOM      4  C7  ZIN A   1      18.788   1.043   7.249  0.00  0.00     0.000 A 
ATOM      5  C8  ZIN A   1      19.197   1.911   8.247  0.00  0.00     0.001 A 
ATOM      6  C9  ZIN A   1      18.676   1.800   9.518  0.00  0.00     0.018 A 
ENDROOT
BRANCH   1   7
ATOM      7  C2  ZIN A   1      17.180   0.673  11.159  0.00  0.00     0.209 C 
ATOM      8  O1  ZIN A   1      17.773   1.158  12.113  0.00  0.00    -0.644 OA
ATOM      9  O3  ZIN A   1      16.121   0.085  11.332  0.00  0.00    -0.644 OA
ENDBRANCH   1   7
TORSDOF 1
ENDMDL
MODEL 4
REMARK VINA RESULT:      -4.7      3.756      4.554
REMARK  1 active torsions:
REMARK  status: ('A' for Active; 'I' for Inactive)
REMARK    1  A    between atoms: C2_2  and  C4_4 
ROOT
ATOM      1  C4  ZIN A   1      17.714   0.666   9.592  0.00  0.00     0.040 A 
ATOM      2  C5  ZIN A   1      18.672   1.661   9.382  0.00  0.00     0.018 A 
ATOM      3  C6  ZIN A   1      19.219   1.834   8.128  0.00  0.00     0.001 A 
ATOM      4  C7  ZIN A   1      18.818   1.026   7.078  0.00  0.00     0.000 A 
ATOM      5  C8  ZIN A   1      17.869   0.038   7.279  0.00  0.00     0.001 A 
ATOM      6  C9  ZIN A   1      17.319  -0.150   8.528  0.00  0.00     0.018 A 
ENDROOT
BRANCH   1   7
ATOM      7  C2  ZIN A   1      17.126   0.474  10.931  0.00  0.00     0.209 C 
ATOM      8  O1  ZIN A   1      16.759  -0.638  11.285  0.00  0.00    -0.644 OA
ATOM      9  O3  ZIN A   1      17.011   1.426  11.691  0.00  0.00    -0.644 OA
ENDBRANCH   1   7
TORSDOF 1
ENDMDL
MODEL 5
REMARK VINA RESULT:      -4.6      4.188      5.368
REMARK  1 active torsions:
REMARK  status: ('A' for Active; 'I' for Inactive)
REMARK    1  A    between atoms: C2_2  and  C4_4 
ROOT
ATOM      1  C4  ZIN A   1      17.965   1.849  10.045  0.00  0.00     0.040 A 
ATOM      2  C5  ZIN A   1      17.438   0.583   9.780  0.00  0.00     0.018 A 
ATOM      3  C6  ZIN A   1      17.811  -0.091   8.636  0.00  0.00     0.001 A 
ATOM      4  C7  ZIN A   1      18.707   0.485   7.752  0.00  0.00     0.000 A 
ATOM      5  C8  ZIN A   1      19.233   1.740   8.008  0.00  0.00     0.001 A 
ATOM      6  C9  ZIN A   1      18.864   2.427   9.145  0.00  0.00     0.018 A 
ENDROOT
BRANCH   1   7
ATOM      7  C2  ZIN A   1      17.569   2.576  11.266  0.00  0.00     0.209 C 
ATOM      8  O1  ZIN A   1      16.948   3.626  11.179  0.00  0.00    -0.644 OA
ATOM      9  O3  ZIN A   1      17.857   2.125  12.366  0.00  0.00    -0.644 OA
ENDBRANCH   1   7
TORSDOF 1
ENDMDL
MODEL 6
REMARK VINA RESULT:      -4.6      9.312     10.594
REMARK  1 active torsions:
REMARK  status: ('A' for Active; 'I' for Inactive)
REMARK    1  A    between atoms: C2_2  and  C4_4 
ROOT
ATOM      1  C4  ZIN A   1      18.823   0.190  16.778  0.00  0.00     0.040 A 
ATOM      2  C5  ZIN A   1      18.538   1.215  15.871  0.00  0.00     0.018 A 
ATOM      3  C6  ZIN A   1      18.295   0.913  14.548  0.00  0.00     0.001 A 
ATOM      4  C7  ZIN A   1      18.330  -0.402  14.117  0.00  0.00     0.000 A 
ATOM      5  C8  ZIN A   1      18.612  -1.422  15.009  0.00  0.00     0.001 A 
ATOM      6  C9  ZIN A   1      18.863  -1.135  16.334  0.00  0.00     0.018 A 
ENDROOT
BRANCH   1   7
ATOM      7  C2  ZIN A   1      19.086   0.505  18.194  0.00  0.00     0.209 C 
ATOM      8  O1  ZIN A   1      18.490  -0.097  19.076  0.00  0.00    -0.644 OA
ATOM      9  O3  ZIN A   1      19.905   1.365  18.487  0.00  0.00    -0.644 OA
ENDBRANCH   1   7
TORSDOF 1
ENDMDL
MODEL 7
REMARK VINA RESULT:      -4.5      6.251      7.411
REMARK  1 active torsions:
REMARK  status: ('A' for Active; 'I' for Inactive)
REMARK    1  A    between atoms: C2_2  and  C4_4 
ROOT
ATOM      1  C4  ZIN A   1      17.663   0.007  13.305  0.00  0.00     0.040 A 
ATOM      2  C5  ZIN A   1      18.537  -1.068  13.122  0.00  0.00     0.018 A 
ATOM      3  C6  ZIN A   1      19.197  -1.609  14.206  0.00  0.00     0.001 A 
ATOM      4  C7  ZIN A   1      18.992  -1.091  15.473  0.00  0.00     0.000 A 
ATOM      5  C8  ZIN A   1      18.128  -0.026  15.662  0.00  0.00     0.001 A 
ATOM      6  C9  ZIN A   1      17.467   0.529  14.587  0.00  0.00     0.018 A 
ENDROOT
BRANCH   1   7
ATOM      7  C2  ZIN A   1      16.956   0.592  12.151  0.00  0.00     0.209 C 
ATOM      8  O1  ZIN A   1      17.251   1.711  11.755  0.00  0.00    -0.644 OA
ATOM      9  O3  ZIN A   1      16.078  -0.045  11.585  0.00  0.00    -0.644 OA
ENDBRANCH   1   7
TORSDOF 1
ENDMDL
MODEL 8
REMARK VINA RESULT:      -4.4      1.643      2.264
REMARK  1 active torsions:
REMARK  status: ('A' for Active; 'I' for Inactive)
REMARK    1  A    between atoms: C2_2  and  C4_4 
ROOT
ATOM      1  C4  ZIN A   1      18.572   0.855   8.167  0.00  0.00     0.040 A 
ATOM      2  C5  ZIN A   1      19.070   2.120   8.488  0.00  0.00     0.018 A 
ATOM      3  C6  ZIN A   1      18.693   2.727   9.667  0.00  0.00     0.001 A 
ATOM      4  C7  ZIN A   1      17.824   2.085  10.533  0.00  0.00     0.000 A 
ATOM      5  C8  ZIN A   1      17.327   0.832  10.221  0.00  0.00     0.001 A 
ATOM      6  C9  ZIN A   1      17.690   0.215   9.043  0.00  0.00     0.018 A 
ENDROOT
BRANCH   1   7
ATOM      7  C2  ZIN A   1      18.970   0.199   6.907  0.00  0.00     0.209 C 
ATOM      8  O1  ZIN A   1      19.148   0.869   5.899  0.00  0.00    -0.644 OA
ATOM      9  O3  ZIN A   1      19.127  -1.013   6.871  0.00  0.00    -0.644 OA
ENDBRANCH   1   7
TORSDOF 1
ENDMDL
MODEL 9
REMARK VINA RESULT:      -4.3      2.604      3.878
REMARK  1 active torsions:
REMARK  status: ('A' for Active; 'I' for Inactive)
REMARK    1  A    between atoms: C2_2  and  C4_4 
ROOT
ATOM      1  C4  ZIN A   1      18.902   0.220   7.128  0.00  0.00     0.040 A 
ATOM      2  C5  ZIN A   1      19.005  -1.169   7.238  0.00  0.00     0.018 A 
ATOM      3  C6  ZIN A   1      19.188  -1.936   6.107  0.00  0.00     0.001 A 
ATOM      4  C7  ZIN A   1      19.272  -1.332   4.864  0.00  0.00     0.000 A 
ATOM      5  C8  ZIN A   1      19.171   0.044   4.747  0.00  0.00     0.001 A 
ATOM      6  C9  ZIN A   1      18.981   0.822   5.869  0.00  0.00     0.018 A 
ENDROOT
BRANCH   1   7
ATOM      7  C2  ZIN A   1      18.704   1.047   8.333  0.00  0.00     0.209 C 
ATOM      8  O1  ZIN A   1      17.750   0.837   9.069  0.00  0.00    -0.644 OA
ATOM      9  O3  ZIN A   1      19.497   1.939   8.600  0.00  0.00    -0.644 OA
ENDBRANCH   1   7
TORSDOF 1
ENDMDL
