MODEL 1
REMARK VINA RESULT:      -7.1      0.000      0.000
REMARK  4 active torsions:
REMARK  status: ('A' for Active; 'I' for Inactive)
REMARK    1  A    between atoms: C5_5  and  N6_6 
REMARK    2  A    between atoms: N6_6  and  S7_7 
REMARK    3  A    between atoms: S7_7  and  C10_10 
REMARK    4  A    between atoms: C13_13  and  N14_14 
ROOT
ATOM      1  S7  <0> d   1      17.287   1.171  11.090  0.00  0.00     0.264 S 
ATOM      2  O8  <0> d   1      16.293   0.178  11.306  0.00  0.00    -0.200 OA
ATOM      3  O9  <0> d   1      17.045   2.562  11.259  0.00  0.00    -0.200 OA
ENDROOT
BRANCH   1   4
ATOM      4  N6  <0> d   1      18.552   0.792  12.087  0.00  0.00    -0.258 N 
ATOM      5  H22 <0> d   1      19.462   0.814  11.748  0.00  0.00     0.181 HD
BRANCH   4   6
ATOM      6  C5  <0> d   1      18.316   0.443  13.404  0.00  0.00     0.190 A 
ATOM      7  O4  <0> d   1      17.844   1.240  14.375  0.00  0.00    -0.194 OA
ATOM      8  N3  <0> d   1      17.743   0.647  15.424  0.00  0.00    -0.131 NA
ATOM      9  C2  <0> d   1      18.121  -0.596  15.317  0.00  0.00     0.068 A 
ATOM     10  C1  <0> d   1      18.134  -1.632  16.412  0.00  0.00     0.073 C 
ATOM     11  C17 <0> d   1      18.519  -0.780  13.979  0.00  0.00     0.018 A 
ATOM     12  C18 <0> d   1      19.041  -2.036  13.329  0.00  0.00     0.055 C 
ENDBRANCH   4   6
ENDBRANCH   1   4
BRANCH   1  13
ATOM     13  C10 <0> d   1      17.847   0.962   9.433  0.00  0.00     0.080 A 
ATOM     14  C16 <0> d   1      17.314  -0.042   8.646  0.00  0.00     0.027 A 
ATOM     15  C15 <0> d   1      17.747  -0.205   7.344  0.00  0.00     0.030 A 
ATOM     16  C13 <0> d   1      18.728   0.633   6.830  0.00  0.00     0.025 A 
ATOM     17  C12 <0> d   1      19.266   1.637   7.625  0.00  0.00     0.030 A 
ATOM     18  C11 <0> d   1      18.824   1.799   8.923  0.00  0.00     0.027 A 
BRANCH  16  19
ATOM     19  N14 <0> d   1      19.172   0.467   5.516  0.00  0.00    -0.399 N 
ATOM     20  H25 <0> d   1      19.107  -0.402   5.089  0.00  0.00     0.156 HD
ATOM     21  H26 <0> d   1      19.545   1.219   5.030  0.00  0.00     0.156 HD
ENDBRANCH  16  19
ENDBRANCH   1  13
TORSDOF 4
ENDMDL
MODEL 2
REMARK VINA RESULT:      -7.0      1.802      2.416
REMARK  4 active torsions:
REMARK  status: ('A' for Active; 'I' for Inactive)
REMARK    1  A    between atoms: C5_5  and  N6_6 
REMARK    2  A    between atoms: N6_6  and  S7_7 
REMARK    3  A    between atoms: S7_7  and  C10_10 
REMARK    4  A    between atoms: C13_13  and  N14_14 
ROOT
ATOM      1  S7  <0> d   1      17.377   1.237  11.268  0.00  0.00     0.264 S 
ATOM      2  O8  <0> d   1      16.252   0.386  11.442  0.00  0.00    -0.200 OA
ATOM      3  O9  <0> d   1      17.336   2.638  11.509  0.00  0.00    -0.200 OA
ENDROOT
BRANCH   1   4
ATOM      4  N6  <0> d   1      18.575   0.631  12.236  0.00  0.00    -0.258 N 
ATOM      5  H22 <0> d   1      19.111   1.232  12.779  0.00  0.00     0.181 HD
BRANCH   4   6
ATOM      6  C5  <0> d   1      18.815  -0.730  12.271  0.00  0.00     0.190 A 
ATOM      7  O4  <0> d   1      18.169  -1.642  13.017  0.00  0.00    -0.194 OA
ATOM      8  N3  <0> d   1      18.605  -2.754  12.830  0.00  0.00    -0.131 NA
ATOM      9  C2  <0> d   1      19.576  -2.755  11.960  0.00  0.00     0.068 A 
ATOM     10  C1  <0> d   1      20.356  -3.953  11.482  0.00  0.00     0.073 C 
ATOM     11  C17 <0> d   1      19.758  -1.417  11.560  0.00  0.00     0.018 A 
ATOM     12  C18 <0> d   1      20.755  -0.871  10.570  0.00  0.00     0.055 C 
ENDBRANCH   4   6
ENDBRANCH   1   4
BRANCH   1  13
ATOM     13  C10 <0> d   1      17.901   1.034   9.599  0.00  0.00     0.080 A 
ATOM     14  C16 <0> d   1      17.378   0.010   8.831  0.00  0.00     0.027 A 
ATOM     15  C15 <0> d   1      17.783  -0.149   7.520  0.00  0.00     0.030 A 
ATOM     16  C13 <0> d   1      18.725   0.716   6.977  0.00  0.00     0.025 A 
ATOM     17  C12 <0> d   1      19.253   1.740   7.752  0.00  0.00     0.030 A 
ATOM     18  C11 <0> d   1      18.839   1.897   9.060  0.00  0.00     0.027 A 
BRANCH  16  19
ATOM     19  N14 <0> d   1      19.141   0.554   5.653  0.00  0.00    -0.399 N 
ATOM     20  H25 <0> d   1      18.547   0.144   5.005  0.00  0.00     0.156 HD
ATOM     21  H26 <0> d   1      20.023   0.851   5.381  0.00  0.00     0.156 HD
ENDBRANCH  16  19
ENDBRANCH   1  13
TORSDOF 4
ENDMDL
MODEL 3
REMARK VINA RESULT:      -6.9      2.231      6.391
REMARK  4 active torsions:
REMARK  status: ('A' for Active; 'I' for Inactive)
REMARK    1  A    between atoms: C5_5  and  N6_6 
REMARK    2  A    between atoms: N6_6  and  S7_7 
REMARK    3  A    between atoms: S7_7  and  C10_10 
REMARK    4  A    between atoms: C13_13  and  N14_14 
ROOT
ATOM      1  S7  <0> d   1      17.367  -0.665  11.891  0.00  0.00     0.264 S 
ATOM      2  O8  <0> d   1      16.047  -0.138  11.858  0.00  0.00    -0.200 OA
ATOM      3  O9  <0> d   1      17.699  -1.960  11.408  0.00  0.00    -0.200 OA
ENDROOT
BRANCH   1   4
ATOM      4  N6  <0> d   1      18.318   0.403  11.058  0.00  0.00    -0.258 N 
ATOM      5  H22 <0> d   1      19.122   0.091  10.611  0.00  0.00     0.181 HD
BRANCH   4   6
ATOM      6  C5  <0> d   1      17.970   1.739  10.998  0.00  0.00     0.190 A 
ATOM      7  O4  <0> d   1      17.264   2.429  11.909  0.00  0.00    -0.194 OA
ATOM      8  N3  <0> d   1      17.120   3.582  11.576  0.00  0.00    -0.131 NA
ATOM      9  C2  <0> d   1      17.689   3.831  10.430  0.00  0.00     0.068 A 
ATOM     10  C1  <0> d   1      17.715   5.152   9.705  0.00  0.00     0.073 C 
ATOM     11  C17 <0> d   1      18.268   2.622   9.999  0.00  0.00     0.018 A 
ATOM     12  C18 <0> d   1      19.045   2.363   8.732  0.00  0.00     0.055 C 
ENDBRANCH   4   6
ENDBRANCH   1   4
BRANCH   1  13
ATOM     13  C10 <0> d   1      17.879  -0.617  13.576  0.00  0.00     0.080 A 
ATOM     14  C16 <0> d   1      17.333   0.317  14.437  0.00  0.00     0.027 A 
ATOM     15  C15 <0> d   1      17.729   0.354  15.760  0.00  0.00     0.030 A 
ATOM     16  C13 <0> d   1      18.686  -0.541  16.222  0.00  0.00     0.025 A 
ATOM     17  C12 <0> d   1      19.237  -1.474  15.353  0.00  0.00     0.030 A 
ATOM     18  C11 <0> d   1      18.832  -1.509  14.033  0.00  0.00     0.027 A 
BRANCH  16  19
ATOM     19  N14 <0> d   1      19.093  -0.501  17.558  0.00  0.00    -0.399 N 
ATOM     20  H25 <0> d   1      19.930  -0.075  17.797  0.00  0.00     0.156 HD
ATOM     21  H26 <0> d   1      18.537  -0.900  18.246  0.00  0.00     0.156 HD
ENDBRANCH  16  19
ENDBRANCH   1  13
TORSDOF 4
ENDMDL
MODEL 4
REMARK VINA RESULT:      -6.9      1.600      1.880
REMARK  4 active torsions:
REMARK  status: ('A' for Active; 'I' for Inactive)
REMARK    1  A    between atoms: C5_5  and  N6_6 
REMARK    2  A    between atoms: N6_6  and  S7_7 
REMARK    3  A    between atoms: S7_7  and  C10_10 
REMARK    4  A    between atoms: C13_13  and  N14_14 
ROOT
ATOM      1  S7  <0> d   1      19.245   2.335  11.952  0.00  0.00     0.264 S 
ATOM      2  O8  <0> d   1      18.102   2.704  12.712  0.00  0.00    -0.200 OA
ATOM      3  O9  <0> d   1      20.203   3.275  11.485  0.00  0.00    -0.200 OA
ENDROOT
BRANCH   1   4
ATOM      4  N6  <0> d   1      20.077   1.233  12.864  0.00  0.00    -0.258 N 
ATOM      5  H22 <0> d   1      20.937   0.900  12.560  0.00  0.00     0.181 HD
BRANCH   4   6
ATOM      6  C5  <0> d   1      19.549   0.784  14.061  0.00  0.00     0.190 A 
ATOM      7  O4  <0> d   1      19.458   1.474  15.209  0.00  0.00    -0.194 OA
ATOM      8  N3  <0> d   1      18.948   0.813  16.083  0.00  0.00    -0.131 NA
ATOM      9  C2  <0> d   1      18.631  -0.381  15.666  0.00  0.00     0.068 A 
ATOM     10  C1  <0> d   1      17.980  -1.475  16.474  0.00  0.00     0.073 C 
ATOM     11  C17 <0> d   1      19.020  -0.450  14.315  0.00  0.00     0.018 A 
ATOM     12  C18 <0> d   1      18.878  -1.612  13.365  0.00  0.00     0.055 C 
ENDBRANCH   4   6
ENDBRANCH   1   4
BRANCH   1  13
ATOM     13  C10 <0> d   1      18.644   1.488  10.530  0.00  0.00     0.080 A 
ATOM     14  C16 <0> d   1      17.641   0.544  10.661  0.00  0.00     0.027 A 
ATOM     15  C15 <0> d   1      17.164  -0.118   9.546  0.00  0.00     0.030 A 
ATOM     16  C13 <0> d   1      17.701   0.157   8.295  0.00  0.00     0.025 A 
ATOM     17  C12 <0> d   1      18.711   1.100   8.167  0.00  0.00     0.030 A 
ATOM     18  C11 <0> d   1      19.180   1.763   9.284  0.00  0.00     0.027 A 
BRANCH  16  19
ATOM     19  N14 <0> d   1      17.224  -0.516   7.166  0.00  0.00    -0.399 N 
ATOM     20  H25 <0> d   1      17.735  -1.247   6.786  0.00  0.00     0.156 HD
ATOM     21  H26 <0> d   1      16.382  -0.252   6.764  0.00  0.00     0.156 HD
ENDBRANCH  16  19
ENDBRANCH   1  13
TORSDOF 4
ENDMDL
MODEL 5
REMARK VINA RESULT:      -6.8      1.738      6.890
REMARK  4 active torsions:
REMARK  status: ('A' for Active; 'I' for Inactive)
REMARK    1  A    between atoms: C5_5  and  N6_6 
REMARK    2  A    between atoms: N6_6  and  S7_7 
REMARK    3  A    between atoms: S7_7  and  C10_10 
REMARK    4  A    between atoms: C13_13  and  N14_14 
ROOT
ATOM      1  S7  <0> d   1      17.556  -0.278  12.108  0.00  0.00     0.264 S 
ATOM      2  O8  <0> d   1      16.827   0.926  11.909  0.00  0.00    -0.200 OA
ATOM      3  O9  <0> d   1      17.033  -1.563  11.797  0.00  0.00    -0.200 OA
ENDROOT
BRANCH   1   4
ATOM      4  N6  <0> d   1      18.959  -0.123  11.245  0.00  0.00    -0.258 N 
ATOM      5  H22 <0> d   1      19.805  -0.008  11.708  0.00  0.00     0.181 HD
BRANCH   4   6
ATOM      6  C5  <0> d   1      18.929  -0.157   9.863  0.00  0.00     0.190 A 
ATOM      7  O4  <0> d   1      18.937  -1.251   9.084  0.00  0.00    -0.194 OA
ATOM      8  N3  <0> d   1      18.904  -0.959   7.912  0.00  0.00    -0.131 NA
ATOM      9  C2  <0> d   1      18.869   0.332   7.733  0.00  0.00     0.068 A 
ATOM     10  C1  <0> d   1      18.822   1.058   6.414  0.00  0.00     0.073 C 
ATOM     11  C17 <0> d   1      18.890   0.914   9.015  0.00  0.00     0.018 A 
ATOM     12  C18 <0> d   1      18.866   2.379   9.371  0.00  0.00     0.055 C 
ENDBRANCH   4   6
ENDBRANCH   1   4
BRANCH   1  13
ATOM     13  C10 <0> d   1      17.994  -0.318  13.814  0.00  0.00     0.080 A 
ATOM     14  C16 <0> d   1      17.552   0.679  14.664  0.00  0.00     0.027 A 
ATOM     15  C15 <0> d   1      17.889   0.648  16.003  0.00  0.00     0.030 A 
ATOM     16  C13 <0> d   1      18.684  -0.381  16.493  0.00  0.00     0.025 A 
ATOM     17  C12 <0> d   1      19.131  -1.378  15.636  0.00  0.00     0.030 A 
ATOM     18  C11 <0> d   1      18.785  -1.344  14.299  0.00  0.00     0.027 A 
BRANCH  16  19
ATOM     19  N14 <0> d   1      19.031  -0.412  17.846  0.00  0.00    -0.399 N 
ATOM     20  H25 <0> d   1      19.610   0.274  18.213  0.00  0.00     0.156 HD
ATOM     21  H26 <0> d   1      18.694  -1.120  18.418  0.00  0.00     0.156 HD
ENDBRANCH  16  19
ENDBRANCH   1  13
TORSDOF 4
ENDMDL
MODEL 6
REMARK VINA RESULT:      -6.6      3.093      3.747
REMARK  4 active torsions:
REMARK  status: ('A' for Active; 'I' for Inactive)
REMARK    1  A    between atoms: C5_5  and  N6_6 
REMARK    2  A    between atoms: N6_6  and  S7_7 
REMARK    3  A    between atoms: S7_7  and  C10_10 
REMARK    4  A    between atoms: C13_13  and  N14_14 
ROOT
ATOM      1  S7  <0> d   1      19.505   0.338  10.387  0.00  0.00     0.264 S 
ATOM      2  O8  <0> d   1      20.649  -0.440  10.713  0.00  0.00    -0.200 OA
ATOM      3  O9  <0> d   1      18.224   0.112  10.960  0.00  0.00    -0.200 OA
ENDROOT
BRANCH   1   4
ATOM      4  N6  <0> d   1      19.898   1.910  10.724  0.00  0.00    -0.258 N 
ATOM      5  H22 <0> d   1      20.684   2.312  10.320  0.00  0.00     0.181 HD
BRANCH   4   6
ATOM      6  C5  <0> d   1      19.106   2.652  11.581  0.00  0.00     0.190 A 
ATOM      7  O4  <0> d   1      19.026   2.525  12.915  0.00  0.00    -0.194 OA
ATOM      8  N3  <0> d   1      18.245   3.318  13.389  0.00  0.00    -0.131 NA
ATOM      9  C2  <0> d   1      17.703   4.071  12.473  0.00  0.00     0.068 A 
ATOM     10  C1  <0> d   1      16.689   5.165  12.691  0.00  0.00     0.073 C 
ATOM     11  C17 <0> d   1      18.246   3.658  11.241  0.00  0.00     0.018 A 
ATOM     12  C18 <0> d   1      17.952   4.204   9.867  0.00  0.00     0.055 C 
ENDBRANCH   4   6
ENDBRANCH   1   4
BRANCH   1  13
ATOM     13  C10 <0> d   1      19.300   0.214   8.642  0.00  0.00     0.080 A 
ATOM     14  C16 <0> d   1      19.294  -1.028   8.034  0.00  0.00     0.027 A 
ATOM     15  C15 <0> d   1      19.127  -1.130   6.667  0.00  0.00     0.030 A 
ATOM     16  C13 <0> d   1      18.977   0.020   5.901  0.00  0.00     0.025 A 
ATOM     17  C12 <0> d   1      18.989   1.266   6.513  0.00  0.00     0.030 A 
ATOM     18  C11 <0> d   1      19.149   1.360   7.881  0.00  0.00     0.027 A 
BRANCH  16  19
ATOM     19  N14 <0> d   1      18.814  -0.080   4.516  0.00  0.00    -0.399 N 
ATOM     20  H25 <0> d   1      18.191   0.506   4.059  0.00  0.00     0.156 HD
ATOM     21  H26 <0> d   1      19.324  -0.733   4.013  0.00  0.00     0.156 HD
ENDBRANCH  16  19
ENDBRANCH   1  13
TORSDOF 4
ENDMDL
MODEL 7
REMARK VINA RESULT:      -6.6      5.564      8.195
REMARK  4 active torsions:
REMARK  status: ('A' for Active; 'I' for Inactive)
REMARK    1  A    between atoms: C5_5  and  N6_6 
REMARK    2  A    between atoms: N6_6  and  S7_7 
REMARK    3  A    between atoms: S7_7  and  C10_10 
REMARK    4  A    between atoms: C13_13  and  N14_14 
ROOT
ATOM      1  S7  <0> d   1      18.902  -5.040   6.808  0.00  0.00     0.264 S 
ATOM      2  O8  <0> d   1      17.761  -4.560   6.109  0.00  0.00    -0.200 OA
ATOM      3  O9  <0> d   1      19.556  -6.259   6.481  0.00  0.00    -0.200 OA
ENDROOT
BRANCH   1   4
ATOM      4  N6  <0> d   1      20.049  -3.852   6.704  0.00  0.00    -0.258 N 
ATOM      5  H22 <0> d   1      20.955  -4.023   7.007  0.00  0.00     0.181 HD
BRANCH   4   6
ATOM      6  C5  <0> d   1      19.718  -2.614   6.184  0.00  0.00     0.190 A 
ATOM      7  O4  <0> d   1      19.811  -2.229   4.901  0.00  0.00    -0.194 OA
ATOM      8  N3  <0> d   1      19.447  -1.086   4.755  0.00  0.00    -0.131 NA
ATOM      9  C2  <0> d   1      19.068  -0.549   5.881  0.00  0.00     0.068 A 
ATOM     10  C1  <0> d   1      18.555   0.853   6.084  0.00  0.00     0.073 C 
ATOM     11  C17 <0> d   1      19.237  -1.536   6.872  0.00  0.00     0.018 A 
ATOM     12  C18 <0> d   1      18.948  -1.430   8.348  0.00  0.00     0.055 C 
ENDBRANCH   4   6
ENDBRANCH   1   4
BRANCH   1  13
ATOM     13  C10 <0> d   1      18.432  -5.165   8.501  0.00  0.00     0.080 A 
ATOM     14  C16 <0> d   1      19.351  -4.883   9.495  0.00  0.00     0.027 A 
ATOM     15  C15 <0> d   1      18.984  -4.975  10.824  0.00  0.00     0.030 A 
ATOM     16  C13 <0> d   1      17.693  -5.364  11.160  0.00  0.00     0.025 A 
ATOM     17  C12 <0> d   1      16.774  -5.652  10.160  0.00  0.00     0.030 A 
ATOM     18  C11 <0> d   1      17.146  -5.552   8.833  0.00  0.00     0.027 A 
BRANCH  16  19
ATOM     19  N14 <0> d   1      17.321  -5.463  12.503  0.00  0.00    -0.399 N 
ATOM     20  H25 <0> d   1      17.236  -4.662  13.043  0.00  0.00     0.156 HD
ATOM     21  H26 <0> d   1      17.148  -6.333  12.896  0.00  0.00     0.156 HD
ENDBRANCH  16  19
ENDBRANCH   1  13
TORSDOF 4
ENDMDL
MODEL 8
REMARK VINA RESULT:      -6.4      3.421      4.219
REMARK  4 active torsions:
REMARK  status: ('A' for Active; 'I' for Inactive)
REMARK    1  A    between atoms: C5_5  and  N6_6 
REMARK    2  A    between atoms: N6_6  and  S7_7 
REMARK    3  A    between atoms: S7_7  and  C10_10 
REMARK    4  A    between atoms: C13_13  and  N14_14 
ROOT
ATOM      1  S7  <0> d   1      20.111   0.409  12.209  0.00  0.00     0.264 S 
ATOM      2  O8  <0> d   1      19.376   0.047  13.370  0.00  0.00    -0.200 OA
ATOM      3  O9  <0> d   1      21.502   0.705  12.231  0.00  0.00    -0.200 OA
ENDROOT
BRANCH   1   4
ATOM      4  N6  <0> d   1      19.914  -0.827  11.126  0.00  0.00    -0.258 N 
ATOM      5  H22 <0> d   1      20.487  -0.884  10.344  0.00  0.00     0.181 HD
BRANCH   4   6
ATOM      6  C5  <0> d   1      18.933  -1.779  11.334  0.00  0.00     0.190 A 
ATOM      7  O4  <0> d   1      17.606  -1.576  11.360  0.00  0.00    -0.194 OA
ATOM      8  N3  <0> d   1      17.005  -2.605  11.563  0.00  0.00    -0.131 NA
ATOM      9  C2  <0> d   1      17.812  -3.619  11.700  0.00  0.00     0.068 A 
ATOM     10  C1  <0> d   1      17.422  -5.051  11.964  0.00  0.00     0.073 C 
ATOM     11  C17 <0> d   1      19.119  -3.114  11.560  0.00  0.00     0.018 A 
ATOM     12  C18 <0> d   1      20.421  -3.871  11.633  0.00  0.00     0.055 C 
ENDBRANCH   4   6
ENDBRANCH   1   4
BRANCH   1  13
ATOM     13  C10 <0> d   1      19.312   1.826  11.535  0.00  0.00     0.080 A 
ATOM     14  C16 <0> d   1      19.091   1.912  10.173  0.00  0.00     0.027 A 
ATOM     15  C15 <0> d   1      18.459   3.020   9.642  0.00  0.00     0.030 A 
ATOM     16  C13 <0> d   1      18.056   4.054  10.478  0.00  0.00     0.025 A 
ATOM     17  C12 <0> d   1      18.284   3.968  11.845  0.00  0.00     0.030 A 
ATOM     18  C11 <0> d   1      18.910   2.854  12.370  0.00  0.00     0.027 A 
BRANCH  16  19
ATOM     19  N14 <0> d   1      17.421   5.178   9.943  0.00  0.00    -0.399 N 
ATOM     20  H25 <0> d   1      17.079   5.868  10.532  0.00  0.00     0.156 HD
ATOM     21  H26 <0> d   1      17.324   5.269   8.982  0.00  0.00     0.156 HD
ENDBRANCH  16  19
ENDBRANCH   1  13
TORSDOF 4
ENDMDL
MODEL 9
REMARK VINA RESULT:      -6.4      3.066      4.105
REMARK  4 active torsions:
REMARK  status: ('A' for Active; 'I' for Inactive)
REMARK    1  A    between atoms: C5_5  and  N6_6 
REMARK    2  A    between atoms: N6_6  and  S7_7 
REMARK    3  A    between atoms: S7_7  and  C10_10 
REMARK    4  A    between atoms: C13_13  and  N14_14 
ROOT
ATOM      1  S7  <0> d   1      19.385   1.918  11.278  0.00  0.00     0.264 S 
ATOM      2  O8  <0> d   1      19.906   3.209  10.991  0.00  0.00    -0.200 OA
ATOM      3  O9  <0> d   1      20.154   0.888  11.886  0.00  0.00    -0.200 OA
ENDROOT
BRANCH   1   4
ATOM      4  N6  <0> d   1      18.066   2.151  12.249  0.00  0.00    -0.258 N 
ATOM      5  H22 <0> d   1      17.693   1.407  12.749  0.00  0.00     0.181 HD
BRANCH   4   6
ATOM      6  C5  <0> d   1      17.493   3.406  12.350  0.00  0.00     0.190 A 
ATOM      7  O4  <0> d   1      16.699   4.002  11.446  0.00  0.00    -0.194 OA
ATOM      8  N3  <0> d   1      16.353   5.100  11.818  0.00  0.00    -0.131 NA
ATOM      9  C2  <0> d   1      16.848   5.394  12.987  0.00  0.00     0.068 A 
ATOM     10  C1  <0> d   1      16.634   6.670  13.761  0.00  0.00     0.073 C 
ATOM     11  C17 <0> d   1      17.625   4.289  13.384  0.00  0.00     0.018 A 
ATOM     12  C18 <0> d   1      18.414   4.117  14.657  0.00  0.00     0.055 C 
ENDBRANCH   4   6
ENDBRANCH   1   4
BRANCH   1  13
ATOM     13  C10 <0> d   1      18.800   1.267   9.750  0.00  0.00     0.080 A 
ATOM     14  C16 <0> d   1      17.822   0.290   9.745  0.00  0.00     0.027 A 
ATOM     15  C15 <0> d   1      17.357  -0.220   8.548  0.00  0.00     0.030 A 
ATOM     16  C13 <0> d   1      17.882   0.243   7.348  0.00  0.00     0.025 A 
ATOM     17  C12 <0> d   1      18.869   1.220   7.356  0.00  0.00     0.030 A 
ATOM     18  C11 <0> d   1      19.325   1.730   8.556  0.00  0.00     0.027 A 
BRANCH  16  19
ATOM     19  N14 <0> d   1      17.418  -0.274   6.136  0.00  0.00    -0.399 N 
ATOM     20  H25 <0> d   1      16.576   0.034   5.769  0.00  0.00     0.156 HD
ATOM     21  H26 <0> d   1      17.939  -0.942   5.662  0.00  0.00     0.156 HD
ENDBRANCH  16  19
ENDBRANCH   1  13
TORSDOF 4
ENDMDL
