MODEL 1
REMARK VINA RESULT:      -6.3      0.000      0.000
REMARK  3 active torsions:
REMARK  status: ('A' for Active; 'I' for Inactive)
REMARK    1  A    between atoms: N4_4  and  N5_5 
REMARK    2  A    between atoms: C6_6  and  C7_7 
REMARK    3  A    between atoms: C10_10  and  N11_11 
ROOT
ATOM      1  N5  ZIN A   1      18.340  -1.105  10.956  0.00  0.00    -0.178 NA
ATOM      2  C6  ZIN A   1      17.749  -0.397   9.986  0.00  0.00     0.176 C 
ENDROOT
BRANCH   1   3
ATOM      3  N4  ZIN A   1      18.972  -0.499  11.904  0.00  0.00    -0.211 N 
ATOM      4  C3  ZIN A   1      18.400  -0.002  13.167  0.00  0.00     0.259 A 
ATOM      5  C2  ZIN A   1      19.590   0.610  13.879  0.00  0.00     0.245 A 
ATOM      6  O1  ZIN A   1      19.595   1.148  14.967  0.00  0.00    -0.271 OA
ATOM      7  N17 ZIN A   1      20.638   0.439  13.051  0.00  0.00    -0.276 N 
ATOM      8  C15 ZIN A   1      20.283  -0.197  11.929  0.00  0.00     0.345 A 
ATOM      9  H23 ZIN A   1      21.542   0.736  13.247  0.00  0.00     0.173 HD
ATOM     10  O16 ZIN A   1      21.056  -0.468  11.033  0.00  0.00    -0.245 OA
ENDBRANCH   1   3
BRANCH   2  11
ATOM     11  C7  ZIN A   1      17.926   0.971   9.924  0.00  0.00     0.097 A 
ATOM     12  O14 ZIN A   1      17.233   1.907  10.612  0.00  0.00    -0.287 OA
ATOM     13  C10 ZIN A   1      17.688   3.122  10.293  0.00  0.00     0.215 A 
ATOM     14  C9  ZIN A   1      18.716   3.018   9.354  0.00  0.00     0.065 A 
ATOM     15  C8  ZIN A   1      18.905   1.695   9.088  0.00  0.00     0.043 A 
BRANCH  13  16
ATOM     16  N11 ZIN A   1      17.171   4.399  10.853  0.00  0.00    -0.090 N 
ATOM     17  O12 ZIN A   1      17.225   5.502  10.136  0.00  0.00    -0.530 OA
ATOM     18  O13 ZIN A   1      16.659   4.426  12.067  0.00  0.00    -0.530 OA
ENDBRANCH  13  16
ENDBRANCH   2  11
TORSDOF 3
ENDMDL
MODEL 2
REMARK VINA RESULT:      -6.1      3.413      5.305
REMARK  3 active torsions:
REMARK  status: ('A' for Active; 'I' for Inactive)
REMARK    1  A    between atoms: N4_4  and  N5_5 
REMARK    2  A    between atoms: C6_6  and  C7_7 
REMARK    3  A    between atoms: C10_10  and  N11_11 
ROOT
ATOM      1  N5  ZIN A   1      19.223  -0.074  11.427  0.00  0.00    -0.178 NA
ATOM      2  C6  ZIN A   1      19.359   0.640  10.303  0.00  0.00     0.176 C 
ENDROOT
BRANCH   1   3
ATOM      3  N4  ZIN A   1      18.852  -1.309  11.367  0.00  0.00    -0.211 N 
ATOM      4  C3  ZIN A   1      19.712  -2.473  11.093  0.00  0.00     0.259 A 
ATOM      5  C2  ZIN A   1      18.750  -3.645  11.146  0.00  0.00     0.245 A 
ATOM      6  O1  ZIN A   1      19.015  -4.816  10.977  0.00  0.00    -0.271 OA
ATOM      7  N17 ZIN A   1      17.542  -3.112  11.412  0.00  0.00    -0.276 N 
ATOM      8  C15 ZIN A   1      17.605  -1.782  11.542  0.00  0.00     0.345 A 
ATOM      9  H23 ZIN A   1      16.726  -3.631  11.503  0.00  0.00     0.173 HD
ATOM     10  O16 ZIN A   1      16.645  -1.082  11.786  0.00  0.00    -0.245 OA
ENDBRANCH   1   3
BRANCH   2  11
ATOM     11  C7  ZIN A   1      18.977   0.099   9.092  0.00  0.00     0.097 A 
ATOM     12  O14 ZIN A   1      19.755  -0.611   8.242  0.00  0.00    -0.287 OA
ATOM     13  C10 ZIN A   1      19.038  -0.970   7.175  0.00  0.00     0.215 A 
ATOM     14  C9  ZIN A   1      17.732  -0.487   7.289  0.00  0.00     0.065 A 
ATOM     15  C8  ZIN A   1      17.640   0.188   8.469  0.00  0.00     0.043 A 
BRANCH  13  16
ATOM     16  N11 ZIN A   1      19.555  -1.764   6.029  0.00  0.00    -0.090 N 
ATOM     17  O12 ZIN A   1      19.865  -3.033   6.194  0.00  0.00    -0.530 OA
ATOM     18  O13 ZIN A   1      19.701  -1.198   4.848  0.00  0.00    -0.530 OA
ENDBRANCH  13  16
ENDBRANCH   2  11
TORSDOF 3
ENDMDL
MODEL 3
REMARK VINA RESULT:      -5.8      2.349      4.707
REMARK  3 active torsions:
REMARK  status: ('A' for Active; 'I' for Inactive)
REMARK    1  A    between atoms: N4_4  and  N5_5 
REMARK    2  A    between atoms: C6_6  and  C7_7 
REMARK    3  A    between atoms: C10_10  and  N11_11 
ROOT
ATOM      1  N5  ZIN A   1      16.996   0.977  11.119  0.00  0.00    -0.178 NA
ATOM      2  C6  ZIN A   1      16.854  -0.101  11.899  0.00  0.00     0.176 C 
ENDROOT
BRANCH   1   3
ATOM      3  N4  ZIN A   1      18.009   1.761  11.278  0.00  0.00    -0.211 N 
ATOM      4  C3  ZIN A   1      18.052   2.991  12.086  0.00  0.00     0.259 A 
ATOM      5  C2  ZIN A   1      19.474   3.486  11.905  0.00  0.00     0.245 A 
ATOM      6  O1  ZIN A   1      19.969   4.481  12.391  0.00  0.00    -0.271 OA
ATOM      7  N17 ZIN A   1      20.068   2.595  11.089  0.00  0.00    -0.276 N 
ATOM      8  C15 ZIN A   1      19.232   1.611  10.738  0.00  0.00     0.345 A 
ATOM      9  H23 ZIN A   1      20.992   2.657  10.795  0.00  0.00     0.173 HD
ATOM     10  O16 ZIN A   1      19.542   0.690  10.010  0.00  0.00    -0.245 OA
ENDBRANCH   1   3
BRANCH   2  11
ATOM     11  C7  ZIN A   1      17.715  -0.303  12.959  0.00  0.00     0.097 A 
ATOM     12  O14 ZIN A   1      17.683   0.326  14.157  0.00  0.00    -0.287 OA
ATOM     13  C10 ZIN A   1      18.672  -0.135  14.928  0.00  0.00     0.215 A 
ATOM     14  C9  ZIN A   1      19.408  -1.102  14.239  0.00  0.00     0.065 A 
ATOM     15  C8  ZIN A   1      18.852  -1.245  13.003  0.00  0.00     0.043 A 
BRANCH  13  16
ATOM     16  N11 ZIN A   1      18.951   0.319  16.316  0.00  0.00    -0.090 N 
ATOM     17  O12 ZIN A   1      18.941  -0.548  17.307  0.00  0.00    -0.530 OA
ATOM     18  O13 ZIN A   1      19.209   1.589  16.555  0.00  0.00    -0.530 OA
ENDBRANCH  13  16
ENDBRANCH   2  11
TORSDOF 3
ENDMDL
MODEL 4
REMARK VINA RESULT:      -5.8      2.453      5.141
REMARK  3 active torsions:
REMARK  status: ('A' for Active; 'I' for Inactive)
REMARK    1  A    between atoms: N4_4  and  N5_5 
REMARK    2  A    between atoms: C6_6  and  C7_7 
REMARK    3  A    between atoms: C10_10  and  N11_11 
ROOT
ATOM      1  N5  ZIN A   1      19.151  -1.246  12.867  0.00  0.00    -0.178 NA
ATOM      2  C6  ZIN A   1      19.168  -1.612  14.154  0.00  0.00     0.176 C 
ENDROOT
BRANCH   1   3
ATOM      3  N4  ZIN A   1      18.914  -0.018  12.547  0.00  0.00    -0.211 N 
ATOM      4  C3  ZIN A   1      17.592   0.619  12.424  0.00  0.00     0.259 A 
ATOM      5  C2  ZIN A   1      17.921   2.046  12.032  0.00  0.00     0.245 A 
ATOM      6  O1  ZIN A   1      17.136   2.946  11.818  0.00  0.00    -0.271 OA
ATOM      7  N17 ZIN A   1      19.265   2.105  11.963  0.00  0.00    -0.276 N 
ATOM      8  C15 ZIN A   1      19.827   0.928  12.262  0.00  0.00     0.345 A 
ATOM      9  H23 ZIN A   1      19.765   2.904  11.730  0.00  0.00     0.173 HD
ATOM     10  O16 ZIN A   1      21.025   0.735  12.271  0.00  0.00    -0.245 OA
ENDBRANCH   1   3
BRANCH   2  11
ATOM     11  C7  ZIN A   1      18.800  -0.711  15.132  0.00  0.00     0.097 A 
ATOM     12  O14 ZIN A   1      19.535   0.330  15.589  0.00  0.00    -0.287 OA
ATOM     13  C10 ZIN A   1      18.850   0.978  16.534  0.00  0.00     0.215 A 
ATOM     14  C9  ZIN A   1      17.613   0.363  16.739  0.00  0.00     0.065 A 
ATOM     15  C8  ZIN A   1      17.531  -0.699  15.888  0.00  0.00     0.043 A 
BRANCH  13  16
ATOM     16  N11 ZIN A   1      19.335   2.179  17.266  0.00  0.00    -0.090 N 
ATOM     17  O12 ZIN A   1      19.344   3.353  16.671  0.00  0.00    -0.530 OA
ATOM     18  O13 ZIN A   1      19.754   2.066  18.510  0.00  0.00    -0.530 OA
ENDBRANCH  13  16
ENDBRANCH   2  11
TORSDOF 3
ENDMDL
MODEL 5
REMARK VINA RESULT:      -5.8      1.919      2.697
REMARK  3 active torsions:
REMARK  status: ('A' for Active; 'I' for Inactive)
REMARK    1  A    between atoms: N4_4  and  N5_5 
REMARK    2  A    between atoms: C6_6  and  C7_7 
REMARK    3  A    between atoms: C10_10  and  N11_11 
ROOT
ATOM      1  N5  ZIN A   1      18.120   0.385   9.868  0.00  0.00    -0.178 NA
ATOM      2  C6  ZIN A   1      18.065   1.699   9.619  0.00  0.00     0.176 C 
ENDROOT
BRANCH   1   3
ATOM      3  N4  ZIN A   1      18.190  -0.040  11.084  0.00  0.00    -0.211 N 
ATOM      4  C3  ZIN A   1      19.412  -0.410  11.819  0.00  0.00     0.259 A 
ATOM      5  C2  ZIN A   1      18.895  -0.828  13.181  0.00  0.00     0.245 A 
ATOM      6  O1  ZIN A   1      19.550  -1.217  14.125  0.00  0.00    -0.271 OA
ATOM      7  N17 ZIN A   1      17.556  -0.686  13.122  0.00  0.00    -0.276 N 
ATOM      8  C15 ZIN A   1      17.160  -0.232  11.928  0.00  0.00     0.345 A 
ATOM      9  H23 ZIN A   1      16.954  -0.883  13.858  0.00  0.00     0.173 HD
ATOM     10  O16 ZIN A   1      16.000  -0.021  11.637  0.00  0.00    -0.245 OA
ENDBRANCH   1   3
BRANCH   2  11
ATOM     11  C7  ZIN A   1      18.215   2.603  10.651  0.00  0.00     0.097 A 
ATOM     12  O14 ZIN A   1      17.227   3.153  11.394  0.00  0.00    -0.287 OA
ATOM     13  C10 ZIN A   1      17.758   3.980  12.299  0.00  0.00     0.215 A 
ATOM     14  C9  ZIN A   1      19.149   4.005  12.170  0.00  0.00     0.065 A 
ATOM     15  C8  ZIN A   1      19.487   3.163  11.154  0.00  0.00     0.043 A 
BRANCH  13  16
ATOM     16  N11 ZIN A   1      16.981   4.763  13.297  0.00  0.00    -0.090 N 
ATOM     17  O12 ZIN A   1      17.263   4.660  14.579  0.00  0.00    -0.530 OA
ATOM     18  O13 ZIN A   1      16.011   5.560  12.897  0.00  0.00    -0.530 OA
ENDBRANCH  13  16
ENDBRANCH   2  11
TORSDOF 3
ENDMDL
MODEL 6
REMARK VINA RESULT:      -5.8      3.022      4.198
REMARK  3 active torsions:
REMARK  status: ('A' for Active; 'I' for Inactive)
REMARK    1  A    between atoms: N4_4  and  N5_5 
REMARK    2  A    between atoms: C6_6  and  C7_7 
REMARK    3  A    between atoms: C10_10  and  N11_11 
ROOT
ATOM      1  N5  ZIN A   1      16.925  -0.960  12.085  0.00  0.00    -0.178 NA
ATOM      2  C6  ZIN A   1      16.703   0.111  11.313  0.00  0.00     0.176 C 
ENDROOT
BRANCH   1   3
ATOM      3  N4  ZIN A   1      17.949  -1.714  11.864  0.00  0.00    -0.211 N 
ATOM      4  C3  ZIN A   1      17.996  -2.902  10.995  0.00  0.00     0.259 A 
ATOM      5  C2  ZIN A   1      19.430  -3.377  11.120  0.00  0.00     0.245 A 
ATOM      6  O1  ZIN A   1      19.934  -4.336  10.574  0.00  0.00    -0.271 OA
ATOM      7  N17 ZIN A   1      20.027  -2.516  11.967  0.00  0.00    -0.276 N 
ATOM      8  C15 ZIN A   1      19.181  -1.567  12.385  0.00  0.00     0.345 A 
ATOM      9  H23 ZIN A   1      20.958  -2.574  12.237  0.00  0.00     0.173 HD
ATOM     10  O16 ZIN A   1      19.489  -0.678  13.151  0.00  0.00    -0.245 OA
ENDBRANCH   1   3
BRANCH   2  11
ATOM     11  C7  ZIN A   1      17.490   0.335  10.201  0.00  0.00     0.097 A 
ATOM     12  O14 ZIN A   1      17.338  -0.224   8.978  0.00  0.00    -0.287 OA
ATOM     13  C10 ZIN A   1      18.287   0.235   8.158  0.00  0.00     0.215 A 
ATOM     14  C9  ZIN A   1      19.119   1.128   8.837  0.00  0.00     0.065 A 
ATOM     15  C8  ZIN A   1      18.666   1.225  10.119  0.00  0.00     0.043 A 
BRANCH  13  16
ATOM     16  N11 ZIN A   1      18.438  -0.151   6.730  0.00  0.00    -0.090 N 
ATOM     17  O12 ZIN A   1      19.291  -1.095   6.389  0.00  0.00    -0.530 OA
ATOM     18  O13 ZIN A   1      17.717   0.450   5.805  0.00  0.00    -0.530 OA
ENDBRANCH  13  16
ENDBRANCH   2  11
TORSDOF 3
ENDMDL
MODEL 7
REMARK VINA RESULT:      -5.6      4.191      6.511
REMARK  3 active torsions:
REMARK  status: ('A' for Active; 'I' for Inactive)
REMARK    1  A    between atoms: N4_4  and  N5_5 
REMARK    2  A    between atoms: C6_6  and  C7_7 
REMARK    3  A    between atoms: C10_10  and  N11_11 
ROOT
ATOM      1  N5  ZIN A   1      20.094  -2.299  11.411  0.00  0.00    -0.178 NA
ATOM      2  C6  ZIN A   1      19.989  -3.633  11.465  0.00  0.00     0.176 C 
ENDROOT
BRANCH   1   3
ATOM      3  N4  ZIN A   1      19.065  -1.582  11.108  0.00  0.00    -0.211 N 
ATOM      4  C3  ZIN A   1      17.977  -1.177  12.013  0.00  0.00     0.259 A 
ATOM      5  C2  ZIN A   1      17.060  -0.360  11.124  0.00  0.00     0.245 A 
ATOM      6  O1  ZIN A   1      16.022   0.181  11.444  0.00  0.00    -0.271 OA
ATOM      7  N17 ZIN A   1      17.634  -0.367   9.905  0.00  0.00    -0.276 N 
ATOM      8  C15 ZIN A   1      18.778  -1.060   9.901  0.00  0.00     0.345 A 
ATOM      9  H23 ZIN A   1      17.265   0.081   9.127  0.00  0.00     0.173 HD
ATOM     10  O16 ZIN A   1      19.476  -1.204   8.919  0.00  0.00    -0.245 OA
ENDBRANCH   1   3
BRANCH   2  11
ATOM     11  C7  ZIN A   1      18.820  -4.249  11.069  0.00  0.00     0.097 A 
ATOM     12  O14 ZIN A   1      18.372  -4.394   9.800  0.00  0.00    -0.287 OA
ATOM     13  C10 ZIN A   1      17.206  -5.044   9.810  0.00  0.00     0.215 A 
ATOM     14  C9  ZIN A   1      16.837  -5.348  11.122  0.00  0.00     0.065 A 
ATOM     15  C8  ZIN A   1      17.810  -4.873  11.949  0.00  0.00     0.043 A 
BRANCH  13  16
ATOM     16  N11 ZIN A   1      16.413  -5.391   8.600  0.00  0.00    -0.090 N 
ATOM     17  O12 ZIN A   1      15.107  -5.527   8.686  0.00  0.00    -0.530 OA
ATOM     18  O13 ZIN A   1      17.019  -5.560   7.442  0.00  0.00    -0.530 OA
ENDBRANCH  13  16
ENDBRANCH   2  11
TORSDOF 3
ENDMDL
MODEL 8
REMARK VINA RESULT:      -5.5      3.927      5.379
REMARK  3 active torsions:
REMARK  status: ('A' for Active; 'I' for Inactive)
REMARK    1  A    between atoms: N4_4  and  N5_5 
REMARK    2  A    between atoms: C6_6  and  C7_7 
REMARK    3  A    between atoms: C10_10  and  N11_11 
ROOT
ATOM      1  N5  ZIN A   1      19.419  -1.077  11.938  0.00  0.00    -0.178 NA
ATOM      2  C6  ZIN A   1      19.693  -0.229  10.939  0.00  0.00     0.176 C 
ENDROOT
BRANCH   1   3
ATOM      3  N4  ZIN A   1      18.871  -2.218  11.685  0.00  0.00    -0.211 N 
ATOM      4  C3  ZIN A   1      17.429  -2.498  11.578  0.00  0.00     0.259 A 
ATOM      5  C2  ZIN A   1      17.377  -3.982  11.271  0.00  0.00     0.245 A 
ATOM      6  O1  ZIN A   1      16.386  -4.659  11.099  0.00  0.00    -0.271 OA
ATOM      7  N17 ZIN A   1      18.660  -4.392  11.236  0.00  0.00    -0.276 N 
ATOM      8  C15 ZIN A   1      19.508  -3.383  11.467  0.00  0.00     0.345 A 
ATOM      9  H23 ZIN A   1      18.935  -5.306  11.059  0.00  0.00     0.173 HD
ATOM     10  O16 ZIN A   1      20.715  -3.507  11.483  0.00  0.00    -0.245 OA
ENDBRANCH   1   3
BRANCH   2  11
ATOM     11  C7  ZIN A   1      19.271  -0.515   9.656  0.00  0.00     0.097 A 
ATOM     12  O14 ZIN A   1      19.941  -1.238   8.728  0.00  0.00    -0.287 OA
ATOM     13  C10 ZIN A   1      19.217  -1.303   7.607  0.00  0.00     0.215 A 
ATOM     14  C9  ZIN A   1      18.021  -0.598   7.766  0.00  0.00     0.065 A 
ATOM     15  C8  ZIN A   1      18.005  -0.086   9.029  0.00  0.00     0.043 A 
BRANCH  13  16
ATOM     16  N11 ZIN A   1      19.627  -2.017   6.369  0.00  0.00    -0.090 N 
ATOM     17  O12 ZIN A   1      19.997  -3.279   6.428  0.00  0.00    -0.530 OA
ATOM     18  O13 ZIN A   1      19.619  -1.386   5.212  0.00  0.00    -0.530 OA
ENDBRANCH  13  16
ENDBRANCH   2  11
TORSDOF 3
ENDMDL
MODEL 9
REMARK VINA RESULT:      -5.5      2.118      2.165
REMARK  3 active torsions:
REMARK  status: ('A' for Active; 'I' for Inactive)
REMARK    1  A    between atoms: N4_4  and  N5_5 
REMARK    2  A    between atoms: C6_6  and  C7_7 
REMARK    3  A    between atoms: C10_10  and  N11_11 
ROOT
ATOM      1  N5  ZIN A   1      16.965  -1.028  11.530  0.00  0.00    -0.178 NA
ATOM      2  C6  ZIN A   1      16.819   0.174  10.960  0.00  0.00     0.176 C 
ENDROOT
BRANCH   1   3
ATOM      3  N4  ZIN A   1      17.905  -1.223  12.393  0.00  0.00    -0.211 N 
ATOM      4  C3  ZIN A   1      17.862  -0.903  13.829  0.00  0.00     0.259 A 
ATOM      5  C2  ZIN A   1      19.223  -1.343  14.333  0.00  0.00     0.245 A 
ATOM      6  O1  ZIN A   1      19.642  -1.270  15.469  0.00  0.00    -0.271 OA
ATOM      7  N17 ZIN A   1      19.871  -1.825  13.255  0.00  0.00    -0.276 N 
ATOM      8  C15 ZIN A   1      19.115  -1.760  12.153  0.00  0.00     0.345 A 
ATOM      9  H23 ZIN A   1      20.774  -2.182  13.276  0.00  0.00     0.173 HD
ATOM     10  O16 ZIN A   1      19.482  -2.138  11.059  0.00  0.00    -0.245 OA
ENDBRANCH   1   3
BRANCH   2  11
ATOM     11  C7  ZIN A   1      17.751   1.166  11.191  0.00  0.00     0.097 A 
ATOM     12  O14 ZIN A   1      17.757   2.045  12.220  0.00  0.00    -0.287 OA
ATOM     13  C10 ZIN A   1      18.816   2.852  12.111  0.00  0.00     0.215 A 
ATOM     14  C9  ZIN A   1      19.555   2.523  10.972  0.00  0.00     0.065 A 
ATOM     15  C8  ZIN A   1      18.932   1.476  10.360  0.00  0.00     0.043 A 
BRANCH  13  16
ATOM     16  N11 ZIN A   1      19.156   3.943  13.061  0.00  0.00    -0.090 N 
ATOM     17  O12 ZIN A   1      19.885   4.964  12.658  0.00  0.00    -0.530 OA
ATOM     18  O13 ZIN A   1      18.729   3.890  14.306  0.00  0.00    -0.530 OA
ENDBRANCH  13  16
ENDBRANCH   2  11
TORSDOF 3
ENDMDL
