MODEL 1
REMARK VINA RESULT:      -7.6      0.000      0.000
REMARK  7 active torsions:
REMARK  status: ('A' for Active; 'I' for Inactive)
REMARK       I    between atoms: C2_2  and  N3_3 
REMARK    1  A    between atoms: C2_2  and  C12_12 
REMARK    2  A    between atoms: N3_3  and  C4_4 
REMARK    3  A    between atoms: C15_15  and  O16_16 
REMARK    4  A    between atoms: O16_16  and  C17_17 
REMARK    5  A    between atoms: C20_20  and  O21_21 
REMARK    6  A    between atoms: O21_21  and  C22_22 
REMARK    7  A    between atoms: C22_22  and  C23_23 
ROOT
ATOM      1  C12 ZIN A   1      18.854  -0.435  12.269  0.00  0.00     0.035 A 
ATOM      2  C13 ZIN A   1      18.672  -1.814  12.136  0.00  0.00     0.020 A 
ATOM      3  C14 ZIN A   1      18.280  -2.344  10.926  0.00  0.00     0.041 A 
ATOM      4  C15 ZIN A   1      18.066  -1.511   9.837  0.00  0.00     0.108 A 
ATOM      5  C20 ZIN A   1      18.245  -0.133   9.962  0.00  0.00     0.103 A 
ATOM      6  C26 ZIN A   1      18.633   0.405  11.173  0.00  0.00     0.056 A 
ENDROOT
BRANCH   1   7
ATOM      7  C2  ZIN A   1      19.275   0.134  13.563  0.00  0.00     0.256 C 
ATOM      8  O1  ZIN A   1      20.454   0.327  13.789  0.00  0.00    -0.267 OA
ATOM      9  N3  ZIN A   1      18.351   0.446  14.494  0.00  0.00    -0.320 N 
ATOM     10  H27 ZIN A   1      17.407   0.359  14.289  0.00  0.00     0.169 HD
BRANCH   9  11
ATOM     11  C4  ZIN A   1      18.753   0.893  15.753  0.00  0.00     0.081 A 
ATOM     12  C10 ZIN A   1      18.939   2.253  16.005  0.00  0.00     0.080 A 
ATOM     13  C9  ZIN A   1      19.333   2.655  17.265  0.00  0.00     0.142 A 
ATOM     14 Cl11 ZIN A   1      18.666   3.424  14.752  0.00  0.00    -0.080 Cl
ATOM     15  N8  ZIN A   1      19.543   1.771  18.222  0.00  0.00    -0.270 NA
ATOM     16  C7  ZIN A   1      19.383   0.477  18.024  0.00  0.00     0.142 A 
ATOM     17  C5  ZIN A   1      18.985  -0.007  16.793  0.00  0.00     0.080 A 
ATOM     18 Cl6  ZIN A   1      18.779  -1.712  16.542  0.00  0.00    -0.080 Cl
ENDBRANCH   9  11
ENDBRANCH   1   7
BRANCH   5  19
ATOM     19  O21 ZIN A   1      18.033   0.679   8.893  0.00  0.00    -0.348 OA
BRANCH  19  20
ATOM     20  C22 ZIN A   1      19.175   1.031   8.109  0.00  0.00     0.180 C 
BRANCH  20  21
ATOM     21  C23 ZIN A   1      18.743   1.287   6.663  0.00  0.00     0.010 A 
ATOM     22  C25 ZIN A   1      17.733   0.319   6.045  0.00  0.00     0.007 A 
ATOM     23  C24 ZIN A   1      19.196   0.283   5.601  0.00  0.00     0.007 A 
ENDBRANCH  20  21
ENDBRANCH  19  20
ENDBRANCH   5  19
BRANCH   4  24
ATOM     24  O16 ZIN A   1      17.679  -2.037   8.647  0.00  0.00    -0.287 OA
BRANCH  24  25
ATOM     25  C17 ZIN A   1      18.626  -2.861   7.963  0.00  0.00     0.505 C 
ATOM     26  F18 ZIN A   1      18.099  -3.254   6.729  0.00  0.00    -0.184 F 
ATOM     27  F19 ZIN A   1      19.808  -2.140   7.757  0.00  0.00    -0.184 F 
ENDBRANCH  24  25
ENDBRANCH   4  24
TORSDOF 7
ENDMDL
MODEL 2
REMARK VINA RESULT:      -7.5      4.590      7.902
REMARK  7 active torsions:
REMARK  status: ('A' for Active; 'I' for Inactive)
REMARK       I    between atoms: C2_2  and  N3_3 
REMARK    1  A    between atoms: C2_2  and  C12_12 
REMARK    2  A    between atoms: N3_3  and  C4_4 
REMARK    3  A    between atoms: C15_15  and  O16_16 
REMARK    4  A    between atoms: O16_16  and  C17_17 
REMARK    5  A    between atoms: C20_20  and  O21_21 
REMARK    6  A    between atoms: O21_21  and  C22_22 
REMARK    7  A    between atoms: C22_22  and  C23_23 
ROOT
ATOM      1  C12 ZIN A   1      17.746  -0.220  10.355  0.00  0.00     0.035 A 
ATOM      2  C13 ZIN A   1      17.586  -1.262  11.273  0.00  0.00     0.020 A 
ATOM      3  C14 ZIN A   1      17.475  -0.984  12.618  0.00  0.00     0.041 A 
ATOM      4  C15 ZIN A   1      17.520   0.329  13.065  0.00  0.00     0.108 A 
ATOM      5  C20 ZIN A   1      17.680   1.374  12.155  0.00  0.00     0.103 A 
ATOM      6  C26 ZIN A   1      17.798   1.102  10.806  0.00  0.00     0.056 A 
ENDROOT
BRANCH   1   7
ATOM      7  C2  ZIN A   1      17.866  -0.515   8.915  0.00  0.00     0.256 C 
ATOM      8  O1  ZIN A   1      16.881  -0.478   8.202  0.00  0.00    -0.267 OA
ATOM      9  N3  ZIN A   1      19.067  -0.821   8.387  0.00  0.00    -0.320 N 
ATOM     10  H27 ZIN A   1      19.864  -0.783   8.938  0.00  0.00     0.169 HD
BRANCH   9  11
ATOM     11  C4  ZIN A   1      19.166  -1.194   7.046  0.00  0.00     0.081 A 
ATOM     12  C10 ZIN A   1      19.247  -2.539   6.681  0.00  0.00     0.080 A 
ATOM     13  C9  ZIN A   1      19.339  -2.867   5.344  0.00  0.00     0.142 A 
ATOM     14 Cl11 ZIN A   1      19.218  -3.782   7.894  0.00  0.00    -0.080 Cl
ATOM     15  N8  ZIN A   1      19.362  -1.929   4.417  0.00  0.00    -0.270 NA
ATOM     16  C7  ZIN A   1      19.293  -0.647   4.720  0.00  0.00     0.142 A 
ATOM     17  C5  ZIN A   1      19.193  -0.235   6.034  0.00  0.00     0.080 A 
ATOM     18 Cl6  ZIN A   1      19.104   1.455   6.422  0.00  0.00    -0.080 Cl
ENDBRANCH   9  11
ENDBRANCH   1   7
BRANCH   5  19
ATOM     19  O21 ZIN A   1      17.725   2.658  12.597  0.00  0.00    -0.348 OA
BRANCH  19  20
ATOM     20  C22 ZIN A   1      18.741   3.499  12.045  0.00  0.00     0.180 C 
BRANCH  20  21
ATOM     21  C23 ZIN A   1      18.114   4.810  11.565  0.00  0.00     0.010 A 
ATOM     22  C25 ZIN A   1      16.624   4.796  11.217  0.00  0.00     0.007 A 
ATOM     23  C24 ZIN A   1      17.668   4.887  10.103  0.00  0.00     0.007 A 
ENDBRANCH  20  21
ENDBRANCH  19  20
ENDBRANCH   5  19
BRANCH   4  24
ATOM     24  O16 ZIN A   1      17.410   0.597  14.391  0.00  0.00    -0.287 OA
BRANCH  24  25
ATOM     25  C17 ZIN A   1      18.561   0.345  15.201  0.00  0.00     0.505 C 
ATOM     26  F18 ZIN A   1      18.607  -1.012  15.536  0.00  0.00    -0.184 F 
ATOM     27  F19 ZIN A   1      19.716   0.690  14.490  0.00  0.00    -0.184 F 
ENDBRANCH  24  25
ENDBRANCH   4  24
TORSDOF 7
ENDMDL
MODEL 3
REMARK VINA RESULT:      -7.4      4.623      7.726
REMARK  7 active torsions:
REMARK  status: ('A' for Active; 'I' for Inactive)
REMARK       I    between atoms: C2_2  and  N3_3 
REMARK    1  A    between atoms: C2_2  and  C12_12 
REMARK    2  A    between atoms: N3_3  and  C4_4 
REMARK    3  A    between atoms: C15_15  and  O16_16 
REMARK    4  A    between atoms: O16_16  and  C17_17 
REMARK    5  A    between atoms: C20_20  and  O21_21 
REMARK    6  A    between atoms: O21_21  and  C22_22 
REMARK    7  A    between atoms: C22_22  and  C23_23 
ROOT
ATOM      1  C12 ZIN A   1      17.700  -0.136  10.298  0.00  0.00     0.035 A 
ATOM      2  C13 ZIN A   1      17.505  -1.177  11.210  0.00  0.00     0.020 A 
ATOM      3  C14 ZIN A   1      17.385  -0.902  12.555  0.00  0.00     0.041 A 
ATOM      4  C15 ZIN A   1      17.457   0.408  13.007  0.00  0.00     0.108 A 
ATOM      5  C20 ZIN A   1      17.651   1.452  12.104  0.00  0.00     0.103 A 
ATOM      6  C26 ZIN A   1      17.778   1.183  10.755  0.00  0.00     0.056 A 
ENDROOT
BRANCH   1   7
ATOM      7  C2  ZIN A   1      17.828  -0.428   8.858  0.00  0.00     0.256 C 
ATOM      8  O1  ZIN A   1      16.843  -0.412   8.144  0.00  0.00    -0.267 OA
ATOM      9  N3  ZIN A   1      19.037  -0.708   8.332  0.00  0.00    -0.320 N 
ATOM     10  H27 ZIN A   1      19.831  -0.654   8.885  0.00  0.00     0.169 HD
BRANCH   9  11
ATOM     11  C4  ZIN A   1      19.145  -1.080   6.991  0.00  0.00     0.081 A 
ATOM     12  C10 ZIN A   1      19.170  -0.117   5.981  0.00  0.00     0.080 A 
ATOM     13  C9  ZIN A   1      19.283  -0.525   4.668  0.00  0.00     0.142 A 
ATOM     14 Cl11 ZIN A   1      19.074   1.572   6.374  0.00  0.00    -0.080 Cl
ATOM     15  N8  ZIN A   1      19.356  -1.806   4.361  0.00  0.00    -0.270 NA
ATOM     16  C7  ZIN A   1      19.331  -2.747   5.285  0.00  0.00     0.142 A 
ATOM     17  C5  ZIN A   1      19.226  -2.422   6.624  0.00  0.00     0.080 A 
ATOM     18 Cl6  ZIN A   1      19.192  -3.669   7.831  0.00  0.00    -0.080 Cl
ENDBRANCH   9  11
ENDBRANCH   1   7
BRANCH   5  19
ATOM     19  O21 ZIN A   1      17.722   2.734  12.551  0.00  0.00    -0.348 OA
BRANCH  19  20
ATOM     20  C22 ZIN A   1      18.717   3.573  11.961  0.00  0.00     0.180 C 
BRANCH  20  21
ATOM     21  C23 ZIN A   1      18.074   4.885  11.505  0.00  0.00     0.010 A 
ATOM     22  C25 ZIN A   1      16.582   4.861  11.166  0.00  0.00     0.007 A 
ATOM     23  C24 ZIN A   1      17.619   4.979  10.047  0.00  0.00     0.007 A 
ENDBRANCH  20  21
ENDBRANCH  19  20
ENDBRANCH   5  19
BRANCH   4  24
ATOM     24  O16 ZIN A   1      17.339   0.674  14.334  0.00  0.00    -0.287 OA
BRANCH  24  25
ATOM     25  C17 ZIN A   1      18.508   0.499  15.137  0.00  0.00     0.505 C 
ATOM     26  F18 ZIN A   1      18.480  -0.765  15.733  0.00  0.00    -0.184 F 
ATOM     27  F19 ZIN A   1      19.648   0.609  14.331  0.00  0.00    -0.184 F 
ENDBRANCH  24  25
ENDBRANCH   4  24
TORSDOF 7
ENDMDL
MODEL 4
REMARK VINA RESULT:      -7.4      2.608      4.513
REMARK  7 active torsions:
REMARK  status: ('A' for Active; 'I' for Inactive)
REMARK       I    between atoms: C2_2  and  N3_3 
REMARK    1  A    between atoms: C2_2  and  C12_12 
REMARK    2  A    between atoms: N3_3  and  C4_4 
REMARK    3  A    between atoms: C15_15  and  O16_16 
REMARK    4  A    between atoms: O16_16  and  C17_17 
REMARK    5  A    between atoms: C20_20  and  O21_21 
REMARK    6  A    between atoms: O21_21  and  C22_22 
REMARK    7  A    between atoms: C22_22  and  C23_23 
ROOT
ATOM      1  C12 ZIN A   1      18.766   1.569   9.741  0.00  0.00     0.035 A 
ATOM      2  C13 ZIN A   1      19.165   2.055   8.493  0.00  0.00     0.020 A 
ATOM      3  C14 ZIN A   1      19.134   1.229   7.390  0.00  0.00     0.041 A 
ATOM      4  C15 ZIN A   1      18.707  -0.086   7.515  0.00  0.00     0.108 A 
ATOM      5  C20 ZIN A   1      18.308  -0.578   8.758  0.00  0.00     0.103 A 
ATOM      6  C26 ZIN A   1      18.342   0.243   9.868  0.00  0.00     0.056 A 
ENDROOT
BRANCH   1   7
ATOM      7  C2  ZIN A   1      18.798   2.452  10.922  0.00  0.00     0.256 C 
ATOM      8  O1  ZIN A   1      19.711   3.242  11.067  0.00  0.00    -0.267 OA
ATOM      9  N3  ZIN A   1      17.811   2.387  11.838  0.00  0.00    -0.320 N 
ATOM     10  H27 ZIN A   1      17.048   1.809  11.689  0.00  0.00     0.169 HD
BRANCH   9  11
ATOM     11  C4  ZIN A   1      17.890   3.152  13.003  0.00  0.00     0.081 A 
ATOM     12  C10 ZIN A   1      18.537   2.662  14.139  0.00  0.00     0.080 A 
ATOM     13  C9  ZIN A   1      18.596   3.451  15.270  0.00  0.00     0.142 A 
ATOM     14 Cl11 ZIN A   1      19.268   1.087  14.123  0.00  0.00    -0.080 Cl
ATOM     15  N8  ZIN A   1      18.043   4.648  15.290  0.00  0.00    -0.270 NA
ATOM     16  C7  ZIN A   1      17.417   5.145  14.239  0.00  0.00     0.142 A 
ATOM     17  C5  ZIN A   1      17.319   4.422  13.067  0.00  0.00     0.080 A 
ATOM     18 Cl6  ZIN A   1      16.493   5.085  11.691  0.00  0.00    -0.080 Cl
ENDBRANCH   9  11
ENDBRANCH   1   7
BRANCH   5  19
ATOM     19  O21 ZIN A   1      17.892  -1.866   8.877  0.00  0.00    -0.348 OA
BRANCH  19  20
ATOM     20  C22 ZIN A   1      18.847  -2.815   9.355  0.00  0.00     0.180 C 
BRANCH  20  21
ATOM     21  C23 ZIN A   1      18.288  -3.525  10.590  0.00  0.00     0.010 A 
ATOM     22  C25 ZIN A   1      18.564  -2.893  11.955  0.00  0.00     0.007 A 
ATOM     23  C24 ZIN A   1      19.290  -4.176  11.546  0.00  0.00     0.007 A 
ENDBRANCH  20  21
ENDBRANCH  19  20
ENDBRANCH   5  19
BRANCH   4  24
ATOM     24  O16 ZIN A   1      18.679  -0.896   6.426  0.00  0.00    -0.287 OA
BRANCH  24  25
ATOM     25  C17 ZIN A   1      17.627  -0.679   5.484  0.00  0.00     0.505 C 
ATOM     26  F18 ZIN A   1      16.559  -0.036   6.117  0.00  0.00    -0.184 F 
ATOM     27  F19 ZIN A   1      18.097   0.121   4.435  0.00  0.00    -0.184 F 
ENDBRANCH  24  25
ENDBRANCH   4  24
TORSDOF 7
ENDMDL
MODEL 5
REMARK VINA RESULT:      -7.4      2.606      4.204
REMARK  7 active torsions:
REMARK  status: ('A' for Active; 'I' for Inactive)
REMARK       I    between atoms: C2_2  and  N3_3 
REMARK    1  A    between atoms: C2_2  and  C12_12 
REMARK    2  A    between atoms: N3_3  and  C4_4 
REMARK    3  A    between atoms: C15_15  and  O16_16 
REMARK    4  A    between atoms: O16_16  and  C17_17 
REMARK    5  A    between atoms: C20_20  and  O21_21 
REMARK    6  A    between atoms: O21_21  and  C22_22 
REMARK    7  A    between atoms: C22_22  and  C23_23 
ROOT
ATOM      1  C12 ZIN A   1      18.763   1.568   9.757  0.00  0.00     0.035 A 
ATOM      2  C13 ZIN A   1      19.156   2.055   8.507  0.00  0.00     0.020 A 
ATOM      3  C14 ZIN A   1      19.124   1.228   7.405  0.00  0.00     0.041 A 
ATOM      4  C15 ZIN A   1      18.700  -0.087   7.532  0.00  0.00     0.108 A 
ATOM      5  C20 ZIN A   1      18.306  -0.580   8.776  0.00  0.00     0.103 A 
ATOM      6  C26 ZIN A   1      18.342   0.241   9.886  0.00  0.00     0.056 A 
ENDROOT
BRANCH   1   7
ATOM      7  C2  ZIN A   1      18.797   2.451  10.938  0.00  0.00     0.256 C 
ATOM      8  O1  ZIN A   1      19.714   3.236  11.085  0.00  0.00    -0.267 OA
ATOM      9  N3  ZIN A   1      17.808   2.393  11.852  0.00  0.00    -0.320 N 
ATOM     10  H27 ZIN A   1      17.042   1.819  11.701  0.00  0.00     0.169 HD
BRANCH   9  11
ATOM     11  C4  ZIN A   1      17.888   3.157  13.017  0.00  0.00     0.081 A 
ATOM     12  C10 ZIN A   1      17.323   4.432  13.077  0.00  0.00     0.080 A 
ATOM     13  C9  ZIN A   1      17.420   5.154  14.249  0.00  0.00     0.142 A 
ATOM     14 Cl11 ZIN A   1      16.498   5.093  11.700  0.00  0.00    -0.080 Cl
ATOM     15  N8  ZIN A   1      18.045   4.659  15.299  0.00  0.00    -0.270 NA
ATOM     16  C7  ZIN A   1      18.597   3.460  15.282  0.00  0.00     0.142 A 
ATOM     17  C5  ZIN A   1      18.540   2.671  14.150  0.00  0.00     0.080 A 
ATOM     18 Cl6  ZIN A   1      19.270   1.097  14.137  0.00  0.00    -0.080 Cl
ENDBRANCH   9  11
ENDBRANCH   1   7
BRANCH   5  19
ATOM     19  O21 ZIN A   1      17.893  -1.869   8.897  0.00  0.00    -0.348 OA
BRANCH  19  20
ATOM     20  C22 ZIN A   1      18.856  -2.818   9.360  0.00  0.00     0.180 C 
BRANCH  20  21
ATOM     21  C23 ZIN A   1      18.324  -3.515  10.614  0.00  0.00     0.010 A 
ATOM     22  C25 ZIN A   1      18.658  -2.885  11.968  0.00  0.00     0.007 A 
ATOM     23  C24 ZIN A   1      19.345  -4.183  11.538  0.00  0.00     0.007 A 
ENDBRANCH  20  21
ENDBRANCH  19  20
ENDBRANCH   5  19
BRANCH   4  24
ATOM     24  O16 ZIN A   1      18.670  -0.898   6.443  0.00  0.00    -0.287 OA
BRANCH  24  25
ATOM     25  C17 ZIN A   1      17.624  -0.672   5.496  0.00  0.00     0.505 C 
ATOM     26  F18 ZIN A   1      16.555  -0.027   6.125  0.00  0.00    -0.184 F 
ATOM     27  F19 ZIN A   1      18.104   0.129   4.453  0.00  0.00    -0.184 F 
ENDBRANCH  24  25
ENDBRANCH   4  24
TORSDOF 7
ENDMDL
MODEL 6
REMARK VINA RESULT:      -7.3      4.809      8.643
REMARK  7 active torsions:
REMARK  status: ('A' for Active; 'I' for Inactive)
REMARK       I    between atoms: C2_2  and  N3_3 
REMARK    1  A    between atoms: C2_2  and  C12_12 
REMARK    2  A    between atoms: N3_3  and  C4_4 
REMARK    3  A    between atoms: C15_15  and  O16_16 
REMARK    4  A    between atoms: O16_16  and  C17_17 
REMARK    5  A    between atoms: C20_20  and  O21_21 
REMARK    6  A    between atoms: O21_21  and  C22_22 
REMARK    7  A    between atoms: C22_22  and  C23_23 
ROOT
ATOM      1  C12 ZIN A   1      18.069   1.083   9.568  0.00  0.00     0.035 A 
ATOM      2  C13 ZIN A   1      18.463   2.407   9.351  0.00  0.00     0.020 A 
ATOM      3  C14 ZIN A   1      18.468   3.304  10.396  0.00  0.00     0.041 A 
ATOM      4  C15 ZIN A   1      18.084   2.898  11.666  0.00  0.00     0.108 A 
ATOM      5  C20 ZIN A   1      17.690   1.579  11.891  0.00  0.00     0.103 A 
ATOM      6  C26 ZIN A   1      17.677   0.675  10.846  0.00  0.00     0.056 A 
ENDROOT
BRANCH   1   7
ATOM      7  C2  ZIN A   1      18.064   0.121   8.451  0.00  0.00     0.256 C 
ATOM      8  O1  ZIN A   1      17.012  -0.203   7.932  0.00  0.00    -0.267 OA
ATOM      9  N3  ZIN A   1      19.224  -0.395   7.999  0.00  0.00    -0.320 N 
ATOM     10  H27 ZIN A   1      20.067  -0.085   8.364  0.00  0.00     0.169 HD
BRANCH   9  11
ATOM     11  C4  ZIN A   1      19.212  -1.378   7.008  0.00  0.00     0.081 A 
ATOM     12  C10 ZIN A   1      19.153  -2.731   7.342  0.00  0.00     0.080 A 
ATOM     13  C9  ZIN A   1      19.139  -3.671   6.332  0.00  0.00     0.142 A 
ATOM     14 Cl11 ZIN A   1      19.083  -3.224   9.006  0.00  0.00    -0.080 Cl
ATOM     15  N8  ZIN A   1      19.192  -3.306   5.066  0.00  0.00    -0.270 NA
ATOM     16  C7  ZIN A   1      19.255  -2.037   4.708  0.00  0.00     0.142 A 
ATOM     17  C5  ZIN A   1      19.267  -1.034   5.658  0.00  0.00     0.080 A 
ATOM     18 Cl6  ZIN A   1      19.350   0.632   5.176  0.00  0.00    -0.080 Cl
ENDBRANCH   9  11
ENDBRANCH   1   7
BRANCH   5  19
ATOM     19  O21 ZIN A   1      17.314   1.185  13.136  0.00  0.00    -0.348 OA
BRANCH  19  20
ATOM     20  C22 ZIN A   1      17.695  -0.131  13.543  0.00  0.00     0.180 C 
BRANCH  20  21
ATOM     21  C23 ZIN A   1      18.350  -0.069  14.925  0.00  0.00     0.010 A 
ATOM     22  C25 ZIN A   1      19.134  -1.297  15.392  0.00  0.00     0.007 A 
ATOM     23  C24 ZIN A   1      17.777  -0.972  16.020  0.00  0.00     0.007 A 
ENDBRANCH  20  21
ENDBRANCH  19  20
ENDBRANCH   5  19
BRANCH   4  24
ATOM     24  O16 ZIN A   1      18.090   3.786  12.693  0.00  0.00    -0.287 OA
BRANCH  24  25
ATOM     25  C17 ZIN A   1      17.517   5.071  12.442  0.00  0.00     0.505 C 
ATOM     26  F18 ZIN A   1      16.150   4.930  12.184  0.00  0.00    -0.184 F 
ATOM     27  F19 ZIN A   1      17.698   5.889  13.564  0.00  0.00    -0.184 F 
ENDBRANCH  24  25
ENDBRANCH   4  24
TORSDOF 7
ENDMDL
MODEL 7
REMARK VINA RESULT:      -7.3      4.188      7.695
REMARK  7 active torsions:
REMARK  status: ('A' for Active; 'I' for Inactive)
REMARK       I    between atoms: C2_2  and  N3_3 
REMARK    1  A    between atoms: C2_2  and  C12_12 
REMARK    2  A    between atoms: N3_3  and  C4_4 
REMARK    3  A    between atoms: C15_15  and  O16_16 
REMARK    4  A    between atoms: O16_16  and  C17_17 
REMARK    5  A    between atoms: C20_20  and  O21_21 
REMARK    6  A    between atoms: O21_21  and  C22_22 
REMARK    7  A    between atoms: C22_22  and  C23_23 
ROOT
ATOM      1  C12 ZIN A   1      19.439  -0.373  12.371  0.00  0.00     0.035 A 
ATOM      2  C13 ZIN A   1      19.218  -1.572  13.052  0.00  0.00     0.020 A 
ATOM      3  C14 ZIN A   1      19.035  -1.565  14.418  0.00  0.00     0.041 A 
ATOM      4  C15 ZIN A   1      19.068  -0.367  15.119  0.00  0.00     0.108 A 
ATOM      5  C20 ZIN A   1      19.288   0.834  14.446  0.00  0.00     0.103 A 
ATOM      6  C26 ZIN A   1      19.478   0.833  13.078  0.00  0.00     0.056 A 
ENDROOT
BRANCH   1   7
ATOM      7  C2  ZIN A   1      19.635  -0.379  10.909  0.00  0.00     0.256 C 
ATOM      8  O1  ZIN A   1      20.756  -0.461  10.445  0.00  0.00    -0.267 OA
ATOM      9  N3  ZIN A   1      18.570  -0.299  10.085  0.00  0.00    -0.320 N 
ATOM     10  H27 ZIN A   1      17.673  -0.304  10.451  0.00  0.00     0.169 HD
BRANCH   9  11
ATOM     11  C4  ZIN A   1      18.760  -0.207   8.706  0.00  0.00     0.081 A 
ATOM     12  C10 ZIN A   1      18.835  -1.355   7.915  0.00  0.00     0.080 A 
ATOM     13  C9  ZIN A   1      19.019  -1.221   6.554  0.00  0.00     0.142 A 
ATOM     14 Cl11 ZIN A   1      18.684  -2.928   8.634  0.00  0.00    -0.080 Cl
ATOM     15  N8  ZIN A   1      19.134  -0.029   6.001  0.00  0.00    -0.270 NA
ATOM     16  C7  ZIN A   1      19.075   1.080   6.713  0.00  0.00     0.142 A 
ATOM     17  C5  ZIN A   1      18.887   1.033   8.081  0.00  0.00     0.080 A 
ATOM     18 Cl6  ZIN A   1      18.811   2.498   9.009  0.00  0.00    -0.080 Cl
ENDBRANCH   9  11
ENDBRANCH   1   7
BRANCH   5  19
ATOM     19  O21 ZIN A   1      19.321   2.004  15.136  0.00  0.00    -0.348 OA
BRANCH  19  20
ATOM     20  C22 ZIN A   1      18.365   3.001  14.769  0.00  0.00     0.180 C 
BRANCH  20  21
ATOM     21  C23 ZIN A   1      19.094   4.231  14.223  0.00  0.00     0.010 A 
ATOM     22  C25 ZIN A   1      18.242   5.430  13.803  0.00  0.00     0.007 A 
ATOM     23  C24 ZIN A   1      18.914   4.560  12.739  0.00  0.00     0.007 A 
ENDBRANCH  20  21
ENDBRANCH  19  20
ENDBRANCH   5  19
BRANCH   4  24
ATOM     24  O16 ZIN A   1      18.887  -0.365  16.465  0.00  0.00    -0.287 OA
BRANCH  24  25
ATOM     25  C17 ZIN A   1      17.547  -0.512  16.940  0.00  0.00     0.505 C 
ATOM     26  F18 ZIN A   1      16.679   0.216  16.121  0.00  0.00    -0.184 F 
ATOM     27  F19 ZIN A   1      17.189  -1.865  16.912  0.00  0.00    -0.184 F 
ENDBRANCH  24  25
ENDBRANCH   4  24
TORSDOF 7
ENDMDL
MODEL 8
REMARK VINA RESULT:      -7.1      2.006      2.325
REMARK  7 active torsions:
REMARK  status: ('A' for Active; 'I' for Inactive)
REMARK       I    between atoms: C2_2  and  N3_3 
REMARK    1  A    between atoms: C2_2  and  C12_12 
REMARK    2  A    between atoms: N3_3  and  C4_4 
REMARK    3  A    between atoms: C15_15  and  O16_16 
REMARK    4  A    between atoms: O16_16  and  C17_17 
REMARK    5  A    between atoms: C20_20  and  O21_21 
REMARK    6  A    between atoms: O21_21  and  C22_22 
REMARK    7  A    between atoms: C22_22  and  C23_23 
ROOT
ATOM      1  C12 ZIN A   1      18.401  -0.511  13.487  0.00  0.00     0.035 A 
ATOM      2  C13 ZIN A   1      19.255  -1.612  13.589  0.00  0.00     0.020 A 
ATOM      3  C14 ZIN A   1      19.434  -2.448  12.509  0.00  0.00     0.041 A 
ATOM      4  C15 ZIN A   1      18.769  -2.199  11.317  0.00  0.00     0.108 A 
ATOM      5  C20 ZIN A   1      17.915  -1.102  11.207  0.00  0.00     0.103 A 
ATOM      6  C26 ZIN A   1      17.726  -0.263  12.288  0.00  0.00     0.056 A 
ENDROOT
BRANCH   1   7
ATOM      7  C2  ZIN A   1      18.208   0.385  14.642  0.00  0.00     0.256 C 
ATOM      8  O1  ZIN A   1      17.093   0.563  15.096  0.00  0.00    -0.267 OA
ATOM      9  N3  ZIN A   1      19.268   1.004  15.200  0.00  0.00    -0.320 N 
ATOM     10  H27 ZIN A   1      20.164   0.810  14.885  0.00  0.00     0.169 HD
BRANCH   9  11
ATOM     11  C4  ZIN A   1      19.075   1.926  16.230  0.00  0.00     0.081 A 
ATOM     12  C10 ZIN A   1      18.872   3.278  15.951  0.00  0.00     0.080 A 
ATOM     13  C9  ZIN A   1      18.682   4.157  16.998  0.00  0.00     0.142 A 
ATOM     14 Cl11 ZIN A   1      18.846   3.843  14.310  0.00  0.00    -0.080 Cl
ATOM     15  N8  ZIN A   1      18.701   3.736  18.248  0.00  0.00    -0.270 NA
ATOM     16  C7  ZIN A   1      18.895   2.467  18.554  0.00  0.00     0.142 A 
ATOM     17  C5  ZIN A   1      19.088   1.522  17.565  0.00  0.00     0.080 A 
ATOM     18 Cl6  ZIN A   1      19.344  -0.144  17.978  0.00  0.00    -0.080 Cl
ENDBRANCH   9  11
ENDBRANCH   1   7
BRANCH   5  19
ATOM     19  O21 ZIN A   1      17.264  -0.862  10.038  0.00  0.00    -0.348 OA
BRANCH  19  20
ATOM     20  C22 ZIN A   1      17.419   0.438   9.464  0.00  0.00     0.180 C 
BRANCH  20  21
ATOM     21  C23 ZIN A   1      18.766   0.521   8.743  0.00  0.00     0.010 A 
ATOM     22  C25 ZIN A   1      19.238   1.902   8.284  0.00  0.00     0.007 A 
ATOM     23  C24 ZIN A   1      18.751   0.879   7.255  0.00  0.00     0.007 A 
ENDBRANCH  20  21
ENDBRANCH  19  20
ENDBRANCH   5  19
BRANCH   4  24
ATOM     24  O16 ZIN A   1      18.948  -3.026  10.255  0.00  0.00    -0.287 OA
BRANCH  24  25
ATOM     25  C17 ZIN A   1      18.300  -4.299  10.307  0.00  0.00     0.505 C 
ATOM     26  F18 ZIN A   1      19.213  -5.270  10.732  0.00  0.00    -0.184 F 
ATOM     27  F19 ZIN A   1      17.229  -4.240  11.207  0.00  0.00    -0.184 F 
ENDBRANCH  24  25
ENDBRANCH   4  24
TORSDOF 7
ENDMDL
MODEL 9
REMARK VINA RESULT:      -7.1      4.619      7.435
REMARK  7 active torsions:
REMARK  status: ('A' for Active; 'I' for Inactive)
REMARK       I    between atoms: C2_2  and  N3_3 
REMARK    1  A    between atoms: C2_2  and  C12_12 
REMARK    2  A    between atoms: N3_3  and  C4_4 
REMARK    3  A    between atoms: C15_15  and  O16_16 
REMARK    4  A    between atoms: O16_16  and  C17_17 
REMARK    5  A    between atoms: C20_20  and  O21_21 
REMARK    6  A    between atoms: O21_21  and  C22_22 
REMARK    7  A    between atoms: C22_22  and  C23_23 
ROOT
ATOM      1  C12 ZIN A   1      18.360  -0.716  12.996  0.00  0.00     0.035 A 
ATOM      2  C13 ZIN A   1      18.516  -1.295  14.258  0.00  0.00     0.020 A 
ATOM      3  C14 ZIN A   1      18.724  -0.495  15.361  0.00  0.00     0.041 A 
ATOM      4  C15 ZIN A   1      18.777   0.884  15.222  0.00  0.00     0.108 A 
ATOM      5  C20 ZIN A   1      18.623   1.469  13.966  0.00  0.00     0.103 A 
ATOM      6  C26 ZIN A   1      18.420   0.673  12.855  0.00  0.00     0.056 A 
ENDROOT
BRANCH   1   7
ATOM      7  C2  ZIN A   1      18.138  -1.570  11.814  0.00  0.00     0.256 C 
ATOM      8  O1  ZIN A   1      17.086  -2.167  11.683  0.00  0.00    -0.267 OA
ATOM      9  N3  ZIN A   1      19.098  -1.684  10.874  0.00  0.00    -0.320 N 
ATOM     10  H27 ZIN A   1      19.908  -1.156  10.942  0.00  0.00     0.169 HD
BRANCH   9  11
ATOM     11  C4  ZIN A   1      18.928  -2.566   9.806  0.00  0.00     0.081 A 
ATOM     12  C10 ZIN A   1      18.392  -2.127   8.595  0.00  0.00     0.080 A 
ATOM     13  C9  ZIN A   1      18.243  -3.030   7.561  0.00  0.00     0.142 A 
ATOM     14 Cl11 ZIN A   1      17.930  -0.467   8.387  0.00  0.00    -0.080 Cl
ATOM     15  N8  ZIN A   1      18.591  -4.294   7.711  0.00  0.00    -0.270 NA
ATOM     16  C7  ZIN A   1      19.097  -4.749   8.841  0.00  0.00     0.142 A 
ATOM     17  C5  ZIN A   1      19.282  -3.909   9.922  0.00  0.00     0.080 A 
ATOM     18 Cl6  ZIN A   1      19.947  -4.519  11.405  0.00  0.00    -0.080 Cl
ENDBRANCH   9  11
ENDBRANCH   1   7
BRANCH   5  19
ATOM     19  O21 ZIN A   1      18.677   2.821  13.833  0.00  0.00    -0.348 OA
BRANCH  19  20
ATOM     20  C22 ZIN A   1      17.743   3.422  12.934  0.00  0.00     0.180 C 
BRANCH  20  21
ATOM     21  C23 ZIN A   1      18.500   4.101  11.790  0.00  0.00     0.010 A 
ATOM     22  C25 ZIN A   1      17.675   4.849  10.742  0.00  0.00     0.007 A 
ATOM     23  C24 ZIN A   1      18.334   3.514  10.387  0.00  0.00     0.007 A 
ENDBRANCH  20  21
ENDBRANCH  19  20
ENDBRANCH   5  19
BRANCH   4  24
ATOM     24  O16 ZIN A   1      18.982   1.668  16.312  0.00  0.00    -0.287 OA
BRANCH  24  25
ATOM     25  C17 ZIN A   1      18.799   1.059  17.592  0.00  0.00     0.505 C 
ATOM     26  F18 ZIN A   1      19.545   1.752  18.550  0.00  0.00    -0.184 F 
ATOM     27  F19 ZIN A   1      17.443   1.100  17.938  0.00  0.00    -0.184 F 
ENDBRANCH  24  25
ENDBRANCH   4  24
TORSDOF 7
ENDMDL
