MODEL 1
REMARK VINA RESULT:      -8.7      0.000      0.000
REMARK  12 active torsions:
REMARK  status: ('A' for Active; 'I' for Inactive)
REMARK    1  A    between atoms: C3_3  and  C4_4 
REMARK    2  A    between atoms: C4_4  and  C6_5 
REMARK    3  A    between atoms: C4_4  and  C19_18 
REMARK    4  A    between atoms: C6_5  and  C7_6 
REMARK    5  A    between atoms: C12_11  and  N13_12 
REMARK    6  A    between atoms: C15_14  and  N16_15 
REMARK    7  A    between atoms: C22_21  and  C23_22 
REMARK       I    between atoms: C23_22  and  N25_24 
REMARK    8  A    between atoms: N25_24  and  C26_25 
REMARK    9  A    between atoms: C26_25  and  C28_26 
REMARK   10  A    between atoms: C26_25  and  C33_31 
REMARK   11  A    between atoms: C28_26  and  C29_27 
REMARK   12  A    between atoms: C29_27  and  C30_28 
ROOT
ATOM      1  C1  <0> d   1      18.700  -0.173  18.267  0.00  0.00     0.012 C 
ATOM      2  C2  <0> d   1      18.747  -0.760  17.251  0.00  0.00    -0.117 C 
ATOM      3  C3  <0> d   1      18.807  -1.494  15.977  0.00  0.00     0.102 C 
ENDROOT
BRANCH   3   4
ATOM      4  C4  <0> d   1      18.456  -0.549  14.826  0.00  0.00     0.035 C 
BRANCH   4   5
ATOM      5  C6  <0> d   1      19.520   0.547  14.723  0.00  0.00     0.071 C 
BRANCH   5   6
ATOM      6  C7  <0> d   1      18.983   1.691  13.903  0.00  0.00     0.053 A 
ATOM      7  N18 <0> d   1      19.148   1.691  12.597  0.00  0.00    -0.244 NA
ATOM      8  C17 <0> d   1      18.670   2.699  11.877  0.00  0.00     0.151 A 
ATOM      9  C10 <0> d   1      17.996   3.771  12.514  0.00  0.00     0.201 A 
ATOM     10  C15 <0> d   1      18.817   2.755  10.420  0.00  0.00     0.173 A 
ATOM     11  N9  <0> d   1      17.844   3.754  13.840  0.00  0.00    -0.237 NA
ATOM     12  N11 <0> d   1      17.530   4.775  11.760  0.00  0.00    -0.041 NA
ATOM     13  C8  <0> d   1      18.322   2.743  14.536  0.00  0.00     0.146 A 
ATOM     14  C12 <0> d   1      17.690   4.775  10.453  0.00  0.00     0.724 A 
ATOM     15  N14 <0> d   1      18.310   3.804   9.789  0.00  0.00    -0.043 NA
BRANCH  14  16
ATOM     16  N13 <0> d   1      17.185   5.841   9.732  0.00  0.00    -0.231 N 
ATOM     17  H44 <0> d   1      17.308   6.747  10.056  0.00  0.00     0.174 HD
ATOM     18  H45 <0> d   1      16.707   5.683   8.902  0.00  0.00     0.174 HD
ENDBRANCH  14  16
BRANCH  10  19
ATOM     19  N16 <0> d   1      19.460   1.750   9.730  0.00  0.00    -0.381 N 
ATOM     20  H46 <0> d   1      19.716   0.935  10.189  0.00  0.00     0.157 HD
ATOM     21  H47 <0> d   1      19.657   1.858   8.787  0.00  0.00     0.157 HD
ENDBRANCH  10  19
ENDBRANCH   5   6
ENDBRANCH   4   5
BRANCH   4  22
ATOM     22  C19 <0> d   1      18.408  -1.325  13.536  0.00  0.00    -0.053 A 
ATOM     23  C37 <0> d   1      19.451  -2.170  13.199  0.00  0.00     0.008 A 
ATOM     24  C36 <0> d   1      19.409  -2.888  12.023  0.00  0.00     0.017 A 
ATOM     25  C22 <0> d   1      18.318  -2.753  11.164  0.00  0.00     0.032 A 
ATOM     26  C21 <0> d   1      17.271  -1.896  11.506  0.00  0.00     0.017 A 
ATOM     27  C20 <0> d   1      17.322  -1.187  12.689  0.00  0.00     0.008 A 
BRANCH  25  28
ATOM     28  C23 <0> d   1      18.269  -3.515   9.899  0.00  0.00     0.252 C 
ATOM     29  O24 <0> d   1      17.279  -4.161   9.615  0.00  0.00    -0.268 OA
ATOM     30  N25 <0> d   1      19.322  -3.492   9.057  0.00  0.00    -0.342 N 
ATOM     31  H50 <0> d   1      20.112  -2.976   9.283  0.00  0.00     0.163 HD
BRANCH  30  32
ATOM     32  C26 <0> d   1      19.274  -4.247   7.802  0.00  0.00     0.186 C 
BRANCH  32  33
ATOM     33  C28 <0> d   1      19.869  -3.401   6.676  0.00  0.00     0.046 C 
BRANCH  33  34
ATOM     34  C29 <0> d   1      18.804  -2.442   6.141  0.00  0.00     0.116 C 
BRANCH  34  35
ATOM     35  C30 <0> d   1      19.162  -1.028   6.523  0.00  0.00     0.172 C 
ATOM     36  O31 <0> d   1      19.212  -0.160   5.669  0.00  0.00    -0.648 OA
ATOM     37  O32 <0> d   1      19.401  -0.753   7.687  0.00  0.00    -0.648 OA
ENDBRANCH  34  35
ENDBRANCH  33  34
ENDBRANCH  32  33
BRANCH  32  38
ATOM     38  C33 <0> d   1      20.070  -5.519   7.950  0.00  0.00     0.196 C 
ATOM     39  O34 <0> d   1      19.739  -6.352   8.775  0.00  0.00    -0.646 OA
ATOM     40  O35 <0> d   1      21.044  -5.712   7.245  0.00  0.00    -0.646 OA
ENDBRANCH  32  38
ENDBRANCH  30  32
ENDBRANCH  25  28
ENDBRANCH   4  22
ENDBRANCH   3   4
TORSDOF 12
ENDMDL
MODEL 2
REMARK VINA RESULT:      -8.5      0.851      1.773
REMARK  12 active torsions:
REMARK  status: ('A' for Active; 'I' for Inactive)
REMARK    1  A    between atoms: C3_3  and  C4_4 
REMARK    2  A    between atoms: C4_4  and  C6_5 
REMARK    3  A    between atoms: C4_4  and  C19_18 
REMARK    4  A    between atoms: C6_5  and  C7_6 
REMARK    5  A    between atoms: C12_11  and  N13_12 
REMARK    6  A    between atoms: C15_14  and  N16_15 
REMARK    7  A    between atoms: C22_21  and  C23_22 
REMARK       I    between atoms: C23_22  and  N25_24 
REMARK    8  A    between atoms: N25_24  and  C26_25 
REMARK    9  A    between atoms: C26_25  and  C28_26 
REMARK   10  A    between atoms: C26_25  and  C33_31 
REMARK   11  A    between atoms: C28_26  and  C29_27 
REMARK   12  A    between atoms: C29_27  and  C30_28 
ROOT
ATOM      1  C1  <0> d   1      18.610  -0.052  18.151  0.00  0.00     0.012 C 
ATOM      2  C2  <0> d   1      18.703  -0.667  17.155  0.00  0.00    -0.117 C 
ATOM      3  C3  <0> d   1      18.820  -1.438  15.907  0.00  0.00     0.102 C 
ENDROOT
BRANCH   3   4
ATOM      4  C4  <0> d   1      18.534  -0.523  14.714  0.00  0.00     0.035 C 
BRANCH   4   5
ATOM      5  C6  <0> d   1      19.652   0.514  14.586  0.00  0.00     0.071 C 
BRANCH   5   6
ATOM      6  C7  <0> d   1      19.309   1.490  13.490  0.00  0.00     0.053 A 
ATOM      7  N18 <0> d   1      18.482   2.483  13.736  0.00  0.00    -0.244 NA
ATOM      8  C17 <0> d   1      18.185   3.343  12.769  0.00  0.00     0.151 A 
ATOM      9  C10 <0> d   1      18.751   3.186  11.479  0.00  0.00     0.201 A 
ATOM     10  C15 <0> d   1      17.275   4.472  12.982  0.00  0.00     0.173 A 
ATOM     11  N9  <0> d   1      19.584   2.168  11.249  0.00  0.00    -0.237 NA
ATOM     12  N11 <0> d   1      18.429   4.067  10.524  0.00  0.00    -0.041 NA
ATOM     13  C8  <0> d   1      19.868   1.328  12.223  0.00  0.00     0.146 A 
ATOM     14  C12 <0> d   1      17.604   5.064  10.769  0.00  0.00     0.724 A 
ATOM     15  N14 <0> d   1      17.037   5.274  11.954  0.00  0.00    -0.043 NA
BRANCH  14  16
ATOM     16  N13 <0> d   1      17.312   5.939   9.741  0.00  0.00    -0.231 N 
ATOM     17  H44 <0> d   1      16.463   6.409   9.730  0.00  0.00     0.174 HD
ATOM     18  H45 <0> d   1      17.955   6.084   9.029  0.00  0.00     0.174 HD
ENDBRANCH  14  16
BRANCH  10  19
ATOM     19  N16 <0> d   1      16.686   4.690  14.208  0.00  0.00    -0.381 N 
ATOM     20  H46 <0> d   1      17.218   4.633  15.017  0.00  0.00     0.157 HD
ATOM     21  H47 <0> d   1      15.741   4.901  14.262  0.00  0.00     0.157 HD
ENDBRANCH  10  19
ENDBRANCH   5   6
ENDBRANCH   4   5
BRANCH   4  22
ATOM     22  C19 <0> d   1      18.467  -1.347  13.454  0.00  0.00    -0.053 A 
ATOM     23  C37 <0> d   1      19.471  -2.257  13.170  0.00  0.00     0.008 A 
ATOM     24  C36 <0> d   1      19.412  -3.017  12.022  0.00  0.00     0.017 A 
ATOM     25  C22 <0> d   1      18.343  -2.861  11.138  0.00  0.00     0.032 A 
ATOM     26  C21 <0> d   1      17.337  -1.938  11.427  0.00  0.00     0.017 A 
ATOM     27  C20 <0> d   1      17.405  -1.186  12.582  0.00  0.00     0.008 A 
BRANCH  25  28
ATOM     28  C23 <0> d   1      18.276  -3.670   9.903  0.00  0.00     0.252 C 
ATOM     29  O24 <0> d   1      17.318  -4.389   9.698  0.00  0.00    -0.268 OA
ATOM     30  N25 <0> d   1      19.277  -3.607   9.001  0.00  0.00    -0.342 N 
ATOM     31  H50 <0> d   1      20.041  -3.033   9.165  0.00  0.00     0.163 HD
BRANCH  30  32
ATOM     32  C26 <0> d   1      19.211  -4.408   7.777  0.00  0.00     0.186 C 
BRANCH  32  33
ATOM     33  C28 <0> d   1      19.659  -3.557   6.587  0.00  0.00     0.046 C 
BRANCH  33  34
ATOM     34  C29 <0> d   1      19.482  -2.076   6.925  0.00  0.00     0.116 C 
BRANCH  34  35
ATOM     35  C30 <0> d   1      19.095  -1.318   5.680  0.00  0.00     0.172 C 
ATOM     36  O31 <0> d   1      17.951  -0.923   5.538  0.00  0.00    -0.648 OA
ATOM     37  O32 <0> d   1      19.926  -1.101   4.815  0.00  0.00    -0.648 OA
ENDBRANCH  34  35
ENDBRANCH  33  34
ENDBRANCH  32  33
BRANCH  32  38
ATOM     38  C33 <0> d   1      20.118  -5.604   7.909  0.00  0.00     0.196 C 
ATOM     39  O34 <0> d   1      21.182  -5.631   7.313  0.00  0.00    -0.646 OA
ATOM     40  O35 <0> d   1      19.789  -6.545   8.610  0.00  0.00    -0.646 OA
ENDBRANCH  32  38
ENDBRANCH  30  32
ENDBRANCH  25  28
ENDBRANCH   4  22
ENDBRANCH   3   4
TORSDOF 12
ENDMDL
MODEL 3
REMARK VINA RESULT:      -8.4      4.658      9.661
REMARK  12 active torsions:
REMARK  status: ('A' for Active; 'I' for Inactive)
REMARK    1  A    between atoms: C3_3  and  C4_4 
REMARK    2  A    between atoms: C4_4  and  C6_5 
REMARK    3  A    between atoms: C4_4  and  C19_18 
REMARK    4  A    between atoms: C6_5  and  C7_6 
REMARK    5  A    between atoms: C12_11  and  N13_12 
REMARK    6  A    between atoms: C15_14  and  N16_15 
REMARK    7  A    between atoms: C22_21  and  C23_22 
REMARK       I    between atoms: C23_22  and  N25_24 
REMARK    8  A    between atoms: N25_24  and  C26_25 
REMARK    9  A    between atoms: C26_25  and  C28_26 
REMARK   10  A    between atoms: C26_25  and  C33_31 
REMARK   11  A    between atoms: C28_26  and  C29_27 
REMARK   12  A    between atoms: C29_27  and  C30_28 
ROOT
ATOM      1  C1  <0> d   1      18.516   0.215   5.204  0.00  0.00     0.012 C 
ATOM      2  C2  <0> d   1      18.727   0.791   6.205  0.00  0.00    -0.117 C 
ATOM      3  C3  <0> d   1      18.994   1.513   7.459  0.00  0.00     0.102 C 
ENDROOT
BRANCH   3   4
ATOM      4  C4  <0> d   1      18.567   0.648   8.647  0.00  0.00     0.035 C 
BRANCH   4   5
ATOM      5  C6  <0> d   1      19.593  -0.467   8.861  0.00  0.00     0.071 C 
BRANCH   5   6
ATOM      6  C7  <0> d   1      18.915  -1.806   8.730  0.00  0.00     0.053 A 
ATOM      7  N18 <0> d   1      18.974  -2.457   7.587  0.00  0.00    -0.244 NA
ATOM      8  C17 <0> d   1      18.379  -3.639   7.475  0.00  0.00     0.151 A 
ATOM      9  C10 <0> d   1      17.679  -4.189   8.579  0.00  0.00     0.201 A 
ATOM     10  C15 <0> d   1      18.412  -4.414   6.232  0.00  0.00     0.173 A 
ATOM     11  N9  <0> d   1      17.628  -3.510   9.726  0.00  0.00    -0.237 NA
ATOM     12  N11 <0> d   1      17.086  -5.381   8.433  0.00  0.00    -0.041 NA
ATOM     13  C8  <0> d   1      18.227  -2.341   9.818  0.00  0.00     0.146 A 
ATOM     14  C12 <0> d   1      17.147  -6.036   7.291  0.00  0.00     0.724 A 
ATOM     15  N14 <0> d   1      17.785  -5.581   6.217  0.00  0.00    -0.043 NA
BRANCH  14  16
ATOM     16  N13 <0> d   1      16.514  -7.261   7.206  0.00  0.00    -0.231 N 
ATOM     17  H44 <0> d   1      16.962  -8.011   6.784  0.00  0.00     0.174 HD
ATOM     18  H45 <0> d   1      15.620  -7.372   7.567  0.00  0.00     0.174 HD
ENDBRANCH  14  16
BRANCH  10  19
ATOM     19  N16 <0> d   1      19.073  -3.944   5.118  0.00  0.00    -0.381 N 
ATOM     20  H46 <0> d   1      20.019  -4.121   5.006  0.00  0.00     0.157 HD
ATOM     21  H47 <0> d   1      18.591  -3.437   4.446  0.00  0.00     0.157 HD
ENDBRANCH  10  19
ENDBRANCH   5   6
ENDBRANCH   4   5
BRANCH   4  22
ATOM     22  C19 <0> d   1      18.485   1.500   9.887  0.00  0.00    -0.053 A 
ATOM     23  C37 <0> d   1      17.850   1.015  11.017  0.00  0.00     0.008 A 
ATOM     24  C36 <0> d   1      17.777   1.789  12.156  0.00  0.00     0.017 A 
ATOM     25  C22 <0> d   1      18.335   3.068  12.165  0.00  0.00     0.032 A 
ATOM     26  C21 <0> d   1      18.969   3.554  11.021  0.00  0.00     0.017 A 
ATOM     27  C20 <0> d   1      19.040   2.768   9.889  0.00  0.00     0.008 A 
BRANCH  25  28
ATOM     28  C23 <0> d   1      18.256   3.904  13.381  0.00  0.00     0.252 C 
ATOM     29  O24 <0> d   1      17.281   4.603  13.576  0.00  0.00    -0.268 OA
ATOM     30  N25 <0> d   1      19.265   3.891  14.276  0.00  0.00    -0.342 N 
ATOM     31  H50 <0> d   1      20.042   3.333  14.120  0.00  0.00     0.163 HD
BRANCH  30  32
ATOM     32  C26 <0> d   1      19.185   4.720  15.481  0.00  0.00     0.186 C 
BRANCH  32  33
ATOM     33  C28 <0> d   1      19.620   3.896  16.695  0.00  0.00     0.046 C 
BRANCH  33  34
ATOM     34  C29 <0> d   1      19.402   2.410  16.406  0.00  0.00     0.116 C 
BRANCH  34  35
ATOM     35  C30 <0> d   1      19.084   1.689  17.692  0.00  0.00     0.172 C 
ATOM     36  O31 <0> d   1      18.155   0.902  17.735  0.00  0.00    -0.648 OA
ATOM     37  O32 <0> d   1      19.757   1.895  18.688  0.00  0.00    -0.648 OA
ENDBRANCH  34  35
ENDBRANCH  33  34
ENDBRANCH  32  33
BRANCH  32  38
ATOM     38  C33 <0> d   1      20.095   5.912  15.331  0.00  0.00     0.196 C 
ATOM     39  O34 <0> d   1      19.656   6.963  14.896  0.00  0.00    -0.646 OA
ATOM     40  O35 <0> d   1      21.269   5.826  15.644  0.00  0.00    -0.646 OA
ENDBRANCH  32  38
ENDBRANCH  30  32
ENDBRANCH  25  28
ENDBRANCH   4  22
ENDBRANCH   3   4
TORSDOF 12
ENDMDL
MODEL 4
REMARK VINA RESULT:      -8.4      1.560      2.692
REMARK  12 active torsions:
REMARK  status: ('A' for Active; 'I' for Inactive)
REMARK    1  A    between atoms: C3_3  and  C4_4 
REMARK    2  A    between atoms: C4_4  and  C6_5 
REMARK    3  A    between atoms: C4_4  and  C19_18 
REMARK    4  A    between atoms: C6_5  and  C7_6 
REMARK    5  A    between atoms: C12_11  and  N13_12 
REMARK    6  A    between atoms: C15_14  and  N16_15 
REMARK    7  A    between atoms: C22_21  and  C23_22 
REMARK       I    between atoms: C23_22  and  N25_24 
REMARK    8  A    between atoms: N25_24  and  C26_25 
REMARK    9  A    between atoms: C26_25  and  C28_26 
REMARK   10  A    between atoms: C26_25  and  C33_31 
REMARK   11  A    between atoms: C28_26  and  C29_27 
REMARK   12  A    between atoms: C29_27  and  C30_28 
ROOT
ATOM      1  C1  <0> d   1      18.126   0.241  17.995  0.00  0.00     0.012 C 
ATOM      2  C2  <0> d   1      18.285  -0.391  17.019  0.00  0.00    -0.117 C 
ATOM      3  C3  <0> d   1      18.485  -1.183  15.795  0.00  0.00     0.102 C 
ENDROOT
BRANCH   3   4
ATOM      4  C4  <0> d   1      18.336  -0.277  14.570  0.00  0.00     0.035 C 
BRANCH   4   5
ATOM      5  C6  <0> d   1      19.516   0.695  14.508  0.00  0.00     0.071 C 
BRANCH   5   6
ATOM      6  C7  <0> d   1      19.002   2.096  14.298  0.00  0.00     0.053 A 
ATOM      7  N18 <0> d   1      18.584   2.798  15.331  0.00  0.00    -0.244 NA
ATOM      8  C17 <0> d   1      18.136   4.034  15.143  0.00  0.00     0.151 A 
ATOM      9  C10 <0> d   1      18.101   4.587  13.838  0.00  0.00     0.201 A 
ATOM     10  C15 <0> d   1      17.662   4.867  16.251  0.00  0.00     0.173 A 
ATOM     11  N9  <0> d   1      18.525   3.856  12.805  0.00  0.00    -0.237 NA
ATOM     12  N11 <0> d   1      17.639   5.834  13.682  0.00  0.00    -0.041 NA
ATOM     13  C8  <0> d   1      18.969   2.634  13.013  0.00  0.00     0.146 A 
ATOM     14  C12 <0> d   1      17.224   6.540  14.714  0.00  0.00     0.724 A 
ATOM     15  N14 <0> d   1      17.229   6.086  15.964  0.00  0.00    -0.043 NA
BRANCH  14  16
ATOM     16  N13 <0> d   1      16.759   7.821  14.486  0.00  0.00    -0.231 N 
ATOM     17  H44 <0> d   1      17.349   8.581  14.610  0.00  0.00     0.174 HD
ATOM     18  H45 <0> d   1      15.842   7.961  14.201  0.00  0.00     0.174 HD
ENDBRANCH  14  16
BRANCH  10  19
ATOM     19  N16 <0> d   1      17.665   4.398  17.547  0.00  0.00    -0.381 N 
ATOM     20  H46 <0> d   1      17.285   4.936  18.257  0.00  0.00     0.157 HD
ATOM     21  H47 <0> d   1      18.048   3.530  17.747  0.00  0.00     0.157 HD
ENDBRANCH  10  19
ENDBRANCH   5   6
ENDBRANCH   4   5
BRANCH   4  22
ATOM     22  C19 <0> d   1      18.312  -1.120  13.322  0.00  0.00    -0.053 A 
ATOM     23  C37 <0> d   1      19.244  -2.129  13.153  0.00  0.00     0.008 A 
ATOM     24  C36 <0> d   1      19.224  -2.908  12.015  0.00  0.00     0.017 A 
ATOM     25  C22 <0> d   1      18.268  -2.670  11.027  0.00  0.00     0.032 A 
ATOM     26  C21 <0> d   1      17.334  -1.648  11.200  0.00  0.00     0.017 A 
ATOM     27  C20 <0> d   1      17.362  -0.879  12.345  0.00  0.00     0.008 A 
BRANCH  25  28
ATOM     28  C23 <0> d   1      18.244  -3.498   9.802  0.00  0.00     0.252 C 
ATOM     29  O24 <0> d   1      17.239  -4.112   9.502  0.00  0.00    -0.268 OA
ATOM     30  N25 <0> d   1      19.337  -3.569   9.015  0.00  0.00    -0.342 N 
ATOM     31  H50 <0> d   1      20.139  -3.079   9.255  0.00  0.00     0.163 HD
BRANCH  30  32
ATOM     32  C26 <0> d   1      19.313  -4.389   7.801  0.00  0.00     0.186 C 
BRANCH  32  33
ATOM     33  C28 <0> d   1      19.873  -3.579   6.630  0.00  0.00     0.046 C 
BRANCH  33  34
ATOM     34  C29 <0> d   1      18.757  -2.730   6.018  0.00  0.00     0.116 C 
BRANCH  34  35
ATOM     35  C30 <0> d   1      19.299  -1.370   5.659  0.00  0.00     0.172 C 
ATOM     36  O31 <0> d   1      19.803  -1.184   4.565  0.00  0.00    -0.648 OA
ATOM     37  O32 <0> d   1      19.234  -0.456   6.463  0.00  0.00    -0.648 OA
ENDBRANCH  34  35
ENDBRANCH  33  34
ENDBRANCH  32  33
BRANCH  32  38
ATOM     38  C33 <0> d   1      20.157  -5.620   8.010  0.00  0.00     0.196 C 
ATOM     39  O34 <0> d   1      21.205  -5.751   7.401  0.00  0.00    -0.646 OA
ATOM     40  O35 <0> d   1      19.791  -6.485   8.786  0.00  0.00    -0.646 OA
ENDBRANCH  32  38
ENDBRANCH  30  32
ENDBRANCH  25  28
ENDBRANCH   4  22
ENDBRANCH   3   4
TORSDOF 12
ENDMDL
MODEL 5
REMARK VINA RESULT:      -8.4      1.536      2.219
REMARK  12 active torsions:
REMARK  status: ('A' for Active; 'I' for Inactive)
REMARK    1  A    between atoms: C3_3  and  C4_4 
REMARK    2  A    between atoms: C4_4  and  C6_5 
REMARK    3  A    between atoms: C4_4  and  C19_18 
REMARK    4  A    between atoms: C6_5  and  C7_6 
REMARK    5  A    between atoms: C12_11  and  N13_12 
REMARK    6  A    between atoms: C15_14  and  N16_15 
REMARK    7  A    between atoms: C22_21  and  C23_22 
REMARK       I    between atoms: C23_22  and  N25_24 
REMARK    8  A    between atoms: N25_24  and  C26_25 
REMARK    9  A    between atoms: C26_25  and  C28_26 
REMARK   10  A    between atoms: C26_25  and  C33_31 
REMARK   11  A    between atoms: C28_26  and  C29_27 
REMARK   12  A    between atoms: C29_27  and  C30_28 
ROOT
ATOM      1  C1  <0> d   1      16.651  -1.171  17.125  0.00  0.00     0.012 C 
ATOM      2  C2  <0> d   1      17.587  -1.065  16.425  0.00  0.00    -0.117 C 
ATOM      3  C3  <0> d   1      18.762  -0.933  15.547  0.00  0.00     0.102 C 
ENDROOT
BRANCH   3   4
ATOM      4  C4  <0> d   1      18.392  -0.092  14.323  0.00  0.00     0.035 C 
BRANCH   4   5
ATOM      5  C6  <0> d   1      19.438   1.007  14.124  0.00  0.00     0.071 C 
BRANCH   5   6
ATOM      6  C7  <0> d   1      18.842   2.341  14.496  0.00  0.00     0.053 A 
ATOM      7  N18 <0> d   1      18.202   3.045  13.586  0.00  0.00    -0.244 NA
ATOM      8  C17 <0> d   1      17.675   4.218  13.918  0.00  0.00     0.151 A 
ATOM      9  C10 <0> d   1      17.808   4.708  15.242  0.00  0.00     0.201 A 
ATOM     10  C15 <0> d   1      16.948   5.046  12.953  0.00  0.00     0.173 A 
ATOM     11  N9  <0> d   1      18.464   3.980  16.147  0.00  0.00    -0.237 NA
ATOM     12  N11 <0> d   1      17.268   5.896  15.544  0.00  0.00    -0.041 NA
ATOM     13  C8  <0> d   1      18.977   2.818  15.799  0.00  0.00     0.146 A 
ATOM     14  C12 <0> d   1      16.625   6.601  14.636  0.00  0.00     0.724 A 
ATOM     15  N14 <0> d   1      16.461   6.203  13.377  0.00  0.00    -0.043 NA
BRANCH  14  16
ATOM     16  N13 <0> d   1      16.091   7.819  15.011  0.00  0.00    -0.231 N 
ATOM     17  H44 <0> d   1      15.733   8.420  14.339  0.00  0.00     0.174 HD
ATOM     18  H45 <0> d   1      16.075   8.075  15.947  0.00  0.00     0.174 HD
ENDBRANCH  14  16
BRANCH  10  19
ATOM     19  N16 <0> d   1      16.778   4.636  11.648  0.00  0.00    -0.381 N 
ATOM     20  H46 <0> d   1      17.548   4.529  11.070  0.00  0.00     0.157 HD
ATOM     21  H47 <0> d   1      15.887   4.455  11.309  0.00  0.00     0.157 HD
ENDBRANCH  10  19
ENDBRANCH   5   6
ENDBRANCH   4   5
BRANCH   4  22
ATOM     22  C19 <0> d   1      18.351  -0.974  13.102  0.00  0.00    -0.053 A 
ATOM     23  C37 <0> d   1      19.206  -2.058  13.005  0.00  0.00     0.008 A 
ATOM     24  C36 <0> d   1      19.169  -2.871  11.892  0.00  0.00     0.017 A 
ATOM     25  C22 <0> d   1      18.275  -2.595  10.858  0.00  0.00     0.032 A 
ATOM     26  C21 <0> d   1      17.419  -1.497  10.958  0.00  0.00     0.017 A 
ATOM     27  C20 <0> d   1      17.463  -0.693  12.079  0.00  0.00     0.008 A 
BRANCH  25  28
ATOM     28  C23 <0> d   1      18.234  -3.460   9.660  0.00  0.00     0.252 C 
ATOM     29  O24 <0> d   1      17.252  -4.139   9.433  0.00  0.00    -0.268 OA
ATOM     30  N25 <0> d   1      19.286  -3.493   8.816  0.00  0.00    -0.342 N 
ATOM     31  H50 <0> d   1      20.069  -2.951   8.997  0.00  0.00     0.163 HD
BRANCH  30  32
ATOM     32  C26 <0> d   1      19.245  -4.351   7.629  0.00  0.00     0.186 C 
BRANCH  32  33
ATOM     33  C28 <0> d   1      19.795  -3.580   6.426  0.00  0.00     0.046 C 
BRANCH  33  34
ATOM     34  C29 <0> d   1      18.718  -2.634   5.892  0.00  0.00     0.116 C 
BRANCH  34  35
ATOM     35  C30 <0> d   1      19.315  -1.267   5.674  0.00  0.00     0.172 C 
ATOM     36  O31 <0> d   1      19.961  -1.038   4.666  0.00  0.00    -0.648 OA
ATOM     37  O32 <0> d   1      19.151  -0.390   6.505  0.00  0.00    -0.648 OA
ENDBRANCH  34  35
ENDBRANCH  33  34
ENDBRANCH  32  33
BRANCH  32  38
ATOM     38  C33 <0> d   1      20.086  -5.579   7.867  0.00  0.00     0.196 C 
ATOM     39  O34 <0> d   1      19.617  -6.532   8.464  0.00  0.00    -0.646 OA
ATOM     40  O35 <0> d   1      21.234  -5.618   7.462  0.00  0.00    -0.646 OA
ENDBRANCH  32  38
ENDBRANCH  30  32
ENDBRANCH  25  28
ENDBRANCH   4  22
ENDBRANCH   3   4
TORSDOF 12
ENDMDL
MODEL 6
REMARK VINA RESULT:      -8.2      2.675      5.694
REMARK  12 active torsions:
REMARK  status: ('A' for Active; 'I' for Inactive)
REMARK    1  A    between atoms: C3_3  and  C4_4 
REMARK    2  A    between atoms: C4_4  and  C6_5 
REMARK    3  A    between atoms: C4_4  and  C19_18 
REMARK    4  A    between atoms: C6_5  and  C7_6 
REMARK    5  A    between atoms: C12_11  and  N13_12 
REMARK    6  A    between atoms: C15_14  and  N16_15 
REMARK    7  A    between atoms: C22_21  and  C23_22 
REMARK       I    between atoms: C23_22  and  N25_24 
REMARK    8  A    between atoms: N25_24  and  C26_25 
REMARK    9  A    between atoms: C26_25  and  C28_26 
REMARK   10  A    between atoms: C26_25  and  C33_31 
REMARK   11  A    between atoms: C28_26  and  C29_27 
REMARK   12  A    between atoms: C29_27  and  C30_28 
ROOT
ATOM      1  C1  <0> d   1      17.631   4.521  10.772  0.00  0.00     0.012 C 
ATOM      2  C2  <0> d   1      18.177   3.742  10.084  0.00  0.00    -0.117 C 
ATOM      3  C3  <0> d   1      18.861   2.765   9.220  0.00  0.00     0.102 C 
ENDROOT
BRANCH   3   4
ATOM      4  C4  <0> d   1      18.743   1.369   9.836  0.00  0.00     0.035 C 
BRANCH   4   5
ATOM      5  C6  <0> d   1      17.440   1.271  10.633  0.00  0.00     0.071 C 
BRANCH   5   6
ATOM      6  C7  <0> d   1      17.734   0.739  12.012  0.00  0.00     0.053 A 
ATOM      7  N18 <0> d   1      18.213   1.547  12.934  0.00  0.00    -0.244 NA
ATOM      8  C17 <0> d   1      18.467   1.076  14.149  0.00  0.00     0.151 A 
ATOM      9  C10 <0> d   1      18.231  -0.290  14.446  0.00  0.00     0.201 A 
ATOM     10  C15 <0> d   1      18.996   1.926  15.220  0.00  0.00     0.173 A 
ATOM     11  N9  <0> d   1      17.750  -1.093  13.494  0.00  0.00    -0.237 NA
ATOM     12  N11 <0> d   1      18.502  -0.736  15.679  0.00  0.00    -0.041 NA
ATOM     13  C8  <0> d   1      17.502  -0.606  12.297  0.00  0.00     0.146 A 
ATOM     14  C12 <0> d   1      18.977   0.072  16.605  0.00  0.00     0.724 A 
ATOM     15  N14 <0> d   1      19.221   1.363  16.398  0.00  0.00    -0.043 NA
BRANCH  14  16
ATOM     16  N13 <0> d   1      19.235  -0.449  17.858  0.00  0.00    -0.231 N 
ATOM     17  H44 <0> d   1      18.503  -0.632  18.469  0.00  0.00     0.174 HD
ATOM     18  H45 <0> d   1      20.149  -0.634  18.129  0.00  0.00     0.174 HD
ENDBRANCH  14  16
BRANCH  10  19
ATOM     19  N16 <0> d   1      19.250   3.263  15.007  0.00  0.00    -0.381 N 
ATOM     20  H46 <0> d   1      19.038   3.911  15.696  0.00  0.00     0.157 HD
ATOM     21  H47 <0> d   1      19.641   3.555  14.169  0.00  0.00     0.157 HD
ENDBRANCH  10  19
ENDBRANCH   5   6
ENDBRANCH   4   5
BRANCH   4  22
ATOM     22  C19 <0> d   1      18.740   0.335   8.740  0.00  0.00    -0.053 A 
ATOM     23  C37 <0> d   1      19.260  -0.925   8.980  0.00  0.00     0.008 A 
ATOM     24  C36 <0> d   1      19.255  -1.877   7.983  0.00  0.00     0.017 A 
ATOM     25  C22 <0> d   1      18.735  -1.566   6.726  0.00  0.00     0.032 A 
ATOM     26  C21 <0> d   1      18.218  -0.291   6.488  0.00  0.00     0.017 A 
ATOM     27  C20 <0> d   1      18.224   0.652   7.496  0.00  0.00     0.008 A 
BRANCH  25  28
ATOM     28  C23 <0> d   1      18.731  -2.580   5.651  0.00  0.00     0.252 C 
ATOM     29  O24 <0> d   1      19.585  -2.553   4.786  0.00  0.00    -0.268 OA
ATOM     30  N25 <0> d   1      17.782  -3.537   5.630  0.00  0.00    -0.342 N 
ATOM     31  H50 <0> d   1      17.101  -3.559   6.320  0.00  0.00     0.163 HD
BRANCH  30  32
ATOM     32  C26 <0> d   1      17.779  -4.542   4.564  0.00  0.00     0.186 C 
BRANCH  32  33
ATOM     33  C28 <0> d   1      17.969  -5.932   5.176  0.00  0.00     0.046 C 
BRANCH  33  34
ATOM     34  C29 <0> d   1      17.641  -5.881   6.669  0.00  0.00     0.116 C 
BRANCH  34  35
ATOM     35  C30 <0> d   1      18.897  -6.116   7.468  0.00  0.00     0.172 C 
ATOM     36  O31 <0> d   1      18.879  -6.872   8.424  0.00  0.00    -0.648 OA
ATOM     37  O32 <0> d   1      19.932  -5.550   7.158  0.00  0.00    -0.648 OA
ENDBRANCH  34  35
ENDBRANCH  33  34
ENDBRANCH  32  33
BRANCH  32  38
ATOM     38  C33 <0> d   1      16.464  -4.492   3.830  0.00  0.00     0.196 C 
ATOM     39  O34 <0> d   1      15.931  -3.419   3.608  0.00  0.00    -0.646 OA
ATOM     40  O35 <0> d   1      15.934  -5.525   3.458  0.00  0.00    -0.646 OA
ENDBRANCH  32  38
ENDBRANCH  30  32
ENDBRANCH  25  28
ENDBRANCH   4  22
ENDBRANCH   3   4
TORSDOF 12
ENDMDL
MODEL 7
REMARK VINA RESULT:      -7.9      1.672      2.711
REMARK  12 active torsions:
REMARK  status: ('A' for Active; 'I' for Inactive)
REMARK    1  A    between atoms: C3_3  and  C4_4 
REMARK    2  A    between atoms: C4_4  and  C6_5 
REMARK    3  A    between atoms: C4_4  and  C19_18 
REMARK    4  A    between atoms: C6_5  and  C7_6 
REMARK    5  A    between atoms: C12_11  and  N13_12 
REMARK    6  A    between atoms: C15_14  and  N16_15 
REMARK    7  A    between atoms: C22_21  and  C23_22 
REMARK       I    between atoms: C23_22  and  N25_24 
REMARK    8  A    between atoms: N25_24  and  C26_25 
REMARK    9  A    between atoms: C26_25  and  C28_26 
REMARK   10  A    between atoms: C26_25  and  C33_31 
REMARK   11  A    between atoms: C28_26  and  C29_27 
REMARK   12  A    between atoms: C29_27  and  C30_28 
ROOT
ATOM      1  C1  <0> d   1      19.103  -0.265  17.711  0.00  0.00     0.012 C 
ATOM      2  C2  <0> d   1      18.896  -0.954  16.783  0.00  0.00    -0.117 C 
ATOM      3  C3  <0> d   1      18.638  -1.817  15.620  0.00  0.00     0.102 C 
ENDROOT
BRANCH   3   4
ATOM      4  C4  <0> d   1      18.499  -0.954  14.364  0.00  0.00     0.035 C 
BRANCH   4   5
ATOM      5  C6  <0> d   1      19.574   0.135  14.373  0.00  0.00     0.071 C 
BRANCH   5   6
ATOM      6  C7  <0> d   1      19.058   1.355  13.653  0.00  0.00     0.053 A 
ATOM      7  N18 <0> d   1      19.208   1.454  12.349  0.00  0.00    -0.244 NA
ATOM      8  C17 <0> d   1      18.748   2.528  11.717  0.00  0.00     0.151 A 
ATOM      9  C10 <0> d   1      18.109   3.562  12.446  0.00  0.00     0.201 A 
ATOM     10  C15 <0> d   1      18.881   2.695  10.268  0.00  0.00     0.173 A 
ATOM     11  N9  <0> d   1      17.972   3.444  13.768  0.00  0.00    -0.237 NA
ATOM     12  N11 <0> d   1      17.661   4.634  11.780  0.00  0.00    -0.041 NA
ATOM     13  C8  <0> d   1      18.431   2.369  14.376  0.00  0.00     0.146 A 
ATOM     14  C12 <0> d   1      17.806   4.734  10.475  0.00  0.00     0.724 A 
ATOM     15  N14 <0> d   1      18.394   3.804   9.729  0.00  0.00    -0.043 NA
BRANCH  14  16
ATOM     16  N13 <0> d   1      17.322   5.866   9.847  0.00  0.00    -0.231 N 
ATOM     17  H44 <0> d   1      16.402   5.894   9.539  0.00  0.00     0.174 HD
ATOM     18  H45 <0> d   1      17.901   6.633   9.714  0.00  0.00     0.174 HD
ENDBRANCH  14  16
BRANCH  10  19
ATOM     19  N16 <0> d   1      19.490   1.732   9.492  0.00  0.00    -0.381 N 
ATOM     20  H46 <0> d   1      20.390   1.441   9.702  0.00  0.00     0.157 HD
ATOM     21  H47 <0> d   1      19.018   1.347   8.738  0.00  0.00     0.157 HD
ENDBRANCH  10  19
ENDBRANCH   5   6
ENDBRANCH   4   5
BRANCH   4  22
ATOM     22  C19 <0> d   1      18.669  -1.817  13.140  0.00  0.00    -0.053 A 
ATOM     23  C37 <0> d   1      19.862  -2.487  12.929  0.00  0.00     0.008 A 
ATOM     24  C36 <0> d   1      20.021  -3.283  11.814  0.00  0.00     0.017 A 
ATOM     25  C22 <0> d   1      18.981  -3.404  10.892  0.00  0.00     0.032 A 
ATOM     26  C21 <0> d   1      17.782  -2.721  11.107  0.00  0.00     0.017 A 
ATOM     27  C20 <0> d   1      17.634  -1.932  12.230  0.00  0.00     0.008 A 
BRANCH  25  28
ATOM     28  C23 <0> d   1      19.146  -4.251   9.692  0.00  0.00     0.252 C 
ATOM     29  O24 <0> d   1      19.855  -5.237   9.736  0.00  0.00    -0.268 OA
ATOM     30  N25 <0> d   1      18.509  -3.930   8.547  0.00  0.00    -0.342 N 
ATOM     31  H50 <0> d   1      17.944  -3.143   8.512  0.00  0.00     0.163 HD
BRANCH  30  32
ATOM     32  C26 <0> d   1      18.674  -4.770   7.358  0.00  0.00     0.186 C 
BRANCH  32  33
ATOM     33  C28 <0> d   1      17.309  -5.313   6.926  0.00  0.00     0.046 C 
BRANCH  33  34
ATOM     34  C29 <0> d   1      17.054  -6.654   7.615  0.00  0.00     0.116 C 
BRANCH  34  35
ATOM     35  C30 <0> d   1      15.610  -6.732   8.043  0.00  0.00     0.172 C 
ATOM     36  O31 <0> d   1      15.047  -5.739   8.473  0.00  0.00    -0.648 OA
ATOM     37  O32 <0> d   1      15.005  -7.787   7.958  0.00  0.00    -0.648 OA
ENDBRANCH  34  35
ENDBRANCH  33  34
ENDBRANCH  32  33
BRANCH  32  38
ATOM     38  C33 <0> d   1      19.264  -3.949   6.241  0.00  0.00     0.196 C 
ATOM     39  O34 <0> d   1      18.843  -4.074   5.104  0.00  0.00    -0.646 OA
ATOM     40  O35 <0> d   1      20.163  -3.159   6.475  0.00  0.00    -0.646 OA
ENDBRANCH  32  38
ENDBRANCH  30  32
ENDBRANCH  25  28
ENDBRANCH   4  22
ENDBRANCH   3   4
TORSDOF 12
ENDMDL
MODEL 8
REMARK VINA RESULT:      -7.6      4.375      9.797
REMARK  12 active torsions:
REMARK  status: ('A' for Active; 'I' for Inactive)
REMARK    1  A    between atoms: C3_3  and  C4_4 
REMARK    2  A    between atoms: C4_4  and  C6_5 
REMARK    3  A    between atoms: C4_4  and  C19_18 
REMARK    4  A    between atoms: C6_5  and  C7_6 
REMARK    5  A    between atoms: C12_11  and  N13_12 
REMARK    6  A    between atoms: C15_14  and  N16_15 
REMARK    7  A    between atoms: C22_21  and  C23_22 
REMARK       I    between atoms: C23_22  and  N25_24 
REMARK    8  A    between atoms: N25_24  and  C26_25 
REMARK    9  A    between atoms: C26_25  and  C28_26 
REMARK   10  A    between atoms: C26_25  and  C33_31 
REMARK   11  A    between atoms: C28_26  and  C29_27 
REMARK   12  A    between atoms: C29_27  and  C30_28 
ROOT
ATOM      1  C1  <0> d   1      19.252   0.228   4.929  0.00  0.00     0.012 C 
ATOM      2  C2  <0> d   1      18.409   0.202   5.746  0.00  0.00    -0.117 C 
ATOM      3  C3  <0> d   1      17.353   0.169   6.770  0.00  0.00     0.102 C 
ENDROOT
BRANCH   3   4
ATOM      4  C4  <0> d   1      17.866  -0.567   8.009  0.00  0.00     0.035 C 
BRANCH   4   5
ATOM      5  C6  <0> d   1      19.155  -1.315   7.662  0.00  0.00     0.071 C 
BRANCH   5   6
ATOM      6  C7  <0> d   1      18.846  -2.774   7.445  0.00  0.00     0.053 A 
ATOM      7  N18 <0> d   1      18.123  -3.426   8.331  0.00  0.00    -0.244 NA
ATOM      8  C17 <0> d   1      17.849  -4.710   8.135  0.00  0.00     0.151 A 
ATOM      9  C10 <0> d   1      18.340  -5.374   6.983  0.00  0.00     0.201 A 
ATOM     10  C15 <0> d   1      17.046  -5.489   9.082  0.00  0.00     0.173 A 
ATOM     11  N9  <0> d   1      19.076  -4.696   6.100  0.00  0.00    -0.237 NA
ATOM     12  N11 <0> d   1      18.050  -6.671   6.817  0.00  0.00    -0.041 NA
ATOM     13  C8  <0> d   1      19.333  -3.422   6.311  0.00  0.00     0.146 A 
ATOM     14  C12 <0> d   1      17.323  -7.324   7.700  0.00  0.00     0.724 A 
ATOM     15  N14 <0> d   1      16.830  -6.766   8.801  0.00  0.00    -0.043 NA
BRANCH  14  16
ATOM     16  N13 <0> d   1      17.060  -8.661   7.470  0.00  0.00    -0.231 N 
ATOM     17  H44 <0> d   1      16.178  -9.020   7.653  0.00  0.00     0.174 HD
ATOM     18  H45 <0> d   1      17.757  -9.241   7.125  0.00  0.00     0.174 HD
ENDBRANCH  14  16
BRANCH  10  19
ATOM     19  N16 <0> d   1      16.534  -4.913  10.224  0.00  0.00    -0.381 N 
ATOM     20  H46 <0> d   1      17.053  -4.916  11.043  0.00  0.00     0.157 HD
ATOM     21  H47 <0> d   1      15.655  -4.504  10.209  0.00  0.00     0.157 HD
ENDBRANCH  10  19
ENDBRANCH   5   6
ENDBRANCH   4   5
BRANCH   4  22
ATOM     22  C19 <0> d   1      18.143   0.428   9.106  0.00  0.00    -0.053 A 
ATOM     23  C37 <0> d   1      18.872   1.571   8.832  0.00  0.00     0.008 A 
ATOM     24  C36 <0> d   1      19.124   2.488   9.831  0.00  0.00     0.017 A 
ATOM     25  C22 <0> d   1      18.650   2.257  11.123  0.00  0.00     0.032 A 
ATOM     26  C21 <0> d   1      17.920   1.100  11.395  0.00  0.00     0.017 A 
ATOM     27  C20 <0> d   1      17.670   0.192  10.385  0.00  0.00     0.008 A 
BRANCH  25  28
ATOM     28  C23 <0> d   1      18.921   3.233  12.199  0.00  0.00     0.252 C 
ATOM     29  O24 <0> d   1      19.472   4.286  11.941  0.00  0.00    -0.268 OA
ATOM     30  N25 <0> d   1      18.555   2.957  13.467  0.00  0.00    -0.342 N 
ATOM     31  H50 <0> d   1      18.115   2.118  13.672  0.00  0.00     0.163 HD
BRANCH  30  32
ATOM     32  C26 <0> d   1      18.823   3.925  14.534  0.00  0.00     0.186 C 
BRANCH  32  33
ATOM     33  C28 <0> d   1      17.564   4.755  14.796  0.00  0.00     0.046 C 
BRANCH  33  34
ATOM     34  C29 <0> d   1      17.791   6.190  14.318  0.00  0.00     0.116 C 
BRANCH  34  35
ATOM     35  C30 <0> d   1      18.935   6.801  15.087  0.00  0.00     0.172 C 
ATOM     36  O31 <0> d   1      20.019   6.952  14.549  0.00  0.00    -0.648 OA
ATOM     37  O32 <0> d   1      18.777   7.145  16.245  0.00  0.00    -0.648 OA
ENDBRANCH  34  35
ENDBRANCH  33  34
ENDBRANCH  32  33
BRANCH  32  38
ATOM     38  C33 <0> d   1      19.213   3.192  15.791  0.00  0.00     0.196 C 
ATOM     39  O34 <0> d   1      19.186   1.974  15.819  0.00  0.00    -0.646 OA
ATOM     40  O35 <0> d   1      19.554   3.817  16.780  0.00  0.00    -0.646 OA
ENDBRANCH  32  38
ENDBRANCH  30  32
ENDBRANCH  25  28
ENDBRANCH   4  22
ENDBRANCH   3   4
TORSDOF 12
ENDMDL
MODEL 9
REMARK VINA RESULT:      -7.6      2.350      3.576
REMARK  12 active torsions:
REMARK  status: ('A' for Active; 'I' for Inactive)
REMARK    1  A    between atoms: C3_3  and  C4_4 
REMARK    2  A    between atoms: C4_4  and  C6_5 
REMARK    3  A    between atoms: C4_4  and  C19_18 
REMARK    4  A    between atoms: C6_5  and  C7_6 
REMARK    5  A    between atoms: C12_11  and  N13_12 
REMARK    6  A    between atoms: C15_14  and  N16_15 
REMARK    7  A    between atoms: C22_21  and  C23_22 
REMARK       I    between atoms: C23_22  and  N25_24 
REMARK    8  A    between atoms: N25_24  and  C26_25 
REMARK    9  A    between atoms: C26_25  and  C28_26 
REMARK   10  A    between atoms: C26_25  and  C33_31 
REMARK   11  A    between atoms: C28_26  and  C29_27 
REMARK   12  A    between atoms: C29_27  and  C30_28 
ROOT
ATOM      1  C1  <0> d   1      19.248  -1.607  16.912  0.00  0.00     0.012 C 
ATOM      2  C2  <0> d   1      18.358  -0.978  16.476  0.00  0.00    -0.117 C 
ATOM      3  C3  <0> d   1      17.242  -0.191  15.927  0.00  0.00     0.102 C 
ENDROOT
BRANCH   3   4
ATOM      4  C4  <0> d   1      17.741   0.652  14.752  0.00  0.00     0.035 C 
BRANCH   4   5
ATOM      5  C6  <0> d   1      19.099   1.264  15.102  0.00  0.00     0.071 C 
BRANCH   5   6
ATOM      6  C7  <0> d   1      18.935   2.741  15.353  0.00  0.00     0.053 A 
ATOM      7  N18 <0> d   1      18.206   3.464  14.529  0.00  0.00    -0.244 NA
ATOM      8  C17 <0> d   1      18.059   4.765  14.755  0.00  0.00     0.151 A 
ATOM      9  C10 <0> d   1      18.693   5.368  15.871  0.00  0.00     0.201 A 
ATOM     10  C15 <0> d   1      17.257   5.622  13.879  0.00  0.00     0.173 A 
ATOM     11  N9  <0> d   1      19.432   4.617  16.690  0.00  0.00    -0.237 NA
ATOM     12  N11 <0> d   1      18.530   6.683  16.069  0.00  0.00    -0.041 NA
ATOM     13  C8  <0> d   1      19.561   3.329  16.451  0.00  0.00     0.146 A 
ATOM     14  C12 <0> d   1      17.797   7.408  15.248  0.00  0.00     0.724 A 
ATOM     15  N14 <0> d   1      17.175   6.909  14.184  0.00  0.00    -0.043 NA
BRANCH  14  16
ATOM     16  N13 <0> d   1      17.668   8.759  15.507  0.00  0.00    -0.231 N 
ATOM     17  H44 <0> d   1      17.697   9.398  14.778  0.00  0.00     0.174 HD
ATOM     18  H45 <0> d   1      17.550   9.070  16.419  0.00  0.00     0.174 HD
ENDBRANCH  14  16
BRANCH  10  19
ATOM     19  N16 <0> d   1      16.612   5.108  12.775  0.00  0.00    -0.381 N 
ATOM     20  H46 <0> d   1      15.644   5.114  12.734  0.00  0.00     0.157 HD
ATOM     21  H47 <0> d   1      17.127   4.740  12.040  0.00  0.00     0.157 HD
ENDBRANCH  10  19
ENDBRANCH   5   6
ENDBRANCH   4   5
BRANCH   4  22
ATOM     22  C19 <0> d   1      17.883  -0.221  13.532  0.00  0.00    -0.053 A 
ATOM     23  C37 <0> d   1      17.039  -0.037  12.450  0.00  0.00     0.008 A 
ATOM     24  C36 <0> d   1      17.168  -0.829  11.329  0.00  0.00     0.017 A 
ATOM     25  C22 <0> d   1      18.145  -1.824  11.289  0.00  0.00     0.032 A 
ATOM     26  C21 <0> d   1      18.990  -2.008  12.384  0.00  0.00     0.017 A 
ATOM     27  C20 <0> d   1      18.854  -1.206  13.499  0.00  0.00     0.008 A 
BRANCH  25  28
ATOM     28  C23 <0> d   1      18.285  -2.680  10.092  0.00  0.00     0.252 C 
ATOM     29  O24 <0> d   1      18.864  -2.261   9.109  0.00  0.00    -0.268 OA
ATOM     30  N25 <0> d   1      17.773  -3.927  10.091  0.00  0.00    -0.342 N 
ATOM     31  H50 <0> d   1      17.311  -4.261  10.876  0.00  0.00     0.163 HD
BRANCH  30  32
ATOM     32  C26 <0> d   1      17.912  -4.775   8.905  0.00  0.00     0.186 C 
BRANCH  32  33
ATOM     33  C28 <0> d   1      18.897  -5.908   9.202  0.00  0.00     0.046 C 
BRANCH  33  34
ATOM     34  C29 <0> d   1      20.263  -5.566   8.605  0.00  0.00     0.116 C 
BRANCH  34  35
ATOM     35  C30 <0> d   1      20.107  -5.260   7.137  0.00  0.00     0.172 C 
ATOM     36  O31 <0> d   1      19.655  -6.105   6.384  0.00  0.00    -0.648 OA
ATOM     37  O32 <0> d   1      20.433  -4.168   6.703  0.00  0.00    -0.648 OA
ENDBRANCH  34  35
ENDBRANCH  33  34
ENDBRANCH  32  33
BRANCH  32  38
ATOM     38  C33 <0> d   1      16.570  -5.358   8.544  0.00  0.00     0.196 C 
ATOM     39  O34 <0> d   1      16.396  -5.849   7.442  0.00  0.00    -0.646 OA
ATOM     40  O35 <0> d   1      15.659  -5.338   9.353  0.00  0.00    -0.646 OA
ENDBRANCH  32  38
ENDBRANCH  30  32
ENDBRANCH  25  28
ENDBRANCH   4  22
ENDBRANCH   3   4
TORSDOF 12
ENDMDL
