MODEL 1
REMARK VINA RESULT:      -7.8      0.000      0.000
REMARK  7 active torsions:
REMARK  status: ('A' for Active; 'I' for Inactive)
REMARK    1  A    between atoms: C5_5  and  C6_6 
REMARK    2  A    between atoms: C6_6  and  C7_7 
REMARK    3  A    between atoms: C7_7  and  C8_8 
REMARK    4  A    between atoms: C8_8  and  C10_9 
REMARK    5  A    between atoms: C8_8  and  S17_16 
REMARK    6  A    between atoms: C10_9  and  N11_10 
REMARK    7  A    between atoms: S17_16  and  C18_17 
ROOT
ATOM      1  C8  ZIN A   1      18.531   0.392   8.482  0.00  0.00     0.071 C 
ENDROOT
BRANCH   1   2
ATOM      2  C7  ZIN A   1      17.965   1.445   9.437  0.00  0.00     0.022 C 
BRANCH   2   3
ATOM      3  C6  ZIN A   1      18.987   2.570   9.621  0.00  0.00     0.040 C 
BRANCH   3   4
ATOM      4  C5  ZIN A   1      18.517   3.504  10.705  0.00  0.00    -0.058 A 
ATOM      5  C4  ZIN A   1      17.278   4.109  10.607  0.00  0.00     0.009 A 
ATOM      6  C3  ZIN A   1      16.848   4.967  11.600  0.00  0.00     0.024 A 
ATOM      7  C2  ZIN A   1      17.655   5.220  12.695  0.00  0.00     0.034 A 
ATOM      8 Cl1  ZIN A   1      17.114   6.297  13.945  0.00  0.00    -0.084 Cl
ATOM      9  C27 ZIN A   1      18.898   4.619  12.790  0.00  0.00     0.024 A 
ATOM     10  C26 ZIN A   1      19.326   3.757  11.798  0.00  0.00     0.009 A 
ENDBRANCH   3   4
ENDBRANCH   2   3
ENDBRANCH   1   2
BRANCH   1  11
ATOM     11  C10 ZIN A   1      18.949   1.064   7.172  0.00  0.00     0.144 C 
BRANCH  11  12
ATOM     12  N11 ZIN A   1      18.615   0.187   6.047  0.00  0.00    -0.351 N 
ATOM     13  C16 ZIN A   1      19.391  -0.065   4.971  0.00  0.00     0.182 A 
ATOM     14  N14 ZIN A   1      18.761  -0.894   4.185  0.00  0.00    -0.361 N 
ATOM     15  C13 ZIN A   1      17.568  -1.192   4.722  0.00  0.00     0.106 A 
ATOM     16  H15 ZIN A   1      19.099  -1.239   3.344  0.00  0.00     0.166 HD
ATOM     17  C12 ZIN A   1      17.458  -0.526   5.887  0.00  0.00     0.108 A 
ENDBRANCH  11  12
ENDBRANCH   1  11
BRANCH   1  18
ATOM     18  S17 ZIN A   1      19.974  -0.400   9.243  0.00  0.00    -0.120 SA
BRANCH  18  19
ATOM     19  C18 ZIN A   1      19.250  -1.605  10.306  0.00  0.00     0.044 A 
ATOM     20  C24 ZIN A   1      18.769  -2.798   9.781  0.00  0.00     0.052 A 
ATOM     21  C23 ZIN A   1      18.208  -3.743  10.619  0.00  0.00     0.025 A 
ATOM     22 Cl25 ZIN A   1      18.886  -3.108   8.077  0.00  0.00    -0.083 Cl
ATOM     23  C22 ZIN A   1      18.113  -3.497  11.977  0.00  0.00     0.003 A 
ATOM     24  C21 ZIN A   1      18.586  -2.309  12.503  0.00  0.00     0.025 A 
ATOM     25  C19 ZIN A   1      19.154  -1.361  11.672  0.00  0.00     0.052 A 
ATOM     26 Cl20 ZIN A   1      19.747   0.131  12.333  0.00  0.00    -0.083 Cl
ENDBRANCH  18  19
ENDBRANCH   1  18
TORSDOF 7
ENDMDL
MODEL 2
REMARK VINA RESULT:      -7.7      0.079      1.810
REMARK  7 active torsions:
REMARK  status: ('A' for Active; 'I' for Inactive)
REMARK    1  A    between atoms: C5_5  and  C6_6 
REMARK    2  A    between atoms: C6_6  and  C7_7 
REMARK    3  A    between atoms: C7_7  and  C8_8 
REMARK    4  A    between atoms: C8_8  and  C10_9 
REMARK    5  A    between atoms: C8_8  and  S17_16 
REMARK    6  A    between atoms: C10_9  and  N11_10 
REMARK    7  A    between atoms: S17_16  and  C18_17 
ROOT
ATOM      1  C8  ZIN A   1      18.505   0.371   8.448  0.00  0.00     0.071 C 
ENDROOT
BRANCH   1   2
ATOM      2  C7  ZIN A   1      17.960   1.435   9.403  0.00  0.00     0.022 C 
BRANCH   2   3
ATOM      3  C6  ZIN A   1      19.048   2.474   9.684  0.00  0.00     0.040 C 
BRANCH   3   4
ATOM      4  C5  ZIN A   1      18.564   3.436  10.737  0.00  0.00    -0.058 A 
ATOM      5  C4  ZIN A   1      17.324   4.034  10.610  0.00  0.00     0.009 A 
ATOM      6  C3  ZIN A   1      16.881   4.917  11.576  0.00  0.00     0.024 A 
ATOM      7  C2  ZIN A   1      17.677   5.204  12.670  0.00  0.00     0.034 A 
ATOM      8 Cl1  ZIN A   1      17.119   6.313  13.884  0.00  0.00    -0.084 Cl
ATOM      9  C27 ZIN A   1      18.921   4.610  12.794  0.00  0.00     0.024 A 
ATOM     10  C26 ZIN A   1      19.362   3.723  11.830  0.00  0.00     0.009 A 
ENDBRANCH   3   4
ENDBRANCH   2   3
ENDBRANCH   1   2
BRANCH   1  11
ATOM     11  C10 ZIN A   1      18.909   1.030   7.128  0.00  0.00     0.144 C 
BRANCH  11  12
ATOM     12  N11 ZIN A   1      18.609   0.122   6.018  0.00  0.00    -0.351 N 
ATOM     13  C16 ZIN A   1      19.440  -0.205   5.005  0.00  0.00     0.182 A 
ATOM     14  N14 ZIN A   1      18.825  -1.040   4.212  0.00  0.00    -0.361 N 
ATOM     15  C13 ZIN A   1      17.589  -1.267   4.682  0.00  0.00     0.106 A 
ATOM     16  H15 ZIN A   1      19.200  -1.432   3.408  0.00  0.00     0.166 HD
ATOM     17  C12 ZIN A   1      17.435  -0.550   5.812  0.00  0.00     0.108 A 
ENDBRANCH  11  12
ENDBRANCH   1  11
BRANCH   1  18
ATOM     18  S17 ZIN A   1      19.954  -0.426   9.195  0.00  0.00    -0.120 SA
BRANCH  18  19
ATOM     19  C18 ZIN A   1      19.237  -1.627  10.267  0.00  0.00     0.044 A 
ATOM     20  C24 ZIN A   1      19.182  -1.394  11.636  0.00  0.00     0.052 A 
ATOM     21  C23 ZIN A   1      18.613  -2.336  12.473  0.00  0.00     0.025 A 
ATOM     22 Cl25 ZIN A   1      19.814   0.083  12.293  0.00  0.00    -0.083 Cl
ATOM     23  C22 ZIN A   1      18.109  -3.514  11.951  0.00  0.00     0.003 A 
ATOM     24  C21 ZIN A   1      18.166  -3.751  10.589  0.00  0.00     0.025 A 
ATOM     25  C19 ZIN A   1      18.728  -2.812   9.745  0.00  0.00     0.052 A 
ATOM     26 Cl20 ZIN A   1      18.801  -3.111   8.037  0.00  0.00    -0.083 Cl
ENDBRANCH  18  19
ENDBRANCH   1  18
TORSDOF 7
ENDMDL
MODEL 3
REMARK VINA RESULT:      -7.7      4.058      8.460
REMARK  7 active torsions:
REMARK  status: ('A' for Active; 'I' for Inactive)
REMARK    1  A    between atoms: C5_5  and  C6_6 
REMARK    2  A    between atoms: C6_6  and  C7_7 
REMARK    3  A    between atoms: C7_7  and  C8_8 
REMARK    4  A    between atoms: C8_8  and  C10_9 
REMARK    5  A    between atoms: C8_8  and  S17_16 
REMARK    6  A    between atoms: C10_9  and  N11_10 
REMARK    7  A    between atoms: S17_16  and  C18_17 
ROOT
ATOM      1  C8  ZIN A   1      18.728  -0.532  13.592  0.00  0.00     0.071 C 
ENDROOT
BRANCH   1   2
ATOM      2  C7  ZIN A   1      18.177  -1.562  12.604  0.00  0.00     0.022 C 
BRANCH   2   3
ATOM      3  C6  ZIN A   1      19.239  -2.632  12.337  0.00  0.00     0.040 C 
BRANCH   3   4
ATOM      4  C5  ZIN A   1      18.649  -3.723  11.481  0.00  0.00    -0.058 A 
ATOM      5  C4  ZIN A   1      17.308  -4.038  11.591  0.00  0.00     0.009 A 
ATOM      6  C3  ZIN A   1      16.767  -5.039  10.807  0.00  0.00     0.024 A 
ATOM      7  C2  ZIN A   1      17.568  -5.727   9.912  0.00  0.00     0.034 A 
ATOM      8 Cl1  ZIN A   1      16.888  -6.984   8.926  0.00  0.00    -0.084 Cl
ATOM      9  C27 ZIN A   1      18.912  -5.415   9.808  0.00  0.00     0.024 A 
ATOM     10  C26 ZIN A   1      19.451  -4.411  10.588  0.00  0.00     0.009 A 
ENDBRANCH   3   4
ENDBRANCH   2   3
ENDBRANCH   1   2
BRANCH   1  11
ATOM     11  C10 ZIN A   1      19.160  -1.240  14.878  0.00  0.00     0.144 C 
BRANCH  11  12
ATOM     12  N11 ZIN A   1      18.541  -0.580  16.029  0.00  0.00    -0.351 N 
ATOM     13  C16 ZIN A   1      17.393   0.130  16.022  0.00  0.00     0.182 A 
ATOM     14  N14 ZIN A   1      17.159   0.561  17.232  0.00  0.00    -0.361 N 
ATOM     15  C13 ZIN A   1      18.145   0.151  18.045  0.00  0.00     0.106 A 
ATOM     16  H15 ZIN A   1      16.396   1.095  17.501  0.00  0.00     0.166 HD
ATOM     17  C12 ZIN A   1      19.019  -0.564  17.311  0.00  0.00     0.108 A 
ENDBRANCH  11  12
ENDBRANCH   1  11
BRANCH   1  18
ATOM     18  S17 ZIN A   1      20.156   0.310  12.855  0.00  0.00    -0.120 SA
BRANCH  18  19
ATOM     19  C18 ZIN A   1      19.410   1.454  11.742  0.00  0.00     0.044 A 
ATOM     20  C24 ZIN A   1      19.399   1.193  10.376  0.00  0.00     0.052 A 
ATOM     21  C23 ZIN A   1      18.807   2.090   9.508  0.00  0.00     0.025 A 
ATOM     22 Cl25 ZIN A   1      20.115  -0.266   9.765  0.00  0.00    -0.083 Cl
ATOM     23  C22 ZIN A   1      18.237   3.253   9.993  0.00  0.00     0.003 A 
ATOM     24  C21 ZIN A   1      18.250   3.519  11.351  0.00  0.00     0.025 A 
ATOM     25  C19 ZIN A   1      18.835   2.624  12.227  0.00  0.00     0.052 A 
ATOM     26 Cl20 ZIN A   1      18.852   2.960  13.930  0.00  0.00    -0.083 Cl
ENDBRANCH  18  19
ENDBRANCH   1  18
TORSDOF 7
ENDMDL
MODEL 4
REMARK VINA RESULT:      -7.7      4.059      8.635
REMARK  7 active torsions:
REMARK  status: ('A' for Active; 'I' for Inactive)
REMARK    1  A    between atoms: C5_5  and  C6_6 
REMARK    2  A    between atoms: C6_6  and  C7_7 
REMARK    3  A    between atoms: C7_7  and  C8_8 
REMARK    4  A    between atoms: C8_8  and  C10_9 
REMARK    5  A    between atoms: C8_8  and  S17_16 
REMARK    6  A    between atoms: C10_9  and  N11_10 
REMARK    7  A    between atoms: S17_16  and  C18_17 
ROOT
ATOM      1  C8  ZIN A   1      18.734  -0.523  13.585  0.00  0.00     0.071 C 
ENDROOT
BRANCH   1   2
ATOM      2  C7  ZIN A   1      18.180  -1.554  12.601  0.00  0.00     0.022 C 
BRANCH   2   3
ATOM      3  C6  ZIN A   1      19.241  -2.623  12.330  0.00  0.00     0.040 C 
BRANCH   3   4
ATOM      4  C5  ZIN A   1      18.650  -3.715  11.477  0.00  0.00    -0.058 A 
ATOM      5  C4  ZIN A   1      17.304  -4.014  11.573  0.00  0.00     0.009 A 
ATOM      6  C3  ZIN A   1      16.761  -5.016  10.792  0.00  0.00     0.024 A 
ATOM      7  C2  ZIN A   1      17.564  -5.720   9.912  0.00  0.00     0.034 A 
ATOM      8 Cl1  ZIN A   1      16.882  -6.978   8.929  0.00  0.00    -0.084 Cl
ATOM      9  C27 ZIN A   1      18.913  -5.424   9.821  0.00  0.00     0.024 A 
ATOM     10  C26 ZIN A   1      19.454  -4.419  10.599  0.00  0.00     0.009 A 
ENDBRANCH   3   4
ENDBRANCH   2   3
ENDBRANCH   1   2
BRANCH   1  11
ATOM     11  C10 ZIN A   1      19.173  -1.228  14.870  0.00  0.00     0.144 C 
BRANCH  11  12
ATOM     12  N11 ZIN A   1      18.548  -0.576  16.023  0.00  0.00    -0.351 N 
ATOM     13  C16 ZIN A   1      17.394   0.125  16.017  0.00  0.00     0.182 A 
ATOM     14  N14 ZIN A   1      17.156   0.551  17.228  0.00  0.00    -0.361 N 
ATOM     15  C13 ZIN A   1      18.145   0.148  18.040  0.00  0.00     0.106 A 
ATOM     16  H15 ZIN A   1      16.388   1.078  17.498  0.00  0.00     0.166 HD
ATOM     17  C12 ZIN A   1      19.025  -0.559  17.305  0.00  0.00     0.108 A 
ENDBRANCH  11  12
ENDBRANCH   1  11
BRANCH   1  18
ATOM     18  S17 ZIN A   1      20.158   0.320  12.841  0.00  0.00    -0.120 SA
BRANCH  18  19
ATOM     19  C18 ZIN A   1      19.406   1.470  11.739  0.00  0.00     0.044 A 
ATOM     20  C24 ZIN A   1      18.826   2.633  12.234  0.00  0.00     0.052 A 
ATOM     21  C23 ZIN A   1      18.243   3.536  11.366  0.00  0.00     0.025 A 
ATOM     22 Cl25 ZIN A   1      18.848   2.958  13.939  0.00  0.00    -0.083 Cl
ATOM     23  C22 ZIN A   1      18.223   3.278  10.006  0.00  0.00     0.003 A 
ATOM     24  C21 ZIN A   1      18.794   2.120   9.511  0.00  0.00     0.025 A 
ATOM     25  C19 ZIN A   1      19.385   1.215  10.372  0.00  0.00     0.052 A 
ATOM     26 Cl20 ZIN A   1      20.100  -0.239   9.748  0.00  0.00    -0.083 Cl
ENDBRANCH  18  19
ENDBRANCH   1  18
TORSDOF 7
ENDMDL
MODEL 5
REMARK VINA RESULT:      -7.6      3.494      5.909
REMARK  7 active torsions:
REMARK  status: ('A' for Active; 'I' for Inactive)
REMARK    1  A    between atoms: C5_5  and  C6_6 
REMARK    2  A    between atoms: C6_6  and  C7_7 
REMARK    3  A    between atoms: C7_7  and  C8_8 
REMARK    4  A    between atoms: C8_8  and  C10_9 
REMARK    5  A    between atoms: C8_8  and  S17_16 
REMARK    6  A    between atoms: C10_9  and  N11_10 
REMARK    7  A    between atoms: S17_16  and  C18_17 
ROOT
ATOM      1  C8  ZIN A   1      18.739  -1.692  11.804  0.00  0.00     0.071 C 
ENDROOT
BRANCH   1   2
ATOM      2  C7  ZIN A   1      19.358  -0.955  12.994  0.00  0.00     0.022 C 
BRANCH   2   3
ATOM      3  C6  ZIN A   1      18.840  -1.567  14.298  0.00  0.00     0.040 C 
BRANCH   3   4
ATOM      4  C5  ZIN A   1      18.933  -0.548  15.403  0.00  0.00    -0.058 A 
ATOM      5  C4  ZIN A   1      18.943  -0.959  16.723  0.00  0.00     0.009 A 
ATOM      6  C3  ZIN A   1      19.027  -0.025  17.737  0.00  0.00     0.024 A 
ATOM      7  C2  ZIN A   1      19.101   1.323  17.433  0.00  0.00     0.034 A 
ATOM      8 Cl1  ZIN A   1      19.208   2.497  18.708  0.00  0.00    -0.084 Cl
ATOM      9  C27 ZIN A   1      19.084   1.735  16.112  0.00  0.00     0.024 A 
ATOM     10  C26 ZIN A   1      19.006   0.799  15.098  0.00  0.00     0.009 A 
ENDBRANCH   3   4
ENDBRANCH   2   3
ENDBRANCH   1   2
BRANCH   1  11
ATOM     11  C10 ZIN A   1      18.306  -3.093  12.241  0.00  0.00     0.144 C 
BRANCH  11  12
ATOM     12  N11 ZIN A   1      18.599  -4.050  11.172  0.00  0.00    -0.351 N 
ATOM     13  C16 ZIN A   1      19.821  -4.363  10.692  0.00  0.00     0.182 A 
ATOM     14  N14 ZIN A   1      19.684  -5.255   9.748  0.00  0.00    -0.361 N 
ATOM     15  C13 ZIN A   1      18.381  -5.533   9.589  0.00  0.00     0.106 A 
ATOM     16  H15 ZIN A   1      20.408  -5.652   9.240  0.00  0.00     0.166 HD
ATOM     17  C12 ZIN A   1      17.686  -4.790  10.472  0.00  0.00     0.108 A 
ENDBRANCH  11  12
ENDBRANCH   1  11
BRANCH   1  18
ATOM     18  S17 ZIN A   1      17.296  -0.770  11.205  0.00  0.00    -0.120 SA
BRANCH  18  19
ATOM     19  C18 ZIN A   1      17.992   0.325  10.014  0.00  0.00     0.044 A 
ATOM     20  C24 ZIN A   1      18.216   1.658  10.340  0.00  0.00     0.052 A 
ATOM     21  C23 ZIN A   1      18.768   2.513   9.405  0.00  0.00     0.025 A 
ATOM     22 Cl25 ZIN A   1      17.817   2.245  11.924  0.00  0.00    -0.083 Cl
ATOM     23  C22 ZIN A   1      19.086   2.047   8.141  0.00  0.00     0.003 A 
ATOM     24  C21 ZIN A   1      18.860   0.723   7.812  0.00  0.00     0.025 A 
ATOM     25  C19 ZIN A   1      18.314  -0.140   8.744  0.00  0.00     0.052 A 
ATOM     26 Cl20 ZIN A   1      18.029  -1.801   8.328  0.00  0.00    -0.083 Cl
ENDBRANCH  18  19
ENDBRANCH   1  18
TORSDOF 7
ENDMDL
MODEL 6
REMARK VINA RESULT:      -7.6      3.816      7.856
REMARK  7 active torsions:
REMARK  status: ('A' for Active; 'I' for Inactive)
REMARK    1  A    between atoms: C5_5  and  C6_6 
REMARK    2  A    between atoms: C6_6  and  C7_7 
REMARK    3  A    between atoms: C7_7  and  C8_8 
REMARK    4  A    between atoms: C8_8  and  C10_9 
REMARK    5  A    between atoms: C8_8  and  S17_16 
REMARK    6  A    between atoms: C10_9  and  N11_10 
REMARK    7  A    between atoms: S17_16  and  C18_17 
ROOT
ATOM      1  C8  ZIN A   1      18.794   1.388  12.643  0.00  0.00     0.071 C 
ENDROOT
BRANCH   1   2
ATOM      2  C7  ZIN A   1      18.856   0.599  11.334  0.00  0.00     0.022 C 
BRANCH   2   3
ATOM      3  C6  ZIN A   1      17.612   0.902  10.497  0.00  0.00     0.040 C 
BRANCH   3   4
ATOM      4  C5  ZIN A   1      17.937   0.738   9.035  0.00  0.00    -0.058 A 
ATOM      5  C4  ZIN A   1      18.892   1.544   8.445  0.00  0.00     0.009 A 
ATOM      6  C3  ZIN A   1      19.190   1.396   7.104  0.00  0.00     0.024 A 
ATOM      7  C2  ZIN A   1      18.533   0.439   6.351  0.00  0.00     0.034 A 
ATOM      8 Cl1  ZIN A   1      18.907   0.250   4.666  0.00  0.00    -0.084 Cl
ATOM      9  C27 ZIN A   1      17.572  -0.364   6.940  0.00  0.00     0.024 A 
ATOM     10  C26 ZIN A   1      17.278  -0.218   8.283  0.00  0.00     0.009 A 
ENDBRANCH   3   4
ENDBRANCH   2   3
ENDBRANCH   1   2
BRANCH   1  11
ATOM     11  C10 ZIN A   1      19.608   0.661  13.716  0.00  0.00     0.144 C 
BRANCH  11  12
ATOM     12  N11 ZIN A   1      18.714   0.203  14.781  0.00  0.00    -0.351 N 
ATOM     13  C16 ZIN A   1      17.525   0.748  15.117  0.00  0.00     0.182 A 
ATOM     14  N14 ZIN A   1      17.018   0.069  16.109  0.00  0.00    -0.361 N 
ATOM     15  C13 ZIN A   1      17.861  -0.919  16.444  0.00  0.00     0.106 A 
ATOM     16  H15 ZIN A   1      16.168   0.251  16.539  0.00  0.00     0.166 HD
ATOM     17  C12 ZIN A   1      18.927  -0.853  15.625  0.00  0.00     0.108 A 
ENDBRANCH  11  12
ENDBRANCH   1  11
BRANCH   1  18
ATOM     18  S17 ZIN A   1      19.481   3.046  12.383  0.00  0.00    -0.120 SA
BRANCH  18  19
ATOM     19  C18 ZIN A   1      18.193   4.103  12.957  0.00  0.00     0.044 A 
ATOM     20  C24 ZIN A   1      18.081   4.393  14.312  0.00  0.00     0.052 A 
ATOM     21  C23 ZIN A   1      17.073   5.227  14.757  0.00  0.00     0.025 A 
ATOM     22 Cl25 ZIN A   1      19.215   3.721  15.441  0.00  0.00    -0.083 Cl
ATOM     23  C22 ZIN A   1      16.168   5.763  13.858  0.00  0.00     0.003 A 
ATOM     24  C21 ZIN A   1      16.273   5.472  12.510  0.00  0.00     0.025 A 
ATOM     25  C19 ZIN A   1      17.282   4.644  12.056  0.00  0.00     0.052 A 
ATOM     26 Cl20 ZIN A   1      17.411   4.279  10.364  0.00  0.00    -0.083 Cl
ENDBRANCH  18  19
ENDBRANCH   1  18
TORSDOF 7
ENDMDL
MODEL 7
REMARK VINA RESULT:      -7.6      3.495      5.600
REMARK  7 active torsions:
REMARK  status: ('A' for Active; 'I' for Inactive)
REMARK    1  A    between atoms: C5_5  and  C6_6 
REMARK    2  A    between atoms: C6_6  and  C7_7 
REMARK    3  A    between atoms: C7_7  and  C8_8 
REMARK    4  A    between atoms: C8_8  and  C10_9 
REMARK    5  A    between atoms: C8_8  and  S17_16 
REMARK    6  A    between atoms: C10_9  and  N11_10 
REMARK    7  A    between atoms: S17_16  and  C18_17 
ROOT
ATOM      1  C8  ZIN A   1      18.743  -1.706  11.810  0.00  0.00     0.071 C 
ENDROOT
BRANCH   1   2
ATOM      2  C7  ZIN A   1      19.343  -0.951  12.998  0.00  0.00     0.022 C 
BRANCH   2   3
ATOM      3  C6  ZIN A   1      18.816  -1.551  14.303  0.00  0.00     0.040 C 
BRANCH   3   4
ATOM      4  C5  ZIN A   1      18.914  -0.528  15.404  0.00  0.00    -0.058 A 
ATOM      5  C4  ZIN A   1      18.987   0.817  15.092  0.00  0.00     0.009 A 
ATOM      6  C3  ZIN A   1      19.077   1.757  16.101  0.00  0.00     0.024 A 
ATOM      7  C2  ZIN A   1      19.095   1.352  17.424  0.00  0.00     0.034 A 
ATOM      8 Cl1  ZIN A   1      19.207   2.533  18.692  0.00  0.00    -0.084 Cl
ATOM      9  C27 ZIN A   1      19.028   0.005  17.736  0.00  0.00     0.024 A 
ATOM     10  C26 ZIN A   1      18.932  -0.933  16.726  0.00  0.00     0.009 A 
ENDBRANCH   3   4
ENDBRANCH   2   3
ENDBRANCH   1   2
BRANCH   1  11
ATOM     11  C10 ZIN A   1      18.317  -3.105  12.258  0.00  0.00     0.144 C 
BRANCH  11  12
ATOM     12  N11 ZIN A   1      18.598  -4.066  11.189  0.00  0.00    -0.351 N 
ATOM     13  C16 ZIN A   1      19.813  -4.364  10.680  0.00  0.00     0.182 A 
ATOM     14  N14 ZIN A   1      19.666  -5.265   9.747  0.00  0.00    -0.361 N 
ATOM     15  C13 ZIN A   1      18.364  -5.565   9.623  0.00  0.00     0.106 A 
ATOM     16  H15 ZIN A   1      20.384  -5.654   9.223  0.00  0.00     0.166 HD
ATOM     17  C12 ZIN A   1      17.680  -4.826  10.517  0.00  0.00     0.108 A 
ENDBRANCH  11  12
ENDBRANCH   1  11
BRANCH   1  18
ATOM     18  S17 ZIN A   1      17.297  -0.803  11.188  0.00  0.00    -0.120 SA
BRANCH  18  19
ATOM     19  C18 ZIN A   1      18.000   0.310  10.016  0.00  0.00     0.044 A 
ATOM     20  C24 ZIN A   1      18.374  -0.147   8.758  0.00  0.00     0.052 A 
ATOM     21  C23 ZIN A   1      18.918   0.731   7.840  0.00  0.00     0.025 A 
ATOM     22 Cl25 ZIN A   1      18.143  -1.815   8.335  0.00  0.00    -0.083 Cl
ATOM     23  C22 ZIN A   1      19.103   2.060   8.176  0.00  0.00     0.003 A 
ATOM     24  C21 ZIN A   1      18.738   2.517   9.429  0.00  0.00     0.025 A 
ATOM     25  C19 ZIN A   1      18.186   1.647  10.351  0.00  0.00     0.052 A 
ATOM     26 Cl20 ZIN A   1      17.729   2.222  11.923  0.00  0.00    -0.083 Cl
ENDBRANCH  18  19
ENDBRANCH   1  18
TORSDOF 7
ENDMDL
MODEL 8
REMARK VINA RESULT:      -7.6      3.769      7.612
REMARK  7 active torsions:
REMARK  status: ('A' for Active; 'I' for Inactive)
REMARK    1  A    between atoms: C5_5  and  C6_6 
REMARK    2  A    between atoms: C6_6  and  C7_7 
REMARK    3  A    between atoms: C7_7  and  C8_8 
REMARK    4  A    between atoms: C8_8  and  C10_9 
REMARK    5  A    between atoms: C8_8  and  S17_16 
REMARK    6  A    between atoms: C10_9  and  N11_10 
REMARK    7  A    between atoms: S17_16  and  C18_17 
ROOT
ATOM      1  C8  ZIN A   1      18.933   1.439  12.423  0.00  0.00     0.071 C 
ENDROOT
BRANCH   1   2
ATOM      2  C7  ZIN A   1      19.035   0.705  11.085  0.00  0.00     0.022 C 
BRANCH   2   3
ATOM      3  C6  ZIN A   1      17.709   0.831  10.331  0.00  0.00     0.040 C 
BRANCH   3   4
ATOM      4  C5  ZIN A   1      17.952   0.669   8.853  0.00  0.00    -0.058 A 
ATOM      5  C4  ZIN A   1      17.208  -0.241   8.126  0.00  0.00     0.009 A 
ATOM      6  C3  ZIN A   1      17.431  -0.391   6.771  0.00  0.00     0.024 A 
ATOM      7  C2  ZIN A   1      18.399   0.371   6.141  0.00  0.00     0.034 A 
ATOM      8 Cl1  ZIN A   1      18.679   0.184   4.437  0.00  0.00    -0.084 Cl
ATOM      9  C27 ZIN A   1      19.148   1.278   6.870  0.00  0.00     0.024 A 
ATOM     10  C26 ZIN A   1      18.921   1.430   8.225  0.00  0.00     0.009 A 
ENDBRANCH   3   4
ENDBRANCH   2   3
ENDBRANCH   1   2
BRANCH   1  11
ATOM     11  C10 ZIN A   1      19.717   0.669  13.488  0.00  0.00     0.144 C 
BRANCH  11  12
ATOM     12  N11 ZIN A   1      18.800   0.220  14.539  0.00  0.00    -0.351 N 
ATOM     13  C16 ZIN A   1      17.639   0.811  14.893  0.00  0.00     0.182 A 
ATOM     14  N14 ZIN A   1      17.100   0.125  15.864  0.00  0.00    -0.361 N 
ATOM     15  C13 ZIN A   1      17.894  -0.914  16.165  0.00  0.00     0.106 A 
ATOM     16  H15 ZIN A   1      16.259   0.334  16.300  0.00  0.00     0.166 HD
ATOM     17  C12 ZIN A   1      18.962  -0.872  15.347  0.00  0.00     0.108 A 
ENDBRANCH  11  12
ENDBRANCH   1  11
BRANCH   1  18
ATOM     18  S17 ZIN A   1      19.624   3.107  12.251  0.00  0.00    -0.120 SA
BRANCH  18  19
ATOM     19  C18 ZIN A   1      18.289   4.142  12.751  0.00  0.00     0.044 A 
ATOM     20  C24 ZIN A   1      17.421   4.669  11.801  0.00  0.00     0.052 A 
ATOM     21  C23 ZIN A   1      16.371   5.474  12.198  0.00  0.00     0.025 A 
ATOM     22 Cl25 ZIN A   1      17.647   4.301  10.120  0.00  0.00    -0.083 Cl
ATOM     23  C22 ZIN A   1      16.190   5.769  13.538  0.00  0.00     0.003 A 
ATOM     24  C21 ZIN A   1      17.054   5.251  14.486  0.00  0.00     0.025 A 
ATOM     25  C19 ZIN A   1      18.103   4.439  14.097  0.00  0.00     0.052 A 
ATOM     26 Cl20 ZIN A   1      19.188   3.792  15.288  0.00  0.00    -0.083 Cl
ENDBRANCH  18  19
ENDBRANCH   1  18
TORSDOF 7
ENDMDL
MODEL 9
REMARK VINA RESULT:      -7.1      3.867      7.379
REMARK  7 active torsions:
REMARK  status: ('A' for Active; 'I' for Inactive)
REMARK    1  A    between atoms: C5_5  and  C6_6 
REMARK    2  A    between atoms: C6_6  and  C7_7 
REMARK    3  A    between atoms: C7_7  and  C8_8 
REMARK    4  A    between atoms: C8_8  and  C10_9 
REMARK    5  A    between atoms: C8_8  and  S17_16 
REMARK    6  A    between atoms: C10_9  and  N11_10 
REMARK    7  A    between atoms: S17_16  and  C18_17 
ROOT
ATOM      1  C8  ZIN A   1      19.177   2.854  12.744  0.00  0.00     0.071 C 
ENDROOT
BRANCH   1   2
ATOM      2  C7  ZIN A   1      19.768   2.046  11.587  0.00  0.00     0.022 C 
BRANCH   2   3
ATOM      3  C6  ZIN A   1      19.270   2.620  10.258  0.00  0.00     0.040 C 
BRANCH   3   4
ATOM      4  C5  ZIN A   1      19.231   1.527   9.221  0.00  0.00    -0.058 A 
ATOM      5  C4  ZIN A   1      19.473   0.217   9.589  0.00  0.00     0.009 A 
ATOM      6  C3  ZIN A   1      19.437  -0.785   8.639  0.00  0.00     0.024 A 
ATOM      7  C2  ZIN A   1      19.159  -0.479   7.319  0.00  0.00     0.034 A 
ATOM      8 Cl1  ZIN A   1      19.113  -1.738   6.125  0.00  0.00    -0.084 Cl
ATOM      9  C27 ZIN A   1      18.923   0.834   6.950  0.00  0.00     0.024 A 
ATOM     10  C26 ZIN A   1      18.954   1.835   7.902  0.00  0.00     0.009 A 
ENDBRANCH   3   4
ENDBRANCH   2   3
ENDBRANCH   1   2
BRANCH   1  11
ATOM     11  C10 ZIN A   1      18.931   4.294  12.287  0.00  0.00     0.144 C 
BRANCH  11  12
ATOM     12  N11 ZIN A   1      18.944   5.183  13.450  0.00  0.00    -0.351 N 
ATOM     13  C16 ZIN A   1      17.876   5.806  13.994  0.00  0.00     0.182 A 
ATOM     14  N14 ZIN A   1      18.277   6.510  15.017  0.00  0.00    -0.361 N 
ATOM     15  C13 ZIN A   1      19.604   6.369  15.157  0.00  0.00     0.106 A 
ATOM     16  H15 ZIN A   1      17.708   7.051  15.586  0.00  0.00     0.166 HD
ATOM     17  C12 ZIN A   1      20.040   5.543  14.187  0.00  0.00     0.108 A 
ENDBRANCH  11  12
ENDBRANCH   1  11
BRANCH   1  18
ATOM     18  S17 ZIN A   1      17.608   2.107  13.265  0.00  0.00    -0.120 SA
BRANCH  18  19
ATOM     19  C18 ZIN A   1      18.120   0.870  14.410  0.00  0.00     0.044 A 
ATOM     20  C24 ZIN A   1      18.537   1.230  15.686  0.00  0.00     0.052 A 
ATOM     21  C23 ZIN A   1      18.931   0.256  16.584  0.00  0.00     0.025 A 
ATOM     22 Cl25 ZIN A   1      18.546   2.901  16.158  0.00  0.00    -0.083 Cl
ATOM     23  C22 ZIN A   1      18.924  -1.076  16.209  0.00  0.00     0.003 A 
ATOM     24  C21 ZIN A   1      18.516  -1.438  14.938  0.00  0.00     0.025 A 
ATOM     25  C19 ZIN A   1      18.114  -0.470  14.037  0.00  0.00     0.052 A 
ATOM     26 Cl20 ZIN A   1      17.603  -0.926  12.442  0.00  0.00    -0.083 Cl
ENDBRANCH  18  19
ENDBRANCH   1  18
TORSDOF 7
ENDMDL
