MODEL 1
REMARK VINA RESULT:      -8.3      0.000      0.000
REMARK  4 active torsions:
REMARK  status: ('A' for Active; 'I' for Inactive)
REMARK    1  A    between atoms: S2_2  and  C3_3 
REMARK    2  A    between atoms: N14_14  and  C15_15 
REMARK    3  A    between atoms: C15_15  and  C16_16 
REMARK    4  A    between atoms: C16_16  and  C17_17 
ROOT
ATOM      1  C3  <0> d   1      17.842   3.356  10.232  0.00  0.00     0.002 A 
ATOM      2  C4  <0> d   1      18.516   3.286   9.020  0.00  0.00     0.020 A 
ATOM      3  C5  <0> d   1      19.058   2.084   8.603  0.00  0.00     0.022 A 
ATOM      4  C6  <0> d   1      18.933   0.947   9.390  0.00  0.00     0.032 A 
ATOM      5  S7  <0> d   1      19.625  -0.570   8.827  0.00  0.00    -0.086 SA
ATOM      6  C8  <0> d   1      18.811  -1.782   9.812  0.00  0.00     0.032 A 
ATOM      7  C9  <0> d   1      18.829  -3.110   9.407  0.00  0.00     0.021 A 
ATOM      8  C10 <0> d   1      18.194  -4.076  10.166  0.00  0.00     0.002 A 
ATOM      9  C11 <0> d   1      17.540  -3.720  11.330  0.00  0.00     0.002 A 
ATOM     10  C12 <0> d   1      17.520  -2.401  11.739  0.00  0.00     0.031 A 
ATOM     11  C13 <0> d   1      18.155  -1.421  10.985  0.00  0.00     0.052 A 
ATOM     12  N14 <0> d   1      18.121  -0.102  11.431  0.00  0.00    -0.345 N 
ATOM     13  C25 <0> d   1      18.263   1.014  10.608  0.00  0.00     0.053 A 
ATOM     14  C26 <0> d   1      17.721   2.225  11.026  0.00  0.00     0.049 A 
ENDROOT
BRANCH  12  15
ATOM     15  C15 <0> d   1      17.920   0.128  12.864  0.00  0.00     0.131 C 
BRANCH  15  16
ATOM     16  C16 <0> d   1      19.257   0.487  13.515  0.00  0.00     0.056 C 
BRANCH  16  17
ATOM     17  C17 <0> d   1      19.216   0.123  15.000  0.00  0.00     0.224 C 
ATOM     18  N23 <0> d   1      18.461   1.145  15.735  0.00  0.00     0.088 N 
ATOM     19  C22 <0> d   1      18.433   0.854  17.174  0.00  0.00     0.272 C 
ATOM     20  C24 <0> d   1      19.005   2.486  15.479  0.00  0.00     0.310 C 
ATOM     21  C21 <0> d   1      17.729  -0.484  17.411  0.00  0.00     0.030 C 
ATOM     22  C20 <0> d   1      18.480  -1.589  16.661  0.00  0.00     0.004 C 
ATOM     23  C19 <0> d   1      18.536  -1.237  15.172  0.00  0.00     0.036 C 
ENDBRANCH  16  17
ENDBRANCH  15  16
ENDBRANCH  12  15
BRANCH   1  24
ATOM     24  S2  <0> d   1      17.148   4.885  10.765  0.00  0.00    -0.134 SA
ATOM     25  C1  <0> d   1      17.170   4.735  12.573  0.00  0.00     0.095 C 
ENDBRANCH   1  24
TORSDOF 4
ENDMDL
MODEL 2
REMARK VINA RESULT:      -7.9      2.396      7.549
REMARK  4 active torsions:
REMARK  status: ('A' for Active; 'I' for Inactive)
REMARK    1  A    between atoms: S2_2  and  C3_3 
REMARK    2  A    between atoms: N14_14  and  C15_15 
REMARK    3  A    between atoms: C15_15  and  C16_16 
REMARK    4  A    between atoms: C16_16  and  C17_17 
ROOT
ATOM      1  C3  <0> d   1      18.464  -1.931  12.467  0.00  0.00     0.002 A 
ATOM      2  C4  <0> d   1      18.384  -1.694  13.833  0.00  0.00     0.020 A 
ATOM      3  C5  <0> d   1      18.349  -0.394  14.303  0.00  0.00     0.022 A 
ATOM      4  C6  <0> d   1      18.394   0.675  13.418  0.00  0.00     0.032 A 
ATOM      5  S7  <0> d   1      18.338   2.317  14.048  0.00  0.00    -0.086 SA
ATOM      6  C8  <0> d   1      17.899   3.280  12.641  0.00  0.00     0.032 A 
ATOM      7  C9  <0> d   1      17.408   4.566  12.824  0.00  0.00     0.021 A 
ATOM      8  C10 <0> d   1      17.057   5.338  11.731  0.00  0.00     0.002 A 
ATOM      9  C11 <0> d   1      17.193   4.829  10.454  0.00  0.00     0.002 A 
ATOM     10  C12 <0> d   1      17.682   3.551  10.265  0.00  0.00     0.031 A 
ATOM     11  C13 <0> d   1      18.040   2.766  11.356  0.00  0.00     0.052 A 
ATOM     12  N14 <0> d   1      18.536   1.485  11.127  0.00  0.00    -0.345 N 
ATOM     13  C25 <0> d   1      18.481   0.441  12.049  0.00  0.00     0.053 A 
ATOM     14  C26 <0> d   1      18.519  -0.867  11.579  0.00  0.00     0.049 A 
ENDROOT
BRANCH  12  15
ATOM     15  C15 <0> d   1      19.159   1.216   9.829  0.00  0.00     0.131 C 
BRANCH  15  16
ATOM     16  C16 <0> d   1      18.117   0.631   8.874  0.00  0.00     0.056 C 
BRANCH  16  17
ATOM     17  C17 <0> d   1      18.815   0.091   7.625  0.00  0.00     0.224 C 
ATOM     18  N23 <0> d   1      18.175  -1.164   7.211  0.00  0.00     0.088 N 
ATOM     19  C22 <0> d   1      18.843  -1.739   6.036  0.00  0.00     0.272 C 
ATOM     20  C24 <0> d   1      18.139  -2.127   8.320  0.00  0.00     0.310 C 
ATOM     21  C21 <0> d   1      18.734  -0.767   4.859  0.00  0.00     0.030 C 
ATOM     22  C20 <0> d   1      19.388   0.565   5.241  0.00  0.00     0.004 C 
ATOM     23  C19 <0> d   1      18.705   1.117   6.496  0.00  0.00     0.036 C 
ENDBRANCH  16  17
ENDBRANCH  15  16
ENDBRANCH  12  15
BRANCH   1  24
ATOM     24  S2  <0> d   1      18.506  -3.586  11.863  0.00  0.00    -0.134 SA
ATOM     25  C1  <0> d   1      20.256  -3.825  11.446  0.00  0.00     0.095 C 
ENDBRANCH   1  24
TORSDOF 4
ENDMDL
MODEL 3
REMARK VINA RESULT:      -7.8      2.522      5.341
REMARK  4 active torsions:
REMARK  status: ('A' for Active; 'I' for Inactive)
REMARK    1  A    between atoms: S2_2  and  C3_3 
REMARK    2  A    between atoms: N14_14  and  C15_15 
REMARK    3  A    between atoms: C15_15  and  C16_16 
REMARK    4  A    between atoms: C16_16  and  C17_17 
ROOT
ATOM      1  C3  <0> d   1      19.083  -2.082  12.070  0.00  0.00     0.002 A 
ATOM      2  C4  <0> d   1      19.289  -3.398  11.681  0.00  0.00     0.020 A 
ATOM      3  C5  <0> d   1      19.197  -3.743  10.346  0.00  0.00     0.022 A 
ATOM      4  C6  <0> d   1      18.899  -2.780   9.391  0.00  0.00     0.032 A 
ATOM      5  S7  <0> d   1      18.799  -3.249   7.697  0.00  0.00    -0.086 SA
ATOM      6  C8  <0> d   1      18.931  -1.716   6.840  0.00  0.00     0.032 A 
ATOM      7  C9  <0> d   1      19.256  -1.718   5.490  0.00  0.00     0.021 A 
ATOM      8  C10 <0> d   1      19.366  -0.525   4.800  0.00  0.00     0.002 A 
ATOM      9  C11 <0> d   1      19.154   0.673   5.454  0.00  0.00     0.002 A 
ATOM     10  C12 <0> d   1      18.829   0.683   6.797  0.00  0.00     0.031 A 
ATOM     11  C13 <0> d   1      18.714  -0.511   7.501  0.00  0.00     0.052 A 
ATOM     12  N14 <0> d   1      18.379  -0.464   8.852  0.00  0.00    -0.345 N 
ATOM     13  C25 <0> d   1      18.687  -1.460   9.777  0.00  0.00     0.053 A 
ATOM     14  C26 <0> d   1      18.777  -1.117  11.122  0.00  0.00     0.049 A 
ENDROOT
BRANCH  12  15
ATOM     15  C15 <0> d   1      17.652   0.714   9.334  0.00  0.00     0.131 C 
BRANCH  15  16
ATOM     16  C16 <0> d   1      18.644   1.840   9.627  0.00  0.00     0.056 C 
BRANCH  16  17
ATOM     17  C17 <0> d   1      18.212   2.584  10.892  0.00  0.00     0.224 C 
ATOM     18  N23 <0> d   1      19.399   2.940  11.680  0.00  0.00     0.088 N 
ATOM     19  C22 <0> d   1      19.025   3.621  12.927  0.00  0.00     0.272 C 
ATOM     20  C24 <0> d   1      20.224   1.756  11.954  0.00  0.00     0.310 C 
ATOM     21  C21 <0> d   1      18.293   4.925  12.597  0.00  0.00     0.030 C 
ATOM     22  C20 <0> d   1      17.042   4.607  11.771  0.00  0.00     0.004 C 
ATOM     23  C19 <0> d   1      17.456   3.856  10.503  0.00  0.00     0.036 C 
ENDBRANCH  16  17
ENDBRANCH  15  16
ENDBRANCH  12  15
BRANCH   1  24
ATOM     24  S2  <0> d   1      19.202  -1.638  13.771  0.00  0.00    -0.134 SA
ATOM     25  C1  <0> d   1      17.911  -0.378  13.957  0.00  0.00     0.095 C 
ENDBRANCH   1  24
TORSDOF 4
ENDMDL
MODEL 4
REMARK VINA RESULT:      -7.7      1.602      2.141
REMARK  4 active torsions:
REMARK  status: ('A' for Active; 'I' for Inactive)
REMARK    1  A    between atoms: S2_2  and  C3_3 
REMARK    2  A    between atoms: N14_14  and  C15_15 
REMARK    3  A    between atoms: C15_15  and  C16_16 
REMARK    4  A    between atoms: C16_16  and  C17_17 
ROOT
ATOM      1  C3  <0> d   1      18.527   1.174   9.310  0.00  0.00     0.002 A 
ATOM      2  C4  <0> d   1      18.535   0.793   7.975  0.00  0.00     0.020 A 
ATOM      3  C5  <0> d   1      18.575  -0.548   7.643  0.00  0.00     0.022 A 
ATOM      4  C6  <0> d   1      18.607  -1.517   8.637  0.00  0.00     0.032 A 
ATOM      5  S7  <0> d   1      18.646  -3.217   8.182  0.00  0.00    -0.086 SA
ATOM      6  C8  <0> d   1      18.161  -4.047   9.657  0.00  0.00     0.032 A 
ATOM      7  C9  <0> d   1      17.728  -5.364   9.585  0.00  0.00     0.021 A 
ATOM      8  C10 <0> d   1      17.340  -6.032  10.732  0.00  0.00     0.002 A 
ATOM      9  C11 <0> d   1      17.383  -5.389  11.954  0.00  0.00     0.002 A 
ATOM     10  C12 <0> d   1      17.814  -4.079  12.034  0.00  0.00     0.031 A 
ATOM     11  C13 <0> d   1      18.207  -3.396  10.887  0.00  0.00     0.052 A 
ATOM     12  N14 <0> d   1      18.643  -2.079  11.005  0.00  0.00    -0.345 N 
ATOM     13  C25 <0> d   1      18.604  -1.139   9.977  0.00  0.00     0.053 A 
ATOM     14  C26 <0> d   1      18.568   0.211  10.308  0.00  0.00     0.049 A 
ENDROOT
BRANCH  12  15
ATOM     15  C15 <0> d   1      19.178  -1.652  12.301  0.00  0.00     0.131 C 
BRANCH  15  16
ATOM     16  C16 <0> d   1      18.052  -1.056  13.146  0.00  0.00     0.056 C 
BRANCH  16  17
ATOM     17  C17 <0> d   1      18.617  -0.580  14.486  0.00  0.00     0.224 C 
ATOM     18  N23 <0> d   1      17.798   0.527  14.997  0.00  0.00     0.088 N 
ATOM     19  C22 <0> d   1      18.332   1.042  16.265  0.00  0.00     0.272 C 
ATOM     20  C24 <0> d   1      17.681   1.600  14.000  0.00  0.00     0.310 C 
ATOM     21  C21 <0> d   1      18.302  -0.067  17.320  0.00  0.00     0.030 C 
ATOM     22  C20 <0> d   1      19.144  -1.250  16.833  0.00  0.00     0.004 C 
ATOM     23  C19 <0> d   1      18.596  -1.736  15.487  0.00  0.00     0.036 C 
ENDBRANCH  16  17
ENDBRANCH  15  16
ENDBRANCH  12  15
BRANCH   1  24
ATOM     24  S2  <0> d   1      18.474   2.882   9.737  0.00  0.00    -0.134 SA
ATOM     25  C1  <0> d   1      19.595   2.983  11.160  0.00  0.00     0.095 C 
ENDBRANCH   1  24
TORSDOF 4
ENDMDL
MODEL 5
REMARK VINA RESULT:      -7.6      1.731      5.629
REMARK  4 active torsions:
REMARK  status: ('A' for Active; 'I' for Inactive)
REMARK    1  A    between atoms: S2_2  and  C3_3 
REMARK    2  A    between atoms: N14_14  and  C15_15 
REMARK    3  A    between atoms: C15_15  and  C16_16 
REMARK    4  A    between atoms: C16_16  and  C17_17 
ROOT
ATOM      1  C3  <0> d   1      18.747   1.623   9.475  0.00  0.00     0.002 A 
ATOM      2  C4  <0> d   1      18.834   2.937   9.913  0.00  0.00     0.020 A 
ATOM      3  C5  <0> d   1      18.654   3.229  11.251  0.00  0.00     0.022 A 
ATOM      4  C6  <0> d   1      18.386   2.216  12.162  0.00  0.00     0.032 A 
ATOM      5  S7  <0> d   1      18.172   2.619  13.862  0.00  0.00    -0.086 SA
ATOM      6  C8  <0> d   1      18.381   1.073  14.678  0.00  0.00     0.032 A 
ATOM      7  C9  <0> d   1      18.641   1.054  16.042  0.00  0.00     0.021 A 
ATOM      8  C10 <0> d   1      18.809  -0.150  16.701  0.00  0.00     0.002 A 
ATOM      9  C11 <0> d   1      18.719  -1.339  16.002  0.00  0.00     0.002 A 
ATOM     10  C12 <0> d   1      18.459  -1.328  14.645  0.00  0.00     0.031 A 
ATOM     11  C13 <0> d   1      18.287  -0.123  13.971  0.00  0.00     0.052 A 
ATOM     12  N14 <0> d   1      18.018  -0.149  12.605  0.00  0.00    -0.345 N 
ATOM     13  C25 <0> d   1      18.293   0.897  11.726  0.00  0.00     0.053 A 
ATOM     14  C26 <0> d   1      18.471   0.606  10.378  0.00  0.00     0.049 A 
ENDROOT
BRANCH  12  15
ATOM     15  C15 <0> d   1      17.406  -1.361  12.054  0.00  0.00     0.131 C 
BRANCH  15  16
ATOM     16  C16 <0> d   1      18.503  -2.341  11.634  0.00  0.00     0.056 C 
BRANCH  16  17
ATOM     17  C17 <0> d   1      17.885  -3.482  10.823  0.00  0.00     0.224 C 
ATOM     18  N23 <0> d   1      18.757  -3.801   9.685  0.00  0.00     0.088 N 
ATOM     19  C22 <0> d   1      18.178  -4.865   8.854  0.00  0.00     0.272 C 
ATOM     20  C24 <0> d   1      19.036  -2.601   8.884  0.00  0.00     0.310 C 
ATOM     21  C21 <0> d   1      18.037  -6.142   9.687  0.00  0.00     0.030 C 
ATOM     22  C20 <0> d   1      17.134  -5.861  10.892  0.00  0.00     0.004 C 
ATOM     23  C19 <0> d   1      17.734  -4.716  11.713  0.00  0.00     0.036 C 
ENDBRANCH  16  17
ENDBRANCH  15  16
ENDBRANCH  12  15
BRANCH   1  24
ATOM     24  S2  <0> d   1      18.978   1.246   7.769  0.00  0.00    -0.134 SA
ATOM     25  C1  <0> d   1      17.545   0.203   7.383  0.00  0.00     0.095 C 
ENDBRANCH   1  24
TORSDOF 4
ENDMDL
MODEL 6
REMARK VINA RESULT:      -7.4      2.580      5.523
REMARK  4 active torsions:
REMARK  status: ('A' for Active; 'I' for Inactive)
REMARK    1  A    between atoms: S2_2  and  C3_3 
REMARK    2  A    between atoms: N14_14  and  C15_15 
REMARK    3  A    between atoms: C15_15  and  C16_16 
REMARK    4  A    between atoms: C16_16  and  C17_17 
ROOT
ATOM      1  C3  <0> d   1      18.801   0.577  15.571  0.00  0.00     0.002 A 
ATOM      2  C4  <0> d   1      18.905  -0.796  15.392  0.00  0.00     0.020 A 
ATOM      3  C5  <0> d   1      18.792  -1.335  14.124  0.00  0.00     0.022 A 
ATOM      4  C6  <0> d   1      18.574  -0.512  13.028  0.00  0.00     0.032 A 
ATOM      5  S7  <0> d   1      18.445  -1.227  11.425  0.00  0.00    -0.086 SA
ATOM      6  C8  <0> d   1      18.701   0.139  10.345  0.00  0.00     0.032 A 
ATOM      7  C9  <0> d   1      19.030  -0.097   9.016  0.00  0.00     0.021 A 
ATOM      8  C10 <0> d   1      19.236   0.963   8.153  0.00  0.00     0.002 A 
ATOM      9  C11 <0> d   1      19.115   2.261   8.611  0.00  0.00     0.002 A 
ATOM     10  C12 <0> d   1      18.787   2.503   9.931  0.00  0.00     0.031 A 
ATOM     11  C13 <0> d   1      18.576   1.445  10.809  0.00  0.00     0.052 A 
ATOM     12  N14 <0> d   1      18.239   1.726  12.131  0.00  0.00    -0.345 N 
ATOM     13  C25 <0> d   1      18.464   0.865  13.203  0.00  0.00     0.053 A 
ATOM     14  C26 <0> d   1      18.575   1.404  14.480  0.00  0.00     0.049 A 
ENDROOT
BRANCH  12  15
ATOM     15  C15 <0> d   1      17.605   3.017  12.413  0.00  0.00     0.131 C 
BRANCH  15  16
ATOM     16  C16 <0> d   1      18.653   3.995  12.945  0.00  0.00     0.056 C 
BRANCH  16  17
ATOM     17  C17 <0> d   1      17.992   4.972  13.919  0.00  0.00     0.224 C 
ATOM     18  N23 <0> d   1      18.886   6.115  14.148  0.00  0.00     0.088 N 
ATOM     19  C22 <0> d   1      18.305   7.059  15.111  0.00  0.00     0.272 C 
ATOM     20  C24 <0> d   1      20.214   5.664  14.587  0.00  0.00     0.310 C 
ATOM     21  C21 <0> d   1      16.993   7.616  14.553  0.00  0.00     0.030 C 
ATOM     22  C20 <0> d   1      16.023   6.460  14.294  0.00  0.00     0.004 C 
ATOM     23  C19 <0> d   1      16.672   5.467  13.325  0.00  0.00     0.036 C 
ENDBRANCH  16  17
ENDBRANCH  15  16
ENDBRANCH  12  15
BRANCH   1  24
ATOM     24  S2  <0> d   1      18.947   1.268  17.184  0.00  0.00    -0.134 SA
ATOM     25  C1  <0> d   1      19.277  -0.183  18.222  0.00  0.00     0.095 C 
ENDBRANCH   1  24
TORSDOF 4
ENDMDL
MODEL 7
REMARK VINA RESULT:      -7.4      2.778      7.565
REMARK  4 active torsions:
REMARK  status: ('A' for Active; 'I' for Inactive)
REMARK    1  A    between atoms: S2_2  and  C3_3 
REMARK    2  A    between atoms: N14_14  and  C15_15 
REMARK    3  A    between atoms: C15_15  and  C16_16 
REMARK    4  A    between atoms: C16_16  and  C17_17 
ROOT
ATOM      1  C3  <0> d   1      18.629   0.364  16.075  0.00  0.00     0.002 A 
ATOM      2  C4  <0> d   1      19.126   0.870  17.268  0.00  0.00     0.020 A 
ATOM      3  C5  <0> d   1      19.281   2.234  17.425  0.00  0.00     0.022 A 
ATOM      4  C6  <0> d   1      18.943   3.102  16.396  0.00  0.00     0.032 A 
ATOM      5  S7  <0> d   1      19.143   4.835  16.630  0.00  0.00    -0.086 SA
ATOM      6  C8  <0> d   1      18.147   5.537  15.359  0.00  0.00     0.032 A 
ATOM      7  C9  <0> d   1      17.768   6.870  15.450  0.00  0.00     0.021 A 
ATOM      8  C10 <0> d   1      16.984   7.439  14.463  0.00  0.00     0.002 A 
ATOM      9  C11 <0> d   1      16.577   6.681  13.382  0.00  0.00     0.002 A 
ATOM     10  C12 <0> d   1      16.952   5.355  13.284  0.00  0.00     0.031 A 
ATOM     11  C13 <0> d   1      17.740   4.772  14.270  0.00  0.00     0.052 A 
ATOM     12  N14 <0> d   1      18.105   3.435  14.135  0.00  0.00    -0.345 N 
ATOM     13  C25 <0> d   1      18.450   2.599  15.195  0.00  0.00     0.053 A 
ATOM     14  C26 <0> d   1      18.298   1.226  15.039  0.00  0.00     0.049 A 
ENDROOT
BRANCH  12  15
ATOM     15  C15 <0> d   1      18.128   2.868  12.784  0.00  0.00     0.131 C 
BRANCH  15  16
ATOM     16  C16 <0> d   1      19.490   3.134  12.142  0.00  0.00     0.056 C 
BRANCH  16  17
ATOM     17  C17 <0> d   1      19.624   2.303  10.864  0.00  0.00     0.224 C 
ATOM     18  N23 <0> d   1      19.693   0.878  11.212  0.00  0.00     0.088 N 
ATOM     19  C22 <0> d   1      19.864   0.045  10.014  0.00  0.00     0.272 C 
ATOM     20  C24 <0> d   1      20.764   0.626  12.186  0.00  0.00     0.310 C 
ATOM     21  C21 <0> d   1      18.657   0.227   9.090  0.00  0.00     0.030 C 
ATOM     22  C20 <0> d   1      18.539   1.703   8.697  0.00  0.00     0.004 C 
ATOM     23  C19 <0> d   1      18.411   2.551   9.966  0.00  0.00     0.036 C 
ENDBRANCH  16  17
ENDBRANCH  15  16
ENDBRANCH  12  15
BRANCH   1  24
ATOM     24  S2  <0> d   1      18.427  -1.375  15.872  0.00  0.00    -0.134 SA
ATOM     25  C1  <0> d   1      18.657  -1.608  14.088  0.00  0.00     0.095 C 
ENDBRANCH   1  24
TORSDOF 4
ENDMDL
MODEL 8
REMARK VINA RESULT:      -7.3      1.889      5.809
REMARK  4 active torsions:
REMARK  status: ('A' for Active; 'I' for Inactive)
REMARK    1  A    between atoms: S2_2  and  C3_3 
REMARK    2  A    between atoms: N14_14  and  C15_15 
REMARK    3  A    between atoms: C15_15  and  C16_16 
REMARK    4  A    between atoms: C16_16  and  C17_17 
ROOT
ATOM      1  C3  <0> d   1      18.567   3.112   9.989  0.00  0.00     0.002 A 
ATOM      2  C4  <0> d   1      17.763   4.235   9.843  0.00  0.00     0.020 A 
ATOM      3  C5  <0> d   1      17.229   4.848  10.961  0.00  0.00     0.022 A 
ATOM      4  C6  <0> d   1      17.490   4.346  12.229  0.00  0.00     0.032 A 
ATOM      5  S7  <0> d   1      16.803   5.155  13.633  0.00  0.00    -0.086 SA
ATOM      6  C8  <0> d   1      17.773   4.547  14.971  0.00  0.00     0.032 A 
ATOM      7  C9  <0> d   1      17.765   5.229  16.181  0.00  0.00     0.021 A 
ATOM      8  C10 <0> d   1      18.522   4.768  17.243  0.00  0.00     0.002 A 
ATOM      9  C11 <0> d   1      19.288   3.627  17.101  0.00  0.00     0.002 A 
ATOM     10  C12 <0> d   1      19.300   2.944  15.901  0.00  0.00     0.031 A 
ATOM     11  C13 <0> d   1      18.542   3.396  14.826  0.00  0.00     0.052 A 
ATOM     12  N14 <0> d   1      18.572   2.678  13.633  0.00  0.00    -0.345 N 
ATOM     13  C25 <0> d   1      18.291   3.218  12.379  0.00  0.00     0.053 A 
ATOM     14  C26 <0> d   1      18.825   2.602  11.253  0.00  0.00     0.049 A 
ENDROOT
BRANCH  12  15
ATOM     15  C15 <0> d   1      18.924   1.258  13.701  0.00  0.00     0.131 C 
BRANCH  15  16
ATOM     16  C16 <0> d   1      17.653   0.425  13.876  0.00  0.00     0.056 C 
BRANCH  16  17
ATOM     17  C17 <0> d   1      17.819  -0.916  13.159  0.00  0.00     0.224 C 
ATOM     18  N23 <0> d   1      17.620  -0.729  11.717  0.00  0.00     0.088 N 
ATOM     19  C22 <0> d   1      17.729  -2.003  10.994  0.00  0.00     0.272 C 
ATOM     20  C24 <0> d   1      16.331  -0.078  11.444  0.00  0.00     0.310 C 
ATOM     21  C21 <0> d   1      19.135  -2.578  11.185  0.00  0.00     0.030 C 
ATOM     22  C20 <0> d   1      19.394  -2.793  12.680  0.00  0.00     0.004 C 
ATOM     23  C19 <0> d   1      19.226  -1.460  13.414  0.00  0.00     0.036 C 
ENDBRANCH  16  17
ENDBRANCH  15  16
ENDBRANCH  12  15
BRANCH   1  24
ATOM     24  S2  <0> d   1      19.253   2.331   8.567  0.00  0.00    -0.134 SA
ATOM     25  C1  <0> d   1      19.441   0.606   9.099  0.00  0.00     0.095 C 
ENDBRANCH   1  24
TORSDOF 4
ENDMDL
MODEL 9
REMARK VINA RESULT:      -7.3      2.646      5.430
REMARK  4 active torsions:
REMARK  status: ('A' for Active; 'I' for Inactive)
REMARK    1  A    between atoms: S2_2  and  C3_3 
REMARK    2  A    between atoms: N14_14  and  C15_15 
REMARK    3  A    between atoms: C15_15  and  C16_16 
REMARK    4  A    between atoms: C16_16  and  C17_17 
ROOT
ATOM      1  C3  <0> d   1      18.584   1.420  15.392  0.00  0.00     0.002 A 
ATOM      2  C4  <0> d   1      17.826   0.257  15.374  0.00  0.00     0.020 A 
ATOM      3  C5  <0> d   1      17.304  -0.205  14.181  0.00  0.00     0.022 A 
ATOM      4  C6  <0> d   1      17.533   0.488  12.999  0.00  0.00     0.032 A 
ATOM      5  S7  <0> d   1      16.863  -0.131  11.494  0.00  0.00    -0.086 SA
ATOM      6  C8  <0> d   1      17.795   0.705  10.256  0.00  0.00     0.032 A 
ATOM      7  C9  <0> d   1      17.801   0.210   8.959  0.00  0.00     0.021 A 
ATOM      8  C10 <0> d   1      18.528   0.852   7.974  0.00  0.00     0.002 A 
ATOM      9  C11 <0> d   1      19.251   1.989   8.279  0.00  0.00     0.002 A 
ATOM     10  C12 <0> d   1      19.249   2.488   9.567  0.00  0.00     0.031 A 
ATOM     11  C13 <0> d   1      18.521   1.852  10.567  0.00  0.00     0.052 A 
ATOM     12  N14 <0> d   1      18.535   2.387  11.852  0.00  0.00    -0.345 N 
ATOM     13  C25 <0> d   1      18.288   1.657  13.014  0.00  0.00     0.053 A 
ATOM     14  C26 <0> d   1      18.809   2.121  14.217  0.00  0.00     0.049 A 
ENDROOT
BRANCH  12  15
ATOM     15  C15 <0> d   1      18.831   3.815  11.993  0.00  0.00     0.131 C 
BRANCH  15  16
ATOM     16  C16 <0> d   1      17.550   4.568  12.357  0.00  0.00     0.056 C 
BRANCH  16  17
ATOM     17  C17 <0> d   1      17.872   5.660  13.379  0.00  0.00     0.224 C 
ATOM     18  N23 <0> d   1      16.973   5.532  14.532  0.00  0.00     0.088 N 
ATOM     19  C22 <0> d   1      17.222   6.590  15.520  0.00  0.00     0.272 C 
ATOM     20  C24 <0> d   1      15.567   5.531  14.105  0.00  0.00     0.310 C 
ATOM     21  C21 <0> d   1      18.653   6.468  16.049  0.00  0.00     0.030 C 
ATOM     22  C20 <0> d   1      19.635   6.594  14.880  0.00  0.00     0.004 C 
ATOM     23  C19 <0> d   1      19.322   5.511  13.843  0.00  0.00     0.036 C 
ENDBRANCH  16  17
ENDBRANCH  15  16
ENDBRANCH  12  15
BRANCH   1  24
ATOM     24  S2  <0> d   1      19.254   2.010  16.911  0.00  0.00    -0.134 SA
ATOM     25  C1  <0> d   1      19.257   0.529  17.960  0.00  0.00     0.095 C 
ENDBRANCH   1  24
TORSDOF 4
ENDMDL
