MODEL 1
REMARK VINA RESULT:      -7.9      0.000      0.000
REMARK  2 active torsions:
REMARK  status: ('A' for Active; 'I' for Inactive)
REMARK    1  A    between atoms: S2_2  and  C5_5 
REMARK    2  A    between atoms: C10_10  and  C11_11 
ROOT
ATOM      1  C5  <0> d   1      19.008  -0.693   7.032  0.00  0.00     0.083 A 
ATOM      2  C6  <0> d   1      18.982   0.693   7.094  0.00  0.00     0.028 A 
ATOM      3  C7  <0> d   1      18.875   1.338   8.310  0.00  0.00     0.033 A 
ATOM      4  C8  <0> d   1      18.793   0.593   9.477  0.00  0.00     0.062 A 
ATOM      5  N9  <0> d   1      18.682   0.916  10.815  0.00  0.00    -0.338 N 
ATOM      6  C10 <0> d   1      18.643  -0.259  11.514  0.00  0.00     0.139 A 
ATOM      7  N17 <0> d   1      18.725  -1.271  10.686  0.00  0.00    -0.228 NA
ATOM      8  C18 <0> d   1      18.819  -0.812   9.415  0.00  0.00     0.087 A 
ATOM      9  C19 <0> d   1      18.923  -1.442   8.171  0.00  0.00     0.060 A 
ATOM     10  H22 <0> d   1      18.638   1.811  11.189  0.00  0.00     0.167 HD
ENDROOT
BRANCH   6  11
ATOM     11  C11 <0> d   1      18.527  -0.370  12.985  0.00  0.00     0.010 A 
ATOM     12  C16 <0> d   1      17.649   0.459  13.685  0.00  0.00     0.015 A 
ATOM     13  C15 <0> d   1      17.543   0.347  15.055  0.00  0.00     0.001 A 
ATOM     14  C14 <0> d   1      18.313  -0.578  15.738  0.00  0.00     0.000 A 
ATOM     15  C13 <0> d   1      19.189  -1.400  15.052  0.00  0.00     0.001 A 
ATOM     16  C12 <0> d   1      19.300  -1.301  13.680  0.00  0.00     0.015 A 
ENDBRANCH   6  11
BRANCH   1  17
ATOM     17  S2  <0> d   1      19.145  -1.494   5.469  0.00  0.00     0.137 S 
ATOM     18  O1  <0> d   1      17.793  -1.641   4.953  0.00  0.00    -0.591 OA
ATOM     19  O3  <0> d   1      19.781  -2.780   5.711  0.00  0.00    -0.591 OA
ATOM     20  O4  <0> d   1      19.960  -0.633   4.627  0.00  0.00    -0.591 OA
ENDBRANCH   1  17
TORSDOF 2
ENDMDL
MODEL 2
REMARK VINA RESULT:      -7.8      6.098      8.163
REMARK  2 active torsions:
REMARK  status: ('A' for Active; 'I' for Inactive)
REMARK    1  A    between atoms: S2_2  and  C5_5 
REMARK    2  A    between atoms: C10_10  and  C11_11 
ROOT
ATOM      1  C5  <0> d   1      18.831   0.822  16.098  0.00  0.00     0.083 A 
ATOM      2  C6  <0> d   1      18.550  -0.535  16.030  0.00  0.00     0.028 A 
ATOM      3  C7  <0> d   1      18.351  -1.148  14.810  0.00  0.00     0.033 A 
ATOM      4  C8  <0> d   1      18.431  -0.401  13.644  0.00  0.00     0.062 A 
ATOM      5  N9  <0> d   1      18.288  -0.698  12.303  0.00  0.00    -0.338 N 
ATOM      6  C10 <0> d   1      18.482   0.465  11.608  0.00  0.00     0.139 A 
ATOM      7  N17 <0> d   1      18.732   1.444  12.442  0.00  0.00    -0.228 NA
ATOM      8  C18 <0> d   1      18.715   0.976  13.713  0.00  0.00     0.087 A 
ATOM      9  C19 <0> d   1      18.908   1.575  14.961  0.00  0.00     0.060 A 
ATOM     10  H22 <0> d   1      18.088  -1.568  11.925  0.00  0.00     0.167 HD
ENDROOT
BRANCH   6  11
ATOM     11  C11 <0> d   1      18.418   0.596  10.135  0.00  0.00     0.010 A 
ATOM     12  C16 <0> d   1      19.226   1.526   9.479  0.00  0.00     0.015 A 
ATOM     13  C15 <0> d   1      19.165   1.641   8.106  0.00  0.00     0.001 A 
ATOM     14  C14 <0> d   1      18.298   0.844   7.381  0.00  0.00     0.000 A 
ATOM     15  C13 <0> d   1      17.491  -0.077   8.025  0.00  0.00     0.001 A 
ATOM     16  C12 <0> d   1      17.546  -0.205   9.398  0.00  0.00     0.015 A 
ENDBRANCH   6  11
BRANCH   1  17
ATOM     17  S2  <0> d   1      19.082   1.583  17.667  0.00  0.00     0.137 S 
ATOM     18  O1  <0> d   1      17.768   1.757  18.265  0.00  0.00    -0.591 OA
ATOM     19  O3  <0> d   1      19.741   2.856  17.415  0.00  0.00    -0.591 OA
ATOM     20  O4  <0> d   1      19.919   0.681  18.442  0.00  0.00    -0.591 OA
ENDBRANCH   1  17
TORSDOF 2
ENDMDL
MODEL 3
REMARK VINA RESULT:      -7.7      3.202      3.715
REMARK  2 active torsions:
REMARK  status: ('A' for Active; 'I' for Inactive)
REMARK    1  A    between atoms: S2_2  and  C5_5 
REMARK    2  A    between atoms: C10_10  and  C11_11 
ROOT
ATOM      1  C5  <0> d   1      19.142  -1.692   6.566  0.00  0.00     0.083 A 
ATOM      2  C6  <0> d   1      19.170  -0.716   5.582  0.00  0.00     0.028 A 
ATOM      3  C7  <0> d   1      19.113   0.621   5.920  0.00  0.00     0.033 A 
ATOM      4  C8  <0> d   1      19.027   0.989   7.255  0.00  0.00     0.062 A 
ATOM      5  N9  <0> d   1      18.955   2.201   7.913  0.00  0.00    -0.338 N 
ATOM      6  C10 <0> d   1      18.885   1.931   9.252  0.00  0.00     0.139 A 
ATOM      7  N17 <0> d   1      18.911   0.635   9.446  0.00  0.00    -0.228 NA
ATOM      8  C18 <0> d   1      18.997  -0.002   8.253  0.00  0.00     0.087 A 
ATOM      9  C19 <0> d   1      19.052  -1.350   7.885  0.00  0.00     0.060 A 
ATOM     10  H22 <0> d   1      18.953   3.079   7.502  0.00  0.00     0.167 HD
ENDROOT
BRANCH   6  11
ATOM     11  C11 <0> d   1      18.796   2.949  10.322  0.00  0.00     0.010 A 
ATOM     12  C16 <0> d   1      17.725   3.844  10.351  0.00  0.00     0.015 A 
ATOM     13  C15 <0> d   1      17.645   4.788  11.353  0.00  0.00     0.001 A 
ATOM     14  C14 <0> d   1      18.629   4.856  12.322  0.00  0.00     0.000 A 
ATOM     15  C13 <0> d   1      19.696   3.976  12.298  0.00  0.00     0.001 A 
ATOM     16  C12 <0> d   1      19.785   3.023  11.303  0.00  0.00     0.015 A 
ENDBRANCH   6  11
BRANCH   1  17
ATOM     17  S2  <0> d   1      19.216  -3.393   6.110  0.00  0.00     0.137 S 
ATOM     18  O1  <0> d   1      20.544  -3.866   6.469  0.00  0.00    -0.591 OA
ATOM     19  O3  <0> d   1      18.984  -3.452   4.675  0.00  0.00    -0.591 OA
ATOM     20  O4  <0> d   1      18.172  -4.074   6.859  0.00  0.00    -0.591 OA
ENDBRANCH   1  17
TORSDOF 2
ENDMDL
MODEL 4
REMARK VINA RESULT:      -7.6      1.309      1.879
REMARK  2 active torsions:
REMARK  status: ('A' for Active; 'I' for Inactive)
REMARK    1  A    between atoms: S2_2  and  C5_5 
REMARK    2  A    between atoms: C10_10  and  C11_11 
ROOT
ATOM      1  C5  <0> d   1      18.743   0.546   8.170  0.00  0.00     0.083 A 
ATOM      2  C6  <0> d   1      19.095   1.847   8.497  0.00  0.00     0.028 A 
ATOM      3  C7  <0> d   1      19.176   2.240   9.817  0.00  0.00     0.033 A 
ATOM      4  C8  <0> d   1      18.902   1.326  10.824  0.00  0.00     0.062 A 
ATOM      5  N9  <0> d   1      18.891   1.393  12.203  0.00  0.00    -0.338 N 
ATOM      6  C10 <0> d   1      18.539   0.156  12.667  0.00  0.00     0.139 A 
ATOM      7  N17 <0> d   1      18.337  -0.655  11.657  0.00  0.00    -0.228 NA
ATOM      8  C18 <0> d   1      18.544   0.006  10.493  0.00  0.00     0.087 A 
ATOM      9  C19 <0> d   1      18.465  -0.367   9.148  0.00  0.00     0.060 A 
ATOM     10  H22 <0> d   1      19.095   2.174  12.742  0.00  0.00     0.167 HD
ENDROOT
BRANCH   6  11
ATOM     11  C11 <0> d   1      18.407  -0.213  14.094  0.00  0.00     0.010 A 
ATOM     12  C16 <0> d   1      19.197  -1.231  14.631  0.00  0.00     0.015 A 
ATOM     13  C15 <0> d   1      19.072  -1.567  15.962  0.00  0.00     0.001 A 
ATOM     14  C14 <0> d   1      18.158  -0.904  16.763  0.00  0.00     0.000 A 
ATOM     15  C13 <0> d   1      17.368   0.102  16.236  0.00  0.00     0.001 A 
ATOM     16  C12 <0> d   1      17.488   0.451  14.906  0.00  0.00     0.015 A 
ENDBRANCH   6  11
BRANCH   1  17
ATOM     17  S2  <0> d   1      18.647   0.066   6.478  0.00  0.00     0.137 S 
ATOM     18  O1  <0> d   1      17.235   0.020   6.134  0.00  0.00    -0.591 OA
ATOM     19  O3  <0> d   1      19.278  -1.241   6.376  0.00  0.00    -0.591 OA
ATOM     20  O4  <0> d   1      19.362   1.077   5.714  0.00  0.00    -0.591 OA
ENDBRANCH   1  17
TORSDOF 2
ENDMDL
MODEL 5
REMARK VINA RESULT:      -7.6      4.654      5.568
REMARK  2 active torsions:
REMARK  status: ('A' for Active; 'I' for Inactive)
REMARK    1  A    between atoms: S2_2  and  C5_5 
REMARK    2  A    between atoms: C10_10  and  C11_11 
ROOT
ATOM      1  C5  <0> d   1      18.095   2.732  10.249  0.00  0.00     0.083 A 
ATOM      2  C6  <0> d   1      18.877   2.519   9.124  0.00  0.00     0.028 A 
ATOM      3  C7  <0> d   1      19.134   1.237   8.682  0.00  0.00     0.033 A 
ATOM      4  C8  <0> d   1      18.606   0.155   9.371  0.00  0.00     0.062 A 
ATOM      5  N9  <0> d   1      18.670  -1.215   9.200  0.00  0.00    -0.338 N 
ATOM      6  C10 <0> d   1      17.939  -1.783  10.207  0.00  0.00     0.139 A 
ATOM      7  N17 <0> d   1      17.437  -0.846  10.975  0.00  0.00    -0.228 NA
ATOM      8  C18 <0> d   1      17.813   0.371  10.513  0.00  0.00     0.087 A 
ATOM      9  C19 <0> d   1      17.570   1.679  10.943  0.00  0.00     0.060 A 
ATOM     10  H22 <0> d   1      19.144  -1.684   8.497  0.00  0.00     0.167 HD
ENDROOT
BRANCH   6  11
ATOM     11  C11 <0> d   1      17.743  -3.237  10.400  0.00  0.00     0.010 A 
ATOM     12  C16 <0> d   1      17.580  -3.758  11.685  0.00  0.00     0.015 A 
ATOM     13  C15 <0> d   1      17.394  -5.113  11.858  0.00  0.00     0.001 A 
ATOM     14  C14 <0> d   1      17.378  -5.957  10.762  0.00  0.00     0.000 A 
ATOM     15  C13 <0> d   1      17.544  -5.449   9.486  0.00  0.00     0.001 A 
ATOM     16  C12 <0> d   1      17.726  -4.093   9.299  0.00  0.00     0.015 A 
ENDBRANCH   6  11
BRANCH   1  17
ATOM     17  S2  <0> d   1      17.779   4.378  10.793  0.00  0.00     0.137 S 
ATOM     18  O1  <0> d   1      17.752   5.215   9.605  0.00  0.00    -0.591 OA
ATOM     19  O3  <0> d   1      18.867   4.738  11.691  0.00  0.00    -0.591 OA
ATOM     20  O4  <0> d   1      16.495   4.355  11.475  0.00  0.00    -0.591 OA
ENDBRANCH   1  17
TORSDOF 2
ENDMDL
MODEL 6
REMARK VINA RESULT:      -7.5      6.175      8.163
REMARK  2 active torsions:
REMARK  status: ('A' for Active; 'I' for Inactive)
REMARK    1  A    between atoms: S2_2  and  C5_5 
REMARK    2  A    between atoms: C10_10  and  C11_11 
ROOT
ATOM      1  C5  <0> d   1      18.824   1.391  16.243  0.00  0.00     0.083 A 
ATOM      2  C6  <0> d   1      18.836   2.766  16.058  0.00  0.00     0.028 A 
ATOM      3  C7  <0> d   1      18.766   3.302  14.789  0.00  0.00     0.033 A 
ATOM      4  C8  <0> d   1      18.684   2.459  13.690  0.00  0.00     0.062 A 
ATOM      5  N9  <0> d   1      18.604   2.665  12.327  0.00  0.00    -0.338 N 
ATOM      6  C10 <0> d   1      18.547   1.434  11.734  0.00  0.00     0.139 A 
ATOM      7  N17 <0> d   1      18.588   0.498  12.650  0.00  0.00    -0.228 NA
ATOM      8  C18 <0> d   1      18.674   1.065  13.877  0.00  0.00     0.087 A 
ATOM      9  C19 <0> d   1      18.750   0.545  15.173  0.00  0.00     0.060 A 
ATOM     10  H22 <0> d   1      18.590   3.523  11.875  0.00  0.00     0.167 HD
ENDROOT
BRANCH   6  11
ATOM     11  C11 <0> d   1      18.453   1.195  10.276  0.00  0.00     0.010 A 
ATOM     12  C16 <0> d   1      17.575   0.230   9.779  0.00  0.00     0.015 A 
ATOM     13  C15 <0> d   1      17.489   0.015   8.420  0.00  0.00     0.001 A 
ATOM     14  C14 <0> d   1      18.278   0.746   7.550  0.00  0.00     0.000 A 
ATOM     15  C13 <0> d   1      19.155   1.700   8.036  0.00  0.00     0.001 A 
ATOM     16  C12 <0> d   1      19.246   1.928   9.394  0.00  0.00     0.015 A 
ENDBRANCH   6  11
BRANCH   1  17
ATOM     17  S2  <0> d   1      18.914   0.729  17.873  0.00  0.00     0.137 S 
ATOM     18  O1  <0> d   1      19.888   1.529  18.598  0.00  0.00    -0.591 OA
ATOM     19  O3  <0> d   1      19.336  -0.657  17.740  0.00  0.00    -0.591 OA
ATOM     20  O4  <0> d   1      17.581   0.841  18.445  0.00  0.00    -0.591 OA
ENDBRANCH   1  17
TORSDOF 2
ENDMDL
MODEL 7
REMARK VINA RESULT:      -7.4      2.948      3.761
REMARK  2 active torsions:
REMARK  status: ('A' for Active; 'I' for Inactive)
REMARK    1  A    between atoms: S2_2  and  C5_5 
REMARK    2  A    between atoms: C10_10  and  C11_11 
ROOT
ATOM      1  C5  <0> d   1      18.592  -0.443   6.819  0.00  0.00     0.083 A 
ATOM      2  C6  <0> d   1      17.950  -1.296   7.704  0.00  0.00     0.028 A 
ATOM      3  C7  <0> d   1      17.630  -0.872   8.978  0.00  0.00     0.033 A 
ATOM      4  C8  <0> d   1      17.956   0.417   9.375  0.00  0.00     0.062 A 
ATOM      5  N9  <0> d   1      17.783   1.133  10.543  0.00  0.00    -0.338 N 
ATOM      6  C10 <0> d   1      18.316   2.376  10.338  0.00  0.00     0.139 A 
ATOM      7  N17 <0> d   1      18.799   2.457   9.123  0.00  0.00    -0.228 NA
ATOM      8  C18 <0> d   1      18.608   1.282   8.477  0.00  0.00     0.087 A 
ATOM      9  C19 <0> d   1      18.925   0.827   7.193  0.00  0.00     0.060 A 
ATOM     10  H22 <0> d   1      17.363   0.813  11.356  0.00  0.00     0.167 HD
ENDROOT
BRANCH   6  11
ATOM     11  C11 <0> d   1      18.343   3.466  11.339  0.00  0.00     0.010 A 
ATOM     12  C16 <0> d   1      19.523   3.758  12.026  0.00  0.00     0.015 A 
ATOM     13  C15 <0> d   1      19.543   4.778  12.954  0.00  0.00     0.001 A 
ATOM     14  C14 <0> d   1      18.393   5.503  13.213  0.00  0.00     0.000 A 
ATOM     15  C13 <0> d   1      17.219   5.215  12.540  0.00  0.00     0.001 A 
ATOM     16  C12 <0> d   1      17.188   4.201  11.605  0.00  0.00     0.015 A 
ENDBRANCH   6  11
BRANCH   1  17
ATOM     17  S2  <0> d   1      18.989  -1.007   5.197  0.00  0.00     0.137 S 
ATOM     18  O1  <0> d   1      19.744  -2.239   5.355  0.00  0.00    -0.591 OA
ATOM     19  O3  <0> d   1      19.780   0.042   4.571  0.00  0.00    -0.591 OA
ATOM     20  O4  <0> d   1      17.727  -1.223   4.508  0.00  0.00    -0.591 OA
ENDBRANCH   1  17
TORSDOF 2
ENDMDL
MODEL 8
REMARK VINA RESULT:      -7.3      6.174      7.954
REMARK  2 active torsions:
REMARK  status: ('A' for Active; 'I' for Inactive)
REMARK    1  A    between atoms: S2_2  and  C5_5 
REMARK    2  A    between atoms: C10_10  and  C11_11 
ROOT
ATOM      1  C5  <0> d   1      18.965   3.465  14.553  0.00  0.00     0.083 A 
ATOM      2  C6  <0> d   1      19.239   4.662  13.907  0.00  0.00     0.028 A 
ATOM      3  C7  <0> d   1      19.237   4.730  12.529  0.00  0.00     0.033 A 
ATOM      4  C8  <0> d   1      18.959   3.592  11.785  0.00  0.00     0.062 A 
ATOM      5  N9  <0> d   1      18.879   3.326  10.432  0.00  0.00    -0.338 N 
ATOM      6  C10 <0> d   1      18.566   2.002  10.298  0.00  0.00     0.139 A 
ATOM      7  N17 <0> d   1      18.451   1.450  11.481  0.00  0.00    -0.228 NA
ATOM      8  C18 <0> d   1      18.683   2.378  12.441  0.00  0.00     0.087 A 
ATOM      9  C19 <0> d   1      18.695   2.334  13.838  0.00  0.00     0.060 A 
ATOM     10  H22 <0> d   1      19.019   3.961   9.713  0.00  0.00     0.167 HD
ENDROOT
BRANCH   6  11
ATOM     11  C11 <0> d   1      18.384   1.297   9.009  0.00  0.00     0.010 A 
ATOM     12  C16 <0> d   1      19.049   1.743   7.866  0.00  0.00     0.015 A 
ATOM     13  C15 <0> d   1      18.878   1.079   6.669  0.00  0.00     0.001 A 
ATOM     14  C14 <0> d   1      18.040  -0.020   6.599  0.00  0.00     0.000 A 
ATOM     15  C13 <0> d   1      17.374  -0.464   7.726  0.00  0.00     0.001 A 
ATOM     16  C12 <0> d   1      17.541   0.188   8.931  0.00  0.00     0.015 A 
ENDBRANCH   6  11
BRANCH   1  17
ATOM     17  S2  <0> d   1      18.973   3.403  16.314  0.00  0.00     0.137 S 
ATOM     18  O1  <0> d   1      20.348   3.618  16.736  0.00  0.00    -0.591 OA
ATOM     19  O3  <0> d   1      18.487   2.084  16.689  0.00  0.00    -0.591 OA
ATOM     20  O4  <0> d   1      18.088   4.461  16.775  0.00  0.00    -0.591 OA
ENDBRANCH   1  17
TORSDOF 2
ENDMDL
MODEL 9
REMARK VINA RESULT:      -7.3      6.605      8.173
REMARK  2 active torsions:
REMARK  status: ('A' for Active; 'I' for Inactive)
REMARK    1  A    between atoms: S2_2  and  C5_5 
REMARK    2  A    between atoms: C10_10  and  C11_11 
ROOT
ATOM      1  C5  <0> d   1      17.907   5.119  13.639  0.00  0.00     0.083 A 
ATOM      2  C6  <0> d   1      19.292   5.131  13.575  0.00  0.00     0.028 A 
ATOM      3  C7  <0> d   1      19.955   4.408  12.604  0.00  0.00     0.033 A 
ATOM      4  C8  <0> d   1      19.227   3.662  11.687  0.00  0.00     0.062 A 
ATOM      5  N9  <0> d   1      19.570   2.851  10.623  0.00  0.00    -0.338 N 
ATOM      6  C10 <0> d   1      18.406   2.378  10.083  0.00  0.00     0.139 A 
ATOM      7  N17 <0> d   1      17.383   2.851  10.750  0.00  0.00    -0.228 NA
ATOM      8  C18 <0> d   1      17.822   3.649  11.753  0.00  0.00     0.087 A 
ATOM      9  C19 <0> d   1      17.175   4.387  12.749  0.00  0.00     0.060 A 
ATOM     10  H22 <0> d   1      20.469   2.654  10.317  0.00  0.00     0.167 HD
ENDROOT
BRANCH   6  11
ATOM     11  C11 <0> d   1      18.316   1.470   8.918  0.00  0.00     0.010 A 
ATOM     12  C16 <0> d   1      19.017   1.760   7.746  0.00  0.00     0.015 A 
ATOM     13  C15 <0> d   1      18.932   0.907   6.666  0.00  0.00     0.001 A 
ATOM     14  C14 <0> d   1      18.146  -0.229   6.739  0.00  0.00     0.000 A 
ATOM     15  C13 <0> d   1      17.444  -0.520   7.895  0.00  0.00     0.001 A 
ATOM     16  C12 <0> d   1      17.525   0.323   8.984  0.00  0.00     0.015 A 
ENDBRANCH   6  11
BRANCH   1  17
ATOM     17  S2  <0> d   1      17.084   6.051  14.887  0.00  0.00     0.137 S 
ATOM     18  O1  <0> d   1      15.657   5.879  14.667  0.00  0.00    -0.591 OA
ATOM     19  O3  <0> d   1      17.500   7.436  14.719  0.00  0.00    -0.591 OA
ATOM     20  O4  <0> d   1      17.508   5.506  16.167  0.00  0.00    -0.591 OA
ENDBRANCH   1  17
TORSDOF 2
ENDMDL
