MODEL 1
REMARK VINA RESULT:      -8.8      0.000      0.000
REMARK  9 active torsions:
REMARK  status: ('A' for Active; 'I' for Inactive)
REMARK    1  A    between atoms: N5_4  and  C7_6 
REMARK    2  A    between atoms: C7_6  and  C8_7 
REMARK    3  A    between atoms: C8_7  and  C10_8 
REMARK    4  A    between atoms: C8_7  and  C17_15 
REMARK    5  A    between atoms: C10_8  and  C11_9 
REMARK       I    between atoms: C17_15  and  N19_17 
REMARK    6  A    between atoms: N19_17  and  C20_18 
REMARK    7  A    between atoms: C20_18  and  C21_19 
REMARK    8  A    between atoms: C26_24  and  C28_26 
REMARK    9  A    between atoms: C32_30  and  O33_31 
ROOT
ATOM      1  C1  ZIN A   1      20.689  -4.132  11.812  0.00  0.00     0.012 C 
ATOM      2  C2  ZIN A   1      19.616  -3.049  11.680  0.00  0.00     0.020 C 
ATOM      3  C4  ZIN A   1      20.134  -1.923  10.783  0.00  0.00     0.240 C 
ATOM      4  N5  ZIN A   1      19.105  -0.884  10.653  0.00  0.00    -0.070 N 
ATOM      5  H6  ZIN A   1      18.850  -0.548  11.569  0.00  0.00     0.279 HD
ATOM      6  C24 ZIN A   1      17.918  -1.438   9.990  0.00  0.00     0.236 C 
ATOM      7  C25 ZIN A   1      17.315  -2.545  10.857  0.00  0.00     0.042 C 
ATOM      8  C26 ZIN A   1      18.354  -3.653  11.057  0.00  0.00    -0.010 C 
ATOM      9  C27 ZIN A   1      17.786  -4.726  11.989  0.00  0.00     0.021 C 
ENDROOT
BRANCH   4  10
ATOM     10  C7  ZIN A   1      19.634   0.229   9.854  0.00  0.00     0.249 C 
BRANCH  10  11
ATOM     11  C8  ZIN A   1      18.472   1.066   9.313  0.00  0.00     0.108 C 
BRANCH  11  12
ATOM     12  C10 ZIN A   1      18.908   1.775   8.029  0.00  0.00     0.054 C 
BRANCH  12  13
ATOM     13  C11 ZIN A   1      18.608   0.896   6.843  0.00  0.00    -0.057 A 
ATOM     14  C16 ZIN A   1      19.478   0.863   5.769  0.00  0.00     0.007 A 
ATOM     15  C15 ZIN A   1      19.206   0.054   4.683  0.00  0.00     0.001 A 
ATOM     16  C14 ZIN A   1      18.058  -0.716   4.665  0.00  0.00     0.000 A 
ATOM     17  C13 ZIN A   1      17.185  -0.679   5.736  0.00  0.00     0.001 A 
ATOM     18  C12 ZIN A   1      17.460   0.126   6.825  0.00  0.00     0.007 A 
ENDBRANCH  12  13
ENDBRANCH  11  12
BRANCH  11  19
ATOM     19  C17 ZIN A   1      18.070   2.091  10.342  0.00  0.00     0.224 C 
ATOM     20  O18 ZIN A   1      17.196   1.836  11.144  0.00  0.00    -0.273 OA
ATOM     21  N19 ZIN A   1      18.682   3.291  10.371  0.00  0.00    -0.351 N 
ATOM     22  H49 ZIN A   1      19.323   3.526   9.683  0.00  0.00     0.163 HD
BRANCH  21  23
ATOM     23  C20 ZIN A   1      18.379   4.242  11.444  0.00  0.00     0.235 C 
BRANCH  23  24
ATOM     24  C21 ZIN A   1      17.212   5.104  11.035  0.00  0.00     0.191 C 
ATOM     25  O22 ZIN A   1      16.276   5.266  11.801  0.00  0.00    -0.647 OA
ATOM     26  O23 ZIN A   1      17.205   5.640   9.940  0.00  0.00    -0.647 OA
ENDBRANCH  23  24
ENDBRANCH  21  23
ENDBRANCH  11  19
ENDBRANCH  10  11
ENDBRANCH   4  10
BRANCH   8  27
ATOM     27  C28 ZIN A   1      18.696  -4.269   9.725  0.00  0.00    -0.047 A 
ATOM     28  C34 ZIN A   1      17.988  -3.909   8.596  0.00  0.00     0.044 A 
ATOM     29  C32 ZIN A   1      18.307  -4.473   7.369  0.00  0.00     0.066 A 
ATOM     30  C31 ZIN A   1      19.331  -5.406   7.282  0.00  0.00     0.036 A 
ATOM     31  C30 ZIN A   1      20.032  -5.767   8.416  0.00  0.00     0.003 A 
ATOM     32  C29 ZIN A   1      19.716  -5.199   9.637  0.00  0.00     0.008 A 
BRANCH  29  33
ATOM     33  O33 ZIN A   1      17.615  -4.117   6.255  0.00  0.00    -0.361 OA
ATOM     34  H62 ZIN A   1      17.105  -4.838   5.861  0.00  0.00     0.217 HD
ENDBRANCH  29  33
ENDBRANCH   8  27
TORSDOF 9
ENDMDL
MODEL 2
REMARK VINA RESULT:      -8.7      1.213      1.519
REMARK  9 active torsions:
REMARK  status: ('A' for Active; 'I' for Inactive)
REMARK    1  A    between atoms: N5_4  and  C7_6 
REMARK    2  A    between atoms: C7_6  and  C8_7 
REMARK    3  A    between atoms: C8_7  and  C10_8 
REMARK    4  A    between atoms: C8_7  and  C17_15 
REMARK    5  A    between atoms: C10_8  and  C11_9 
REMARK       I    between atoms: C17_15  and  N19_17 
REMARK    6  A    between atoms: N19_17  and  C20_18 
REMARK    7  A    between atoms: C20_18  and  C21_19 
REMARK    8  A    between atoms: C26_24  and  C28_26 
REMARK    9  A    between atoms: C32_30  and  O33_31 
ROOT
ATOM      1  C1  ZIN A   1      20.686  -4.036  11.771  0.00  0.00     0.012 C 
ATOM      2  C2  ZIN A   1      19.588  -2.971  11.711  0.00  0.00     0.020 C 
ATOM      3  C4  ZIN A   1      20.108  -1.743  10.960  0.00  0.00     0.240 C 
ATOM      4  N5  ZIN A   1      19.056  -0.722  10.899  0.00  0.00    -0.070 N 
ATOM      5  H6  ZIN A   1      18.758  -0.491  11.834  0.00  0.00     0.279 HD
ATOM      6  C24 ZIN A   1      17.912  -1.229  10.133  0.00  0.00     0.236 C 
ATOM      7  C25 ZIN A   1      17.307  -2.437  10.852  0.00  0.00     0.042 C 
ATOM      8  C26 ZIN A   1      18.368  -3.534  10.976  0.00  0.00    -0.010 C 
ATOM      9  C27 ZIN A   1      17.795  -4.714  11.766  0.00  0.00     0.021 C 
ENDROOT
BRANCH   4  10
ATOM     10  C7  ZIN A   1      19.584   0.483  10.244  0.00  0.00     0.249 C 
BRANCH  10  11
ATOM     11  C8  ZIN A   1      18.454   1.191   9.493  0.00  0.00     0.108 C 
BRANCH  11  12
ATOM     12  C10 ZIN A   1      19.010   1.828   8.217  0.00  0.00     0.054 C 
BRANCH  12  13
ATOM     13  C11 ZIN A   1      18.674   0.959   7.033  0.00  0.00    -0.057 A 
ATOM     14  C16 ZIN A   1      19.511   0.934   5.934  0.00  0.00     0.007 A 
ATOM     15  C15 ZIN A   1      19.205   0.134   4.849  0.00  0.00     0.001 A 
ATOM     16  C14 ZIN A   1      18.055  -0.634   4.860  0.00  0.00     0.000 A 
ATOM     17  C13 ZIN A   1      17.215  -0.605   5.957  0.00  0.00     0.001 A 
ATOM     18  C12 ZIN A   1      17.524   0.192   7.043  0.00  0.00     0.007 A 
ENDBRANCH  12  13
ENDBRANCH  11  12
BRANCH  11  19
ATOM     19  C17 ZIN A   1      17.861   2.262  10.371  0.00  0.00     0.224 C 
ATOM     20  O18 ZIN A   1      17.036   1.969  11.211  0.00  0.00    -0.273 OA
ATOM     21  N19 ZIN A   1      18.247   3.545  10.224  0.00  0.00    -0.351 N 
ATOM     22  H49 ZIN A   1      18.845   3.791   9.502  0.00  0.00     0.163 HD
BRANCH  21  23
ATOM     23  C20 ZIN A   1      17.763   4.566  11.156  0.00  0.00     0.235 C 
BRANCH  23  24
ATOM     24  C21 ZIN A   1      18.758   4.736  12.276  0.00  0.00     0.191 C 
ATOM     25  O22 ZIN A   1      18.420   5.282  13.313  0.00  0.00    -0.647 OA
ATOM     26  O23 ZIN A   1      19.899   4.328  12.144  0.00  0.00    -0.647 OA
ENDBRANCH  23  24
ENDBRANCH  21  23
ENDBRANCH  11  19
ENDBRANCH  10  11
ENDBRANCH   4  10
BRANCH   8  27
ATOM     27  C28 ZIN A   1      18.778  -3.997   9.602  0.00  0.00    -0.047 A 
ATOM     28  C34 ZIN A   1      19.824  -4.886   9.457  0.00  0.00     0.044 A 
ATOM     29  C32 ZIN A   1      20.198  -5.316   8.192  0.00  0.00     0.066 A 
ATOM     30  C31 ZIN A   1      19.526  -4.842   7.075  0.00  0.00     0.036 A 
ATOM     31  C30 ZIN A   1      18.485  -3.947   7.225  0.00  0.00     0.003 A 
ATOM     32  C29 ZIN A   1      18.110  -3.525   8.488  0.00  0.00     0.008 A 
BRANCH  29  33
ATOM     33  O33 ZIN A   1      21.223  -6.195   8.047  0.00  0.00    -0.361 OA
ATOM     34  H62 ZIN A   1      21.789  -6.273   8.827  0.00  0.00     0.217 HD
ENDBRANCH  29  33
ENDBRANCH   8  27
TORSDOF 9
ENDMDL
MODEL 3
REMARK VINA RESULT:      -8.6      3.612      5.071
REMARK  9 active torsions:
REMARK  status: ('A' for Active; 'I' for Inactive)
REMARK    1  A    between atoms: N5_4  and  C7_6 
REMARK    2  A    between atoms: C7_6  and  C8_7 
REMARK    3  A    between atoms: C8_7  and  C10_8 
REMARK    4  A    between atoms: C8_7  and  C17_15 
REMARK    5  A    between atoms: C10_8  and  C11_9 
REMARK       I    between atoms: C17_15  and  N19_17 
REMARK    6  A    between atoms: N19_17  and  C20_18 
REMARK    7  A    between atoms: C20_18  and  C21_19 
REMARK    8  A    between atoms: C26_24  and  C28_26 
REMARK    9  A    between atoms: C32_30  and  O33_31 
ROOT
ATOM      1  C1  ZIN A   1      19.998  -4.736  10.523  0.00  0.00     0.012 C 
ATOM      2  C2  ZIN A   1      19.079  -3.924  11.439  0.00  0.00     0.020 C 
ATOM      3  C4  ZIN A   1      19.835  -2.704  11.969  0.00  0.00     0.240 C 
ATOM      4  N5  ZIN A   1      18.956  -1.923  12.847  0.00  0.00    -0.070 N 
ATOM      5  H6  ZIN A   1      18.619  -2.511  13.594  0.00  0.00     0.279 HD
ATOM      6  C24 ZIN A   1      17.814  -1.410  12.080  0.00  0.00     0.236 C 
ATOM      7  C25 ZIN A   1      16.980  -2.580  11.554  0.00  0.00     0.042 C 
ATOM      8  C26 ZIN A   1      17.853  -3.456  10.650  0.00  0.00    -0.010 C 
ATOM      9  C27 ZIN A   1      17.049  -4.672  10.185  0.00  0.00     0.021 C 
ENDROOT
BRANCH   4  10
ATOM     10  C7  ZIN A   1      19.707  -0.795  13.413  0.00  0.00     0.249 C 
BRANCH  10  11
ATOM     11  C8  ZIN A   1      18.736   0.320  13.807  0.00  0.00     0.108 C 
BRANCH  11  12
ATOM     12  C10 ZIN A   1      19.409   1.679  13.603  0.00  0.00     0.054 C 
BRANCH  12  13
ATOM     13  C11 ZIN A   1      18.917   2.296  12.319  0.00  0.00    -0.057 A 
ATOM     14  C16 ZIN A   1      17.810   3.123  12.330  0.00  0.00     0.007 A 
ATOM     15  C15 ZIN A   1      17.361   3.693  11.154  0.00  0.00     0.001 A 
ATOM     16  C14 ZIN A   1      18.014   3.428   9.965  0.00  0.00     0.000 A 
ATOM     17  C13 ZIN A   1      19.119   2.597   9.953  0.00  0.00     0.001 A 
ATOM     18  C12 ZIN A   1      19.570   2.031  11.130  0.00  0.00     0.007 A 
ENDBRANCH  12  13
ENDBRANCH  11  12
BRANCH  11  19
ATOM     19  C17 ZIN A   1      18.351   0.161  15.255  0.00  0.00     0.224 C 
ATOM     20  O18 ZIN A   1      18.177  -0.946  15.719  0.00  0.00    -0.273 OA
ATOM     21  N19 ZIN A   1      18.201   1.250  16.035  0.00  0.00    -0.351 N 
ATOM     22  H49 ZIN A   1      18.261   2.137  15.647  0.00  0.00     0.163 HD
BRANCH  21  23
ATOM     23  C20 ZIN A   1      17.946   1.094  17.469  0.00  0.00     0.235 C 
BRANCH  23  24
ATOM     24  C21 ZIN A   1      19.231   1.291  18.232  0.00  0.00     0.191 C 
ATOM     25  O22 ZIN A   1      19.533   2.400  18.640  0.00  0.00    -0.647 OA
ATOM     26  O23 ZIN A   1      19.967   0.341  18.441  0.00  0.00    -0.647 OA
ENDBRANCH  23  24
ENDBRANCH  21  23
ENDBRANCH  11  19
ENDBRANCH  10  11
ENDBRANCH   4  10
BRANCH   8  27
ATOM     27  C28 ZIN A   1      18.300  -2.658   9.453  0.00  0.00    -0.047 A 
ATOM     28  C34 ZIN A   1      18.927  -3.289   8.397  0.00  0.00     0.044 A 
ATOM     29  C32 ZIN A   1      19.333  -2.555   7.293  0.00  0.00     0.066 A 
ATOM     30  C31 ZIN A   1      19.119  -1.185   7.257  0.00  0.00     0.036 A 
ATOM     31  C30 ZIN A   1      18.498  -0.556   8.319  0.00  0.00     0.003 A 
ATOM     32  C29 ZIN A   1      18.088  -1.292   9.416  0.00  0.00     0.008 A 
BRANCH  29  33
ATOM     33  O33 ZIN A   1      19.946  -3.174   6.250  0.00  0.00    -0.361 OA
ATOM     34  H62 ZIN A   1      20.888  -2.972   6.170  0.00  0.00     0.217 HD
ENDBRANCH  29  33
ENDBRANCH   8  27
TORSDOF 9
ENDMDL
MODEL 4
REMARK VINA RESULT:      -8.4      3.249      7.127
REMARK  9 active torsions:
REMARK  status: ('A' for Active; 'I' for Inactive)
REMARK    1  A    between atoms: N5_4  and  C7_6 
REMARK    2  A    between atoms: C7_6  and  C8_7 
REMARK    3  A    between atoms: C8_7  and  C10_8 
REMARK    4  A    between atoms: C8_7  and  C17_15 
REMARK    5  A    between atoms: C10_8  and  C11_9 
REMARK       I    between atoms: C17_15  and  N19_17 
REMARK    6  A    between atoms: N19_17  and  C20_18 
REMARK    7  A    between atoms: C20_18  and  C21_19 
REMARK    8  A    between atoms: C26_24  and  C28_26 
REMARK    9  A    between atoms: C32_30  and  O33_31 
ROOT
ATOM      1  C1  ZIN A   1      20.688   0.653  12.304  0.00  0.00     0.012 C 
ATOM      2  C2  ZIN A   1      19.547  -0.020  11.538  0.00  0.00     0.020 C 
ATOM      3  C4  ZIN A   1      19.781  -1.532  11.497  0.00  0.00     0.240 C 
ATOM      4  N5  ZIN A   1      18.687  -2.179  10.764  0.00  0.00    -0.070 N 
ATOM      5  H6  ZIN A   1      18.622  -1.784   9.839  0.00  0.00     0.279 HD
ATOM      6  C24 ZIN A   1      17.419  -1.969  11.473  0.00  0.00     0.236 C 
ATOM      7  C25 ZIN A   1      17.094  -0.474  11.512  0.00  0.00     0.042 C 
ATOM      8  C26 ZIN A   1      18.218   0.268  12.242  0.00  0.00    -0.010 C 
ATOM      9  C27 ZIN A   1      17.940   1.773  12.214  0.00  0.00     0.021 C 
ENDROOT
BRANCH   4  10
ATOM     10  C7  ZIN A   1      18.953  -3.620  10.663  0.00  0.00     0.249 C 
BRANCH  10  11
ATOM     11  C8  ZIN A   1      18.053  -4.231   9.587  0.00  0.00     0.108 C 
BRANCH  11  12
ATOM     12  C10 ZIN A   1      17.867  -5.725   9.864  0.00  0.00     0.054 C 
BRANCH  12  13
ATOM     13  C11 ZIN A   1      16.758  -6.263   8.998  0.00  0.00    -0.057 A 
ATOM     14  C16 ZIN A   1      15.541  -5.610   8.947  0.00  0.00     0.007 A 
ATOM     15  C15 ZIN A   1      14.526  -6.101   8.149  0.00  0.00     0.001 A 
ATOM     16  C14 ZIN A   1      14.723  -7.252   7.410  0.00  0.00     0.000 A 
ATOM     17  C13 ZIN A   1      15.938  -7.909   7.465  0.00  0.00     0.001 A 
ATOM     18  C12 ZIN A   1      16.956  -7.415   8.259  0.00  0.00     0.007 A 
ENDBRANCH  12  13
ENDBRANCH  11  12
BRANCH  11  19
ATOM     19  C17 ZIN A   1      18.691  -4.047   8.234  0.00  0.00     0.224 C 
ATOM     20  O18 ZIN A   1      19.729  -4.617   7.971  0.00  0.00    -0.273 OA
ATOM     21  N19 ZIN A   1      18.108  -3.250   7.317  0.00  0.00    -0.351 N 
ATOM     22  H49 ZIN A   1      17.323  -2.733   7.553  0.00  0.00     0.163 HD
BRANCH  21  23
ATOM     23  C20 ZIN A   1      18.661  -3.165   5.963  0.00  0.00     0.235 C 
BRANCH  23  24
ATOM     24  C21 ZIN A   1      19.250  -1.795   5.746  0.00  0.00     0.191 C 
ATOM     25  O22 ZIN A   1      19.173  -0.953   6.625  0.00  0.00    -0.647 OA
ATOM     26  O23 ZIN A   1      19.804  -1.529   4.693  0.00  0.00    -0.647 OA
ENDBRANCH  23  24
ENDBRANCH  21  23
ENDBRANCH  11  19
ENDBRANCH  10  11
ENDBRANCH   4  10
BRANCH   8  27
ATOM     27  C28 ZIN A   1      18.292  -0.207  13.669  0.00  0.00    -0.047 A 
ATOM     28  C34 ZIN A   1      17.405   0.284  14.607  0.00  0.00     0.044 A 
ATOM     29  C32 ZIN A   1      17.470  -0.158  15.920  0.00  0.00     0.066 A 
ATOM     30  C31 ZIN A   1      18.434  -1.083  16.291  0.00  0.00     0.036 A 
ATOM     31  C30 ZIN A   1      19.324  -1.567  15.351  0.00  0.00     0.003 A 
ATOM     32  C29 ZIN A   1      19.253  -1.129  14.041  0.00  0.00     0.008 A 
BRANCH  29  33
ATOM     33  O33 ZIN A   1      16.595   0.320  16.844  0.00  0.00    -0.361 OA
ATOM     34  H62 ZIN A   1      16.202   1.172  16.610  0.00  0.00     0.217 HD
ENDBRANCH  29  33
ENDBRANCH   8  27
TORSDOF 9
ENDMDL
MODEL 5
REMARK VINA RESULT:      -8.4      3.391      6.463
REMARK  9 active torsions:
REMARK  status: ('A' for Active; 'I' for Inactive)
REMARK    1  A    between atoms: N5_4  and  C7_6 
REMARK    2  A    between atoms: C7_6  and  C8_7 
REMARK    3  A    between atoms: C8_7  and  C10_8 
REMARK    4  A    between atoms: C8_7  and  C17_15 
REMARK    5  A    between atoms: C10_8  and  C11_9 
REMARK       I    between atoms: C17_15  and  N19_17 
REMARK    6  A    between atoms: N19_17  and  C20_18 
REMARK    7  A    between atoms: C20_18  and  C21_19 
REMARK    8  A    between atoms: C26_24  and  C28_26 
REMARK    9  A    between atoms: C32_30  and  O33_31 
ROOT
ATOM      1  C1  ZIN A   1      20.436   0.654  11.451  0.00  0.00     0.012 C 
ATOM      2  C2  ZIN A   1      19.329   0.764  10.401  0.00  0.00     0.020 C 
ATOM      3  C4  ZIN A   1      19.783   0.086   9.106  0.00  0.00     0.240 C 
ATOM      4  N5  ZIN A   1      18.722   0.189   8.098  0.00  0.00    -0.070 N 
ATOM      5  H6  ZIN A   1      18.490   1.159   7.952  0.00  0.00     0.279 HD
ATOM      6  C24 ZIN A   1      17.529  -0.534   8.554  0.00  0.00     0.236 C 
ATOM      7  C25 ZIN A   1      16.987   0.120   9.828  0.00  0.00     0.042 C 
ATOM      8  C26 ZIN A   1      18.063   0.072  10.917  0.00  0.00    -0.010 C 
ATOM      9  C27 ZIN A   1      17.558   0.796  12.167  0.00  0.00     0.021 C 
ENDROOT
BRANCH   4  10
ATOM     10  C7  ZIN A   1      19.191  -0.396   6.835  0.00  0.00     0.249 C 
BRANCH  10  11
ATOM     11  C8  ZIN A   1      18.696  -1.840   6.726  0.00  0.00     0.108 C 
BRANCH  11  12
ATOM     12  C10 ZIN A   1      19.753  -2.786   7.300  0.00  0.00     0.054 C 
BRANCH  12  13
ATOM     13  C11 ZIN A   1      19.074  -3.967   7.946  0.00  0.00    -0.057 A 
ATOM     14  C16 ZIN A   1      19.811  -5.084   8.291  0.00  0.00     0.007 A 
ATOM     15  C15 ZIN A   1      19.190  -6.165   8.887  0.00  0.00     0.001 A 
ATOM     16  C14 ZIN A   1      17.830  -6.133   9.129  0.00  0.00     0.000 A 
ATOM     17  C13 ZIN A   1      17.092  -5.018   8.779  0.00  0.00     0.001 A 
ATOM     18  C12 ZIN A   1      17.714  -3.935   8.188  0.00  0.00     0.007 A 
ENDBRANCH  12  13
ENDBRANCH  11  12
BRANCH  11  19
ATOM     19  C17 ZIN A   1      18.450  -2.179   5.279  0.00  0.00     0.224 C 
ATOM     20  O18 ZIN A   1      19.373  -2.183   4.492  0.00  0.00    -0.273 OA
ATOM     21  N19 ZIN A   1      17.205  -2.480   4.859  0.00  0.00    -0.351 N 
ATOM     22  H49 ZIN A   1      16.455  -2.400   5.469  0.00  0.00     0.163 HD
BRANCH  21  23
ATOM     23  C20 ZIN A   1      16.985  -2.927   3.481  0.00  0.00     0.235 C 
BRANCH  23  24
ATOM     24  C21 ZIN A   1      16.392  -4.313   3.492  0.00  0.00     0.191 C 
ATOM     25  O22 ZIN A   1      17.105  -5.281   3.285  0.00  0.00    -0.647 OA
ATOM     26  O23 ZIN A   1      15.202  -4.465   3.707  0.00  0.00    -0.647 OA
ENDBRANCH  23  24
ENDBRANCH  21  23
ENDBRANCH  11  19
ENDBRANCH  10  11
ENDBRANCH   4  10
BRANCH   8  27
ATOM     27  C28 ZIN A   1      18.376  -1.362  11.254  0.00  0.00    -0.047 A 
ATOM     28  C34 ZIN A   1      19.677  -1.820  11.180  0.00  0.00     0.044 A 
ATOM     29  C32 ZIN A   1      19.966  -3.140  11.496  0.00  0.00     0.066 A 
ATOM     30  C31 ZIN A   1      18.945  -3.999  11.876  0.00  0.00     0.036 A 
ATOM     31  C30 ZIN A   1      17.644  -3.537  11.943  0.00  0.00     0.003 A 
ATOM     32  C29 ZIN A   1      17.360  -2.220  11.633  0.00  0.00     0.008 A 
BRANCH  29  33
ATOM     33  O33 ZIN A   1      21.245  -3.593  11.428  0.00  0.00    -0.361 OA
ATOM     34  H62 ZIN A   1      21.824  -3.241  12.118  0.00  0.00     0.217 HD
ENDBRANCH  29  33
ENDBRANCH   8  27
TORSDOF 9
ENDMDL
MODEL 6
REMARK VINA RESULT:      -8.1      2.509      5.265
REMARK  9 active torsions:
REMARK  status: ('A' for Active; 'I' for Inactive)
REMARK    1  A    between atoms: N5_4  and  C7_6 
REMARK    2  A    between atoms: C7_6  and  C8_7 
REMARK    3  A    between atoms: C8_7  and  C10_8 
REMARK    4  A    between atoms: C8_7  and  C17_15 
REMARK    5  A    between atoms: C10_8  and  C11_9 
REMARK       I    between atoms: C17_15  and  N19_17 
REMARK    6  A    between atoms: N19_17  and  C20_18 
REMARK    7  A    between atoms: C20_18  and  C21_19 
REMARK    8  A    between atoms: C26_24  and  C28_26 
REMARK    9  A    between atoms: C32_30  and  O33_31 
ROOT
ATOM      1  C1  ZIN A   1      16.640  -0.046   5.925  0.00  0.00     0.012 C 
ATOM      2  C2  ZIN A   1      17.484   0.432   7.109  0.00  0.00     0.020 C 
ATOM      3  C4  ZIN A   1      16.980  -0.227   8.395  0.00  0.00     0.240 C 
ATOM      4  N5  ZIN A   1      17.789   0.229   9.531  0.00  0.00    -0.070 N 
ATOM      5  H6  ZIN A   1      17.753   1.235   9.586  0.00  0.00     0.279 HD
ATOM      6  C24 ZIN A   1      19.181  -0.200   9.356  0.00  0.00     0.236 C 
ATOM      7  C25 ZIN A   1      19.770   0.460   8.107  0.00  0.00     0.042 C 
ATOM      8  C26 ZIN A   1      18.948   0.047   6.883  0.00  0.00    -0.010 C 
ATOM      9  C27 ZIN A   1      19.481   0.768   5.642  0.00  0.00     0.021 C 
ENDROOT
BRANCH   4  10
ATOM     10  C7  ZIN A   1      17.255  -0.348  10.772  0.00  0.00     0.249 C 
BRANCH  10  11
ATOM     11  C8  ZIN A   1      18.343  -0.338  11.849  0.00  0.00     0.108 C 
BRANCH  11  12
ATOM     12  C10 ZIN A   1      18.134  -1.521  12.796  0.00  0.00     0.054 C 
BRANCH  12  13
ATOM     13  C11 ZIN A   1      18.477  -2.803  12.081  0.00  0.00    -0.057 A 
ATOM     14  C16 ZIN A   1      19.798  -3.127  11.838  0.00  0.00     0.007 A 
ATOM     15  C15 ZIN A   1      20.113  -4.305  11.187  0.00  0.00     0.001 A 
ATOM     16  C14 ZIN A   1      19.105  -5.154  10.770  0.00  0.00     0.000 A 
ATOM     17  C13 ZIN A   1      17.783  -4.828  11.009  0.00  0.00     0.001 A 
ATOM     18  C12 ZIN A   1      17.469  -3.653  11.664  0.00  0.00     0.007 A 
ENDBRANCH  12  13
ENDBRANCH  11  12
BRANCH  11  19
ATOM     19  C17 ZIN A   1      18.265   0.949  12.628  0.00  0.00     0.224 C 
ATOM     20  O18 ZIN A   1      17.725   1.921  12.143  0.00  0.00    -0.273 OA
ATOM     21  N19 ZIN A   1      18.796   1.020  13.865  0.00  0.00    -0.351 N 
ATOM     22  H49 ZIN A   1      19.297   0.271  14.222  0.00  0.00     0.163 HD
BRANCH  21  23
ATOM     23  C20 ZIN A   1      18.615   2.231  14.670  0.00  0.00     0.235 C 
BRANCH  23  24
ATOM     24  C21 ZIN A   1      19.196   2.012  16.044  0.00  0.00     0.191 C 
ATOM     25  O22 ZIN A   1      19.767   2.925  16.617  0.00  0.00    -0.647 OA
ATOM     26  O23 ZIN A   1      19.095   0.923  16.582  0.00  0.00    -0.647 OA
ENDBRANCH  23  24
ENDBRANCH  21  23
ENDBRANCH  11  19
ENDBRANCH  10  11
ENDBRANCH   4  10
BRANCH   8  27
ATOM     27  C28 ZIN A   1      19.052  -1.442   6.685  0.00  0.00    -0.047 A 
ATOM     28  C34 ZIN A   1      18.852  -1.988   5.433  0.00  0.00     0.044 A 
ATOM     29  C32 ZIN A   1      18.952  -3.360   5.250  0.00  0.00     0.066 A 
ATOM     30  C31 ZIN A   1      19.242  -4.181   6.330  0.00  0.00     0.036 A 
ATOM     31  C30 ZIN A   1      19.435  -3.631   7.583  0.00  0.00     0.003 A 
ATOM     32  C29 ZIN A   1      19.340  -2.263   7.760  0.00  0.00     0.008 A 
BRANCH  29  33
ATOM     33  O33 ZIN A   1      18.761  -3.899   4.018  0.00  0.00    -0.361 OA
ATOM     34  H62 ZIN A   1      18.041  -4.544   3.978  0.00  0.00     0.217 HD
ENDBRANCH  29  33
ENDBRANCH   8  27
TORSDOF 9
ENDMDL
MODEL 7
REMARK VINA RESULT:      -8.1      3.588      8.415
REMARK  9 active torsions:
REMARK  status: ('A' for Active; 'I' for Inactive)
REMARK    1  A    between atoms: N5_4  and  C7_6 
REMARK    2  A    between atoms: C7_6  and  C8_7 
REMARK    3  A    between atoms: C8_7  and  C10_8 
REMARK    4  A    between atoms: C8_7  and  C17_15 
REMARK    5  A    between atoms: C10_8  and  C11_9 
REMARK       I    between atoms: C17_15  and  N19_17 
REMARK    6  A    between atoms: N19_17  and  C20_18 
REMARK    7  A    between atoms: C20_18  and  C21_19 
REMARK    8  A    between atoms: C26_24  and  C28_26 
REMARK    9  A    between atoms: C32_30  and  O33_31 
ROOT
ATOM      1  C1  ZIN A   1      18.607   3.840  16.678  0.00  0.00     0.012 C 
ATOM      2  C2  ZIN A   1      19.179   3.776  15.260  0.00  0.00     0.020 C 
ATOM      3  C4  ZIN A   1      18.157   3.124  14.326  0.00  0.00     0.240 C 
ATOM      4  N5  ZIN A   1      18.702   3.064  12.965  0.00  0.00    -0.070 N 
ATOM      5  H6  ZIN A   1      19.576   2.560  12.976  0.00  0.00     0.279 HD
ATOM      6  C24 ZIN A   1      18.929   4.422  12.458  0.00  0.00     0.236 C 
ATOM      7  C25 ZIN A   1      19.981   5.124  13.320  0.00  0.00     0.042 C 
ATOM      8  C26 ZIN A   1      19.484   5.193  14.767  0.00  0.00    -0.010 C 
ATOM      9  C27 ZIN A   1      20.565   5.821  15.650  0.00  0.00     0.021 C 
ENDROOT
BRANCH   4  10
ATOM     10  C7  ZIN A   1      17.750   2.370  12.088  0.00  0.00     0.249 C 
BRANCH  10  11
ATOM     11  C8  ZIN A   1      18.488   1.303  11.276  0.00  0.00     0.108 C 
BRANCH  11  12
ATOM     12  C10 ZIN A   1      17.477   0.494  10.460  0.00  0.00     0.054 C 
BRANCH  12  13
ATOM     13  C11 ZIN A   1      17.825   0.585   8.996  0.00  0.00    -0.057 A 
ATOM     14  C16 ZIN A   1      17.185  -0.230   8.082  0.00  0.00     0.007 A 
ATOM     15  C15 ZIN A   1      17.499  -0.145   6.739  0.00  0.00     0.001 A 
ATOM     16  C14 ZIN A   1      18.463   0.750   6.312  0.00  0.00     0.000 A 
ATOM     17  C13 ZIN A   1      19.107   1.561   7.227  0.00  0.00     0.001 A 
ATOM     18  C12 ZIN A   1      18.788   1.479   8.568  0.00  0.00     0.007 A 
ENDBRANCH  12  13
ENDBRANCH  11  12
BRANCH  11  19
ATOM     19  C17 ZIN A   1      19.229   0.384  12.211  0.00  0.00     0.224 C 
ATOM     20  O18 ZIN A   1      20.442   0.380  12.222  0.00  0.00    -0.273 OA
ATOM     21  N19 ZIN A   1      18.545  -0.433  13.036  0.00  0.00    -0.351 N 
ATOM     22  H49 ZIN A   1      17.580  -0.489  12.972  0.00  0.00     0.163 HD
BRANCH  21  23
ATOM     23  C20 ZIN A   1      19.261  -1.237  14.029  0.00  0.00     0.235 C 
BRANCH  23  24
ATOM     24  C21 ZIN A   1      18.628  -1.044  15.383  0.00  0.00     0.191 C 
ATOM     25  O22 ZIN A   1      17.658  -0.316  15.503  0.00  0.00    -0.647 OA
ATOM     26  O23 ZIN A   1      19.086  -1.617  16.357  0.00  0.00    -0.647 OA
ENDBRANCH  23  24
ENDBRANCH  21  23
ENDBRANCH  11  19
ENDBRANCH  10  11
ENDBRANCH   4  10
BRANCH   8  27
ATOM     27  C28 ZIN A   1      18.231   6.028  14.830  0.00  0.00    -0.047 A 
ATOM     28  C34 ZIN A   1      16.994   5.415  14.838  0.00  0.00     0.044 A 
ATOM     29  C32 ZIN A   1      15.840   6.184  14.902  0.00  0.00     0.066 A 
ATOM     30  C31 ZIN A   1      15.933   7.567  14.946  0.00  0.00     0.036 A 
ATOM     31  C30 ZIN A   1      17.174   8.175  14.932  0.00  0.00     0.003 A 
ATOM     32  C29 ZIN A   1      18.322   7.406  14.874  0.00  0.00     0.008 A 
BRANCH  29  33
ATOM     33  O33 ZIN A   1      14.621   5.583  14.914  0.00  0.00    -0.361 OA
ATOM     34  H62 ZIN A   1      14.254   5.457  15.800  0.00  0.00     0.217 HD
ENDBRANCH  29  33
ENDBRANCH   8  27
TORSDOF 9
ENDMDL
MODEL 8
REMARK VINA RESULT:      -8.0      4.232      9.389
REMARK  9 active torsions:
REMARK  status: ('A' for Active; 'I' for Inactive)
REMARK    1  A    between atoms: N5_4  and  C7_6 
REMARK    2  A    between atoms: C7_6  and  C8_7 
REMARK    3  A    between atoms: C8_7  and  C10_8 
REMARK    4  A    between atoms: C8_7  and  C17_15 
REMARK    5  A    between atoms: C10_8  and  C11_9 
REMARK       I    between atoms: C17_15  and  N19_17 
REMARK    6  A    between atoms: N19_17  and  C20_18 
REMARK    7  A    between atoms: C20_18  and  C21_19 
REMARK    8  A    between atoms: C26_24  and  C28_26 
REMARK    9  A    between atoms: C32_30  and  O33_31 
ROOT
ATOM      1  C1  ZIN A   1      20.563   6.296  14.526  0.00  0.00     0.012 C 
ATOM      2  C2  ZIN A   1      19.372   5.794  13.707  0.00  0.00     0.020 C 
ATOM      3  C4  ZIN A   1      19.681   4.400  13.157  0.00  0.00     0.240 C 
ATOM      4  N5  ZIN A   1      18.539   3.916  12.372  0.00  0.00    -0.070 N 
ATOM      5  H6  ZIN A   1      18.336   4.573  11.635  0.00  0.00     0.279 HD
ATOM      6  C24 ZIN A   1      17.363   3.774  13.238  0.00  0.00     0.236 C 
ATOM      7  C25 ZIN A   1      16.964   5.145  13.791  0.00  0.00     0.042 C 
ATOM      8  C26 ZIN A   1      18.130   5.722  14.600  0.00  0.00    -0.010 C 
ATOM      9  C27 ZIN A   1      17.768   7.126  15.088  0.00  0.00     0.021 C 
ENDROOT
BRANCH   4  10
ATOM     10  C7  ZIN A   1      18.870   2.611  11.784  0.00  0.00     0.249 C 
BRANCH  10  11
ATOM     11  C8  ZIN A   1      18.249   1.498  12.632  0.00  0.00     0.108 C 
BRANCH  11  12
ATOM     12  C10 ZIN A   1      19.341   0.819  13.461  0.00  0.00     0.054 C 
BRANCH  12  13
ATOM     13  C11 ZIN A   1      18.718   0.137  14.652  0.00  0.00    -0.057 A 
ATOM     14  C16 ZIN A   1      17.590   0.673  15.244  0.00  0.00     0.007 A 
ATOM     15  C15 ZIN A   1      17.015   0.046  16.332  0.00  0.00     0.001 A 
ATOM     16  C14 ZIN A   1      17.575  -1.113  16.836  0.00  0.00     0.000 A 
ATOM     17  C13 ZIN A   1      18.706  -1.647  16.247  0.00  0.00     0.001 A 
ATOM     18  C12 ZIN A   1      19.277  -1.022  15.155  0.00  0.00     0.007 A 
ENDBRANCH  12  13
ENDBRANCH  11  12
BRANCH  11  19
ATOM     19  C17 ZIN A   1      17.599   0.482  11.728  0.00  0.00     0.224 C 
ATOM     20  O18 ZIN A   1      16.392   0.451  11.619  0.00  0.00    -0.273 OA
ATOM     21  N19 ZIN A   1      18.361  -0.392  11.041  0.00  0.00    -0.351 N 
ATOM     22  H49 ZIN A   1      19.318  -0.422  11.188  0.00  0.00     0.163 HD
BRANCH  21  23
ATOM     23  C20 ZIN A   1      17.740  -1.299  10.071  0.00  0.00     0.235 C 
BRANCH  23  24
ATOM     24  C21 ZIN A   1      17.815  -2.713  10.587  0.00  0.00     0.191 C 
ATOM     25  O22 ZIN A   1      17.029  -3.093  11.439  0.00  0.00    -0.647 OA
ATOM     26  O23 ZIN A   1      18.659  -3.477  10.151  0.00  0.00    -0.647 OA
ENDBRANCH  23  24
ENDBRANCH  21  23
ENDBRANCH  11  19
ENDBRANCH  10  11
ENDBRANCH   4  10
BRANCH   8  27
ATOM     27  C28 ZIN A   1      18.412   4.832  15.782  0.00  0.00    -0.047 A 
ATOM     28  C34 ZIN A   1      17.685   4.980  16.947  0.00  0.00     0.044 A 
ATOM     29  C32 ZIN A   1      17.942   4.158  18.034  0.00  0.00     0.066 A 
ATOM     30  C31 ZIN A   1      18.937   3.194  17.952  0.00  0.00     0.036 A 
ATOM     31  C30 ZIN A   1      19.666   3.054  16.787  0.00  0.00     0.003 A 
ATOM     32  C29 ZIN A   1      19.404   3.872  15.703  0.00  0.00     0.008 A 
BRANCH  29  33
ATOM     33  O33 ZIN A   1      17.224   4.298  19.179  0.00  0.00    -0.361 OA
ATOM     34  H62 ZIN A   1      16.273   4.401  19.038  0.00  0.00     0.217 HD
ENDBRANCH  29  33
ENDBRANCH   8  27
TORSDOF 9
ENDMDL
MODEL 9
REMARK VINA RESULT:      -8.0      4.176      9.318
REMARK  9 active torsions:
REMARK  status: ('A' for Active; 'I' for Inactive)
REMARK    1  A    between atoms: N5_4  and  C7_6 
REMARK    2  A    between atoms: C7_6  and  C8_7 
REMARK    3  A    between atoms: C8_7  and  C10_8 
REMARK    4  A    between atoms: C8_7  and  C17_15 
REMARK    5  A    between atoms: C10_8  and  C11_9 
REMARK       I    between atoms: C17_15  and  N19_17 
REMARK    6  A    between atoms: N19_17  and  C20_18 
REMARK    7  A    between atoms: C20_18  and  C21_19 
REMARK    8  A    between atoms: C26_24  and  C28_26 
REMARK    9  A    between atoms: C32_30  and  O33_31 
ROOT
ATOM      1  C1  ZIN A   1      20.688   4.628  11.993  0.00  0.00     0.012 C 
ATOM      2  C2  ZIN A   1      19.605   3.564  11.802  0.00  0.00     0.020 C 
ATOM      3  C4  ZIN A   1      20.173   2.188  12.159  0.00  0.00     0.240 C 
ATOM      4  N5  ZIN A   1      19.136   1.166  11.978  0.00  0.00    -0.070 N 
ATOM      5  H6  ZIN A   1      18.796   1.197  11.028  0.00  0.00     0.279 HD
ATOM      6  C24 ZIN A   1      18.023   1.415  12.902  0.00  0.00     0.236 C 
ATOM      7  C25 ZIN A   1      17.373   2.761  12.573  0.00  0.00     0.042 C 
ATOM      8  C26 ZIN A   1      18.416   3.873  12.714  0.00  0.00    -0.010 C 
ATOM      9  C27 ZIN A   1      17.794   5.212  12.309  0.00  0.00     0.021 C 
ENDROOT
BRANCH   4  10
ATOM     10  C7  ZIN A   1      19.705  -0.160  12.249  0.00  0.00     0.249 C 
BRANCH  10  11
ATOM     11  C8  ZIN A   1      18.700  -0.994  13.047  0.00  0.00     0.108 C 
BRANCH  11  12
ATOM     12  C10 ZIN A   1      19.407  -1.638  14.242  0.00  0.00     0.054 C 
BRANCH  12  13
ATOM     13  C11 ZIN A   1      18.835  -1.086  15.522  0.00  0.00    -0.057 A 
ATOM     14  C16 ZIN A   1      17.529  -0.636  15.558  0.00  0.00     0.007 A 
ATOM     15  C15 ZIN A   1      17.002  -0.134  16.733  0.00  0.00     0.001 A 
ATOM     16  C14 ZIN A   1      17.786  -0.072  17.870  0.00  0.00     0.000 A 
ATOM     17  C13 ZIN A   1      19.094  -0.517  17.833  0.00  0.00     0.001 A 
ATOM     18  C12 ZIN A   1      19.618  -1.024  16.659  0.00  0.00     0.007 A 
ENDBRANCH  12  13
ENDBRANCH  11  12
BRANCH  11  19
ATOM     19  C17 ZIN A   1      18.126  -2.070  12.163  0.00  0.00     0.224 C 
ATOM     20  O18 ZIN A   1      17.101  -1.866  11.547  0.00  0.00    -0.273 OA
ATOM     21  N19 ZIN A   1      18.752  -3.259  12.055  0.00  0.00    -0.351 N 
ATOM     22  H49 ZIN A   1      19.526  -3.451  12.606  0.00  0.00     0.163 HD
BRANCH  21  23
ATOM     23  C20 ZIN A   1      18.262  -4.260  11.104  0.00  0.00     0.235 C 
BRANCH  23  24
ATOM     24  C21 ZIN A   1      17.188  -5.091  11.759  0.00  0.00     0.191 C 
ATOM     25  O22 ZIN A   1      17.487  -5.913  12.608  0.00  0.00    -0.647 OA
ATOM     26  O23 ZIN A   1      16.021  -4.940  11.439  0.00  0.00    -0.647 OA
ENDBRANCH  23  24
ENDBRANCH  21  23
ENDBRANCH  11  19
ENDBRANCH  10  11
ENDBRANCH   4  10
BRANCH   8  27
ATOM     27  C28 ZIN A   1      18.884   3.946  14.144  0.00  0.00    -0.047 A 
ATOM     28  C34 ZIN A   1      19.558   5.064  14.593  0.00  0.00     0.044 A 
ATOM     29  C32 ZIN A   1      19.985   5.133  15.912  0.00  0.00     0.066 A 
ATOM     30  C31 ZIN A   1      19.744   4.073  16.773  0.00  0.00     0.036 A 
ATOM     31  C30 ZIN A   1      19.075   2.953  16.317  0.00  0.00     0.003 A 
ATOM     32  C29 ZIN A   1      18.645   2.890  15.004  0.00  0.00     0.008 A 
BRANCH  29  33
ATOM     33  O33 ZIN A   1      20.644   6.234  16.358  0.00  0.00    -0.361 OA
ATOM     34  H62 ZIN A   1      21.326   6.045  17.017  0.00  0.00     0.217 HD
ENDBRANCH  29  33
ENDBRANCH   8  27
TORSDOF 9
ENDMDL
