MODEL 1
REMARK VINA RESULT:      -9.2      0.000      0.000
REMARK  7 active torsions:
REMARK  status: ('A' for Active; 'I' for Inactive)
REMARK       I    between atoms: C2_2  and  N4_4 
REMARK    1  A    between atoms: N7_7  and  C8_8 
REMARK    2  A    between atoms: C11_11  and  O12_12 
REMARK    3  A    between atoms: O12_12  and  C13_13 
REMARK    4  A    between atoms: C13_13  and  C14_14 
REMARK    5  A    between atoms: C18_17  and  C19_18 
REMARK    6  A    between atoms: C18_17  and  C26_25 
REMARK    7  A    between atoms: C19_18  and  N20_19 
ROOT
ATOM      1  C14 <0> d   1      18.541  -0.355   8.947  0.00  0.00     0.173 C 
ATOM      2  C16 <0> d   1      20.005  -0.629   9.372  0.00  0.00     0.206 C 
ATOM      3  O17 <0> d   1      19.864  -1.631  10.399  0.00  0.00    -0.347 OA
ATOM      4  C18 <0> d   1      18.524  -1.542  10.902  0.00  0.00     0.212 C 
ATOM      5  O34 <0> d   1      17.839  -0.486  10.207  0.00  0.00    -0.340 OA
ENDROOT
BRANCH   1   6
ATOM      6  C13 <0> d   1      18.390   1.057   8.380  0.00  0.00     0.209 C 
BRANCH   6   7
ATOM      7  O12 <0> d   1      19.395   1.906   8.939  0.00  0.00    -0.349 OA
BRANCH   7   8
ATOM      8  C11 <0> d   1      19.022   2.709   9.970  0.00  0.00     0.069 A 
ATOM      9  C10 <0> d   1      19.596   2.544  11.222  0.00  0.00     0.039 A 
ATOM     10  C9  <0> d   1      19.217   3.360  12.270  0.00  0.00     0.032 A 
ATOM     11  C8  <0> d   1      18.261   4.346  12.070  0.00  0.00     0.030 A 
ATOM     12  C36 <0> d   1      17.681   4.508  10.818  0.00  0.00     0.032 A 
ATOM     13  C35 <0> d   1      18.065   3.694   9.770  0.00  0.00     0.039 A 
BRANCH  11  14
ATOM     14  N7  <0> d   1      17.875   5.174  13.131  0.00  0.00    -0.378 N 
ATOM     15  C6  <0> d   1      16.691   6.036  13.016  0.00  0.00     0.143 C 
ATOM     16  C5  <0> d   1      15.745   5.728  14.183  0.00  0.00     0.145 C 
ATOM     17  N4  <0> d   1      16.519   5.751  15.432  0.00  0.00    -0.349 N 
ATOM     18  C2  <0> d   1      16.148   6.548  16.454  0.00  0.00     0.215 C 
ATOM     19  C38 <0> d   1      17.707   4.892  15.546  0.00  0.00     0.145 C 
ATOM     20  C1  <0> d   1      14.928   7.422  16.323  0.00  0.00     0.117 C 
ATOM     21  O3  <0> d   1      16.797   6.562  17.478  0.00  0.00    -0.274 OA
ATOM     22  C37 <0> d   1      18.648   5.196  14.380  0.00  0.00     0.143 C 
ENDBRANCH  11  14
ENDBRANCH   7   8
ENDBRANCH   6   7
ENDBRANCH   1   6
BRANCH   4  23
ATOM     23  C19 <0> d   1      17.797  -2.867  10.666  0.00  0.00     0.203 C 
BRANCH  23  24
ATOM     24  N20 <0> d   1      18.668  -3.776   9.916  0.00  0.00    -0.346 N 
ATOM     25  C25 <0> d   1      19.661  -4.536  10.424  0.00  0.00     0.182 A 
ATOM     26  N23 <0> d   1      20.209  -5.213   9.452  0.00  0.00    -0.361 N 
ATOM     27  C22 <0> d   1      19.597  -4.905   8.299  0.00  0.00     0.106 A 
ATOM     28  H24 <0> d   1      20.946  -5.836   9.548  0.00  0.00     0.166 HD
ATOM     29  C21 <0> d   1      18.630  -4.007   8.567  0.00  0.00     0.109 A 
ENDBRANCH  23  24
ENDBRANCH   4  23
BRANCH   4  30
ATOM     30  C26 <0> d   1      18.555  -1.237  12.377  0.00  0.00     0.027 A 
ATOM     31  C32 <0> d   1      17.636  -0.355  12.920  0.00  0.00     0.047 A 
ATOM     32  C31 <0> d   1      17.661  -0.080  14.276  0.00  0.00     0.048 A 
ATOM     33 Cl33 <0> d   1      16.445   0.393  11.904  0.00  0.00    -0.084 Cl
ATOM     34  C29 <0> d   1      18.611  -0.676  15.085  0.00  0.00     0.035 A 
ATOM     35  C28 <0> d   1      19.533  -1.552  14.540  0.00  0.00     0.024 A 
ATOM     36 Cl30 <0> d   1      18.648  -0.325  16.785  0.00  0.00    -0.084 Cl
ATOM     37  C27 <0> d   1      19.504  -1.832  13.187  0.00  0.00     0.016 A 
ENDBRANCH   4  30
TORSDOF 7
ENDMDL
MODEL 2
REMARK VINA RESULT:      -8.9      2.764      9.522
REMARK  7 active torsions:
REMARK  status: ('A' for Active; 'I' for Inactive)
REMARK       I    between atoms: C2_2  and  N4_4 
REMARK    1  A    between atoms: N7_7  and  C8_8 
REMARK    2  A    between atoms: C11_11  and  O12_12 
REMARK    3  A    between atoms: O12_12  and  C13_13 
REMARK    4  A    between atoms: C13_13  and  C14_14 
REMARK    5  A    between atoms: C18_17  and  C19_18 
REMARK    6  A    between atoms: C18_17  and  C26_25 
REMARK    7  A    between atoms: C19_18  and  N20_19 
ROOT
ATOM      1  C14 <0> d   1      18.721   0.452  13.485  0.00  0.00     0.173 C 
ATOM      2  C16 <0> d   1      20.150   0.760  12.975  0.00  0.00     0.206 C 
ATOM      3  O17 <0> d   1      19.924   1.751  11.952  0.00  0.00    -0.347 OA
ATOM      4  C18 <0> d   1      18.561   1.624  11.528  0.00  0.00     0.212 C 
ATOM      5  O34 <0> d   1      17.944   0.555  12.267  0.00  0.00    -0.340 OA
ENDROOT
BRANCH   1   6
ATOM      6  C13 <0> d   1      18.640  -0.961  14.067  0.00  0.00     0.209 C 
BRANCH   6   7
ATOM      7  O12 <0> d   1      19.521  -1.825  13.347  0.00  0.00    -0.349 OA
BRANCH   7   8
ATOM      8  C11 <0> d   1      19.006  -2.472  12.268  0.00  0.00     0.069 A 
ATOM      9  C10 <0> d   1      17.847  -3.222  12.397  0.00  0.00     0.039 A 
ATOM     10  C9  <0> d   1      17.323  -3.880  11.301  0.00  0.00     0.032 A 
ATOM     11  C8  <0> d   1      17.959  -3.790  10.070  0.00  0.00     0.030 A 
ATOM     12  C36 <0> d   1      19.124  -3.044   9.942  0.00  0.00     0.032 A 
ATOM     13  C35 <0> d   1      19.643  -2.383  11.038  0.00  0.00     0.039 A 
BRANCH  11  14
ATOM     14  N7  <0> d   1      17.430  -4.457   8.958  0.00  0.00    -0.378 N 
ATOM     15  C6  <0> d   1      18.072  -4.341   7.641  0.00  0.00     0.143 C 
ATOM     16  C5  <0> d   1      18.386  -5.750   7.124  0.00  0.00     0.145 C 
ATOM     17  N4  <0> d   1      17.177  -6.578   7.254  0.00  0.00    -0.349 N 
ATOM     18  C2  <0> d   1      16.668  -7.219   6.183  0.00  0.00     0.215 C 
ATOM     19  C38 <0> d   1      16.533  -6.689   8.569  0.00  0.00     0.145 C 
ATOM     20  C1  <0> d   1      17.340  -7.096   4.840  0.00  0.00     0.117 C 
ATOM     21  O3  <0> d   1      15.667  -7.895   6.301  0.00  0.00    -0.274 OA
ATOM     22  C37 <0> d   1      16.223  -5.284   9.088  0.00  0.00     0.143 C 
ENDBRANCH  11  14
ENDBRANCH   7   8
ENDBRANCH   6   7
ENDBRANCH   1   6
BRANCH   4  23
ATOM     23  C19 <0> d   1      17.814   2.932  11.798  0.00  0.00     0.203 C 
BRANCH  23  24
ATOM     24  N20 <0> d   1      18.592   3.755  12.728  0.00  0.00    -0.346 N 
ATOM     25  C25 <0> d   1      19.663   4.518  12.420  0.00  0.00     0.182 A 
ATOM     26  N23 <0> d   1      20.084   5.104  13.507  0.00  0.00    -0.361 N 
ATOM     27  C22 <0> d   1      19.310   4.735  14.538  0.00  0.00     0.106 A 
ATOM     28  H24 <0> d   1      20.840   5.709  13.561  0.00  0.00     0.166 HD
ATOM     29  C21 <0> d   1      18.370   3.891  14.072  0.00  0.00     0.109 A 
ENDBRANCH  23  24
ENDBRANCH   4  23
BRANCH   4  30
ATOM     30  C26 <0> d   1      18.515   1.310  10.055  0.00  0.00     0.027 A 
ATOM     31  C32 <0> d   1      17.573   0.421   9.567  0.00  0.00     0.047 A 
ATOM     32  C31 <0> d   1      17.528   0.137   8.214  0.00  0.00     0.048 A 
ATOM     33 Cl33 <0> d   1      16.441  -0.326  10.650  0.00  0.00    -0.084 Cl
ATOM     34  C29 <0> d   1      18.430   0.732   7.351  0.00  0.00     0.035 A 
ATOM     35  C28 <0> d   1      19.375   1.616   7.841  0.00  0.00     0.024 A 
ATOM     36 Cl30 <0> d   1      18.379   0.371   5.655  0.00  0.00    -0.084 Cl
ATOM     37  C27 <0> d   1      19.417   1.904   9.193  0.00  0.00     0.016 A 
ENDBRANCH   4  30
TORSDOF 7
ENDMDL
MODEL 3
REMARK VINA RESULT:      -8.8      3.511      8.460
REMARK  7 active torsions:
REMARK  status: ('A' for Active; 'I' for Inactive)
REMARK       I    between atoms: C2_2  and  N4_4 
REMARK    1  A    between atoms: N7_7  and  C8_8 
REMARK    2  A    between atoms: C11_11  and  O12_12 
REMARK    3  A    between atoms: O12_12  and  C13_13 
REMARK    4  A    between atoms: C13_13  and  C14_14 
REMARK    5  A    between atoms: C18_17  and  C19_18 
REMARK    6  A    between atoms: C18_17  and  C26_25 
REMARK    7  A    between atoms: C19_18  and  N20_19 
ROOT
ATOM      1  C14 <0> d   1      19.085   2.187  12.089  0.00  0.00     0.173 C 
ATOM      2  C16 <0> d   1      17.603   1.815  12.335  0.00  0.00     0.206 C 
ATOM      3  O17 <0> d   1      17.695   0.573  13.061  0.00  0.00    -0.347 OA
ATOM      4  C18 <0> d   1      18.984   0.011  12.784  0.00  0.00     0.212 C 
ATOM      5  O34 <0> d   1      19.686   0.886  11.883  0.00  0.00    -0.340 OA
ENDROOT
BRANCH   1   6
ATOM      6  C13 <0> d   1      19.231   3.061  10.841  0.00  0.00     0.209 C 
BRANCH   6   7
ATOM      7  O12 <0> d   1      18.155   2.789   9.941  0.00  0.00    -0.349 OA
BRANCH   7   8
ATOM      8  C11 <0> d   1      18.302   1.727   9.105  0.00  0.00     0.069 A 
ATOM      9  C10 <0> d   1      17.486   0.614   9.248  0.00  0.00     0.039 A 
ATOM     10  C9  <0> d   1      17.634  -0.466   8.400  0.00  0.00     0.032 A 
ATOM     11  C8  <0> d   1      18.601  -0.438   7.405  0.00  0.00     0.030 A 
ATOM     12  C36 <0> d   1      19.422   0.673   7.265  0.00  0.00     0.032 A 
ATOM     13  C35 <0> d   1      19.269   1.754   8.111  0.00  0.00     0.039 A 
BRANCH  11  14
ATOM     14  N7  <0> d   1      18.753  -1.533   6.545  0.00  0.00    -0.378 N 
ATOM     15  C6  <0> d   1      18.971  -2.883   7.083  0.00  0.00     0.143 C 
ATOM     16  C5  <0> d   1      17.896  -3.816   6.513  0.00  0.00     0.145 C 
ATOM     17  N4  <0> d   1      17.842  -3.635   5.056  0.00  0.00    -0.349 N 
ATOM     18  C2  <0> d   1      17.989  -4.688   4.228  0.00  0.00     0.215 C 
ATOM     19  C38 <0> d   1      17.630  -2.284   4.517  0.00  0.00     0.145 C 
ATOM     20  C1  <0> d   1      18.205  -6.067   4.794  0.00  0.00     0.117 C 
ATOM     21  O3  <0> d   1      17.948  -4.526   3.027  0.00  0.00    -0.274 OA
ATOM     22  C37 <0> d   1      18.699  -1.351   5.088  0.00  0.00     0.143 C 
ENDBRANCH  11  14
ENDBRANCH   7   8
ENDBRANCH   6   7
ENDBRANCH   1   6
BRANCH   4  23
ATOM     23  C19 <0> d   1      19.776  -0.126  14.086  0.00  0.00     0.203 C 
BRANCH  23  24
ATOM     24  N20 <0> d   1      18.877   0.069  15.227  0.00  0.00    -0.346 N 
ATOM     25  C25 <0> d   1      18.629   1.233  15.863  0.00  0.00     0.182 A 
ATOM     26  N23 <0> d   1      17.775   1.011  16.824  0.00  0.00    -0.361 N 
ATOM     27  C22 <0> d   1      17.457  -0.292  16.841  0.00  0.00     0.106 A 
ATOM     28  H24 <0> d   1      17.428   1.682  17.433  0.00  0.00     0.166 HD
ATOM     29  C21 <0> d   1      18.136  -0.899  15.850  0.00  0.00     0.109 A 
ENDBRANCH  23  24
ENDBRANCH   4  23
BRANCH   4  30
ATOM     30  C26 <0> d   1      18.822  -1.344  12.145  0.00  0.00     0.027 A 
ATOM     31  C32 <0> d   1      19.736  -1.777  11.200  0.00  0.00     0.047 A 
ATOM     32  C31 <0> d   1      19.589  -3.024  10.618  0.00  0.00     0.048 A 
ATOM     33 Cl33 <0> d   1      21.073  -0.763  10.756  0.00  0.00    -0.084 Cl
ATOM     34  C29 <0> d   1      18.524  -3.831  10.972  0.00  0.00     0.035 A 
ATOM     35  C28 <0> d   1      17.608  -3.394  11.912  0.00  0.00     0.024 A 
ATOM     36 Cl30 <0> d   1      18.335  -5.392  10.237  0.00  0.00    -0.084 Cl
ATOM     37  C27 <0> d   1      17.757  -2.151  12.498  0.00  0.00     0.016 A 
ENDBRANCH   4  30
TORSDOF 7
ENDMDL
MODEL 4
REMARK VINA RESULT:      -8.4      2.401      4.176
REMARK  7 active torsions:
REMARK  status: ('A' for Active; 'I' for Inactive)
REMARK       I    between atoms: C2_2  and  N4_4 
REMARK    1  A    between atoms: N7_7  and  C8_8 
REMARK    2  A    between atoms: C11_11  and  O12_12 
REMARK    3  A    between atoms: O12_12  and  C13_13 
REMARK    4  A    between atoms: C13_13  and  C14_14 
REMARK    5  A    between atoms: C18_17  and  C19_18 
REMARK    6  A    between atoms: C18_17  and  C26_25 
REMARK    7  A    between atoms: C19_18  and  N20_19 
ROOT
ATOM      1  C14 <0> d   1      18.245   0.297  10.591  0.00  0.00     0.173 C 
ATOM      2  C16 <0> d   1      16.874  -0.024  11.237  0.00  0.00     0.206 C 
ATOM      3  O17 <0> d   1      17.106  -1.294  11.880  0.00  0.00    -0.347 OA
ATOM      4  C18 <0> d   1      18.238  -1.897  11.238  0.00  0.00     0.212 C 
ATOM      5  O34 <0> d   1      18.700  -1.020  10.196  0.00  0.00    -0.340 OA
ENDROOT
BRANCH   1   6
ATOM      6  C13 <0> d   1      18.076   1.207   9.373  0.00  0.00     0.209 C 
BRANCH   6   7
ATOM      7  O12 <0> d   1      18.939   2.339   9.501  0.00  0.00    -0.349 OA
BRANCH   7   8
ATOM      8  C11 <0> d   1      18.723   3.163  10.560  0.00  0.00     0.069 A 
ATOM      9  C10 <0> d   1      17.491   3.780  10.720  0.00  0.00     0.039 A 
ATOM     10  C9  <0> d   1      17.271   4.618  11.796  0.00  0.00     0.032 A 
ATOM     11  C8  <0> d   1      18.285   4.843  12.718  0.00  0.00     0.030 A 
ATOM     12  C36 <0> d   1      19.520   4.230  12.555  0.00  0.00     0.032 A 
ATOM     13  C35 <0> d   1      19.737   3.389  11.481  0.00  0.00     0.039 A 
BRANCH  11  14
ATOM     14  N7  <0> d   1      18.063   5.693  13.808  0.00  0.00    -0.378 N 
ATOM     15  C6  <0> d   1      16.725   6.240  14.071  0.00  0.00     0.143 C 
ATOM     16  C5  <0> d   1      16.322   5.880  15.506  0.00  0.00     0.145 C 
ATOM     17  N4  <0> d   1      17.426   6.241  16.408  0.00  0.00    -0.349 N 
ATOM     18  C2  <0> d   1      17.213   7.059  17.457  0.00  0.00     0.215 C 
ATOM     19  C38 <0> d   1      18.765   5.699  16.142  0.00  0.00     0.145 C 
ATOM     20  C1  <0> d   1      15.834   7.608  17.719  0.00  0.00     0.117 C 
ATOM     21  O3  <0> d   1      18.132   7.355  18.192  0.00  0.00    -0.274 OA
ATOM     22  C37 <0> d   1      19.166   6.054  14.710  0.00  0.00     0.143 C 
ENDBRANCH  11  14
ENDBRANCH   7   8
ENDBRANCH   6   7
ENDBRANCH   1   6
BRANCH   4  23
ATOM     23  C19 <0> d   1      19.355  -2.111  12.261  0.00  0.00     0.203 C 
BRANCH  23  24
ATOM     24  N20 <0> d   1      19.216  -1.139  13.348  0.00  0.00    -0.346 N 
ATOM     25  C25 <0> d   1      18.455  -1.277  14.455  0.00  0.00     0.182 A 
ATOM     26  N23 <0> d   1      18.589  -0.208  15.191  0.00  0.00    -0.361 N 
ATOM     27  C22 <0> d   1      19.425   0.647  14.582  0.00  0.00     0.106 A 
ATOM     28  H24 <0> d   1      18.150  -0.054  16.042  0.00  0.00     0.166 HD
ATOM     29  C21 <0> d   1      19.828   0.083  13.427  0.00  0.00     0.109 A 
ENDBRANCH  23  24
ENDBRANCH   4  23
BRANCH   4  30
ATOM     30  C26 <0> d   1      17.837  -3.221  10.641  0.00  0.00     0.027 A 
ATOM     31  C32 <0> d   1      18.110  -3.490   9.311  0.00  0.00     0.047 A 
ATOM     32  C31 <0> d   1      17.747  -4.708   8.765  0.00  0.00     0.048 A 
ATOM     33 Cl33 <0> d   1      18.918  -2.306   8.333  0.00  0.00    -0.084 Cl
ATOM     34  C29 <0> d   1      17.102  -5.652   9.544  0.00  0.00     0.035 A 
ATOM     35  C28 <0> d   1      16.825  -5.379  10.872  0.00  0.00     0.024 A 
ATOM     36 Cl30 <0> d   1      16.640  -7.177   8.857  0.00  0.00    -0.084 Cl
ATOM     37  C27 <0> d   1      17.193  -4.164  11.419  0.00  0.00     0.016 A 
ENDBRANCH   4  30
TORSDOF 7
ENDMDL
MODEL 5
REMARK VINA RESULT:      -8.3      2.755      4.990
REMARK  7 active torsions:
REMARK  status: ('A' for Active; 'I' for Inactive)
REMARK       I    between atoms: C2_2  and  N4_4 
REMARK    1  A    between atoms: N7_7  and  C8_8 
REMARK    2  A    between atoms: C11_11  and  O12_12 
REMARK    3  A    between atoms: O12_12  and  C13_13 
REMARK    4  A    between atoms: C13_13  and  C14_14 
REMARK    5  A    between atoms: C18_17  and  C19_18 
REMARK    6  A    between atoms: C18_17  and  C26_25 
REMARK    7  A    between atoms: C19_18  and  N20_19 
ROOT
ATOM      1  C14 <0> d   1      18.764  -2.035  11.495  0.00  0.00     0.173 C 
ATOM      2  C16 <0> d   1      17.379  -1.934  10.810  0.00  0.00     0.206 C 
ATOM      3  O17 <0> d   1      17.614  -1.001   9.736  0.00  0.00    -0.347 OA
ATOM      4  C18 <0> d   1      18.779  -0.240  10.079  0.00  0.00     0.212 C 
ATOM      5  O34 <0> d   1      19.259  -0.681  11.361  0.00  0.00    -0.340 OA
ENDROOT
BRANCH   1   6
ATOM      6  C13 <0> d   1      18.619  -2.422  12.968  0.00  0.00     0.209 C 
BRANCH   6   7
ATOM      7  O12 <0> d   1      19.731  -1.911  13.707  0.00  0.00    -0.349 OA
BRANCH   7   8
ATOM      8  C11 <0> d   1      19.456  -1.036  14.710  0.00  0.00     0.069 A 
ATOM      9  C10 <0> d   1      19.614   0.327  14.504  0.00  0.00     0.039 A 
ATOM     10  C9  <0> d   1      19.335   1.217  15.523  0.00  0.00     0.032 A 
ATOM     11  C8  <0> d   1      18.897   0.747  16.754  0.00  0.00     0.030 A 
ATOM     12  C36 <0> d   1      18.745  -0.618  16.962  0.00  0.00     0.032 A 
ATOM     13  C35 <0> d   1      19.020  -1.506  15.940  0.00  0.00     0.039 A 
BRANCH  11  14
ATOM     14  N7  <0> d   1      18.615   1.648  17.788  0.00  0.00    -0.378 N 
ATOM     15  C6  <0> d   1      19.131   3.023  17.744  0.00  0.00     0.143 C 
ATOM     16  C5  <0> d   1      17.951   3.993  17.881  0.00  0.00     0.145 C 
ATOM     17  N4  <0> d   1      17.134   3.579  19.031  0.00  0.00    -0.349 N 
ATOM     18  C2  <0> d   1      16.863   4.446  20.026  0.00  0.00     0.215 C 
ATOM     19  C38 <0> d   1      16.623   2.201  19.078  0.00  0.00     0.145 C 
ATOM     20  C1  <0> d   1      17.393   5.854  19.964  0.00  0.00     0.117 C 
ATOM     21  O3  <0> d   1      16.192   4.091  20.973  0.00  0.00    -0.274 OA
ATOM     22  C37 <0> d   1      17.799   1.234  18.937  0.00  0.00     0.143 C 
ENDBRANCH  11  14
ENDBRANCH   7   8
ENDBRANCH   6   7
ENDBRANCH   1   6
BRANCH   4  23
ATOM     23  C19 <0> d   1      19.864  -0.457   9.022  0.00  0.00     0.203 C 
BRANCH  23  24
ATOM     24  N20 <0> d   1      19.293  -1.163   7.873  0.00  0.00    -0.346 N 
ATOM     25  C25 <0> d   1      19.180  -2.501   7.730  0.00  0.00     0.182 A 
ATOM     26  N23 <0> d   1      18.620  -2.752   6.578  0.00  0.00    -0.361 N 
ATOM     27  C22 <0> d   1      18.366  -1.596   5.948  0.00  0.00     0.106 A 
ATOM     28  H24 <0> d   1      18.423  -3.636   6.231  0.00  0.00     0.166 HD
ATOM     29  C21 <0> d   1      18.779  -0.589   6.741  0.00  0.00     0.109 A 
ENDBRANCH  23  24
ENDBRANCH   4  23
BRANCH   4  30
ATOM     30  C26 <0> d   1      18.426   1.223  10.150  0.00  0.00     0.027 A 
ATOM     31  C32 <0> d   1      17.637   1.695  11.185  0.00  0.00     0.047 A 
ATOM     32  C31 <0> d   1      17.319   3.039  11.253  0.00  0.00     0.048 A 
ATOM     33 Cl33 <0> d   1      17.061   0.603  12.405  0.00  0.00    -0.084 Cl
ATOM     34  C29 <0> d   1      17.778   3.909  10.281  0.00  0.00     0.035 A 
ATOM     35  C28 <0> d   1      18.561   3.435   9.244  0.00  0.00     0.024 A 
ATOM     36 Cl30 <0> d   1      17.372   5.595  10.361  0.00  0.00    -0.084 Cl
ATOM     37  C27 <0> d   1      18.885   2.093   9.178  0.00  0.00     0.016 A 
ENDBRANCH   4  30
TORSDOF 7
ENDMDL
MODEL 6
REMARK VINA RESULT:      -8.3      3.468      9.906
REMARK  7 active torsions:
REMARK  status: ('A' for Active; 'I' for Inactive)
REMARK       I    between atoms: C2_2  and  N4_4 
REMARK    1  A    between atoms: N7_7  and  C8_8 
REMARK    2  A    between atoms: C11_11  and  O12_12 
REMARK    3  A    between atoms: O12_12  and  C13_13 
REMARK    4  A    between atoms: C13_13  and  C14_14 
REMARK    5  A    between atoms: C18_17  and  C19_18 
REMARK    6  A    between atoms: C18_17  and  C26_25 
REMARK    7  A    between atoms: C19_18  and  N20_19 
ROOT
ATOM      1  C14 <0> d   1      18.617  -0.708  12.313  0.00  0.00     0.173 C 
ATOM      2  C16 <0> d   1      20.048  -0.438  11.788  0.00  0.00     0.206 C 
ATOM      3  O17 <0> d   1      19.834   0.523  10.735  0.00  0.00    -0.347 OA
ATOM      4  C18 <0> d   1      18.467   0.403  10.319  0.00  0.00     0.212 C 
ATOM      5  O34 <0> d   1      17.837  -0.632  11.094  0.00  0.00    -0.340 OA
ENDROOT
BRANCH   1   6
ATOM      6  C13 <0> d   1      18.517  -2.099  12.941  0.00  0.00     0.209 C 
BRANCH   6   7
ATOM      7  O12 <0> d   1      19.372  -3.002  12.239  0.00  0.00    -0.349 OA
BRANCH   7   8
ATOM      8  C11 <0> d   1      18.810  -3.737  11.242  0.00  0.00     0.069 A 
ATOM      9  C10 <0> d   1      17.451  -4.013  11.266  0.00  0.00     0.039 A 
ATOM     10  C9  <0> d   1      16.879  -4.760  10.255  0.00  0.00     0.032 A 
ATOM     11  C8  <0> d   1      17.665  -5.234   9.214  0.00  0.00     0.030 A 
ATOM     12  C36 <0> d   1      19.027  -4.963   9.193  0.00  0.00     0.032 A 
ATOM     13  C35 <0> d   1      19.596  -4.212  10.203  0.00  0.00     0.039 A 
BRANCH  11  14
ATOM     14  N7  <0> d   1      17.087  -5.992   8.188  0.00  0.00    -0.378 N 
ATOM     15  C6  <0> d   1      15.810  -6.688   8.400  0.00  0.00     0.143 C 
ATOM     16  C5  <0> d   1      14.824  -6.244   7.314  0.00  0.00     0.145 C 
ATOM     17  N4  <0> d   1      15.484  -6.358   6.005  0.00  0.00    -0.349 N 
ATOM     18  C2  <0> d   1      14.928  -7.087   5.018  0.00  0.00     0.215 C 
ATOM     19  C38 <0> d   1      16.764  -5.666   5.795  0.00  0.00     0.145 C 
ATOM     20  C1  <0> d   1      13.616  -7.791   5.248  0.00  0.00     0.117 C 
ATOM     21  O3  <0> d   1      15.484  -7.179   3.944  0.00  0.00    -0.274 OA
ATOM     22  C37 <0> d   1      17.747  -6.106   6.880  0.00  0.00     0.143 C 
ENDBRANCH  11  14
ENDBRANCH   7   8
ENDBRANCH   6   7
ENDBRANCH   1   6
BRANCH   4  23
ATOM     23  C19 <0> d   1      17.741   1.730  10.549  0.00  0.00     0.203 C 
BRANCH  23  24
ATOM     24  N20 <0> d   1      18.361   2.437  11.672  0.00  0.00    -0.346 N 
ATOM     25  C25 <0> d   1      19.475   3.198  11.624  0.00  0.00     0.182 A 
ATOM     26  N23 <0> d   1      19.715   3.664  12.820  0.00  0.00    -0.361 N 
ATOM     27  C22 <0> d   1      18.777   3.215  13.666  0.00  0.00     0.106 A 
ATOM     28  H24 <0> d   1      20.458   4.240  13.058  0.00  0.00     0.166 HD
ATOM     29  C21 <0> d   1      17.920   2.446  12.969  0.00  0.00     0.109 A 
ENDBRANCH  23  24
ENDBRANCH   4  23
BRANCH   4  30
ATOM     30  C26 <0> d   1      18.411   0.042   8.858  0.00  0.00     0.027 A 
ATOM     31  C32 <0> d   1      18.690   0.999   7.898  0.00  0.00     0.047 A 
ATOM     32  C31 <0> d   1      18.644   0.665   6.556  0.00  0.00     0.048 A 
ATOM     33 Cl33 <0> d   1      19.111   2.613   8.377  0.00  0.00    -0.084 Cl
ATOM     34  C29 <0> d   1      18.308  -0.621   6.174  0.00  0.00     0.035 A 
ATOM     35  C28 <0> d   1      18.023  -1.575   7.134  0.00  0.00     0.024 A 
ATOM     36 Cl30 <0> d   1      18.242  -1.038   4.491  0.00  0.00    -0.084 Cl
ATOM     37  C27 <0> d   1      18.075  -1.243   8.475  0.00  0.00     0.016 A 
ENDBRANCH   4  30
TORSDOF 7
ENDMDL
MODEL 7
REMARK VINA RESULT:      -8.3      1.662      2.312
REMARK  7 active torsions:
REMARK  status: ('A' for Active; 'I' for Inactive)
REMARK       I    between atoms: C2_2  and  N4_4 
REMARK    1  A    between atoms: N7_7  and  C8_8 
REMARK    2  A    between atoms: C11_11  and  O12_12 
REMARK    3  A    between atoms: O12_12  and  C13_13 
REMARK    4  A    between atoms: C13_13  and  C14_14 
REMARK    5  A    between atoms: C18_17  and  C19_18 
REMARK    6  A    between atoms: C18_17  and  C26_25 
REMARK    7  A    between atoms: C19_18  and  N20_19 
ROOT
ATOM      1  C14 <0> d   1      18.451   0.435  10.371  0.00  0.00     0.173 C 
ATOM      2  C16 <0> d   1      19.930   0.381  10.825  0.00  0.00     0.206 C 
ATOM      3  O17 <0> d   1      19.864  -0.349  12.066  0.00  0.00    -0.347 OA
ATOM      4  C18 <0> d   1      18.520  -0.239  12.554  0.00  0.00     0.212 C 
ATOM      5  O34 <0> d   1      17.758   0.564  11.636  0.00  0.00    -0.340 OA
ENDROOT
BRANCH   1   6
ATOM      6  C13 <0> d   1      18.195   1.653   9.481  0.00  0.00     0.209 C 
BRANCH   6   7
ATOM      7  O12 <0> d   1      19.131   2.684   9.802  0.00  0.00    -0.349 OA
BRANCH   7   8
ATOM      8  C11 <0> d   1      18.812   3.507  10.837  0.00  0.00     0.069 A 
ATOM      9  C10 <0> d   1      17.519   3.990  10.966  0.00  0.00     0.039 A 
ATOM     10  C9  <0> d   1      17.194   4.826  12.017  0.00  0.00     0.032 A 
ATOM     11  C8  <0> d   1      18.164   5.183  12.943  0.00  0.00     0.030 A 
ATOM     12  C36 <0> d   1      19.462   4.704  12.811  0.00  0.00     0.032 A 
ATOM     13  C35 <0> d   1      19.783   3.865  11.762  0.00  0.00     0.039 A 
BRANCH  11  14
ATOM     14  N7  <0> d   1      17.837   6.031  14.008  0.00  0.00    -0.378 N 
ATOM     15  C6  <0> d   1      16.433   6.308  14.341  0.00  0.00     0.143 C 
ATOM     16  C5  <0> d   1      16.200   5.956  15.815  0.00  0.00     0.145 C 
ATOM     17  N4  <0> d   1      17.256   6.587  16.620  0.00  0.00    -0.349 N 
ATOM     18  C2  <0> d   1      16.941   7.404  17.644  0.00  0.00     0.215 C 
ATOM     19  C38 <0> d   1      18.661   6.315  16.284  0.00  0.00     0.145 C 
ATOM     20  C1  <0> d   1      15.497   7.673  17.978  0.00  0.00     0.117 C 
ATOM     21  O3  <0> d   1      17.821   7.923  18.299  0.00  0.00    -0.274 OA
ATOM     22  C37 <0> d   1      18.893   6.662  14.813  0.00  0.00     0.143 C 
ENDBRANCH  11  14
ENDBRANCH   7   8
ENDBRANCH   6   7
ENDBRANCH   1   6
BRANCH   4  23
ATOM     23  C19 <0> d   1      17.895  -1.632  12.659  0.00  0.00     0.203 C 
BRANCH  23  24
ATOM     24  N20 <0> d   1      18.479  -2.507  11.639  0.00  0.00    -0.346 N 
ATOM     25  C25 <0> d   1      19.654  -3.166  11.724  0.00  0.00     0.182 A 
ATOM     26  N23 <0> d   1      19.834  -3.845  10.624  0.00  0.00    -0.361 N 
ATOM     27  C22 <0> d   1      18.795  -3.638   9.802  0.00  0.00     0.106 A 
ATOM     28  H24 <0> d   1      20.600  -4.406  10.430  0.00  0.00     0.166 HD
ATOM     29  C21 <0> d   1      17.935  -2.804  10.417  0.00  0.00     0.109 A 
ENDBRANCH  23  24
ENDBRANCH   4  23
BRANCH   4  30
ATOM     30  C26 <0> d   1      18.526   0.416  13.911  0.00  0.00     0.027 A 
ATOM     31  C32 <0> d   1      19.074  -0.245  14.996  0.00  0.00     0.047 A 
ATOM     32  C31 <0> d   1      19.084   0.359  16.241  0.00  0.00     0.048 A 
ATOM     33 Cl33 <0> d   1      19.761  -1.827  14.793  0.00  0.00    -0.084 Cl
ATOM     34  C29 <0> d   1      18.536   1.619  16.402  0.00  0.00     0.035 A 
ATOM     35  C28 <0> d   1      17.983   2.276  15.318  0.00  0.00     0.024 A 
ATOM     36 Cl30 <0> d   1      18.542   2.375  17.964  0.00  0.00    -0.084 Cl
ATOM     37  C27 <0> d   1      17.978   1.675  14.073  0.00  0.00     0.016 A 
ENDBRANCH   4  30
TORSDOF 7
ENDMDL
MODEL 8
REMARK VINA RESULT:      -8.2      3.070      9.254
REMARK  7 active torsions:
REMARK  status: ('A' for Active; 'I' for Inactive)
REMARK       I    between atoms: C2_2  and  N4_4 
REMARK    1  A    between atoms: N7_7  and  C8_8 
REMARK    2  A    between atoms: C11_11  and  O12_12 
REMARK    3  A    between atoms: O12_12  and  C13_13 
REMARK    4  A    between atoms: C13_13  and  C14_14 
REMARK    5  A    between atoms: C18_17  and  C19_18 
REMARK    6  A    between atoms: C18_17  and  C26_25 
REMARK    7  A    between atoms: C19_18  and  N20_19 
ROOT
ATOM      1  C14 <0> d   1      18.244   0.111  12.362  0.00  0.00     0.173 C 
ATOM      2  C16 <0> d   1      16.909   0.512  11.687  0.00  0.00     0.206 C 
ATOM      3  O17 <0> d   1      17.157   1.865  11.254  0.00  0.00    -0.347 OA
ATOM      4  C18 <0> d   1      18.237   2.375  12.046  0.00  0.00     0.212 C 
ATOM      5  O34 <0> d   1      18.651   1.358  12.974  0.00  0.00    -0.340 OA
ENDROOT
BRANCH   1   6
ATOM      6  C13 <0> d   1      18.019  -0.971  13.420  0.00  0.00     0.209 C 
BRANCH   6   7
ATOM      7  O12 <0> d   1      19.005  -1.994  13.274  0.00  0.00    -0.349 OA
BRANCH   7   8
ATOM      8  C11 <0> d   1      18.809  -2.904  12.282  0.00  0.00     0.069 A 
ATOM      9  C10 <0> d   1      19.898  -3.473  11.637  0.00  0.00     0.039 A 
ATOM     10  C9  <0> d   1      19.700  -4.397  10.630  0.00  0.00     0.032 A 
ATOM     11  C8  <0> d   1      18.410  -4.755  10.262  0.00  0.00     0.030 A 
ATOM     12  C36 <0> d   1      17.320  -4.181  10.903  0.00  0.00     0.032 A 
ATOM     13  C35 <0> d   1      17.520  -3.261  11.914  0.00  0.00     0.039 A 
BRANCH  11  14
ATOM     14  N7  <0> d   1      18.208  -5.691   9.240  0.00  0.00    -0.378 N 
ATOM     15  C6  <0> d   1      16.944  -6.436   9.148  0.00  0.00     0.143 C 
ATOM     16  C5  <0> d   1      16.351  -6.223   7.750  0.00  0.00     0.145 C 
ATOM     17  N4  <0> d   1      17.400  -6.478   6.752  0.00  0.00    -0.349 N 
ATOM     18  C2  <0> d   1      17.205  -7.379   5.769  0.00  0.00     0.215 C 
ATOM     19  C38 <0> d   1      18.665  -5.737   6.848  0.00  0.00     0.145 C 
ATOM     20  C1  <0> d   1      15.903  -8.132   5.683  0.00  0.00     0.117 C 
ATOM     21  O3  <0> d   1      18.079  -7.586   4.953  0.00  0.00    -0.274 OA
ATOM     22  C37 <0> d   1      19.255  -5.946   8.243  0.00  0.00     0.143 C 
ENDBRANCH  11  14
ENDBRANCH   7   8
ENDBRANCH   6   7
ENDBRANCH   1   6
BRANCH   4  23
ATOM     23  C19 <0> d   1      19.410   2.748  11.136  0.00  0.00     0.203 C 
BRANCH  23  24
ATOM     24  N20 <0> d   1      19.362   1.933   9.919  0.00  0.00    -0.346 N 
ATOM     25  C25 <0> d   1      19.806   0.665   9.785  0.00  0.00     0.182 A 
ATOM     26  N23 <0> d   1      19.591   0.275   8.559  0.00  0.00    -0.361 N 
ATOM     27  C22 <0> d   1      19.015   1.272   7.871  0.00  0.00     0.106 A 
ATOM     28  H24 <0> d   1      19.816  -0.598   8.200  0.00  0.00     0.166 HD
ATOM     29  C21 <0> d   1      18.863   2.319   8.704  0.00  0.00     0.109 A 
ENDBRANCH  23  24
ENDBRANCH   4  23
BRANCH   4  30
ATOM     30  C26 <0> d   1      17.778   3.593  12.805  0.00  0.00     0.027 A 
ATOM     31  C32 <0> d   1      17.208   4.657  12.127  0.00  0.00     0.047 A 
ATOM     32  C31 <0> d   1      16.782   5.772  12.825  0.00  0.00     0.048 A 
ATOM     33 Cl33 <0> d   1      17.016   4.585  10.403  0.00  0.00    -0.084 Cl
ATOM     34  C29 <0> d   1      16.936   5.829  14.198  0.00  0.00     0.035 A 
ATOM     35  C28 <0> d   1      17.512   4.768  14.874  0.00  0.00     0.024 A 
ATOM     36 Cl30 <0> d   1      16.409   7.232  15.074  0.00  0.00    -0.084 Cl
ATOM     37  C27 <0> d   1      17.933   3.651  14.177  0.00  0.00     0.016 A 
ENDBRANCH   4  30
TORSDOF 7
ENDMDL
MODEL 9
REMARK VINA RESULT:      -8.2      2.660      4.744
REMARK  7 active torsions:
REMARK  status: ('A' for Active; 'I' for Inactive)
REMARK       I    between atoms: C2_2  and  N4_4 
REMARK    1  A    between atoms: N7_7  and  C8_8 
REMARK    2  A    between atoms: C11_11  and  O12_12 
REMARK    3  A    between atoms: O12_12  and  C13_13 
REMARK    4  A    between atoms: C13_13  and  C14_14 
REMARK    5  A    between atoms: C18_17  and  C19_18 
REMARK    6  A    between atoms: C18_17  and  C26_25 
REMARK    7  A    between atoms: C19_18  and  N20_19 
ROOT
ATOM      1  C14 <0> d   1      18.930  -2.759   9.786  0.00  0.00     0.173 C 
ATOM      2  C16 <0> d   1      17.431  -2.505   9.491  0.00  0.00     0.206 C 
ATOM      3  O17 <0> d   1      17.463  -1.383   8.586  0.00  0.00    -0.347 OA
ATOM      4  C18 <0> d   1      18.720  -0.721   8.771  0.00  0.00     0.212 C 
ATOM      5  O34 <0> d   1      19.462  -1.412   9.791  0.00  0.00    -0.340 OA
ENDROOT
BRANCH   1   6
ATOM      6  C13 <0> d   1      19.115  -3.425  11.151  0.00  0.00     0.209 C 
BRANCH   6   7
ATOM      7  O12 <0> d   1      20.099  -2.711  11.901  0.00  0.00    -0.349 OA
BRANCH   7   8
ATOM      8  C11 <0> d   1      19.653  -1.725  12.724  0.00  0.00     0.069 A 
ATOM      9  C10 <0> d   1      20.144  -0.434  12.590  0.00  0.00     0.039 A 
ATOM     10  C9  <0> d   1      19.691   0.568  13.426  0.00  0.00     0.032 A 
ATOM     11  C8  <0> d   1      18.744   0.283  14.401  0.00  0.00     0.030 A 
ATOM     12  C36 <0> d   1      18.257  -1.010  14.539  0.00  0.00     0.032 A 
ATOM     13  C35 <0> d   1      18.708  -2.010  13.699  0.00  0.00     0.039 A 
BRANCH  11  14
ATOM     14  N7  <0> d   1      18.285   1.298  15.249  0.00  0.00    -0.378 N 
ATOM     15  C6  <0> d   1      17.951   1.008  16.650  0.00  0.00     0.143 C 
ATOM     16  C5  <0> d   1      18.759   1.950  17.551  0.00  0.00     0.145 C 
ATOM     17  N4  <0> d   1      18.601   3.324  17.054  0.00  0.00    -0.349 N 
ATOM     18  C2  <0> d   1      18.158   4.301  17.871  0.00  0.00     0.215 C 
ATOM     19  C38 <0> d   1      18.929   3.613  15.651  0.00  0.00     0.145 C 
ATOM     20  C1  <0> d   1      17.825   3.990  19.307  0.00  0.00     0.117 C 
ATOM     21  O3  <0> d   1      18.026   5.430  17.449  0.00  0.00    -0.274 OA
ATOM     22  C37 <0> d   1      18.127   2.672  14.753  0.00  0.00     0.143 C 
ENDBRANCH  11  14
ENDBRANCH   7   8
ENDBRANCH   6   7
ENDBRANCH   1   6
BRANCH   4  23
ATOM     23  C19 <0> d   1      19.510  -0.741   7.460  0.00  0.00     0.203 C 
BRANCH  23  24
ATOM     24  N20 <0> d   1      18.669  -1.286   6.392  0.00  0.00    -0.346 N 
ATOM     25  C25 <0> d   1      17.699  -0.629   5.720  0.00  0.00     0.182 A 
ATOM     26  N23 <0> d   1      17.174  -1.440   4.844  0.00  0.00    -0.361 N 
ATOM     27  C22 <0> d   1      17.778  -2.635   4.929  0.00  0.00     0.106 A 
ATOM     28  H24 <0> d   1      16.457  -1.216   4.230  0.00  0.00     0.166 HD
ATOM     29  C21 <0> d   1      18.716  -2.560   5.891  0.00  0.00     0.109 A 
ENDBRANCH  23  24
ENDBRANCH   4  23
BRANCH   4  30
ATOM     30  C26 <0> d   1      18.485   0.705   9.198  0.00  0.00     0.027 A 
ATOM     31  C32 <0> d   1      17.654   0.977  10.271  0.00  0.00     0.047 A 
ATOM     32  C31 <0> d   1      17.443   2.285  10.667  0.00  0.00     0.048 A 
ATOM     33 Cl33 <0> d   1      16.889  -0.324  11.129  0.00  0.00    -0.084 Cl
ATOM     34  C29 <0> d   1      18.052   3.322   9.983  0.00  0.00     0.035 A 
ATOM     35  C28 <0> d   1      18.877   3.049   8.907  0.00  0.00     0.024 A 
ATOM     36 Cl30 <0> d   1      17.781   4.964  10.474  0.00  0.00    -0.084 Cl
ATOM     37  C27 <0> d   1      19.093   1.741   8.515  0.00  0.00     0.016 A 
ENDBRANCH   4  30
TORSDOF 7
ENDMDL
