MODEL 1
REMARK VINA RESULT:      -7.4      0.000      0.000
REMARK  2 active torsions:
REMARK  status: ('A' for Active; 'I' for Inactive)
REMARK    1  A    between atoms: O2_2  and  C3_3 
REMARK    2  A    between atoms: C14_12  and  O16_13 
ROOT
ATOM      1  C3  ZIN A   1      19.531   3.421  11.686  0.00  0.00     0.102 A 
ATOM      2  C4  ZIN A   1      18.316   3.711  11.068  0.00  0.00     0.040 A 
ATOM      3  C5  ZIN A   1      17.455   2.741  10.579  0.00  0.00     0.011 A 
ATOM      4  C6  ZIN A   1      17.789   1.403  10.678  0.00  0.00    -0.046 A 
ATOM      5  C7  ZIN A   1      16.923   0.259  10.261  0.00  0.00     0.073 C 
ATOM      6  C8  ZIN A   1      17.597  -1.094  10.407  0.00  0.00     0.200 C 
ATOM      7  C10 ZIN A   1      18.544  -1.223  11.592  0.00  0.00     0.055 C 
ATOM      8  C12 ZIN A   1      17.891  -1.123  12.920  0.00  0.00    -0.020 C 
ATOM      9  C13 ZIN A   1      18.436  -0.487  13.909  0.00  0.00     0.003 C 
ATOM     10  C14 ZIN A   1      19.709   0.277  13.875  0.00  0.00     0.171 C 
ATOM     11  C17 ZIN A   1      20.555   0.068  12.614  0.00  0.00     0.175 C 
ATOM     12  O19 ZIN A   1      20.991   1.435  12.272  0.00  0.00    -0.338 OA
ATOM     13  C20 ZIN A   1      19.882   2.072  11.792  0.00  0.00     0.110 A 
ATOM     14  C21 ZIN A   1      19.009   1.136  11.253  0.00  0.00    -0.003 A 
ATOM     15  C22 ZIN A   1      19.657  -0.215  11.418  0.00  0.00     0.030 C 
ATOM     16  C23 ZIN A   1      20.444  -0.535  10.145  0.00  0.00     0.045 C 
ATOM     17  C24 ZIN A   1      19.455  -0.463   8.972  0.00  0.00     0.236 C 
ATOM     18  N25 ZIN A   1      18.361  -1.416   9.190  0.00  0.00    -0.070 N 
ATOM     19  H26 ZIN A   1      17.719  -1.362   8.415  0.00  0.00     0.279 HD
ATOM     20  C27 ZIN A   1      18.915  -2.774   9.261  0.00  0.00     0.270 C 
ENDROOT
BRANCH   1  21
ATOM     21  O2  ZIN A   1      20.340   4.405  12.160  0.00  0.00    -0.353 OA
ATOM     22  C1  ZIN A   1      19.853   5.170  13.265  0.00  0.00     0.210 C 
ENDBRANCH   1  21
BRANCH  10  23
ATOM     23  O16 ZIN A   1      19.403   1.668  13.984  0.00  0.00    -0.389 OA
ATOM     24  H37 ZIN A   1      18.604   1.934  13.508  0.00  0.00     0.210 HD
ENDBRANCH  10  23
TORSDOF 2
ENDMDL
MODEL 2
REMARK VINA RESULT:      -7.1      1.809      3.851
REMARK  2 active torsions:
REMARK  status: ('A' for Active; 'I' for Inactive)
REMARK    1  A    between atoms: O2_2  and  C3_3 
REMARK    2  A    between atoms: C14_12  and  O16_13 
ROOT
ATOM      1  C3  ZIN A   1      18.199   0.494  14.010  0.00  0.00     0.102 A 
ATOM      2  C4  ZIN A   1      19.537   0.206  14.271  0.00  0.00     0.040 A 
ATOM      3  C5  ZIN A   1      20.465  -0.084  13.283  0.00  0.00     0.011 A 
ATOM      4  C6  ZIN A   1      20.078  -0.114  11.955  0.00  0.00    -0.046 A 
ATOM      5  C7  ZIN A   1      20.988  -0.338  10.792  0.00  0.00     0.073 C 
ATOM      6  C8  ZIN A   1      20.260  -0.406   9.460  0.00  0.00     0.200 C 
ATOM      7  C10 ZIN A   1      19.045   0.502   9.338  0.00  0.00     0.055 C 
ATOM      8  C12 ZIN A   1      19.349   1.953   9.383  0.00  0.00    -0.020 C 
ATOM      9  C13 ZIN A   1      18.593   2.795  10.014  0.00  0.00     0.003 C 
ATOM     10  C14 ZIN A   1      17.391   2.471  10.824  0.00  0.00     0.171 C 
ATOM     11  C17 ZIN A   1      16.881   1.033  10.674  0.00  0.00     0.175 C 
ATOM     12  O19 ZIN A   1      16.582   0.637  12.064  0.00  0.00    -0.338 OA
ATOM     13  C20 ZIN A   1      17.794   0.467  12.672  0.00  0.00     0.110 A 
ATOM     14  C21 ZIN A   1      18.747   0.132  11.719  0.00  0.00    -0.003 A 
ATOM     15  C22 ZIN A   1      18.039   0.089  10.388  0.00  0.00     0.030 C 
ATOM     16  C23 ZIN A   1      17.586  -1.349  10.126  0.00  0.00     0.045 C 
ATOM     17  C24 ZIN A   1      18.837  -2.237  10.190  0.00  0.00     0.236 C 
ATOM     18  N25 ZIN A   1      19.815  -1.784   9.195  0.00  0.00    -0.070 N 
ATOM     19  H26 ZIN A   1      20.631  -2.374   9.243  0.00  0.00     0.279 HD
ATOM     20  C27 ZIN A   1      19.222  -1.896   7.855  0.00  0.00     0.270 C 
ENDROOT
BRANCH   1  21
ATOM     21  O2  ZIN A   1      17.326   0.784  15.011  0.00  0.00    -0.353 OA
ATOM     22  C1  ZIN A   1      17.352  -0.065  16.161  0.00  0.00     0.210 C 
ENDBRANCH   1  21
BRANCH  10  23
ATOM     23  O16 ZIN A   1      17.701   2.696  12.201  0.00  0.00    -0.389 OA
ATOM     24  H37 ZIN A   1      18.177   1.967  12.621  0.00  0.00     0.210 HD
ENDBRANCH  10  23
TORSDOF 2
ENDMDL
MODEL 3
REMARK VINA RESULT:      -7.0      2.445      5.222
REMARK  2 active torsions:
REMARK  status: ('A' for Active; 'I' for Inactive)
REMARK    1  A    between atoms: O2_2  and  C3_3 
REMARK    2  A    between atoms: C14_12  and  O16_13 
ROOT
ATOM      1  C3  ZIN A   1      19.393  -3.217  11.349  0.00  0.00     0.102 A 
ATOM      2  C4  ZIN A   1      18.123  -3.419  11.888  0.00  0.00     0.040 A 
ATOM      3  C5  ZIN A   1      17.253  -2.386  12.200  0.00  0.00     0.011 A 
ATOM      4  C6  ZIN A   1      17.632  -1.072  11.995  0.00  0.00    -0.046 A 
ATOM      5  C7  ZIN A   1      16.767   0.125  12.219  0.00  0.00     0.073 C 
ATOM      6  C8  ZIN A   1      17.489   1.443  11.994  0.00  0.00     0.200 C 
ATOM      7  C10 ZIN A   1      18.534   1.429  10.888  0.00  0.00     0.055 C 
ATOM      8  C12 ZIN A   1      17.991   1.206   9.526  0.00  0.00    -0.020 C 
ATOM      9  C13 ZIN A   1      18.598   0.461   8.657  0.00  0.00     0.003 C 
ATOM     10  C14 ZIN A   1      19.841  -0.321   8.876  0.00  0.00     0.171 C 
ATOM     11  C17 ZIN A   1      20.585   0.001  10.177  0.00  0.00     0.175 C 
ATOM     12  O19 ZIN A   1      20.953  -1.332  10.692  0.00  0.00    -0.338 OA
ATOM     13  C20 ZIN A   1      19.790  -1.894  11.138  0.00  0.00     0.110 A 
ATOM     14  C21 ZIN A   1      18.902  -0.890  11.503  0.00  0.00    -0.003 A 
ATOM     15  C22 ZIN A   1      19.600   0.423  11.257  0.00  0.00     0.030 C 
ATOM     16  C23 ZIN A   1      20.287   0.857  12.554  0.00  0.00     0.045 C 
ATOM     17  C24 ZIN A   1      19.202   0.927  13.640  0.00  0.00     0.236 C 
ATOM     18  N25 ZIN A   1      18.158   1.873  13.233  0.00  0.00    -0.070 N 
ATOM     19  H26 ZIN A   1      17.452   1.912  13.953  0.00  0.00     0.279 HD
ATOM     20  C27 ZIN A   1      18.754   3.206  13.072  0.00  0.00     0.270 C 
ENDROOT
BRANCH   1  21
ATOM     21  O2  ZIN A   1      20.210  -4.262  11.048  0.00  0.00    -0.353 OA
ATOM     22  C1  ZIN A   1      19.827  -5.091   9.949  0.00  0.00     0.210 C 
ENDBRANCH   1  21
BRANCH  10  23
ATOM     23  O16 ZIN A   1      19.506  -1.710   8.883  0.00  0.00    -0.389 OA
ATOM     24  H37 ZIN A   1      19.192  -2.034   9.738  0.00  0.00     0.210 HD
ENDBRANCH  10  23
TORSDOF 2
ENDMDL
MODEL 4
REMARK VINA RESULT:      -7.0      2.856      4.667
REMARK  2 active torsions:
REMARK  status: ('A' for Active; 'I' for Inactive)
REMARK    1  A    between atoms: O2_2  and  C3_3 
REMARK    2  A    between atoms: C14_12  and  O16_13 
ROOT
ATOM      1  C3  ZIN A   1      17.885   0.112   8.811  0.00  0.00     0.102 A 
ATOM      2  C4  ZIN A   1      19.171   0.567   8.522  0.00  0.00     0.040 A 
ATOM      3  C5  ZIN A   1      20.151   0.750   9.484  0.00  0.00     0.011 A 
ATOM      4  C6  ZIN A   1      19.875   0.493  10.815  0.00  0.00    -0.046 A 
ATOM      5  C7  ZIN A   1      20.858   0.578  11.937  0.00  0.00     0.073 C 
ATOM      6  C8  ZIN A   1      20.240   0.327  13.302  0.00  0.00     0.200 C 
ATOM      7  C10 ZIN A   1      19.113  -0.696  13.325  0.00  0.00     0.055 C 
ATOM      8  C12 ZIN A   1      19.525  -2.079  12.979  0.00  0.00    -0.020 C 
ATOM      9  C13 ZIN A   1      18.787  -2.853  12.247  0.00  0.00     0.003 C 
ATOM     10  C14 ZIN A   1      17.501  -2.495  11.597  0.00  0.00     0.171 C 
ATOM     11  C17 ZIN A   1      16.894  -1.164  12.058  0.00  0.00     0.175 C 
ATOM     12  O19 ZIN A   1      16.451  -0.543  10.794  0.00  0.00    -0.338 OA
ATOM     13  C20 ZIN A   1      17.592  -0.151  10.152  0.00  0.00     0.110 A 
ATOM     14  C21 ZIN A   1      18.591   0.086  11.087  0.00  0.00    -0.003 A 
ATOM     15  C22 ZIN A   1      17.995  -0.188  12.445  0.00  0.00     0.030 C 
ATOM     16  C23 ZIN A   1      17.454   1.126  13.010  0.00  0.00     0.045 C 
ATOM     17  C24 ZIN A   1      18.623   2.123  13.038  0.00  0.00     0.236 C 
ATOM     18  N25 ZIN A   1      19.712   1.583  13.859  0.00  0.00    -0.070 N 
ATOM     19  H26 ZIN A   1      20.473   2.245  13.872  0.00  0.00     0.279 HD
ATOM     20  C27 ZIN A   1      19.225   1.385  15.231  0.00  0.00     0.270 C 
ENDROOT
BRANCH   1  21
ATOM     21  O2  ZIN A   1      16.957  -0.063   7.832  0.00  0.00    -0.353 OA
ATOM     22  C1  ZIN A   1      17.435  -0.119   6.487  0.00  0.00     0.210 C 
ENDBRANCH   1  21
BRANCH  10  23
ATOM     23  O16 ZIN A   1      17.712  -2.427  10.186  0.00  0.00    -0.389 OA
ATOM     24  H37 ZIN A   1      17.964  -1.550   9.867  0.00  0.00     0.210 HD
ENDBRANCH  10  23
TORSDOF 2
ENDMDL
MODEL 5
REMARK VINA RESULT:      -6.8      4.296      6.144
REMARK  2 active torsions:
REMARK  status: ('A' for Active; 'I' for Inactive)
REMARK    1  A    between atoms: O2_2  and  C3_3 
REMARK    2  A    between atoms: C14_12  and  O16_13 
ROOT
ATOM      1  C3  ZIN A   1      19.012  -1.127   7.703  0.00  0.00     0.102 A 
ATOM      2  C4  ZIN A   1      19.627  -0.519   8.796  0.00  0.00     0.040 A 
ATOM      3  C5  ZIN A   1      19.909  -1.182   9.980  0.00  0.00     0.011 A 
ATOM      4  C6  ZIN A   1      19.563  -2.512  10.131  0.00  0.00    -0.046 A 
ATOM      5  C7  ZIN A   1      19.874  -3.360  11.321  0.00  0.00     0.073 C 
ATOM      6  C8  ZIN A   1      19.287  -4.759  11.237  0.00  0.00     0.200 C 
ATOM      7  C10 ZIN A   1      19.243  -5.360   9.839  0.00  0.00     0.055 C 
ATOM      8  C12 ZIN A   1      20.573  -5.609   9.230  0.00  0.00    -0.020 C 
ATOM      9  C13 ZIN A   1      20.807  -5.382   7.976  0.00  0.00     0.003 C 
ATOM     10  C14 ZIN A   1      19.864  -4.797   6.990  0.00  0.00     0.171 C 
ATOM     11  C17 ZIN A   1      18.411  -4.695   7.470  0.00  0.00     0.175 C 
ATOM     12  O19 ZIN A   1      18.004  -3.349   7.022  0.00  0.00    -0.338 OA
ATOM     13  C20 ZIN A   1      18.656  -2.471   7.841  0.00  0.00     0.110 A 
ATOM     14  C21 ZIN A   1      18.920  -3.084   9.059  0.00  0.00    -0.003 A 
ATOM     15  C22 ZIN A   1      18.366  -4.484   8.975  0.00  0.00     0.030 C 
ATOM     16  C23 ZIN A   1      16.941  -4.475   9.533  0.00  0.00     0.045 C 
ATOM     17  C24 ZIN A   1      17.019  -3.925  10.966  0.00  0.00     0.236 C 
ATOM     18  N25 ZIN A   1      17.914  -4.767  11.768  0.00  0.00    -0.070 N 
ATOM     19  H26 ZIN A   1      17.958  -4.399  12.707  0.00  0.00     0.279 HD
ATOM     20  C27 ZIN A   1      17.377  -6.133  11.813  0.00  0.00     0.270 C 
ENDROOT
BRANCH   1  21
ATOM     21  O2  ZIN A   1      18.765  -0.440   6.555  0.00  0.00    -0.353 OA
ATOM     22  C1  ZIN A   1      18.885   0.983   6.611  0.00  0.00     0.210 C 
ENDBRANCH   1  21
BRANCH  10  23
ATOM     23  O16 ZIN A   1      20.318  -3.485   6.654  0.00  0.00    -0.389 OA
ATOM     24  H37 ZIN A   1      20.198  -3.253   5.723  0.00  0.00     0.210 HD
ENDBRANCH  10  23
TORSDOF 2
ENDMDL
MODEL 6
REMARK VINA RESULT:      -6.8      2.084      3.696
REMARK  2 active torsions:
REMARK  status: ('A' for Active; 'I' for Inactive)
REMARK    1  A    between atoms: O2_2  and  C3_3 
REMARK    2  A    between atoms: C14_12  and  O16_13 
ROOT
ATOM      1  C3  ZIN A   1      17.934   2.554  11.653  0.00  0.00     0.102 A 
ATOM      2  C4  ZIN A   1      19.224   2.783  12.128  0.00  0.00     0.040 A 
ATOM      3  C5  ZIN A   1      20.228   1.828  12.105  0.00  0.00     0.011 A 
ATOM      4  C6  ZIN A   1      19.973   0.564  11.606  0.00  0.00    -0.046 A 
ATOM      5  C7  ZIN A   1      20.981  -0.529  11.456  0.00  0.00     0.073 C 
ATOM      6  C8  ZIN A   1      20.385  -1.837  10.963  0.00  0.00     0.200 C 
ATOM      7  C10 ZIN A   1      19.234  -1.694   9.977  0.00  0.00     0.055 C 
ATOM      8  C12 ZIN A   1      19.604  -1.081   8.678  0.00  0.00    -0.020 C 
ATOM      9  C13 ZIN A   1      18.833  -0.235   8.072  0.00  0.00     0.003 C 
ATOM     10  C14 ZIN A   1      17.542   0.303   8.573  0.00  0.00     0.171 C 
ATOM     11  C17 ZIN A   1      16.978  -0.416   9.804  0.00  0.00     0.175 C 
ATOM     12  O19 ZIN A   1      16.525   0.696  10.663  0.00  0.00    -0.338 OA
ATOM     13  C20 ZIN A   1      17.661   1.280  11.147  0.00  0.00     0.110 A 
ATOM     14  C21 ZIN A   1      18.685   0.342  11.181  0.00  0.00    -0.003 A 
ATOM     15  C22 ZIN A   1      18.111  -0.953  10.666  0.00  0.00     0.030 C 
ATOM     16  C23 ZIN A   1      17.614  -1.771  11.860  0.00  0.00     0.045 C 
ATOM     17  C24 ZIN A   1      18.807  -1.958  12.809  0.00  0.00     0.236 C 
ATOM     18  N25 ZIN A   1      19.899  -2.635  12.101  0.00  0.00    -0.070 N 
ATOM     19  H26 ZIN A   1      20.677  -2.754  12.732  0.00  0.00     0.279 HD
ATOM     20  C27 ZIN A   1      19.436  -3.956  11.656  0.00  0.00     0.270 C 
ENDROOT
BRANCH   1  21
ATOM     21  O2  ZIN A   1      16.982   3.525  11.686  0.00  0.00    -0.353 OA
ATOM     22  C1  ZIN A   1      17.122   4.603  10.759  0.00  0.00     0.210 C 
ENDBRANCH   1  21
BRANCH  10  23
ATOM     23  O16 ZIN A   1      17.726   1.681   8.903  0.00  0.00    -0.389 OA
ATOM     24  H37 ZIN A   1      17.513   2.290   8.183  0.00  0.00     0.210 HD
ENDBRANCH  10  23
TORSDOF 2
ENDMDL
MODEL 7
REMARK VINA RESULT:      -6.8      3.031      5.881
REMARK  2 active torsions:
REMARK  status: ('A' for Active; 'I' for Inactive)
REMARK    1  A    between atoms: O2_2  and  C3_3 
REMARK    2  A    between atoms: C14_12  and  O16_13 
ROOT
ATOM      1  C3  ZIN A   1      18.573  -4.289   9.937  0.00  0.00     0.102 A 
ATOM      2  C4  ZIN A   1      17.724  -4.377  11.039  0.00  0.00     0.040 A 
ATOM      3  C5  ZIN A   1      17.291  -3.276  11.761  0.00  0.00     0.011 A 
ATOM      4  C6  ZIN A   1      17.714  -2.006  11.411  0.00  0.00    -0.046 A 
ATOM      5  C7  ZIN A   1      17.267  -0.735  12.056  0.00  0.00     0.073 C 
ATOM      6  C8  ZIN A   1      17.973   0.497  11.516  0.00  0.00     0.200 C 
ATOM      7  C10 ZIN A   1      18.317   0.451  10.034  0.00  0.00     0.055 C 
ATOM      8  C12 ZIN A   1      17.143   0.418   9.127  0.00  0.00    -0.020 C 
ATOM      9  C13 ZIN A   1      17.118  -0.318   8.061  0.00  0.00     0.003 C 
ATOM     10  C14 ZIN A   1      18.171  -1.264   7.614  0.00  0.00     0.171 C 
ATOM     11  C17 ZIN A   1      19.501  -1.153   8.369  0.00  0.00     0.175 C 
ATOM     12  O19 ZIN A   1      19.868  -2.562   8.610  0.00  0.00    -0.338 OA
ATOM     13  C20 ZIN A   1      19.009  -3.012   9.573  0.00  0.00     0.110 A 
ATOM     14  C21 ZIN A   1      18.584  -1.942  10.349  0.00  0.00    -0.003 A 
ATOM     15  C22 ZIN A   1      19.258  -0.708   9.803  0.00  0.00     0.030 C 
ATOM     16  C23 ZIN A   1      20.554  -0.480  10.584  0.00  0.00     0.045 C 
ATOM     17  C24 ZIN A   1      20.176  -0.372  12.069  0.00  0.00     0.236 C 
ATOM     18  N25 ZIN A   1      19.225   0.730  12.256  0.00  0.00    -0.070 N 
ATOM     19  H26 ZIN A   1      18.983   0.793  13.233  0.00  0.00     0.279 HD
ATOM     20  C27 ZIN A   1      19.857   1.987  11.836  0.00  0.00     0.270 C 
ENDROOT
BRANCH   1  21
ATOM     21  O2  ZIN A   1      18.964  -5.396   9.252  0.00  0.00    -0.353 OA
ATOM     22  C1  ZIN A   1      17.946  -6.129   8.567  0.00  0.00     0.210 C 
ENDBRANCH   1  21
BRANCH  10  23
ATOM     23  O16 ZIN A   1      17.677  -2.596   7.770  0.00  0.00    -0.389 OA
ATOM     24  H37 ZIN A   1      16.865  -2.655   8.292  0.00  0.00     0.210 HD
ENDBRANCH  10  23
TORSDOF 2
ENDMDL
MODEL 8
REMARK VINA RESULT:      -6.7      3.077      5.378
REMARK  2 active torsions:
REMARK  status: ('A' for Active; 'I' for Inactive)
REMARK    1  A    between atoms: O2_2  and  C3_3 
REMARK    2  A    between atoms: C14_12  and  O16_13 
ROOT
ATOM      1  C3  ZIN A   1      19.105  -2.422   7.225  0.00  0.00     0.102 A 
ATOM      2  C4  ZIN A   1      18.360  -3.574   7.470  0.00  0.00     0.040 A 
ATOM      3  C5  ZIN A   1      17.801  -3.876   8.702  0.00  0.00     0.011 A 
ATOM      4  C6  ZIN A   1      17.983  -3.022   9.775  0.00  0.00    -0.046 A 
ATOM      5  C7  ZIN A   1      17.377  -3.191  11.130  0.00  0.00     0.073 C 
ATOM      6  C8  ZIN A   1      17.831  -2.141  12.130  0.00  0.00     0.200 C 
ATOM      7  C10 ZIN A   1      18.075  -0.755  11.550  0.00  0.00     0.055 C 
ATOM      8  C12 ZIN A   1      16.863  -0.085  11.017  0.00  0.00    -0.020 C 
ATOM      9  C13 ZIN A   1      16.887   0.612   9.925  0.00  0.00     0.003 C 
ATOM     10  C14 ZIN A   1      18.049   0.799   9.019  0.00  0.00     0.171 C 
ATOM     11  C17 ZIN A   1      19.391   0.318   9.584  0.00  0.00     0.175 C 
ATOM     12  O19 ZIN A   1      20.002  -0.388   8.441  0.00  0.00    -0.338 OA
ATOM     13  C20 ZIN A   1      19.297  -1.550   8.301  0.00  0.00     0.110 A 
ATOM     14  C21 ZIN A   1      18.755  -1.912   9.527  0.00  0.00    -0.003 A 
ATOM     15  C22 ZIN A   1      19.177  -0.860  10.521  0.00  0.00     0.030 C 
ATOM     16  C23 ZIN A   1      20.468  -1.325  11.199  0.00  0.00     0.045 C 
ATOM     17  C24 ZIN A   1      20.179  -2.695  11.833  0.00  0.00     0.236 C 
ATOM     18  N25 ZIN A   1      19.075  -2.572  12.790  0.00  0.00    -0.070 N 
ATOM     19  H26 ZIN A   1      18.894  -3.475  13.201  0.00  0.00     0.279 HD
ATOM     20  C27 ZIN A   1      19.460  -1.631  13.850  0.00  0.00     0.270 C 
ENDROOT
BRANCH   1  21
ATOM     21  O2  ZIN A   1      19.626  -2.160   5.997  0.00  0.00    -0.353 OA
ATOM     22  C1  ZIN A   1      18.887  -2.627   4.866  0.00  0.00     0.210 C 
ENDBRANCH   1  21
BRANCH  10  23
ATOM     23  O16 ZIN A   1      17.794   0.091   7.805  0.00  0.00    -0.389 OA
ATOM     24  H37 ZIN A   1      17.238   0.573   7.178  0.00  0.00     0.210 HD
ENDBRANCH  10  23
TORSDOF 2
ENDMDL
MODEL 9
REMARK VINA RESULT:      -6.7      3.469      5.254
REMARK  2 active torsions:
REMARK  status: ('A' for Active; 'I' for Inactive)
REMARK    1  A    between atoms: O2_2  and  C3_3 
REMARK    2  A    between atoms: C14_12  and  O16_13 
ROOT
ATOM      1  C3  ZIN A   1      18.608  -1.424   7.840  0.00  0.00     0.102 A 
ATOM      2  C4  ZIN A   1      19.468  -0.326   7.847  0.00  0.00     0.040 A 
ATOM      3  C5  ZIN A   1      20.002   0.219   9.004  0.00  0.00     0.011 A 
ATOM      4  C6  ZIN A   1      19.678  -0.316  10.238  0.00  0.00    -0.046 A 
ATOM      5  C7  ZIN A   1      20.240   0.127  11.549  0.00  0.00     0.073 C 
ATOM      6  C8  ZIN A   1      19.626  -0.587  12.741  0.00  0.00     0.200 C 
ATOM      7  C10 ZIN A   1      19.253  -2.044  12.503  0.00  0.00     0.055 C 
ATOM      8  C12 ZIN A   1      20.403  -2.942  12.237  0.00  0.00    -0.020 C 
ATOM      9  C13 ZIN A   1      20.348  -3.885  11.350  0.00  0.00     0.003 C 
ATOM     10  C14 ZIN A   1      19.213  -4.179  10.438  0.00  0.00     0.171 C 
ATOM     11  C17 ZIN A   1      17.911  -3.441  10.772  0.00  0.00     0.175 C 
ATOM     12  O19 ZIN A   1      17.434  -2.988   9.450  0.00  0.00    -0.338 OA
ATOM     13  C20 ZIN A   1      18.271  -1.974   9.080  0.00  0.00     0.110 A 
ATOM     14  C21 ZIN A   1      18.797  -1.370  10.215  0.00  0.00    -0.003 A 
ATOM     15  C22 ZIN A   1      18.216  -2.092  11.405  0.00  0.00     0.030 C 
ATOM     16  C23 ZIN A   1      16.957  -1.347  11.855  0.00  0.00     0.045 C 
ATOM     17  C24 ZIN A   1      17.371   0.103  12.152  0.00  0.00     0.236 C 
ATOM     18  N25 ZIN A   1      18.412   0.116  13.186  0.00  0.00    -0.070 N 
ATOM     19  H26 ZIN A   1      18.675   1.071  13.374  0.00  0.00     0.279 HD
ATOM     20  C27 ZIN A   1      17.876  -0.485  14.414  0.00  0.00     0.270 C 
ENDROOT
BRANCH   1  21
ATOM     21  O2  ZIN A   1      18.115  -1.932   6.679  0.00  0.00    -0.353 OA
ATOM     22  C1  ZIN A   1      19.032  -2.633   5.836  0.00  0.00     0.210 C 
ENDBRANCH   1  21
BRANCH  10  23
ATOM     23  O16 ZIN A   1      19.600  -3.826   9.109  0.00  0.00    -0.389 OA
ATOM     24  H37 ZIN A   1      19.133  -4.319   8.420  0.00  0.00     0.210 HD
ENDBRANCH  10  23
TORSDOF 2
ENDMDL
