MODEL 1
REMARK VINA RESULT:      -6.8      0.000      0.000
REMARK  20 active torsions:
REMARK  status: ('A' for Active; 'I' for Inactive)
REMARK    1  A    between atoms: C2_2  and  C4_4 
REMARK    2  A    between atoms: C4_4  and  N5_5 
REMARK    3  A    between atoms: N5_5  and  C6_6 
REMARK    4  A    between atoms: N5_5  and  C35_34 
REMARK    5  A    between atoms: C6_6  and  C7_7 
REMARK    6  A    between atoms: C7_7  and  N8_8 
REMARK    7  A    between atoms: N8_8  and  C10_10 
REMARK    8  A    between atoms: N8_8  and  C31_30 
REMARK    9  A    between atoms: C10_10  and  C11_11 
REMARK   10  A    between atoms: C11_11  and  N12_12 
REMARK   11  A    between atoms: N12_12  and  C13_13 
REMARK   12  A    between atoms: N12_12  and  C17_17 
REMARK   13  A    between atoms: C13_13  and  C14_14 
REMARK   14  A    between atoms: C17_17  and  C19_18 
REMARK   15  A    between atoms: C17_17  and  C28_27 
REMARK   16  A    between atoms: C19_18  and  O20_19 
REMARK   17  A    between atoms: O20_19  and  C21_20 
REMARK   18  A    between atoms: C21_20  and  C22_21 
REMARK   19  A    between atoms: C31_30  and  C32_31 
REMARK   20  A    between atoms: C35_34  and  C36_35 
ROOT
ATOM      1  C11 ZIN A   1      19.970  -0.062   9.210  0.00  0.00     0.302 C 
ENDROOT
BRANCH   1   2
ATOM      2  C10 ZIN A   1      18.916  -0.169   8.105  0.00  0.00     0.265 C 
BRANCH   2   3
ATOM      3  N8  ZIN A   1      19.244  -1.296   7.223  0.00  0.00    -0.058 N 
ATOM      4  H9  ZIN A   1      20.154  -1.148   6.814  0.00  0.00     0.280 HD
BRANCH   3   5
ATOM      5  C7  ZIN A   1      19.254  -2.542   8.002  0.00  0.00     0.265 C 
BRANCH   5   6
ATOM      6  C6  ZIN A   1      17.815  -2.988   8.266  0.00  0.00     0.301 C 
BRANCH   6   7
ATOM      7  N5  ZIN A   1      17.752  -4.456   8.278  0.00  0.00     0.110 N 
BRANCH   7   8
ATOM      8  C4  ZIN A   1      17.749  -4.995   6.911  0.00  0.00     0.385 C 
BRANCH   8   9
ATOM      9  C2  ZIN A   1      18.745  -6.122   6.813  0.00  0.00     0.202 C 
ATOM     10  O1  ZIN A   1      19.924  -5.916   7.046  0.00  0.00    -0.647 OA
ATOM     11  O3  ZIN A   1      18.371  -7.241   6.507  0.00  0.00    -0.647 OA
ENDBRANCH   8   9
ENDBRANCH   7   8
BRANCH   7  12
ATOM     12  C35 ZIN A   1      16.584  -4.928   9.032  0.00  0.00     0.385 C 
BRANCH  12  13
ATOM     13  C36 ZIN A   1      16.944  -5.055  10.490  0.00  0.00     0.202 C 
ATOM     14  O37 ZIN A   1      16.174  -4.653  11.345  0.00  0.00    -0.647 OA
ATOM     15  O38 ZIN A   1      18.005  -5.561  10.814  0.00  0.00    -0.647 OA
ENDBRANCH  12  13
ENDBRANCH   7  12
ENDBRANCH   6   7
ENDBRANCH   5   6
ENDBRANCH   3   5
BRANCH   3  16
ATOM     16  C31 ZIN A   1      18.238  -1.392   6.156  0.00  0.00     0.347 C 
BRANCH  16  17
ATOM     17  C32 ZIN A   1      18.827  -0.890   4.863  0.00  0.00     0.199 C 
ATOM     18  O33 ZIN A   1      20.025  -0.992   4.659  0.00  0.00    -0.647 OA
ATOM     19  O34 ZIN A   1      18.105  -0.384   4.021  0.00  0.00    -0.647 OA
ENDBRANCH  16  17
ENDBRANCH   3  16
ENDBRANCH   2   3
ENDBRANCH   1   2
BRANCH   1  20
ATOM     20  N12 ZIN A   1      19.307  -0.063  10.521  0.00  0.00     0.117 N 
BRANCH  20  21
ATOM     21  C13 ZIN A   1      20.096  -0.807  11.511  0.00  0.00     0.386 C 
BRANCH  21  22
ATOM     22  C14 ZIN A   1      19.439  -2.136  11.782  0.00  0.00     0.202 C 
ATOM     23  O15 ZIN A   1      20.075  -3.168  11.655  0.00  0.00    -0.647 OA
ATOM     24  O16 ZIN A   1      18.272  -2.179  12.130  0.00  0.00    -0.647 OA
ENDBRANCH  21  22
ENDBRANCH  20  21
BRANCH  20  25
ATOM     25  C17 ZIN A   1      19.046   1.309  10.979  0.00  0.00     0.346 C 
BRANCH  25  26
ATOM     26  C19 ZIN A   1      19.592   1.485  12.398  0.00  0.00     0.215 C 
BRANCH  26  27
ATOM     27  O20 ZIN A   1      18.572   1.158  13.344  0.00  0.00    -0.384 OA
BRANCH  27  28
ATOM     28  C21 ZIN A   1      18.584   1.976  14.516  0.00  0.00     0.206 C 
BRANCH  28  29
ATOM     29  C22 ZIN A   1      18.812   1.112  15.728  0.00  0.00    -0.035 A 
ATOM     30  C27 ZIN A   1      19.125   1.692  16.943  0.00  0.00     0.009 A 
ATOM     31  C26 ZIN A   1      19.329   0.898  18.056  0.00  0.00     0.001 A 
ATOM     32  C25 ZIN A   1      19.229  -0.477  17.953  0.00  0.00     0.000 A 
ATOM     33  C24 ZIN A   1      18.922  -1.057  16.737  0.00  0.00     0.001 A 
ATOM     34  C23 ZIN A   1      18.713  -0.264  15.625  0.00  0.00     0.009 A 
ENDBRANCH  28  29
ENDBRANCH  27  28
ENDBRANCH  26  27
ENDBRANCH  25  26
BRANCH  25  35
ATOM     35  C28 ZIN A   1      17.562   1.567  10.976  0.00  0.00     0.209 C 
ATOM     36  O29 ZIN A   1      16.781   0.632  10.924  0.00  0.00    -0.646 OA
ATOM     37  O30 ZIN A   1      17.142   2.709  11.026  0.00  0.00    -0.646 OA
ENDBRANCH  25  35
ENDBRANCH  20  25
ENDBRANCH   1  20
TORSDOF 20
ENDMDL
MODEL 2
REMARK VINA RESULT:      -6.7      1.481      3.467
REMARK  20 active torsions:
REMARK  status: ('A' for Active; 'I' for Inactive)
REMARK    1  A    between atoms: C2_2  and  C4_4 
REMARK    2  A    between atoms: C4_4  and  N5_5 
REMARK    3  A    between atoms: N5_5  and  C6_6 
REMARK    4  A    between atoms: N5_5  and  C35_34 
REMARK    5  A    between atoms: C6_6  and  C7_7 
REMARK    6  A    between atoms: C7_7  and  N8_8 
REMARK    7  A    between atoms: N8_8  and  C10_10 
REMARK    8  A    between atoms: N8_8  and  C31_30 
REMARK    9  A    between atoms: C10_10  and  C11_11 
REMARK   10  A    between atoms: C11_11  and  N12_12 
REMARK   11  A    between atoms: N12_12  and  C13_13 
REMARK   12  A    between atoms: N12_12  and  C17_17 
REMARK   13  A    between atoms: C13_13  and  C14_14 
REMARK   14  A    between atoms: C17_17  and  C19_18 
REMARK   15  A    between atoms: C17_17  and  C28_27 
REMARK   16  A    between atoms: C19_18  and  O20_19 
REMARK   17  A    between atoms: O20_19  and  C21_20 
REMARK   18  A    between atoms: C21_20  and  C22_21 
REMARK   19  A    between atoms: C31_30  and  C32_31 
REMARK   20  A    between atoms: C35_34  and  C36_35 
ROOT
ATOM      1  C11 ZIN A   1      17.998   0.349   9.307  0.00  0.00     0.302 C 
ENDROOT
BRANCH   1   2
ATOM      2  C10 ZIN A   1      18.896   0.524   8.080  0.00  0.00     0.265 C 
BRANCH   2   3
ATOM      3  N8  ZIN A   1      18.846  -0.692   7.260  0.00  0.00    -0.058 N 
ATOM      4  H9  ZIN A   1      19.782  -0.957   6.993  0.00  0.00     0.280 HD
BRANCH   3   5
ATOM      5  C7  ZIN A   1      18.230  -1.780   8.032  0.00  0.00     0.265 C 
BRANCH   5   6
ATOM      6  C6  ZIN A   1      19.237  -2.919   8.201  0.00  0.00     0.301 C 
BRANCH   6   7
ATOM      7  N5  ZIN A   1      18.622  -4.006   8.974  0.00  0.00     0.110 N 
BRANCH   7   8
ATOM      8  C4  ZIN A   1      18.774  -3.776  10.418  0.00  0.00     0.385 C 
BRANCH   8   9
ATOM      9  C2  ZIN A   1      17.412  -3.669  11.055  0.00  0.00     0.202 C 
ATOM     10  O1  ZIN A   1      16.722  -4.665  11.192  0.00  0.00    -0.647 OA
ATOM     11  O3  ZIN A   1      17.003  -2.586  11.439  0.00  0.00    -0.647 OA
ENDBRANCH   8   9
ENDBRANCH   7   8
BRANCH   7  12
ATOM     12  C35 ZIN A   1      19.178  -5.308   8.587  0.00  0.00     0.385 C 
BRANCH  12  13
ATOM     13  C36 ZIN A   1      18.415  -5.851   7.406  0.00  0.00     0.202 C 
ATOM     14  O37 ZIN A   1      17.223  -5.623   7.294  0.00  0.00    -0.647 OA
ATOM     15  O38 ZIN A   1      18.990  -6.517   6.563  0.00  0.00    -0.647 OA
ENDBRANCH  12  13
ENDBRANCH   7  12
ENDBRANCH   6   7
ENDBRANCH   5   6
ENDBRANCH   3   5
BRANCH   3  16
ATOM     16  C31 ZIN A   1      18.048  -0.436   6.053  0.00  0.00     0.347 C 
BRANCH  16  17
ATOM     17  C32 ZIN A   1      18.913  -0.612   4.831  0.00  0.00     0.199 C 
ATOM     18  O33 ZIN A   1      19.777  -1.471   4.815  0.00  0.00    -0.647 OA
ATOM     19  O34 ZIN A   1      18.747   0.106   3.859  0.00  0.00    -0.647 OA
ENDBRANCH  16  17
ENDBRANCH   3  16
ENDBRANCH   2   3
ENDBRANCH   1   2
BRANCH   1  20
ATOM     20  N12 ZIN A   1      18.559   1.105  10.435  0.00  0.00     0.117 N 
BRANCH  20  21
ATOM     21  C13 ZIN A   1      17.609   2.116  10.917  0.00  0.00     0.386 C 
BRANCH  21  22
ATOM     22  C14 ZIN A   1      18.120   3.491  10.571  0.00  0.00     0.202 C 
ATOM     23  O15 ZIN A   1      18.300   3.800   9.406  0.00  0.00    -0.647 OA
ATOM     24  O16 ZIN A   1      18.354   4.295  11.457  0.00  0.00    -0.647 OA
ENDBRANCH  21  22
ENDBRANCH  20  21
BRANCH  20  25
ATOM     25  C17 ZIN A   1      18.963   0.203  11.523  0.00  0.00     0.346 C 
BRANCH  25  26
ATOM     26  C19 ZIN A   1      18.511   0.786  12.863  0.00  0.00     0.215 C 
BRANCH  26  27
ATOM     27  O20 ZIN A   1      17.637  -0.140  13.514  0.00  0.00    -0.384 OA
BRANCH  27  28
ATOM     28  C21 ZIN A   1      18.315  -1.129  14.292  0.00  0.00     0.206 C 
BRANCH  28  29
ATOM     29  C22 ZIN A   1      18.307  -0.717  15.742  0.00  0.00    -0.035 A 
ATOM     30  C27 ZIN A   1      17.279   0.066  16.232  0.00  0.00     0.009 A 
ATOM     31  C26 ZIN A   1      17.270   0.439  17.564  0.00  0.00     0.001 A 
ATOM     32  C25 ZIN A   1      18.292   0.036  18.402  0.00  0.00     0.000 A 
ATOM     33  C24 ZIN A   1      19.322  -0.743  17.910  0.00  0.00     0.001 A 
ATOM     34  C23 ZIN A   1      19.330  -1.120  16.581  0.00  0.00     0.009 A 
ENDBRANCH  28  29
ENDBRANCH  27  28
ENDBRANCH  26  27
ENDBRANCH  25  26
BRANCH  25  35
ATOM     35  C28 ZIN A   1      20.462   0.053  11.521  0.00  0.00     0.209 C 
ATOM     36  O29 ZIN A   1      21.142   0.715  12.285  0.00  0.00    -0.646 OA
ATOM     37  O30 ZIN A   1      20.995  -0.731  10.754  0.00  0.00    -0.646 OA
ENDBRANCH  25  35
ENDBRANCH  20  25
ENDBRANCH   1  20
TORSDOF 20
ENDMDL
MODEL 3
REMARK VINA RESULT:      -6.7      1.356      2.736
REMARK  20 active torsions:
REMARK  status: ('A' for Active; 'I' for Inactive)
REMARK    1  A    between atoms: C2_2  and  C4_4 
REMARK    2  A    between atoms: C4_4  and  N5_5 
REMARK    3  A    between atoms: N5_5  and  C6_6 
REMARK    4  A    between atoms: N5_5  and  C35_34 
REMARK    5  A    between atoms: C6_6  and  C7_7 
REMARK    6  A    between atoms: C7_7  and  N8_8 
REMARK    7  A    between atoms: N8_8  and  C10_10 
REMARK    8  A    between atoms: N8_8  and  C31_30 
REMARK    9  A    between atoms: C10_10  and  C11_11 
REMARK   10  A    between atoms: C11_11  and  N12_12 
REMARK   11  A    between atoms: N12_12  and  C13_13 
REMARK   12  A    between atoms: N12_12  and  C17_17 
REMARK   13  A    between atoms: C13_13  and  C14_14 
REMARK   14  A    between atoms: C17_17  and  C19_18 
REMARK   15  A    between atoms: C17_17  and  C28_27 
REMARK   16  A    between atoms: C19_18  and  O20_19 
REMARK   17  A    between atoms: O20_19  and  C21_20 
REMARK   18  A    between atoms: C21_20  and  C22_21 
REMARK   19  A    between atoms: C31_30  and  C32_31 
REMARK   20  A    between atoms: C35_34  and  C36_35 
ROOT
ATOM      1  C11 ZIN A   1      17.937   0.551   9.312  0.00  0.00     0.302 C 
ENDROOT
BRANCH   1   2
ATOM      2  C10 ZIN A   1      18.957   0.721   8.184  0.00  0.00     0.265 C 
BRANCH   2   3
ATOM      3  N8  ZIN A   1      18.898  -0.444   7.292  0.00  0.00    -0.058 N 
ATOM      4  H9  ZIN A   1      19.831  -0.697   7.007  0.00  0.00     0.280 HD
BRANCH   3   5
ATOM      5  C7  ZIN A   1      18.279  -1.573   8.000  0.00  0.00     0.265 C 
BRANCH   5   6
ATOM      6  C6  ZIN A   1      19.271  -2.735   8.072  0.00  0.00     0.301 C 
BRANCH   6   7
ATOM      7  N5  ZIN A   1      18.535  -3.998   8.221  0.00  0.00     0.110 N 
BRANCH   7   8
ATOM      8  C4  ZIN A   1      18.256  -4.603   6.911  0.00  0.00     0.385 C 
BRANCH   8   9
ATOM      9  C2  ZIN A   1      19.108  -5.833   6.735  0.00  0.00     0.202 C 
ATOM     10  O1  ZIN A   1      18.590  -6.899   6.447  0.00  0.00    -0.647 OA
ATOM     11  O3  ZIN A   1      20.318  -5.762   6.874  0.00  0.00    -0.647 OA
ENDBRANCH   8   9
ENDBRANCH   7   8
BRANCH   7  12
ATOM     12  C35 ZIN A   1      17.296  -3.799   8.983  0.00  0.00     0.385 C 
BRANCH  12  13
ATOM     13  C36 ZIN A   1      17.499  -4.262  10.403  0.00  0.00     0.202 C 
ATOM     14  O37 ZIN A   1      16.992  -3.644  11.323  0.00  0.00    -0.647 OA
ATOM     15  O38 ZIN A   1      18.168  -5.255  10.630  0.00  0.00    -0.647 OA
ENDBRANCH  12  13
ENDBRANCH   7  12
ENDBRANCH   6   7
ENDBRANCH   5   6
ENDBRANCH   3   5
BRANCH   3  16
ATOM     16  C31 ZIN A   1      18.098  -0.112   6.105  0.00  0.00     0.347 C 
BRANCH  16  17
ATOM     17  C32 ZIN A   1      18.891  -0.419   4.861  0.00  0.00     0.199 C 
ATOM     18  O33 ZIN A   1      18.529   0.022   3.784  0.00  0.00    -0.647 OA
ATOM     19  O34 ZIN A   1      19.893  -1.108   4.933  0.00  0.00    -0.647 OA
ENDBRANCH  16  17
ENDBRANCH   3  16
ENDBRANCH   2   3
ENDBRANCH   1   2
BRANCH   1  20
ATOM     20  N12 ZIN A   1      18.556   0.923  10.591  0.00  0.00     0.117 N 
BRANCH  20  21
ATOM     21  C13 ZIN A   1      17.842   2.044  11.217  0.00  0.00     0.386 C 
BRANCH  21  22
ATOM     22  C14 ZIN A   1      18.764   3.231  11.322  0.00  0.00     0.202 C 
ATOM     23  O15 ZIN A   1      19.934   3.125  10.997  0.00  0.00    -0.647 OA
ATOM     24  O16 ZIN A   1      18.340   4.298  11.733  0.00  0.00    -0.647 OA
ENDBRANCH  21  22
ENDBRANCH  20  21
BRANCH  20  25
ATOM     25  C17 ZIN A   1      18.621  -0.231  11.499  0.00  0.00     0.346 C 
BRANCH  25  26
ATOM     26  C19 ZIN A   1      18.508   0.252  12.946  0.00  0.00     0.215 C 
BRANCH  26  27
ATOM     27  O20 ZIN A   1      17.686  -0.653  13.687  0.00  0.00    -0.384 OA
BRANCH  27  28
ATOM     28  C21 ZIN A   1      18.405  -1.457  14.624  0.00  0.00     0.206 C 
BRANCH  28  29
ATOM     29  C22 ZIN A   1      18.335  -0.822  15.988  0.00  0.00    -0.035 A 
ATOM     30  C27 ZIN A   1      17.238  -0.059  16.340  0.00  0.00     0.009 A 
ATOM     31  C26 ZIN A   1      17.172   0.520  17.594  0.00  0.00     0.001 A 
ATOM     32  C25 ZIN A   1      18.207   0.344  18.492  0.00  0.00     0.000 A 
ATOM     33  C24 ZIN A   1      19.307  -0.414  18.138  0.00  0.00     0.001 A 
ATOM     34  C23 ZIN A   1      19.371  -0.997  16.887  0.00  0.00     0.009 A 
ENDBRANCH  28  29
ENDBRANCH  27  28
ENDBRANCH  26  27
ENDBRANCH  25  26
BRANCH  25  35
ATOM     35  C28 ZIN A   1      19.932  -0.947  11.308  0.00  0.00     0.209 C 
ATOM     36  O29 ZIN A   1      20.918  -0.328  10.945  0.00  0.00    -0.646 OA
ATOM     37  O30 ZIN A   1      20.009  -2.145  11.517  0.00  0.00    -0.646 OA
ENDBRANCH  25  35
ENDBRANCH  20  25
ENDBRANCH   1  20
TORSDOF 20
ENDMDL
MODEL 4
REMARK VINA RESULT:      -6.6      2.980      9.510
REMARK  20 active torsions:
REMARK  status: ('A' for Active; 'I' for Inactive)
REMARK    1  A    between atoms: C2_2  and  C4_4 
REMARK    2  A    between atoms: C4_4  and  N5_5 
REMARK    3  A    between atoms: N5_5  and  C6_6 
REMARK    4  A    between atoms: N5_5  and  C35_34 
REMARK    5  A    between atoms: C6_6  and  C7_7 
REMARK    6  A    between atoms: C7_7  and  N8_8 
REMARK    7  A    between atoms: N8_8  and  C10_10 
REMARK    8  A    between atoms: N8_8  and  C31_30 
REMARK    9  A    between atoms: C10_10  and  C11_11 
REMARK   10  A    between atoms: C11_11  and  N12_12 
REMARK   11  A    between atoms: N12_12  and  C13_13 
REMARK   12  A    between atoms: N12_12  and  C17_17 
REMARK   13  A    between atoms: C13_13  and  C14_14 
REMARK   14  A    between atoms: C17_17  and  C19_18 
REMARK   15  A    between atoms: C17_17  and  C28_27 
REMARK   16  A    between atoms: C19_18  and  O20_19 
REMARK   17  A    between atoms: O20_19  and  C21_20 
REMARK   18  A    between atoms: C21_20  and  C22_21 
REMARK   19  A    between atoms: C31_30  and  C32_31 
REMARK   20  A    between atoms: C35_34  and  C36_35 
ROOT
ATOM      1  C11 ZIN A   1      18.187   0.020  13.488  0.00  0.00     0.302 C 
ENDROOT
BRANCH   1   2
ATOM      2  C10 ZIN A   1      19.038  -0.288  14.723  0.00  0.00     0.265 C 
BRANCH   2   3
ATOM      3  N8  ZIN A   1      19.245   0.945  15.494  0.00  0.00    -0.058 N 
ATOM      4  H9  ZIN A   1      20.218   1.021  15.750  0.00  0.00     0.280 HD
BRANCH   3   5
ATOM      5  C7  ZIN A   1      18.862   2.104  14.677  0.00  0.00     0.265 C 
BRANCH   5   6
ATOM      6  C6  ZIN A   1      18.526   3.283  15.592  0.00  0.00     0.301 C 
BRANCH   6   7
ATOM      7  N5  ZIN A   1      18.474   4.519  14.798  0.00  0.00     0.110 N 
BRANCH   7   8
ATOM      8  C4  ZIN A   1      18.931   5.671  15.587  0.00  0.00     0.385 C 
BRANCH   8   9
ATOM      9  C2  ZIN A   1      20.301   6.088  15.118  0.00  0.00     0.202 C 
ATOM     10  O1  ZIN A   1      20.487   6.362  13.943  0.00  0.00    -0.647 OA
ATOM     11  O3  ZIN A   1      21.223   6.159  15.913  0.00  0.00    -0.647 OA
ENDBRANCH   8   9
ENDBRANCH   7   8
BRANCH   7  12
ATOM     12  C35 ZIN A   1      17.124   4.747  14.267  0.00  0.00     0.385 C 
BRANCH  12  13
ATOM     13  C36 ZIN A   1      17.185   4.858  12.766  0.00  0.00     0.202 C 
ATOM     14  O37 ZIN A   1      16.164   5.038  12.126  0.00  0.00    -0.647 OA
ATOM     15  O38 ZIN A   1      18.257   4.767  12.192  0.00  0.00    -0.647 OA
ENDBRANCH  12  13
ENDBRANCH   7  12
ENDBRANCH   6   7
ENDBRANCH   5   6
ENDBRANCH   3   5
BRANCH   3  16
ATOM     16  C31 ZIN A   1      18.420   0.907  16.709  0.00  0.00     0.347 C 
BRANCH  16  17
ATOM     17  C32 ZIN A   1      19.296   0.629  17.903  0.00  0.00     0.199 C 
ATOM     18  O33 ZIN A   1      19.510  -0.520  18.249  0.00  0.00    -0.647 OA
ATOM     19  O34 ZIN A   1      19.790   1.555  18.524  0.00  0.00    -0.647 OA
ENDBRANCH  16  17
ENDBRANCH   3  16
ENDBRANCH   2   3
ENDBRANCH   1   2
BRANCH   1  20
ATOM     20  N12 ZIN A   1      18.625  -0.825  12.369  0.00  0.00     0.117 N 
BRANCH  20  21
ATOM     21  C13 ZIN A   1      18.038  -2.169  12.462  0.00  0.00     0.386 C 
BRANCH  21  22
ATOM     22  C14 ZIN A   1      18.933  -3.159  11.763  0.00  0.00     0.202 C 
ATOM     23  O15 ZIN A   1      20.144  -3.025  11.810  0.00  0.00    -0.647 OA
ATOM     24  O16 ZIN A   1      18.447  -4.093  11.150  0.00  0.00    -0.647 OA
ENDBRANCH  21  22
ENDBRANCH  20  21
BRANCH  20  25
ATOM     25  C17 ZIN A   1      18.305  -0.199  11.080  0.00  0.00     0.346 C 
BRANCH  25  26
ATOM     26  C19 ZIN A   1      19.454   0.719  10.658  0.00  0.00     0.215 C 
BRANCH  26  27
ATOM     27  O20 ZIN A   1      19.815   0.438   9.304  0.00  0.00    -0.384 OA
BRANCH  27  28
ATOM     28  C21 ZIN A   1      19.370   1.423   8.369  0.00  0.00     0.206 C 
BRANCH  28  29
ATOM     29  C22 ZIN A   1      18.836   0.740   7.137  0.00  0.00    -0.035 A 
ATOM     30  C27 ZIN A   1      17.641   0.049   7.193  0.00  0.00     0.009 A 
ATOM     31  C26 ZIN A   1      17.149  -0.574   6.060  0.00  0.00     0.001 A 
ATOM     32  C25 ZIN A   1      17.857  -0.513   4.875  0.00  0.00     0.000 A 
ATOM     33  C24 ZIN A   1      19.055   0.174   4.820  0.00  0.00     0.001 A 
ATOM     34  C23 ZIN A   1      19.545   0.801   5.950  0.00  0.00     0.009 A 
ENDBRANCH  28  29
ENDBRANCH  27  28
ENDBRANCH  26  27
ENDBRANCH  25  26
BRANCH  25  35
ATOM     35  C28 ZIN A   1      17.040   0.609  11.214  0.00  0.00     0.209 C 
ATOM     36  O29 ZIN A   1      17.084   1.825  11.145  0.00  0.00    -0.646 OA
ATOM     37  O30 ZIN A   1      15.974   0.047  11.391  0.00  0.00    -0.646 OA
ENDBRANCH  25  35
ENDBRANCH  20  25
ENDBRANCH   1  20
TORSDOF 20
ENDMDL
MODEL 5
REMARK VINA RESULT:      -6.6      3.270      9.764
REMARK  20 active torsions:
REMARK  status: ('A' for Active; 'I' for Inactive)
REMARK    1  A    between atoms: C2_2  and  C4_4 
REMARK    2  A    between atoms: C4_4  and  N5_5 
REMARK    3  A    between atoms: N5_5  and  C6_6 
REMARK    4  A    between atoms: N5_5  and  C35_34 
REMARK    5  A    between atoms: C6_6  and  C7_7 
REMARK    6  A    between atoms: C7_7  and  N8_8 
REMARK    7  A    between atoms: N8_8  and  C10_10 
REMARK    8  A    between atoms: N8_8  and  C31_30 
REMARK    9  A    between atoms: C10_10  and  C11_11 
REMARK   10  A    between atoms: C11_11  and  N12_12 
REMARK   11  A    between atoms: N12_12  and  C13_13 
REMARK   12  A    between atoms: N12_12  and  C17_17 
REMARK   13  A    between atoms: C13_13  and  C14_14 
REMARK   14  A    between atoms: C17_17  and  C19_18 
REMARK   15  A    between atoms: C17_17  and  C28_27 
REMARK   16  A    between atoms: C19_18  and  O20_19 
REMARK   17  A    between atoms: O20_19  and  C21_20 
REMARK   18  A    between atoms: C21_20  and  C22_21 
REMARK   19  A    between atoms: C31_30  and  C32_31 
REMARK   20  A    between atoms: C35_34  and  C36_35 
ROOT
ATOM      1  C11 ZIN A   1      18.760  -0.723  13.943  0.00  0.00     0.302 C 
ENDROOT
BRANCH   1   2
ATOM      2  C10 ZIN A   1      18.039   0.449  14.613  0.00  0.00     0.265 C 
BRANCH   2   3
ATOM      3  N8  ZIN A   1      18.904   1.028  15.648  0.00  0.00    -0.058 N 
ATOM      4  H9  ZIN A   1      19.775   0.520  15.682  0.00  0.00     0.280 HD
BRANCH   3   5
ATOM      5  C7  ZIN A   1      19.172   2.438  15.331  0.00  0.00     0.265 C 
BRANCH   5   6
ATOM      6  C6  ZIN A   1      17.962   3.036  14.611  0.00  0.00     0.301 C 
BRANCH   6   7
ATOM      7  N5  ZIN A   1      18.052   4.502  14.640  0.00  0.00     0.110 N 
BRANCH   7   8
ATOM      8  C4  ZIN A   1      16.984   5.112  13.834  0.00  0.00     0.385 C 
BRANCH   8   9
ATOM      9  C2  ZIN A   1      15.948   5.714  14.748  0.00  0.00     0.202 C 
ATOM     10  O1  ZIN A   1      14.825   5.943  14.331  0.00  0.00    -0.647 OA
ATOM     11  O3  ZIN A   1      16.231   5.968  15.907  0.00  0.00    -0.647 OA
ENDBRANCH   8   9
ENDBRANCH   7   8
BRANCH   7  12
ATOM     12  C35 ZIN A   1      19.374   4.958  14.191  0.00  0.00     0.385 C 
BRANCH  12  13
ATOM     13  C36 ZIN A   1      19.827   6.110  15.051  0.00  0.00     0.202 C 
ATOM     14  O37 ZIN A   1      19.814   6.007  16.265  0.00  0.00    -0.647 OA
ATOM     15  O38 ZIN A   1      20.208   7.145  14.531  0.00  0.00    -0.647 OA
ENDBRANCH  12  13
ENDBRANCH   7  12
ENDBRANCH   6   7
ENDBRANCH   5   6
ENDBRANCH   3   5
BRANCH   3  16
ATOM     16  C31 ZIN A   1      18.235   0.937  16.953  0.00  0.00     0.347 C 
BRANCH  16  17
ATOM     17  C32 ZIN A   1      19.245   0.586  18.014  0.00  0.00     0.199 C 
ATOM     18  O33 ZIN A   1      19.804   1.470  18.641  0.00  0.00    -0.647 OA
ATOM     19  O34 ZIN A   1      19.504  -0.582  18.245  0.00  0.00    -0.647 OA
ENDBRANCH  16  17
ENDBRANCH   3  16
ENDBRANCH   2   3
ENDBRANCH   1   2
BRANCH   1  20
ATOM     20  N12 ZIN A   1      18.594  -0.631  12.486  0.00  0.00     0.117 N 
BRANCH  20  21
ATOM     21  C13 ZIN A   1      17.355  -1.290  12.054  0.00  0.00     0.386 C 
BRANCH  21  22
ATOM     22  C14 ZIN A   1      17.688  -2.596  11.380  0.00  0.00     0.202 C 
ATOM     23  O15 ZIN A   1      16.921  -3.540  11.466  0.00  0.00    -0.647 OA
ATOM     24  O16 ZIN A   1      18.725  -2.710  10.750  0.00  0.00    -0.647 OA
ENDBRANCH  21  22
ENDBRANCH  20  21
BRANCH  20  25
ATOM     25  C17 ZIN A   1      18.628   0.769  12.040  0.00  0.00     0.346 C 
BRANCH  25  26
ATOM     26  C19 ZIN A   1      17.933   0.889  10.683  0.00  0.00     0.215 C 
BRANCH  26  27
ATOM     27  O20 ZIN A   1      18.843   0.513   9.647  0.00  0.00    -0.384 OA
BRANCH  27  28
ATOM     28  C21 ZIN A   1      18.714   1.287   8.452  0.00  0.00     0.206 C 
BRANCH  28  29
ATOM     29  C22 ZIN A   1      18.919   0.397   7.254  0.00  0.00    -0.035 A 
ATOM     30  C27 ZIN A   1      19.006  -0.972   7.417  0.00  0.00     0.009 A 
ATOM     31  C26 ZIN A   1      19.189  -1.789   6.316  0.00  0.00     0.001 A 
ATOM     32  C25 ZIN A   1      19.293  -1.235   5.054  0.00  0.00     0.000 A 
ATOM     33  C24 ZIN A   1      19.212   0.135   4.892  0.00  0.00     0.001 A 
ATOM     34  C23 ZIN A   1      19.024   0.951   5.991  0.00  0.00     0.009 A 
ENDBRANCH  28  29
ENDBRANCH  27  28
ENDBRANCH  26  27
ENDBRANCH  25  26
BRANCH  25  35
ATOM     35  C28 ZIN A   1      20.060   1.221  11.913  0.00  0.00     0.209 C 
ATOM     36  O29 ZIN A   1      20.961   0.399  11.911  0.00  0.00    -0.646 OA
ATOM     37  O30 ZIN A   1      20.318   2.408  11.813  0.00  0.00    -0.646 OA
ENDBRANCH  25  35
ENDBRANCH  20  25
ENDBRANCH   1  20
TORSDOF 20
ENDMDL
MODEL 6
REMARK VINA RESULT:      -6.5      2.968      9.687
REMARK  20 active torsions:
REMARK  status: ('A' for Active; 'I' for Inactive)
REMARK    1  A    between atoms: C2_2  and  C4_4 
REMARK    2  A    between atoms: C4_4  and  N5_5 
REMARK    3  A    between atoms: N5_5  and  C6_6 
REMARK    4  A    between atoms: N5_5  and  C35_34 
REMARK    5  A    between atoms: C6_6  and  C7_7 
REMARK    6  A    between atoms: C7_7  and  N8_8 
REMARK    7  A    between atoms: N8_8  and  C10_10 
REMARK    8  A    between atoms: N8_8  and  C31_30 
REMARK    9  A    between atoms: C10_10  and  C11_11 
REMARK   10  A    between atoms: C11_11  and  N12_12 
REMARK   11  A    between atoms: N12_12  and  C13_13 
REMARK   12  A    between atoms: N12_12  and  C17_17 
REMARK   13  A    between atoms: C13_13  and  C14_14 
REMARK   14  A    between atoms: C17_17  and  C19_18 
REMARK   15  A    between atoms: C17_17  and  C28_27 
REMARK   16  A    between atoms: C19_18  and  O20_19 
REMARK   17  A    between atoms: O20_19  and  C21_20 
REMARK   18  A    between atoms: C21_20  and  C22_21 
REMARK   19  A    between atoms: C31_30  and  C32_31 
REMARK   20  A    between atoms: C35_34  and  C36_35 
ROOT
ATOM      1  C11 ZIN A   1      19.521   0.447  13.269  0.00  0.00     0.302 C 
ENDROOT
BRANCH   1   2
ATOM      2  C10 ZIN A   1      18.445   0.841  14.283  0.00  0.00     0.265 C 
BRANCH   2   3
ATOM      3  N8  ZIN A   1      19.073   1.512  15.428  0.00  0.00    -0.058 N 
ATOM      4  H9  ZIN A   1      20.020   1.181  15.533  0.00  0.00     0.280 HD
BRANCH   3   5
ATOM      5  C7  ZIN A   1      19.085   2.964  15.200  0.00  0.00     0.265 C 
BRANCH   5   6
ATOM      6  C6  ZIN A   1      18.063   3.317  14.118  0.00  0.00     0.301 C 
BRANCH   6   7
ATOM      7  N5  ZIN A   1      18.170   4.746  13.793  0.00  0.00     0.110 N 
BRANCH   7   8
ATOM      8  C4  ZIN A   1      18.243   4.952  12.340  0.00  0.00     0.385 C 
BRANCH   8   9
ATOM      9  C2  ZIN A   1      16.873   5.289  11.810  0.00  0.00     0.202 C 
ATOM     10  O1  ZIN A   1      16.669   5.300  10.608  0.00  0.00    -0.647 OA
ATOM     11  O3  ZIN A   1      15.966   5.544  12.585  0.00  0.00    -0.647 OA
ENDBRANCH   8   9
ENDBRANCH   7   8
BRANCH   7  12
ATOM     12  C35 ZIN A   1      19.321   5.356  14.470  0.00  0.00     0.385 C 
BRANCH  12  13
ATOM     13  C36 ZIN A   1      18.857   6.531  15.293  0.00  0.00     0.202 C 
ATOM     14  O37 ZIN A   1      19.036   6.538  16.499  0.00  0.00    -0.647 OA
ATOM     15  O38 ZIN A   1      18.304   7.473  14.753  0.00  0.00    -0.647 OA
ENDBRANCH  12  13
ENDBRANCH   7  12
ENDBRANCH   6   7
ENDBRANCH   5   6
ENDBRANCH   3   5
BRANCH   3  16
ATOM     16  C31 ZIN A   1      18.312   1.214  16.648  0.00  0.00     0.347 C 
BRANCH  16  17
ATOM     17  C32 ZIN A   1      19.203   0.507  17.637  0.00  0.00     0.199 C 
ATOM     18  O33 ZIN A   1      19.230  -0.712  17.671  0.00  0.00    -0.647 OA
ATOM     19  O34 ZIN A   1      19.897   1.154  18.402  0.00  0.00    -0.647 OA
ENDBRANCH  16  17
ENDBRANCH   3  16
ENDBRANCH   2   3
ENDBRANCH   1   2
BRANCH   1  20
ATOM     20  N12 ZIN A   1      18.893   0.176  11.969  0.00  0.00     0.117 N 
BRANCH  20  21
ATOM     21  C13 ZIN A   1      19.471   1.024  10.917  0.00  0.00     0.386 C 
BRANCH  21  22
ATOM     22  C14 ZIN A   1      18.414   1.957  10.386  0.00  0.00     0.202 C 
ATOM     23  O15 ZIN A   1      17.267   1.875  10.792  0.00  0.00    -0.647 OA
ATOM     24  O16 ZIN A   1      18.705   2.796   9.550  0.00  0.00    -0.647 OA
ENDBRANCH  21  22
ENDBRANCH  20  21
BRANCH  20  25
ATOM     25  C17 ZIN A   1      19.003  -1.246  11.617  0.00  0.00     0.346 C 
BRANCH  25  26
ATOM     26  C19 ZIN A   1      19.438  -1.378  10.156  0.00  0.00     0.215 C 
BRANCH  26  27
ATOM     27  O20 ZIN A   1      18.282  -1.480   9.323  0.00  0.00    -0.384 OA
BRANCH  27  28
ATOM     28  C21 ZIN A   1      18.462  -2.321   8.181  0.00  0.00     0.206 C 
BRANCH  28  29
ATOM     29  C22 ZIN A   1      18.587  -1.468   6.945  0.00  0.00    -0.035 A 
ATOM     30  C27 ZIN A   1      19.136  -1.998   5.793  0.00  0.00     0.009 A 
ATOM     31  C26 ZIN A   1      19.246  -1.216   4.657  0.00  0.00     0.001 A 
ATOM     32  C25 ZIN A   1      18.816   0.097   4.678  0.00  0.00     0.000 A 
ATOM     33  C24 ZIN A   1      18.271   0.628   5.832  0.00  0.00     0.001 A 
ATOM     34  C23 ZIN A   1      18.157  -0.154   6.965  0.00  0.00     0.009 A 
ENDBRANCH  28  29
ENDBRANCH  27  28
ENDBRANCH  26  27
ENDBRANCH  25  26
BRANCH  25  35
ATOM     35  C28 ZIN A   1      17.667  -1.915  11.806  0.00  0.00     0.209 C 
ATOM     36  O29 ZIN A   1      17.590  -3.132  11.815  0.00  0.00    -0.646 OA
ATOM     37  O30 ZIN A   1      16.662  -1.240  11.949  0.00  0.00    -0.646 OA
ENDBRANCH  25  35
ENDBRANCH  20  25
ENDBRANCH   1  20
TORSDOF 20
ENDMDL
MODEL 7
REMARK VINA RESULT:      -6.5      2.536      5.074
REMARK  20 active torsions:
REMARK  status: ('A' for Active; 'I' for Inactive)
REMARK    1  A    between atoms: C2_2  and  C4_4 
REMARK    2  A    between atoms: C4_4  and  N5_5 
REMARK    3  A    between atoms: N5_5  and  C6_6 
REMARK    4  A    between atoms: N5_5  and  C35_34 
REMARK    5  A    between atoms: C6_6  and  C7_7 
REMARK    6  A    between atoms: C7_7  and  N8_8 
REMARK    7  A    between atoms: N8_8  and  C10_10 
REMARK    8  A    between atoms: N8_8  and  C31_30 
REMARK    9  A    between atoms: C10_10  and  C11_11 
REMARK   10  A    between atoms: C11_11  and  N12_12 
REMARK   11  A    between atoms: N12_12  and  C13_13 
REMARK   12  A    between atoms: N12_12  and  C17_17 
REMARK   13  A    between atoms: C13_13  and  C14_14 
REMARK   14  A    between atoms: C17_17  and  C19_18 
REMARK   15  A    between atoms: C17_17  and  C28_27 
REMARK   16  A    between atoms: C19_18  and  O20_19 
REMARK   17  A    between atoms: O20_19  and  C21_20 
REMARK   18  A    between atoms: C21_20  and  C22_21 
REMARK   19  A    between atoms: C31_30  and  C32_31 
REMARK   20  A    between atoms: C35_34  and  C36_35 
ROOT
ATOM      1  C11 ZIN A   1      18.214  -0.456   9.083  0.00  0.00     0.302 C 
ENDROOT
BRANCH   1   2
ATOM      2  C10 ZIN A   1      19.464  -1.125   8.507  0.00  0.00     0.265 C 
BRANCH   2   3
ATOM      3  N8  ZIN A   1      19.177  -1.617   7.154  0.00  0.00    -0.058 N 
ATOM      4  H9  ZIN A   1      20.040  -1.868   6.697  0.00  0.00     0.280 HD
BRANCH   3   5
ATOM      5  C7  ZIN A   1      18.305  -2.797   7.236  0.00  0.00     0.265 C 
BRANCH   5   6
ATOM      6  C6  ZIN A   1      18.986  -3.982   6.549  0.00  0.00     0.301 C 
BRANCH   6   7
ATOM      7  N5  ZIN A   1      18.040  -4.620   5.624  0.00  0.00     0.110 N 
BRANCH   7   8
ATOM      8  C4  ZIN A   1      18.427  -6.012   5.352  0.00  0.00     0.385 C 
BRANCH   8   9
ATOM      9  C2  ZIN A   1      17.545  -6.942   6.144  0.00  0.00     0.202 C 
ATOM     10  O1  ZIN A   1      16.446  -6.569   6.521  0.00  0.00    -0.647 OA
ATOM     11  O3  ZIN A   1      17.926  -8.071   6.403  0.00  0.00    -0.647 OA
ENDBRANCH   8   9
ENDBRANCH   7   8
BRANCH   7  12
ATOM     12  C35 ZIN A   1      17.923  -3.854   4.377  0.00  0.00     0.385 C 
BRANCH  12  13
ATOM     13  C36 ZIN A   1      16.752  -4.367   3.579  0.00  0.00     0.202 C 
ATOM     14  O37 ZIN A   1      16.939  -4.914   2.506  0.00  0.00    -0.647 OA
ATOM     15  O38 ZIN A   1      15.618  -4.236   4.006  0.00  0.00    -0.647 OA
ENDBRANCH  12  13
ENDBRANCH   7  12
ENDBRANCH   6   7
ENDBRANCH   5   6
ENDBRANCH   3   5
BRANCH   3  16
ATOM     16  C31 ZIN A   1      18.504  -0.563   6.382  0.00  0.00     0.347 C 
BRANCH  16  17
ATOM     17  C32 ZIN A   1      19.019  -0.568   4.966  0.00  0.00     0.199 C 
ATOM     18  O33 ZIN A   1      18.395   0.002   4.088  0.00  0.00    -0.647 OA
ATOM     19  O34 ZIN A   1      20.061  -1.142   4.700  0.00  0.00    -0.647 OA
ENDBRANCH  16  17
ENDBRANCH   3  16
ENDBRANCH   2   3
ENDBRANCH   1   2
BRANCH   1  20
ATOM     20  N12 ZIN A   1      18.599   0.434  10.186  0.00  0.00     0.117 N 
BRANCH  20  21
ATOM     21  C13 ZIN A   1      17.598   1.491  10.385  0.00  0.00     0.386 C 
BRANCH  21  22
ATOM     22  C14 ZIN A   1      18.169   2.814   9.945  0.00  0.00     0.202 C 
ATOM     23  O15 ZIN A   1      17.734   3.852  10.413  0.00  0.00    -0.647 OA
ATOM     24  O16 ZIN A   1      19.067   2.846   9.121  0.00  0.00    -0.647 OA
ENDBRANCH  21  22
ENDBRANCH  20  21
BRANCH  20  25
ATOM     25  C17 ZIN A   1      18.814  -0.327  11.425  0.00  0.00     0.346 C 
BRANCH  25  26
ATOM     26  C19 ZIN A   1      17.470  -0.568  12.115  0.00  0.00     0.215 C 
BRANCH  26  27
ATOM     27  O20 ZIN A   1      17.129  -1.953  12.020  0.00  0.00    -0.384 OA
BRANCH  27  28
ATOM     28  C21 ZIN A   1      18.218  -2.839  12.290  0.00  0.00     0.206 C 
BRANCH  28  29
ATOM     29  C22 ZIN A   1      18.168  -4.002  11.334  0.00  0.00    -0.035 A 
ATOM     30  C27 ZIN A   1      19.314  -4.406  10.676  0.00  0.00     0.009 A 
ATOM     31  C26 ZIN A   1      19.268  -5.477   9.803  0.00  0.00     0.001 A 
ATOM     32  C25 ZIN A   1      18.074  -6.137   9.580  0.00  0.00     0.000 A 
ATOM     33  C24 ZIN A   1      16.926  -5.729  10.233  0.00  0.00     0.001 A 
ATOM     34  C23 ZIN A   1      16.973  -4.662  11.110  0.00  0.00     0.009 A 
ENDBRANCH  28  29
ENDBRANCH  27  28
ENDBRANCH  26  27
ENDBRANCH  25  26
BRANCH  25  35
ATOM     35  C28 ZIN A   1      19.717   0.454  12.343  0.00  0.00     0.209 C 
ATOM     36  O29 ZIN A   1      19.287   0.884  13.400  0.00  0.00    -0.646 OA
ATOM     37  O30 ZIN A   1      20.878   0.655  12.031  0.00  0.00    -0.646 OA
ENDBRANCH  25  35
ENDBRANCH  20  25
ENDBRANCH   1  20
TORSDOF 20
ENDMDL
MODEL 8
REMARK VINA RESULT:      -6.4      1.698      5.632
REMARK  20 active torsions:
REMARK  status: ('A' for Active; 'I' for Inactive)
REMARK    1  A    between atoms: C2_2  and  C4_4 
REMARK    2  A    between atoms: C4_4  and  N5_5 
REMARK    3  A    between atoms: N5_5  and  C6_6 
REMARK    4  A    between atoms: N5_5  and  C35_34 
REMARK    5  A    between atoms: C6_6  and  C7_7 
REMARK    6  A    between atoms: C7_7  and  N8_8 
REMARK    7  A    between atoms: N8_8  and  C10_10 
REMARK    8  A    between atoms: N8_8  and  C31_30 
REMARK    9  A    between atoms: C10_10  and  C11_11 
REMARK   10  A    between atoms: C11_11  and  N12_12 
REMARK   11  A    between atoms: N12_12  and  C13_13 
REMARK   12  A    between atoms: N12_12  and  C17_17 
REMARK   13  A    between atoms: C13_13  and  C14_14 
REMARK   14  A    between atoms: C17_17  and  C19_18 
REMARK   15  A    between atoms: C17_17  and  C28_27 
REMARK   16  A    between atoms: C19_18  and  O20_19 
REMARK   17  A    between atoms: O20_19  and  C21_20 
REMARK   18  A    between atoms: C21_20  and  C22_21 
REMARK   19  A    between atoms: C31_30  and  C32_31 
REMARK   20  A    between atoms: C35_34  and  C36_35 
ROOT
ATOM      1  C11 ZIN A   1      18.432  -3.468   8.478  0.00  0.00     0.302 C 
ENDROOT
BRANCH   1   2
ATOM      2  C10 ZIN A   1      17.927  -2.104   8.953  0.00  0.00     0.265 C 
BRANCH   2   3
ATOM      3  N8  ZIN A   1      17.793  -1.204   7.801  0.00  0.00    -0.058 N 
ATOM      4  H9  ZIN A   1      17.218  -1.641   7.097  0.00  0.00     0.280 HD
BRANCH   3   5
ATOM      5  C7  ZIN A   1      17.168   0.054   8.231  0.00  0.00     0.265 C 
BRANCH   5   6
ATOM      6  C6  ZIN A   1      18.256   1.089   8.525  0.00  0.00     0.301 C 
BRANCH   6   7
ATOM      7  N5  ZIN A   1      17.952   1.772   9.790  0.00  0.00     0.110 N 
BRANCH   7   8
ATOM      8  C4  ZIN A   1      18.715   3.022   9.910  0.00  0.00     0.385 C 
BRANCH   8   9
ATOM      9  C2  ZIN A   1      17.829   4.097  10.485  0.00  0.00     0.202 C 
ATOM     10  O1  ZIN A   1      17.615   4.135  11.685  0.00  0.00    -0.647 OA
ATOM     11  O3  ZIN A   1      17.332   4.934   9.751  0.00  0.00    -0.647 OA
ENDBRANCH   8   9
ENDBRANCH   7   8
BRANCH   7  12
ATOM     12  C35 ZIN A   1      18.203   0.891  10.938  0.00  0.00     0.385 C 
BRANCH  12  13
ATOM     13  C36 ZIN A   1      19.689   0.740  11.141  0.00  0.00     0.202 C 
ATOM     14  O37 ZIN A   1      20.285   1.508  11.876  0.00  0.00    -0.647 OA
ATOM     15  O38 ZIN A   1      20.294  -0.152  10.571  0.00  0.00    -0.647 OA
ENDBRANCH  12  13
ENDBRANCH   7  12
ENDBRANCH   6   7
ENDBRANCH   5   6
ENDBRANCH   3   5
BRANCH   3  16
ATOM     16  C31 ZIN A   1      19.123  -0.924   7.241  0.00  0.00     0.347 C 
BRANCH  16  17
ATOM     17  C32 ZIN A   1      19.104  -1.168   5.754  0.00  0.00     0.199 C 
ATOM     18  O33 ZIN A   1      18.507  -0.400   5.018  0.00  0.00    -0.647 OA
ATOM     19  O34 ZIN A   1      19.686  -2.132   5.288  0.00  0.00    -0.647 OA
ENDBRANCH  16  17
ENDBRANCH   3  16
ENDBRANCH   2   3
ENDBRANCH   1   2
BRANCH   1  20
ATOM     20  N12 ZIN A   1      18.492  -4.392   9.619  0.00  0.00     0.117 N 
BRANCH  20  21
ATOM     21  C13 ZIN A   1      19.865  -4.863   9.844  0.00  0.00     0.386 C 
BRANCH  21  22
ATOM     22  C14 ZIN A   1      20.200  -5.937   8.842  0.00  0.00     0.202 C 
ATOM     23  O15 ZIN A   1      19.412  -6.845   8.636  0.00  0.00    -0.647 OA
ATOM     24  O16 ZIN A   1      21.258  -5.899   8.238  0.00  0.00    -0.647 OA
ENDBRANCH  21  22
ENDBRANCH  20  21
BRANCH  20  25
ATOM     25  C17 ZIN A   1      17.944  -3.768  10.831  0.00  0.00     0.346 C 
BRANCH  25  26
ATOM     26  C19 ZIN A   1      19.093  -3.330  11.743  0.00  0.00     0.215 C 
BRANCH  26  27
ATOM     27  O20 ZIN A   1      18.601  -2.406  12.716  0.00  0.00    -0.384 OA
BRANCH  27  28
ATOM     28  C21 ZIN A   1      19.608  -1.899  13.594  0.00  0.00     0.206 C 
BRANCH  28  29
ATOM     29  C22 ZIN A   1      18.956  -1.127  14.712  0.00  0.00    -0.035 A 
ATOM     30  C27 ZIN A   1      18.272  -1.799  15.708  0.00  0.00     0.009 A 
ATOM     31  C26 ZIN A   1      17.678  -1.091  16.737  0.00  0.00     0.001 A 
ATOM     32  C25 ZIN A   1      17.760   0.289  16.764  0.00  0.00     0.000 A 
ATOM     33  C24 ZIN A   1      18.439   0.960  15.764  0.00  0.00     0.001 A 
ATOM     34  C23 ZIN A   1      19.037   0.253  14.739  0.00  0.00     0.009 A 
ENDBRANCH  28  29
ENDBRANCH  27  28
ENDBRANCH  26  27
ENDBRANCH  25  26
BRANCH  25  35
ATOM     35  C28 ZIN A   1      17.075  -4.760  11.558  0.00  0.00     0.209 C 
ATOM     36  O29 ZIN A   1      15.875  -4.793  11.341  0.00  0.00    -0.646 OA
ATOM     37  O30 ZIN A   1      17.570  -5.529  12.363  0.00  0.00    -0.646 OA
ENDBRANCH  25  35
ENDBRANCH  20  25
ENDBRANCH   1  20
TORSDOF 20
ENDMDL
MODEL 9
REMARK VINA RESULT:      -6.3      2.851      9.299
REMARK  20 active torsions:
REMARK  status: ('A' for Active; 'I' for Inactive)
REMARK    1  A    between atoms: C2_2  and  C4_4 
REMARK    2  A    between atoms: C4_4  and  N5_5 
REMARK    3  A    between atoms: N5_5  and  C6_6 
REMARK    4  A    between atoms: N5_5  and  C35_34 
REMARK    5  A    between atoms: C6_6  and  C7_7 
REMARK    6  A    between atoms: C7_7  and  N8_8 
REMARK    7  A    between atoms: N8_8  and  C10_10 
REMARK    8  A    between atoms: N8_8  and  C31_30 
REMARK    9  A    between atoms: C10_10  and  C11_11 
REMARK   10  A    between atoms: C11_11  and  N12_12 
REMARK   11  A    between atoms: N12_12  and  C13_13 
REMARK   12  A    between atoms: N12_12  and  C17_17 
REMARK   13  A    between atoms: C13_13  and  C14_14 
REMARK   14  A    between atoms: C17_17  and  C19_18 
REMARK   15  A    between atoms: C17_17  and  C28_27 
REMARK   16  A    between atoms: C19_18  and  O20_19 
REMARK   17  A    between atoms: O20_19  and  C21_20 
REMARK   18  A    between atoms: C21_20  and  C22_21 
REMARK   19  A    between atoms: C31_30  and  C32_31 
REMARK   20  A    between atoms: C35_34  and  C36_35 
ROOT
ATOM      1  C11 ZIN A   1      19.203  -1.366  14.119  0.00  0.00     0.302 C 
ENDROOT
BRANCH   1   2
ATOM      2  C10 ZIN A   1      18.337  -0.172  14.530  0.00  0.00     0.265 C 
BRANCH   2   3
ATOM      3  N8  ZIN A   1      18.906   0.455  15.729  0.00  0.00    -0.058 N 
ATOM      4  H9  ZIN A   1      19.890   0.241  15.786  0.00  0.00     0.280 HD
BRANCH   3   5
ATOM      5  C7  ZIN A   1      18.726   1.912  15.653  0.00  0.00     0.265 C 
BRANCH   5   6
ATOM      6  C6  ZIN A   1      18.039   2.272  14.334  0.00  0.00     0.301 C 
BRANCH   6   7
ATOM      7  N5  ZIN A   1      17.836   3.726  14.270  0.00  0.00     0.110 N 
BRANCH   7   8
ATOM      8  C4  ZIN A   1      18.298   4.265  12.983  0.00  0.00     0.385 C 
BRANCH   8   9
ATOM      9  C2  ZIN A   1      17.130   4.376  12.037  0.00  0.00     0.202 C 
ATOM     10  O1  ZIN A   1      16.953   3.523  11.183  0.00  0.00    -0.647 OA
ATOM     11  O3  ZIN A   1      16.356   5.314  12.131  0.00  0.00    -0.647 OA
ENDBRANCH   8   9
ENDBRANCH   7   8
BRANCH   7  12
ATOM     12  C35 ZIN A   1      18.500   4.401  15.392  0.00  0.00     0.385 C 
BRANCH  12  13
ATOM     13  C36 ZIN A   1      17.499   5.252  16.131  0.00  0.00     0.202 C 
ATOM     14  O37 ZIN A   1      17.658   5.489  17.316  0.00  0.00    -0.647 OA
ATOM     15  O38 ZIN A   1      16.531   5.703  15.543  0.00  0.00    -0.647 OA
ENDBRANCH  12  13
ENDBRANCH   7  12
ENDBRANCH   6   7
ENDBRANCH   5   6
ENDBRANCH   3   5
BRANCH   3  16
ATOM     16  C31 ZIN A   1      18.223  -0.061  16.923  0.00  0.00     0.347 C 
BRANCH  16  17
ATOM     17  C32 ZIN A   1      18.722   0.668  18.143  0.00  0.00     0.199 C 
ATOM     18  O33 ZIN A   1      17.930   1.205  18.899  0.00  0.00    -0.647 OA
ATOM     19  O34 ZIN A   1      19.917   0.721  18.375  0.00  0.00    -0.647 OA
ENDBRANCH  16  17
ENDBRANCH   3  16
ENDBRANCH   2   3
ENDBRANCH   1   2
BRANCH   1  20
ATOM     20  N12 ZIN A   1      19.153  -1.527  12.660  0.00  0.00     0.117 N 
BRANCH  20  21
ATOM     21  C13 ZIN A   1      18.283  -2.650  12.283  0.00  0.00     0.386 C 
BRANCH  21  22
ATOM     22  C14 ZIN A   1      19.121  -3.767  11.718  0.00  0.00     0.202 C 
ATOM     23  O15 ZIN A   1      20.266  -3.550  11.359  0.00  0.00    -0.647 OA
ATOM     24  O16 ZIN A   1      18.655  -4.889  11.620  0.00  0.00    -0.647 OA
ENDBRANCH  21  22
ENDBRANCH  20  21
BRANCH  20  25
ATOM     25  C17 ZIN A   1      18.719  -0.284  12.008  0.00  0.00     0.346 C 
BRANCH  25  26
ATOM     26  C19 ZIN A   1      17.787  -0.618  10.841  0.00  0.00     0.215 C 
BRANCH  26  27
ATOM     27  O20 ZIN A   1      18.463  -0.374   9.607  0.00  0.00    -0.384 OA
BRANCH  27  28
ATOM     28  C21 ZIN A   1      18.446  -1.483   8.706  0.00  0.00     0.206 C 
BRANCH  28  29
ATOM     29  C22 ZIN A   1      18.711  -0.996   7.305  0.00  0.00    -0.035 A 
ATOM     30  C27 ZIN A   1      18.588   0.347   7.006  0.00  0.00     0.009 A 
ATOM     31  C26 ZIN A   1      18.836   0.795   5.721  0.00  0.00     0.001 A 
ATOM     32  C25 ZIN A   1      19.198  -0.103   4.734  0.00  0.00     0.000 A 
ATOM     33  C24 ZIN A   1      19.316  -1.447   5.032  0.00  0.00     0.001 A 
ATOM     34  C23 ZIN A   1      19.073  -1.894   6.317  0.00  0.00     0.009 A 
ENDBRANCH  28  29
ENDBRANCH  27  28
ENDBRANCH  26  27
ENDBRANCH  25  26
BRANCH  25  35
ATOM     35  C28 ZIN A   1      19.923   0.459  11.491  0.00  0.00     0.209 C 
ATOM     36  O29 ZIN A   1      19.846   1.652  11.249  0.00  0.00    -0.646 OA
ATOM     37  O30 ZIN A   1      20.974  -0.131  11.315  0.00  0.00    -0.646 OA
ENDBRANCH  25  35
ENDBRANCH  20  25
ENDBRANCH   1  20
TORSDOF 20
ENDMDL
