MODEL 1
REMARK VINA RESULT:      -7.6      0.000      0.000
REMARK  7 active torsions:
REMARK  status: ('A' for Active; 'I' for Inactive)
REMARK    1  A    between atoms: C5_5  and  S6_6 
REMARK    2  A    between atoms: S6_6  and  C7_7 
REMARK    3  A    between atoms: C7_7  and  C8_8 
REMARK    4  A    between atoms: C9_9  and  C10_10 
REMARK    5  A    between atoms: C16_16  and  N18_17 
REMARK       I    between atoms: N18_17  and  C19_18 
REMARK    6  A    between atoms: C19_18  and  C21_20 
REMARK    7  A    between atoms: C21_20  and  N22_21 
ROOT
ATOM      1  C8  <0> d   1      18.331   1.326  10.469  0.00  0.00    -0.027 C 
ATOM      2  C9  <0> d   1      17.851   0.209  11.001  0.00  0.00     0.119 C 
ATOM      3  N13 <0> d   1      18.340  -1.036  10.584  0.00  0.00    -0.293 N 
ATOM      4  C14 <0> d   1      18.021  -2.321  10.496  0.00  0.00     0.251 C 
ATOM      5  O15 <0> d   1      17.190  -2.994  11.069  0.00  0.00    -0.271 OA
ATOM      6  C16 <0> d   1      19.045  -2.659   9.437  0.00  0.00     0.210 C 
ATOM      7  C27 <0> d   1      19.602  -1.306   9.839  0.00  0.00     0.187 C 
ATOM      8  S29 <0> d   1      19.700  -0.069   8.502  0.00  0.00    -0.136 SA
ATOM      9  C30 <0> d   1      19.416   1.468   9.451  0.00  0.00     0.113 C 
ENDROOT
BRANCH   6  10
ATOM     10  N18 <0> d   1      18.511  -2.714   8.074  0.00  0.00    -0.344 N 
ATOM     11  C19 <0> d   1      18.871  -3.717   7.250  0.00  0.00     0.238 C 
ATOM     12  O20 <0> d   1      19.637  -4.574   7.636  0.00  0.00    -0.272 OA
ATOM     13  H37 <0> d   1      17.898  -2.028   7.765  0.00  0.00     0.163 HD
BRANCH  11  14
ATOM     14  C21 <0> d   1      18.323  -3.773   5.847  0.00  0.00     0.256 C 
BRANCH  14  15
ATOM     15  N22 <0> d   1      18.595  -2.505   5.165  0.00  0.00    -0.233 N 
ATOM     16  N26 <0> d   1      19.743  -1.932   5.042  0.00  0.00    -0.044 NA
ATOM     17  N25 <0> d   1      19.593  -0.837   4.381  0.00  0.00    -0.024 NA
ATOM     18  N24 <0> d   1      18.350  -0.688   4.079  0.00  0.00    -0.122 NA
ATOM     19  C23 <0> d   1      17.691  -1.716   4.555  0.00  0.00     0.256 A 
ENDBRANCH  14  15
ENDBRANCH  11  14
ENDBRANCH   6  10
BRANCH   2  20
ATOM     20  C10 <0> d   1      16.801   0.278  12.030  0.00  0.00     0.227 C 
ATOM     21  O11 <0> d   1      17.094   0.548  13.187  0.00  0.00    -0.643 OA
ATOM     22  O12 <0> d   1      15.634   0.065  11.729  0.00  0.00    -0.643 OA
ENDBRANCH   2  20
BRANCH   1  23
ATOM     23  C7  <0> d   1      17.699   2.609  10.945  0.00  0.00     0.119 C 
BRANCH  23  24
ATOM     24  S6  <0> d   1      18.916   3.569  11.880  0.00  0.00    -0.097 SA
BRANCH  24  25
ATOM     25  C5  <0> d   1      17.848   4.404  13.005  0.00  0.00     0.159 A 
ATOM     26  N4  <0> d   1      17.928   4.376  14.305  0.00  0.00    -0.135 NA
ATOM     27  N3  <0> d   1      17.075   5.037  14.958  0.00  0.00    -0.146 NA
ATOM     28  C2  <0> d   1      16.181   5.696  14.294  0.00  0.00     0.096 A 
ATOM     29  C1  <0> d   1      15.082   6.540  14.885  0.00  0.00     0.081 C 
ATOM     30  S31 <0> d   1      16.473   5.423  12.575  0.00  0.00    -0.045 SA
ENDBRANCH  24  25
ENDBRANCH  23  24
ENDBRANCH   1  23
TORSDOF 7
ENDMDL
MODEL 2
REMARK VINA RESULT:      -7.6      3.785      4.646
REMARK  7 active torsions:
REMARK  status: ('A' for Active; 'I' for Inactive)
REMARK    1  A    between atoms: C5_5  and  S6_6 
REMARK    2  A    between atoms: S6_6  and  C7_7 
REMARK    3  A    between atoms: C7_7  and  C8_8 
REMARK    4  A    between atoms: C9_9  and  C10_10 
REMARK    5  A    between atoms: C16_16  and  N18_17 
REMARK       I    between atoms: N18_17  and  C19_18 
REMARK    6  A    between atoms: C19_18  and  C21_20 
REMARK    7  A    between atoms: C21_20  and  N22_21 
ROOT
ATOM      1  C8  <0> d   1      19.117  -1.341  12.793  0.00  0.00    -0.027 C 
ATOM      2  C9  <0> d   1      19.397  -0.426  11.874  0.00  0.00     0.119 C 
ATOM      3  N13 <0> d   1      18.929  -0.581  10.562  0.00  0.00    -0.293 N 
ATOM      4  C14 <0> d   1      19.176  -0.234   9.305  0.00  0.00     0.251 C 
ATOM      5  O15 <0> d   1      19.819   0.675   8.823  0.00  0.00    -0.271 OA
ATOM      6  C16 <0> d   1      18.386  -1.360   8.680  0.00  0.00     0.210 C 
ATOM      7  C27 <0> d   1      17.844  -1.486  10.092  0.00  0.00     0.187 C 
ATOM      8  S29 <0> d   1      18.117  -3.099  10.896  0.00  0.00    -0.136 SA
ATOM      9  C30 <0> d   1      18.288  -2.576  12.640  0.00  0.00     0.113 C 
ENDROOT
BRANCH   6  10
ATOM     10  N18 <0> d   1      19.197  -2.497   8.238  0.00  0.00    -0.344 N 
ATOM     11  C19 <0> d   1      19.259  -2.812   6.930  0.00  0.00     0.238 C 
ATOM     12  O20 <0> d   1      18.645  -2.153   6.117  0.00  0.00    -0.272 OA
ATOM     13  H37 <0> d   1      19.687  -3.024   8.888  0.00  0.00     0.163 HD
BRANCH  11  14
ATOM     14  C21 <0> d   1      20.093  -3.982   6.475  0.00  0.00     0.256 C 
BRANCH  14  15
ATOM     15  N22 <0> d   1      19.697  -5.181   7.218  0.00  0.00    -0.233 N 
ATOM     16  N26 <0> d   1      20.250  -5.636   8.291  0.00  0.00    -0.044 NA
ATOM     17  N25 <0> d   1      19.631  -6.704   8.657  0.00  0.00    -0.024 NA
ATOM     18  N24 <0> d   1      18.681  -6.954   7.824  0.00  0.00    -0.122 NA
ATOM     19  C23 <0> d   1      18.692  -6.020   6.905  0.00  0.00     0.256 A 
ENDBRANCH  14  15
ENDBRANCH  11  14
ENDBRANCH   6  10
BRANCH   2  20
ATOM     20  C10 <0> d   1      20.201   0.753  12.233  0.00  0.00     0.227 C 
ATOM     21  O11 <0> d   1      21.421   0.708  12.157  0.00  0.00    -0.643 OA
ATOM     22  O12 <0> d   1      19.649   1.780  12.606  0.00  0.00    -0.643 OA
ENDBRANCH   2  20
BRANCH   1  23
ATOM     23  C7  <0> d   1      19.712  -1.110  14.159  0.00  0.00     0.119 C 
BRANCH  23  24
ATOM     24  S6  <0> d   1      18.511  -1.581  15.427  0.00  0.00    -0.097 SA
BRANCH  24  25
ATOM     25  C5  <0> d   1      18.776  -0.288  16.594  0.00  0.00     0.159 A 
ATOM     26  N4  <0> d   1      19.271  -0.422  17.792  0.00  0.00    -0.135 NA
ATOM     27  N3  <0> d   1      19.391   0.617  18.496  0.00  0.00    -0.146 NA
ATOM     28  C2  <0> d   1      19.014   1.743  17.982  0.00  0.00     0.096 A 
ATOM     29  C1  <0> d   1      19.074   3.089  18.658  0.00  0.00     0.081 C 
ATOM     30  S31 <0> d   1      18.410   1.422  16.356  0.00  0.00    -0.045 SA
ENDBRANCH  24  25
ENDBRANCH  23  24
ENDBRANCH   1  23
TORSDOF 7
ENDMDL
MODEL 3
REMARK VINA RESULT:      -7.6      2.536      9.157
REMARK  7 active torsions:
REMARK  status: ('A' for Active; 'I' for Inactive)
REMARK    1  A    between atoms: C5_5  and  S6_6 
REMARK    2  A    between atoms: S6_6  and  C7_7 
REMARK    3  A    between atoms: C7_7  and  C8_8 
REMARK    4  A    between atoms: C9_9  and  C10_10 
REMARK    5  A    between atoms: C16_16  and  N18_17 
REMARK       I    between atoms: N18_17  and  C19_18 
REMARK    6  A    between atoms: C19_18  and  C21_20 
REMARK    7  A    between atoms: C21_20  and  N22_21 
ROOT
ATOM      1  C8  <0> d   1      19.164   1.744   9.966  0.00  0.00    -0.027 C 
ATOM      2  C9  <0> d   1      19.255   0.811  10.905  0.00  0.00     0.119 C 
ATOM      3  N13 <0> d   1      18.708   1.036  12.175  0.00  0.00    -0.293 N 
ATOM      4  C14 <0> d   1      18.810   0.674  13.448  0.00  0.00     0.251 C 
ATOM      5  O15 <0> d   1      19.294  -0.303  13.980  0.00  0.00    -0.271 OA
ATOM      6  C16 <0> d   1      18.119   1.895  14.007  0.00  0.00     0.210 C 
ATOM      7  C27 <0> d   1      17.710   2.073  12.556  0.00  0.00     0.187 C 
ATOM      8  S29 <0> d   1      18.244   3.632  11.776  0.00  0.00    -0.136 SA
ATOM      9  C30 <0> d   1      18.486   3.073  10.052  0.00  0.00     0.113 C 
ENDROOT
BRANCH   6  10
ATOM     10  N18 <0> d   1      19.027   2.928  14.512  0.00  0.00    -0.344 N 
ATOM     11  C19 <0> d   1      19.167   3.112  15.839  0.00  0.00     0.238 C 
ATOM     12  O20 <0> d   1      18.541   2.423  16.616  0.00  0.00    -0.272 OA
ATOM     13  H37 <0> d   1      19.527   3.479  13.890  0.00  0.00     0.163 HD
BRANCH  11  14
ATOM     14  C21 <0> d   1      20.101   4.175  16.358  0.00  0.00     0.256 C 
BRANCH  14  15
ATOM     15  N22 <0> d   1      19.600   5.496  15.971  0.00  0.00    -0.233 N 
ATOM     16  N26 <0> d   1      19.852   6.119  14.870  0.00  0.00    -0.044 NA
ATOM     17  N25 <0> d   1      19.238   7.251  14.882  0.00  0.00    -0.024 NA
ATOM     18  N24 <0> d   1      18.592   7.374  15.990  0.00  0.00    -0.122 NA
ATOM     19  C23 <0> d   1      18.796   6.292  16.700  0.00  0.00     0.256 A 
ENDBRANCH  14  15
ENDBRANCH  11  14
ENDBRANCH   6  10
BRANCH   2  20
ATOM     20  C10 <0> d   1      19.932  -0.462  10.611  0.00  0.00     0.227 C 
ATOM     21  O11 <0> d   1      21.128  -0.586  10.836  0.00  0.00    -0.643 OA
ATOM     22  O12 <0> d   1      19.299  -1.399  10.143  0.00  0.00    -0.643 OA
ENDBRANCH   2  20
BRANCH   1  23
ATOM     23  C7  <0> d   1      19.832   1.427   8.652  0.00  0.00     0.119 C 
BRANCH  23  24
ATOM     24  S6  <0> d   1      18.695   1.795   7.294  0.00  0.00    -0.097 SA
BRANCH  24  25
ATOM     25  C5  <0> d   1      18.903   0.343   6.318  0.00  0.00     0.159 A 
ATOM     26  N4  <0> d   1      19.582   0.252   5.210  0.00  0.00    -0.135 NA
ATOM     27  N3  <0> d   1      19.625  -0.873   4.640  0.00  0.00    -0.146 NA
ATOM     28  C2  <0> d   1      18.994  -1.856   5.193  0.00  0.00     0.096 A 
ATOM     29  C1  <0> d   1      18.922  -3.269   4.673  0.00  0.00     0.081 C 
ATOM     30  S31 <0> d   1      18.224  -1.249   6.660  0.00  0.00    -0.045 SA
ENDBRANCH  24  25
ENDBRANCH  23  24
ENDBRANCH   1  23
TORSDOF 7
ENDMDL
MODEL 4
REMARK VINA RESULT:      -7.6      2.944      4.003
REMARK  7 active torsions:
REMARK  status: ('A' for Active; 'I' for Inactive)
REMARK    1  A    between atoms: C5_5  and  S6_6 
REMARK    2  A    between atoms: S6_6  and  C7_7 
REMARK    3  A    between atoms: C7_7  and  C8_8 
REMARK    4  A    between atoms: C9_9  and  C10_10 
REMARK    5  A    between atoms: C16_16  and  N18_17 
REMARK       I    between atoms: N18_17  and  C19_18 
REMARK    6  A    between atoms: C19_18  and  C21_20 
REMARK    7  A    between atoms: C21_20  and  N22_21 
ROOT
ATOM      1  C8  <0> d   1      17.674  -0.354  10.527  0.00  0.00    -0.027 C 
ATOM      2  C9  <0> d   1      18.150  -1.585  10.397  0.00  0.00     0.119 C 
ATOM      3  N13 <0> d   1      18.785  -1.973   9.210  0.00  0.00    -0.293 N 
ATOM      4  C14 <0> d   1      19.081  -3.032   8.468  0.00  0.00     0.251 C 
ATOM      5  O15 <0> d   1      19.146  -4.216   8.727  0.00  0.00    -0.271 OA
ATOM      6  C16 <0> d   1      19.307  -2.261   7.188  0.00  0.00     0.210 C 
ATOM      7  C27 <0> d   1      19.327  -1.084   8.145  0.00  0.00     0.187 C 
ATOM      8  S29 <0> d   1      18.068   0.199   7.838  0.00  0.00    -0.136 SA
ATOM      9  C30 <0> d   1      17.755   0.772   9.546  0.00  0.00     0.113 C 
ENDROOT
BRANCH   6  10
ATOM     10  N18 <0> d   1      18.169  -2.273   6.265  0.00  0.00    -0.344 N 
ATOM     11  C19 <0> d   1      18.373  -2.126   4.942  0.00  0.00     0.238 C 
ATOM     12  O20 <0> d   1      19.499  -1.986   4.514  0.00  0.00    -0.272 OA
ATOM     13  H37 <0> d   1      17.268  -2.384   6.608  0.00  0.00     0.163 HD
BRANCH  11  14
ATOM     14  C21 <0> d   1      17.203  -2.138   3.992  0.00  0.00     0.256 C 
BRANCH  14  15
ATOM     15  N22 <0> d   1      16.800  -3.521   3.731  0.00  0.00    -0.233 N 
ATOM     16  N26 <0> d   1      15.597  -3.945   3.535  0.00  0.00    -0.044 NA
ATOM     17  N25 <0> d   1      15.633  -5.217   3.335  0.00  0.00    -0.024 NA
ATOM     18  N24 <0> d   1      16.851  -5.628   3.409  0.00  0.00    -0.122 NA
ATOM     19  C23 <0> d   1      17.613  -4.590   3.656  0.00  0.00     0.256 A 
ENDBRANCH  14  15
ENDBRANCH  11  14
ENDBRANCH   6  10
BRANCH   2  20
ATOM     20  C10 <0> d   1      18.008  -2.547  11.502  0.00  0.00     0.227 C 
ATOM     21  O11 <0> d   1      16.980  -3.200  11.618  0.00  0.00    -0.643 OA
ATOM     22  O12 <0> d   1      18.919  -2.695  12.306  0.00  0.00    -0.643 OA
ENDBRANCH   2  20
BRANCH   1  23
ATOM     23  C7  <0> d   1      16.959  -0.053  11.820  0.00  0.00     0.119 C 
BRANCH  23  24
ATOM     24  S6  <0> d   1      17.762   1.345  12.641  0.00  0.00    -0.097 SA
BRANCH  24  25
ATOM     25  C5  <0> d   1      18.100   0.624  14.213  0.00  0.00     0.159 A 
ATOM     26  N4  <0> d   1      17.851  -0.606  14.564  0.00  0.00    -0.135 NA
ATOM     27  N3  <0> d   1      18.161  -0.954  15.736  0.00  0.00    -0.146 NA
ATOM     28  C2  <0> d   1      18.702  -0.068  16.508  0.00  0.00     0.096 A 
ATOM     29  C1  <0> d   1      19.140  -0.283  17.934  0.00  0.00     0.081 C 
ATOM     30  S31 <0> d   1      18.828   1.439  15.598  0.00  0.00    -0.045 SA
ENDBRANCH  24  25
ENDBRANCH  23  24
ENDBRANCH   1  23
TORSDOF 7
ENDMDL
MODEL 5
REMARK VINA RESULT:      -7.5      3.345      9.388
REMARK  7 active torsions:
REMARK  status: ('A' for Active; 'I' for Inactive)
REMARK    1  A    between atoms: C5_5  and  S6_6 
REMARK    2  A    between atoms: S6_6  and  C7_7 
REMARK    3  A    between atoms: C7_7  and  C8_8 
REMARK    4  A    between atoms: C9_9  and  C10_10 
REMARK    5  A    between atoms: C16_16  and  N18_17 
REMARK       I    between atoms: N18_17  and  C19_18 
REMARK    6  A    between atoms: C19_18  and  C21_20 
REMARK    7  A    between atoms: C21_20  and  N22_21 
ROOT
ATOM      1  C8  <0> d   1      18.340  -1.022  12.377  0.00  0.00    -0.027 C 
ATOM      2  C9  <0> d   1      17.836   0.118  11.923  0.00  0.00     0.119 C 
ATOM      3  N13 <0> d   1      18.314   1.342  12.408  0.00  0.00    -0.293 N 
ATOM      4  C14 <0> d   1      17.978   2.614  12.581  0.00  0.00     0.251 C 
ATOM      5  O15 <0> d   1      17.128   3.309  12.065  0.00  0.00    -0.271 OA
ATOM      6  C16 <0> d   1      19.016   2.902  13.641  0.00  0.00     0.210 C 
ATOM      7  C27 <0> d   1      19.585   1.584  13.147  0.00  0.00     0.187 C 
ATOM      8  S29 <0> d   1      19.723   0.270  14.403  0.00  0.00    -0.136 SA
ATOM      9  C30 <0> d   1      19.445  -1.210  13.365  0.00  0.00     0.113 C 
ENDROOT
BRANCH   6  10
ATOM     10  N18 <0> d   1      18.505   2.865  15.014  0.00  0.00    -0.344 N 
ATOM     11  C19 <0> d   1      18.855   3.827  15.889  0.00  0.00     0.238 C 
ATOM     12  O20 <0> d   1      19.593   4.724  15.541  0.00  0.00    -0.272 OA
ATOM     13  H37 <0> d   1      17.915   2.147  15.292  0.00  0.00     0.163 HD
BRANCH  11  14
ATOM     14  C21 <0> d   1      18.330   3.788  17.302  0.00  0.00     0.256 C 
BRANCH  14  15
ATOM     15  N22 <0> d   1      18.608   2.476  17.890  0.00  0.00    -0.233 N 
ATOM     16  N26 <0> d   1      19.761   1.905  17.980  0.00  0.00    -0.044 NA
ATOM     17  N25 <0> d   1      19.616   0.763  18.557  0.00  0.00    -0.024 NA
ATOM     18  N24 <0> d   1      18.372   0.581  18.837  0.00  0.00    -0.122 NA
ATOM     19  C23 <0> d   1      17.707   1.636  18.432  0.00  0.00     0.256 A 
ENDBRANCH  14  15
ENDBRANCH  11  14
ENDBRANCH   6  10
BRANCH   2  20
ATOM     20  C10 <0> d   1      16.769   0.097  10.908  0.00  0.00     0.227 C 
ATOM     21  O11 <0> d   1      15.599   0.008  11.251  0.00  0.00    -0.643 OA
ATOM     22  O12 <0> d   1      17.054   0.169   9.720  0.00  0.00    -0.643 OA
ENDBRANCH   2  20
BRANCH   1  23
ATOM     23  C7  <0> d   1      17.719  -2.283  11.832  0.00  0.00     0.119 C 
BRANCH  23  24
ATOM     24  S6  <0> d   1      19.024  -3.463  11.407  0.00  0.00    -0.097 SA
BRANCH  24  25
ATOM     25  C5  <0> d   1      19.102  -3.218   9.664  0.00  0.00     0.159 A 
ATOM     26  N4  <0> d   1      19.212  -2.073   9.053  0.00  0.00    -0.135 NA
ATOM     27  N3  <0> d   1      19.254  -2.084   7.792  0.00  0.00    -0.146 NA
ATOM     28  C2  <0> d   1      19.184  -3.229   7.194  0.00  0.00     0.096 A 
ATOM     29  C1  <0> d   1      19.215  -3.454   5.704  0.00  0.00     0.081 C 
ATOM     30  S31 <0> d   1      19.037  -4.478   8.431  0.00  0.00    -0.045 SA
ENDBRANCH  24  25
ENDBRANCH  23  24
ENDBRANCH   1  23
TORSDOF 7
ENDMDL
MODEL 6
REMARK VINA RESULT:      -7.4      3.901      9.680
REMARK  7 active torsions:
REMARK  status: ('A' for Active; 'I' for Inactive)
REMARK    1  A    between atoms: C5_5  and  S6_6 
REMARK    2  A    between atoms: S6_6  and  C7_7 
REMARK    3  A    between atoms: C7_7  and  C8_8 
REMARK    4  A    between atoms: C9_9  and  C10_10 
REMARK    5  A    between atoms: C16_16  and  N18_17 
REMARK       I    between atoms: N18_17  and  C19_18 
REMARK    6  A    between atoms: C19_18  and  C21_20 
REMARK    7  A    between atoms: C21_20  and  N22_21 
ROOT
ATOM      1  C8  <0> d   1      18.267   0.271  13.592  0.00  0.00    -0.027 C 
ATOM      2  C9  <0> d   1      17.800   1.066  12.638  0.00  0.00     0.119 C 
ATOM      3  N13 <0> d   1      17.957   2.454  12.739  0.00  0.00    -0.293 N 
ATOM      4  C14 <0> d   1      17.437   3.608  12.339  0.00  0.00     0.251 C 
ATOM      5  O15 <0> d   1      16.715   3.896  11.408  0.00  0.00    -0.271 OA
ATOM      6  C16 <0> d   1      18.052   4.440  13.441  0.00  0.00     0.210 C 
ATOM      7  C27 <0> d   1      18.896   3.193  13.628  0.00  0.00     0.187 C 
ATOM      8  S29 <0> d   1      18.790   2.413  15.273  0.00  0.00    -0.136 SA
ATOM      9  C30 <0> d   1      19.023   0.657  14.822  0.00  0.00     0.113 C 
ENDROOT
BRANCH   6  10
ATOM     10  N18 <0> d   1      17.147   4.732  14.555  0.00  0.00    -0.344 N 
ATOM     11  C19 <0> d   1      17.163   5.948  15.135  0.00  0.00     0.238 C 
ATOM     12  O20 <0> d   1      17.927   6.801  14.735  0.00  0.00    -0.272 OA
ATOM     13  H37 <0> d   1      16.536   4.050  14.876  0.00  0.00     0.163 HD
BRANCH  11  14
ATOM     14  C21 <0> d   1      16.233   6.249  16.282  0.00  0.00     0.256 C 
BRANCH  14  15
ATOM     15  N22 <0> d   1      14.846   6.197  15.813  0.00  0.00    -0.233 N 
ATOM     16  N26 <0> d   1      14.449   5.853  14.635  0.00  0.00    -0.044 NA
ATOM     17  N25 <0> d   1      13.164   5.927  14.592  0.00  0.00    -0.024 NA
ATOM     18  N24 <0> d   1      12.721   6.326  15.734  0.00  0.00    -0.122 NA
ATOM     19  C23 <0> d   1      13.749   6.507  16.527  0.00  0.00     0.256 A 
ENDBRANCH  14  15
ENDBRANCH  11  14
ENDBRANCH   6  10
BRANCH   2  20
ATOM     20  C10 <0> d   1      17.112   0.487  11.472  0.00  0.00     0.227 C 
ATOM     21  O11 <0> d   1      17.716   0.335  10.419  0.00  0.00    -0.643 OA
ATOM     22  O12 <0> d   1      15.937   0.158  11.556  0.00  0.00    -0.643 OA
ENDBRANCH   2  20
BRANCH   1  23
ATOM     23  C7  <0> d   1      17.998  -1.202  13.416  0.00  0.00     0.119 C 
BRANCH  23  24
ATOM     24  S6  <0> d   1      19.450  -1.997  12.685  0.00  0.00    -0.097 SA
BRANCH  24  25
ATOM     25  C5  <0> d   1      18.663  -3.226  11.700  0.00  0.00     0.159 A 
ATOM     26  N4  <0> d   1      17.386  -3.315  11.456  0.00  0.00    -0.135 NA
ATOM     27  N3  <0> d   1      16.994  -4.265  10.725  0.00  0.00    -0.146 NA
ATOM     28  C2  <0> d   1      17.884  -5.086  10.269  0.00  0.00     0.096 A 
ATOM     29  C1  <0> d   1      17.621  -6.279   9.387  0.00  0.00     0.081 C 
ATOM     30  S31 <0> d   1      19.459  -4.565  10.871  0.00  0.00    -0.045 SA
ENDBRANCH  24  25
ENDBRANCH  23  24
ENDBRANCH   1  23
TORSDOF 7
ENDMDL
MODEL 7
REMARK VINA RESULT:      -7.4      2.719      3.486
REMARK  7 active torsions:
REMARK  status: ('A' for Active; 'I' for Inactive)
REMARK    1  A    between atoms: C5_5  and  S6_6 
REMARK    2  A    between atoms: S6_6  and  C7_7 
REMARK    3  A    between atoms: C7_7  and  C8_8 
REMARK    4  A    between atoms: C9_9  and  C10_10 
REMARK    5  A    between atoms: C16_16  and  N18_17 
REMARK       I    between atoms: N18_17  and  C19_18 
REMARK    6  A    between atoms: C19_18  and  C21_20 
REMARK    7  A    between atoms: C21_20  and  N22_21 
ROOT
ATOM      1  C8  <0> d   1      18.197   0.091   9.507  0.00  0.00    -0.027 C 
ATOM      2  C9  <0> d   1      17.747  -0.724  10.453  0.00  0.00     0.119 C 
ATOM      3  N13 <0> d   1      18.039  -2.093  10.401  0.00  0.00    -0.293 N 
ATOM      4  C14 <0> d   1      17.606  -3.282  10.801  0.00  0.00     0.251 C 
ATOM      5  O15 <0> d   1      16.856  -3.616  11.694  0.00  0.00    -0.271 OA
ATOM      6  C16 <0> d   1      18.363  -4.076   9.762  0.00  0.00     0.210 C 
ATOM      7  C27 <0> d   1      19.098  -2.759   9.592  0.00  0.00     0.187 C 
ATOM      8  S29 <0> d   1      19.022  -2.029   7.922  0.00  0.00    -0.136 SA
ATOM      9  C30 <0> d   1      19.061  -0.249   8.336  0.00  0.00     0.113 C 
ENDROOT
BRANCH   6  10
ATOM     10  N18 <0> d   1      17.561  -4.478   8.604  0.00  0.00    -0.344 N 
ATOM     11  C19 <0> d   1      17.706  -5.710   8.079  0.00  0.00     0.238 C 
ATOM     12  O20 <0> d   1      18.500  -6.487   8.566  0.00  0.00    -0.272 OA
ATOM     13  H37 <0> d   1      16.927  -3.856   8.214  0.00  0.00     0.163 HD
BRANCH  11  14
ATOM     14  C21 <0> d   1      16.882  -6.123   6.887  0.00  0.00     0.256 C 
BRANCH  14  15
ATOM     15  N22 <0> d   1      15.462  -6.114   7.248  0.00  0.00    -0.233 N 
ATOM     16  N26 <0> d   1      14.968  -5.842   8.408  0.00  0.00    -0.044 NA
ATOM     17  N25 <0> d   1      13.685  -5.931   8.345  0.00  0.00    -0.024 NA
ATOM     18  N24 <0> d   1      13.339  -6.269   7.151  0.00  0.00    -0.122 NA
ATOM     19  C23 <0> d   1      14.429  -6.394   6.433  0.00  0.00     0.256 A 
ENDBRANCH  14  15
ENDBRANCH  11  14
ENDBRANCH   6  10
BRANCH   2  20
ATOM     20  C10 <0> d   1      16.936  -0.188  11.559  0.00  0.00     0.227 C 
ATOM     21  O11 <0> d   1      15.748   0.046  11.390  0.00  0.00    -0.643 OA
ATOM     22  O12 <0> d   1      17.452   0.024  12.648  0.00  0.00    -0.643 OA
ENDBRANCH   2  20
BRANCH   1  23
ATOM     23  C7  <0> d   1      17.781   1.535   9.625  0.00  0.00     0.119 C 
BRANCH  23  24
ATOM     24  S6  <0> d   1      19.049   2.455  10.531  0.00  0.00    -0.097 SA
BRANCH  24  25
ATOM     25  C5  <0> d   1      18.029   3.571  11.435  0.00  0.00     0.159 A 
ATOM     26  N4  <0> d   1      16.929   4.125  11.010  0.00  0.00    -0.135 NA
ATOM     27  N3  <0> d   1      16.323   4.903  11.796  0.00  0.00    -0.146 NA
ATOM     28  C2  <0> d   1      16.835   5.099  12.968  0.00  0.00     0.096 A 
ATOM     29  C1  <0> d   1      16.268   5.987  14.045  0.00  0.00     0.081 C 
ATOM     30  S31 <0> d   1      18.317   4.147  13.078  0.00  0.00    -0.045 SA
ENDBRANCH  24  25
ENDBRANCH  23  24
ENDBRANCH   1  23
TORSDOF 7
ENDMDL
MODEL 8
REMARK VINA RESULT:      -7.2      3.729      9.872
REMARK  7 active torsions:
REMARK  status: ('A' for Active; 'I' for Inactive)
REMARK    1  A    between atoms: C5_5  and  S6_6 
REMARK    2  A    between atoms: S6_6  and  C7_7 
REMARK    3  A    between atoms: C7_7  and  C8_8 
REMARK    4  A    between atoms: C9_9  and  C10_10 
REMARK    5  A    between atoms: C16_16  and  N18_17 
REMARK       I    between atoms: N18_17  and  C19_18 
REMARK    6  A    between atoms: C19_18  and  C21_20 
REMARK    7  A    between atoms: C21_20  and  N22_21 
ROOT
ATOM      1  C8  <0> d   1      17.771  -0.054  12.467  0.00  0.00    -0.027 C 
ATOM      2  C9  <0> d   1      18.188   1.201  12.572  0.00  0.00     0.119 C 
ATOM      3  N13 <0> d   1      18.804   1.642  13.750  0.00  0.00    -0.293 N 
ATOM      4  C14 <0> d   1      19.048   2.728  14.472  0.00  0.00     0.251 C 
ATOM      5  O15 <0> d   1      19.057   3.908  14.189  0.00  0.00    -0.271 OA
ATOM      6  C16 <0> d   1      19.311   1.994  15.766  0.00  0.00     0.210 C 
ATOM      7  C27 <0> d   1      19.387   0.800  14.832  0.00  0.00     0.187 C 
ATOM      8  S29 <0> d   1      18.190  -0.534  15.166  0.00  0.00    -0.136 SA
ATOM      9  C30 <0> d   1      17.906  -1.155  13.469  0.00  0.00     0.113 C 
ENDROOT
BRANCH   6  10
ATOM     10  N18 <0> d   1      18.173   1.970  16.690  0.00  0.00    -0.344 N 
ATOM     11  C19 <0> d   1      18.384   2.016  18.019  0.00  0.00     0.238 C 
ATOM     12  O20 <0> d   1      19.515   2.078  18.452  0.00  0.00    -0.272 OA
ATOM     13  H37 <0> d   1      17.269   1.920  16.343  0.00  0.00     0.163 HD
BRANCH  11  14
ATOM     14  C21 <0> d   1      17.214   1.990  18.969  0.00  0.00     0.256 C 
BRANCH  14  15
ATOM     15  N22 <0> d   1      16.801   3.362  19.273  0.00  0.00    -0.233 N 
ATOM     16  N26 <0> d   1      15.916   3.722  20.139  0.00  0.00    -0.044 NA
ATOM     17  N25 <0> d   1      15.823   5.007  20.128  0.00  0.00    -0.024 NA
ATOM     18  N24 <0> d   1      16.637   5.487  19.253  0.00  0.00    -0.122 NA
ATOM     19  C23 <0> d   1      17.269   4.483  18.694  0.00  0.00     0.256 A 
ENDBRANCH  14  15
ENDBRANCH  11  14
ENDBRANCH   6  10
BRANCH   2  20
ATOM     20  C10 <0> d   1      18.000   2.133  11.448  0.00  0.00     0.227 C 
ATOM     21  O11 <0> d   1      18.852   2.219  10.575  0.00  0.00    -0.643 OA
ATOM     22  O12 <0> d   1      16.991   2.822  11.387  0.00  0.00    -0.643 OA
ENDBRANCH   2  20
BRANCH   1  23
ATOM     23  C7  <0> d   1      17.072  -0.414  11.181  0.00  0.00     0.119 C 
BRANCH  23  24
ATOM     24  S6  <0> d   1      17.966  -1.758  10.364  0.00  0.00    -0.097 SA
BRANCH  24  25
ATOM     25  C5  <0> d   1      18.167  -1.061   8.758  0.00  0.00     0.159 A 
ATOM     26  N4  <0> d   1      17.589   0.018   8.311  0.00  0.00    -0.135 NA
ATOM     27  N3  <0> d   1      17.850   0.374   7.129  0.00  0.00    -0.146 NA
ATOM     28  C2  <0> d   1      18.670  -0.354   6.444  0.00  0.00     0.096 A 
ATOM     29  C1  <0> d   1      19.106  -0.101   5.024  0.00  0.00     0.081 C 
ATOM     30  S31 <0> d   1      19.180  -1.701   7.463  0.00  0.00    -0.045 SA
ENDBRANCH  24  25
ENDBRANCH  23  24
ENDBRANCH   1  23
TORSDOF 7
ENDMDL
MODEL 9
REMARK VINA RESULT:      -7.2      4.108      9.763
REMARK  7 active torsions:
REMARK  status: ('A' for Active; 'I' for Inactive)
REMARK    1  A    between atoms: C5_5  and  S6_6 
REMARK    2  A    between atoms: S6_6  and  C7_7 
REMARK    3  A    between atoms: C7_7  and  C8_8 
REMARK    4  A    between atoms: C9_9  and  C10_10 
REMARK    5  A    between atoms: C16_16  and  N18_17 
REMARK       I    between atoms: N18_17  and  C19_18 
REMARK    6  A    between atoms: C19_18  and  C21_20 
REMARK    7  A    between atoms: C21_20  and  N22_21 
ROOT
ATOM      1  C8  <0> d   1      18.770  -2.719   9.286  0.00  0.00    -0.027 C 
ATOM      2  C9  <0> d   1      18.797  -1.397   9.181  0.00  0.00     0.119 C 
ATOM      3  N13 <0> d   1      19.376  -0.622  10.194  0.00  0.00    -0.293 N 
ATOM      4  C14 <0> d   1      19.358   0.587  10.740  0.00  0.00     0.251 C 
ATOM      5  O15 <0> d   1      18.980   1.663  10.324  0.00  0.00    -0.271 OA
ATOM      6  C16 <0> d   1      19.969   0.167  12.057  0.00  0.00     0.210 C 
ATOM      7  C27 <0> d   1      20.300  -1.085  11.267  0.00  0.00     0.187 C 
ATOM      8  S29 <0> d   1      19.605  -2.636  11.929  0.00  0.00    -0.136 SA
ATOM      9  C30 <0> d   1      19.338  -3.567  10.378  0.00  0.00     0.113 C 
ENDROOT
BRANCH   6  10
ATOM     10  N18 <0> d   1      19.000  -0.035  13.137  0.00  0.00    -0.344 N 
ATOM     11  C19 <0> d   1      18.850   0.903  14.092  0.00  0.00     0.238 C 
ATOM     12  O20 <0> d   1      19.517   1.915  14.058  0.00  0.00    -0.272 OA
ATOM     13  H37 <0> d   1      18.467  -0.845  13.164  0.00  0.00     0.163 HD
BRANCH  11  14
ATOM     14  C21 <0> d   1      17.853   0.695  15.204  0.00  0.00     0.256 C 
BRANCH  14  15
ATOM     15  N22 <0> d   1      18.565   0.550  16.476  0.00  0.00    -0.233 N 
ATOM     16  N26 <0> d   1      19.096   1.499  17.170  0.00  0.00    -0.044 NA
ATOM     17  N25 <0> d   1      19.630   0.993  18.227  0.00  0.00    -0.024 NA
ATOM     18  N24 <0> d   1      19.458  -0.284  18.222  0.00  0.00    -0.122 NA
ATOM     19  C23 <0> d   1      18.793  -0.599  17.138  0.00  0.00     0.256 A 
ENDBRANCH  14  15
ENDBRANCH  11  14
ENDBRANCH   6  10
BRANCH   2  20
ATOM     20  C10 <0> d   1      18.216  -0.742   7.997  0.00  0.00     0.227 C 
ATOM     21  O11 <0> d   1      17.049  -0.376   8.011  0.00  0.00    -0.643 OA
ATOM     22  O12 <0> d   1      18.901  -0.563   6.999  0.00  0.00    -0.643 OA
ENDBRANCH   2  20
BRANCH   1  23
ATOM     23  C7  <0> d   1      18.075  -3.457   8.169  0.00  0.00     0.119 C 
BRANCH  23  24
ATOM     24  S6  <0> d   1      19.295  -4.393   7.216  0.00  0.00    -0.097 SA
BRANCH  24  25
ATOM     25  C5  <0> d   1      18.500  -5.964   7.160  0.00  0.00     0.159 A 
ATOM     26  N4  <0> d   1      18.570  -6.827   6.186  0.00  0.00    -0.135 NA
ATOM     27  N3  <0> d   1      17.933  -7.908   6.315  0.00  0.00    -0.146 NA
ATOM     28  C2  <0> d   1      17.254  -8.085   7.402  0.00  0.00     0.096 A 
ATOM     29  C1  <0> d   1      16.430  -9.299   7.744  0.00  0.00     0.081 C 
ATOM     30  S31 <0> d   1      17.458  -6.650   8.408  0.00  0.00    -0.045 SA
ENDBRANCH  24  25
ENDBRANCH  23  24
ENDBRANCH   1  23
TORSDOF 7
ENDMDL
