MODEL 1
REMARK VINA RESULT:      -2.9      0.000      0.000
REMARK  2 active torsions:
REMARK  status: ('A' for Active; 'I' for Inactive)
REMARK    1  A    between atoms: N1_1  and  C5_5 
REMARK    2  A    between atoms: C5_5  and  C6_6 
ROOT
ATOM      1  N1  <0> d   1      16.978   2.255  19.126  0.00  0.00    -0.070 N 
ATOM      2  H2  <0> d   1      17.281   3.160  18.796  0.00  0.00     0.274 HD
ATOM      3  H3  <0> d   1      17.192   2.168  20.108  0.00  0.00     0.274 HD
ATOM      4  H4  <0> d   1      15.982   2.164  18.990  0.00  0.00     0.274 HD
ENDROOT
BRANCH   1   5
ATOM      5  C5  <0> d   1      17.674   1.201  18.377  0.00  0.00     0.342 C 
BRANCH   5   6
ATOM      6  C6  <0> d   1      19.162   1.405  18.486  0.00  0.00     0.199 C 
ATOM      7  O7  <0> d   1      19.610   2.514  18.723  0.00  0.00    -0.647 OA
ATOM      8  O8  <0> d   1      19.920   0.461  18.337  0.00  0.00    -0.647 OA
ENDBRANCH   5   6
ENDBRANCH   1   5
TORSDOF 2
ENDMDL
MODEL 2
REMARK VINA RESULT:      -2.8     13.941     13.982
REMARK  2 active torsions:
REMARK  status: ('A' for Active; 'I' for Inactive)
REMARK    1  A    between atoms: N1_1  and  C5_5 
REMARK    2  A    between atoms: C5_5  and  C6_6 
ROOT
ATOM      1  N1  <0> d   1      17.069  -0.900   5.724  0.00  0.00    -0.070 N 
ATOM      2  H2  <0> d   1      16.277  -1.447   6.028  0.00  0.00     0.274 HD
ATOM      3  H3  <0> d   1      16.758   0.026   5.469  0.00  0.00     0.274 HD
ATOM      4  H4  <0> d   1      17.739  -0.834   6.476  0.00  0.00     0.274 HD
ENDROOT
BRANCH   1   5
ATOM      5  C5  <0> d   1      17.695  -1.545   4.563  0.00  0.00     0.342 C 
BRANCH   5   6
ATOM      6  C6  <0> d   1      19.173  -1.698   4.810  0.00  0.00     0.199 C 
ATOM      7  O7  <0> d   1      19.930  -0.773   4.567  0.00  0.00    -0.647 OA
ATOM      8  O8  <0> d   1      19.613  -2.746   5.251  0.00  0.00    -0.647 OA
ENDBRANCH   5   6
ENDBRANCH   1   5
TORSDOF 2
ENDMDL
MODEL 3
REMARK VINA RESULT:      -2.8     13.953     14.009
REMARK  2 active torsions:
REMARK  status: ('A' for Active; 'I' for Inactive)
REMARK    1  A    between atoms: N1_1  and  C5_5 
REMARK    2  A    between atoms: C5_5  and  C6_6 
ROOT
ATOM      1  N1  <0> d   1      17.173  -0.733   5.854  0.00  0.00    -0.070 N 
ATOM      2  H2  <0> d   1      16.366  -1.225   6.207  0.00  0.00     0.274 HD
ATOM      3  H3  <0> d   1      16.915   0.216   5.628  0.00  0.00     0.274 HD
ATOM      4  H4  <0> d   1      17.896  -0.725   6.558  0.00  0.00     0.274 HD
ENDROOT
BRANCH   1   5
ATOM      5  C5  <0> d   1      17.670  -1.407   4.648  0.00  0.00     0.342 C 
BRANCH   5   6
ATOM      6  C6  <0> d   1      19.148  -1.664   4.789  0.00  0.00     0.199 C 
ATOM      7  O7  <0> d   1      19.546  -2.767   5.125  0.00  0.00    -0.647 OA
ATOM      8  O8  <0> d   1      19.947  -0.769   4.570  0.00  0.00    -0.647 OA
ENDBRANCH   5   6
ENDBRANCH   1   5
TORSDOF 2
ENDMDL
MODEL 4
REMARK VINA RESULT:      -2.7      5.822      5.961
REMARK  2 active torsions:
REMARK  status: ('A' for Active; 'I' for Inactive)
REMARK    1  A    between atoms: N1_1  and  C5_5 
REMARK    2  A    between atoms: C5_5  and  C6_6 
ROOT
ATOM      1  N1  <0> d   1      21.574   0.607  12.182  0.00  0.00    -0.070 N 
ATOM      2  H2  <0> d   1      21.799   0.487  11.206  0.00  0.00     0.274 HD
ATOM      3  H3  <0> d   1      22.020  -0.120  12.722  0.00  0.00     0.274 HD
ATOM      4  H4  <0> d   1      21.903   1.508  12.495  0.00  0.00     0.274 HD
ENDROOT
BRANCH   1   5
ATOM      5  C5  <0> d   1      20.119   0.528  12.363  0.00  0.00     0.342 C 
BRANCH   5   6
ATOM      6  C6  <0> d   1      19.809   0.162  13.791  0.00  0.00     0.199 C 
ATOM      7  O7  <0> d   1      19.610   1.038  14.615  0.00  0.00    -0.647 OA
ATOM      8  O8  <0> d   1      19.757  -1.010  14.123  0.00  0.00    -0.647 OA
ENDBRANCH   5   6
ENDBRANCH   1   5
TORSDOF 2
ENDMDL
MODEL 5
REMARK VINA RESULT:      -2.7      8.032      8.258
REMARK  2 active torsions:
REMARK  status: ('A' for Active; 'I' for Inactive)
REMARK    1  A    between atoms: N1_1  and  C5_5 
REMARK    2  A    between atoms: C5_5  and  C6_6 
ROOT
ATOM      1  N1  <0> d   1      21.604   0.634  12.169  0.00  0.00    -0.070 N 
ATOM      2  H2  <0> d   1      21.734   1.630  12.258  0.00  0.00     0.274 HD
ATOM      3  H3  <0> d   1      22.219   0.278  11.453  0.00  0.00     0.274 HD
ATOM      4  H4  <0> d   1      21.817   0.187  13.048  0.00  0.00     0.274 HD
ENDROOT
BRANCH   1   5
ATOM      5  C5  <0> d   1      20.210   0.352  11.802  0.00  0.00     0.342 C 
BRANCH   5   6
ATOM      6  C6  <0> d   1      20.178  -0.689  10.713  0.00  0.00     0.199 C 
ATOM      7  O7  <0> d   1      20.354  -0.362   9.551  0.00  0.00    -0.647 OA
ATOM      8  O8  <0> d   1      19.975  -1.858  10.993  0.00  0.00    -0.647 OA
ENDBRANCH   5   6
ENDBRANCH   1   5
TORSDOF 2
ENDMDL
MODEL 6
REMARK VINA RESULT:      -2.7      9.383      9.513
REMARK  2 active torsions:
REMARK  status: ('A' for Active; 'I' for Inactive)
REMARK    1  A    between atoms: N1_1  and  C5_5 
REMARK    2  A    between atoms: C5_5  and  C6_6 
ROOT
ATOM      1  N1  <0> d   1      21.567  -0.586  10.908  0.00  0.00    -0.070 N 
ATOM      2  H2  <0> d   1      21.771  -0.157  11.798  0.00  0.00     0.274 HD
ATOM      3  H3  <0> d   1      22.009  -0.057  10.171  0.00  0.00     0.274 HD
ATOM      4  H4  <0> d   1      21.920  -1.532  10.902  0.00  0.00     0.274 HD
ENDROOT
BRANCH   1   5
ATOM      5  C5  <0> d   1      20.114  -0.605  10.694  0.00  0.00     0.342 C 
BRANCH   5   6
ATOM      6  C6  <0> d   1      19.813  -0.255   9.260  0.00  0.00     0.199 C 
ATOM      7  O7  <0> d   1      19.711   0.913   8.926  0.00  0.00    -0.647 OA
ATOM      8  O8  <0> d   1      19.670  -1.140   8.433  0.00  0.00    -0.647 OA
ENDBRANCH   5   6
ENDBRANCH   1   5
TORSDOF 2
ENDMDL
MODEL 7
REMARK VINA RESULT:      -2.7     14.640     14.808
REMARK  2 active torsions:
REMARK  status: ('A' for Active; 'I' for Inactive)
REMARK    1  A    between atoms: N1_1  and  C5_5 
REMARK    2  A    between atoms: C5_5  and  C6_6 
ROOT
ATOM      1  N1  <0> d   1      18.469  -3.978   3.211  0.00  0.00    -0.070 N 
ATOM      2  H2  <0> d   1      18.962  -4.789   3.555  0.00  0.00     0.274 HD
ATOM      3  H3  <0> d   1      19.074  -3.452   2.599  0.00  0.00     0.274 HD
ATOM      4  H4  <0> d   1      17.650  -4.274   2.701  0.00  0.00     0.274 HD
ENDROOT
BRANCH   1   5
ATOM      5  C5  <0> d   1      18.063  -3.134   4.342  0.00  0.00     0.342 C 
BRANCH   5   6
ATOM      6  C6  <0> d   1      19.273  -2.441   4.912  0.00  0.00     0.199 C 
ATOM      7  O7  <0> d   1      19.694  -1.423   4.390  0.00  0.00    -0.647 OA
ATOM      8  O8  <0> d   1      19.832  -2.898   5.895  0.00  0.00    -0.647 OA
ENDBRANCH   5   6
ENDBRANCH   1   5
TORSDOF 2
ENDMDL
MODEL 8
REMARK VINA RESULT:      -2.6      8.164      8.204
REMARK  2 active torsions:
REMARK  status: ('A' for Active; 'I' for Inactive)
REMARK    1  A    between atoms: N1_1  and  C5_5 
REMARK    2  A    between atoms: C5_5  and  C6_6 
ROOT
ATOM      1  N1  <0> d   1      20.585   3.119  11.612  0.00  0.00    -0.070 N 
ATOM      2  H2  <0> d   1      21.085   3.155  12.488  0.00  0.00     0.274 HD
ATOM      3  H3  <0> d   1      21.117   3.599  10.902  0.00  0.00     0.274 HD
ATOM      4  H4  <0> d   1      20.454   2.156  11.340  0.00  0.00     0.274 HD
ENDROOT
BRANCH   1   5
ATOM      5  C5  <0> d   1      19.276   3.767  11.767  0.00  0.00     0.342 C 
BRANCH   5   6
ATOM      6  C6  <0> d   1      18.321   3.221  10.738  0.00  0.00     0.199 C 
ATOM      7  O7  <0> d   1      17.159   3.003  11.040  0.00  0.00    -0.647 OA
ATOM      8  O8  <0> d   1      18.708   2.996   9.604  0.00  0.00    -0.647 OA
ENDBRANCH   5   6
ENDBRANCH   1   5
TORSDOF 2
ENDMDL
MODEL 9
REMARK VINA RESULT:      -2.5      8.224      8.373
REMARK  2 active torsions:
REMARK  status: ('A' for Active; 'I' for Inactive)
REMARK    1  A    between atoms: N1_1  and  C5_5 
REMARK    2  A    between atoms: C5_5  and  C6_6 
ROOT
ATOM      1  N1  <0> d   1      20.015   2.483  10.924  0.00  0.00    -0.070 N 
ATOM      2  H2  <0> d   1      20.021   1.543  11.290  0.00  0.00     0.274 HD
ATOM      3  H3  <0> d   1      19.920   3.139  11.685  0.00  0.00     0.274 HD
ATOM      4  H4  <0> d   1      20.880   2.658  10.435  0.00  0.00     0.274 HD
ENDROOT
BRANCH   1   5
ATOM      5  C5  <0> d   1      18.887   2.641   9.997  0.00  0.00     0.342 C 
BRANCH   5   6
ATOM      6  C6  <0> d   1      17.593   2.587  10.766  0.00  0.00     0.199 C 
ATOM      7  O7  <0> d   1      17.134   1.512  11.113  0.00  0.00    -0.647 OA
ATOM      8  O8  <0> d   1      17.003   3.618  11.041  0.00  0.00    -0.647 OA
ENDBRANCH   5   6
ENDBRANCH   1   5
TORSDOF 2
ENDMDL
