MODEL 1
REMARK VINA RESULT:      -6.5      0.000      0.000
REMARK  9 active torsions:
REMARK  status: ('A' for Active; 'I' for Inactive)
REMARK    1  A    between atoms: C2_2  and  C4_4 
REMARK    2  A    between atoms: C4_4  and  O6_6 
REMARK    3  A    between atoms: O6_6  and  C7_7 
REMARK    4  A    between atoms: C7_7  and  O10_9 
REMARK    5  A    between atoms: O10_9  and  C11_10 
REMARK       I    between atoms: C11_10  and  N13_12 
REMARK    6  A    between atoms: N13_12  and  C14_13 
REMARK    7  A    between atoms: C14_13  and  C15_14 
REMARK    8  A    between atoms: C15_14  and  C16_15 
REMARK    9  A    between atoms: C16_15  and  C17_16 
ROOT
ATOM      1  C11 ZIN A   1      18.834   3.742  14.930  0.00  0.00     0.362 C 
ATOM      2  O12 ZIN A   1      17.836   4.378  14.655  0.00  0.00    -0.238 OA
ATOM      3  N13 ZIN A   1      19.246   2.749  14.118  0.00  0.00    -0.336 N 
ATOM      4  H35 ZIN A   1      20.043   2.242  14.338  0.00  0.00     0.164 HD
ENDROOT
BRANCH   3   5
ATOM      5  C14 ZIN A   1      18.490   2.436  12.903  0.00  0.00     0.135 C 
BRANCH   5   6
ATOM      6  C15 ZIN A   1      18.666   0.955  12.560  0.00  0.00    -0.015 C 
ATOM      7  C24 ZIN A   1      17.295   0.278  12.509  0.00  0.00     0.012 C 
ATOM      8  C23 ZIN A   1      17.470  -1.203  12.166  0.00  0.00     0.001 C 
ATOM      9  C22 ZIN A   1      18.332  -1.876  13.236  0.00  0.00     0.000 C 
ATOM     10  C21 ZIN A   1      19.703  -1.199  13.287  0.00  0.00     0.001 C 
ATOM     11  C20 ZIN A   1      19.528   0.282  13.630  0.00  0.00     0.012 C 
BRANCH   6  12
ATOM     12  C16 ZIN A   1      19.350   0.825  11.198  0.00  0.00     0.124 C 
BRANCH  12  13
ATOM     13  C17 ZIN A   1      18.694   1.760  10.215  0.00  0.00     0.173 C 
ATOM     14  O18 ZIN A   1      17.684   1.414   9.627  0.00  0.00    -0.648 OA
ATOM     15  O19 ZIN A   1      19.174   2.861  10.007  0.00  0.00    -0.648 OA
ENDBRANCH  12  13
ENDBRANCH   6  12
ENDBRANCH   5   6
ENDBRANCH   3   5
BRANCH   1  16
ATOM     16  O10 ZIN A   1      19.528   4.030  16.047  0.00  0.00    -0.272 OA
BRANCH  16  17
ATOM     17  C7  ZIN A   1      19.311   3.172  17.198  0.00  0.00     0.276 C 
ATOM     18  C9  ZIN A   1      18.189   3.754  18.062  0.00  0.00     0.072 C 
BRANCH  17  19
ATOM     19  O6  ZIN A   1      18.935   1.844  16.749  0.00  0.00    -0.289 OA
BRANCH  19  20
ATOM     20  C4  ZIN A   1      19.133   0.832  17.609  0.00  0.00     0.264 C 
ATOM     21  O5  ZIN A   1      19.952   0.940  18.491  0.00  0.00    -0.265 OA
BRANCH  20  22
ATOM     22  C2  ZIN A   1      18.334  -0.438  17.474  0.00  0.00     0.077 C 
ATOM     23  C1  ZIN A   1      17.123  -0.187  16.575  0.00  0.00     0.020 C 
ATOM     24  C3  ZIN A   1      19.211  -1.529  16.856  0.00  0.00     0.020 C 
ENDBRANCH  20  22
ENDBRANCH  19  20
ENDBRANCH  17  19
ENDBRANCH  16  17
ENDBRANCH   1  16
TORSDOF 9
ENDMDL
MODEL 2
REMARK VINA RESULT:      -6.5      3.763      5.877
REMARK  9 active torsions:
REMARK  status: ('A' for Active; 'I' for Inactive)
REMARK    1  A    between atoms: C2_2  and  C4_4 
REMARK    2  A    between atoms: C4_4  and  O6_6 
REMARK    3  A    between atoms: O6_6  and  C7_7 
REMARK    4  A    between atoms: C7_7  and  O10_9 
REMARK    5  A    between atoms: O10_9  and  C11_10 
REMARK       I    between atoms: C11_10  and  N13_12 
REMARK    6  A    between atoms: N13_12  and  C14_13 
REMARK    7  A    between atoms: C14_13  and  C15_14 
REMARK    8  A    between atoms: C15_14  and  C16_15 
REMARK    9  A    between atoms: C16_15  and  C17_16 
ROOT
ATOM      1  C11 ZIN A   1      16.933  -0.346  11.717  0.00  0.00     0.362 C 
ATOM      2  O12 ZIN A   1      15.842   0.179  11.619  0.00  0.00    -0.238 OA
ATOM      3  N13 ZIN A   1      17.687  -0.546  10.618  0.00  0.00    -0.336 N 
ATOM      4  H35 ZIN A   1      18.558  -0.965  10.697  0.00  0.00     0.164 HD
ENDROOT
BRANCH   3   5
ATOM      5  C14 ZIN A   1      17.190  -0.131   9.304  0.00  0.00     0.135 C 
BRANCH   5   6
ATOM      6  C15 ZIN A   1      18.228  -0.475   8.234  0.00  0.00    -0.015 C 
ATOM      7  C24 ZIN A   1      17.743   0.031   6.874  0.00  0.00     0.012 C 
ATOM      8  C23 ZIN A   1      18.782  -0.313   5.803  0.00  0.00     0.001 C 
ATOM      9  C22 ZIN A   1      18.970  -1.830   5.745  0.00  0.00     0.000 C 
ATOM     10  C21 ZIN A   1      19.455  -2.336   7.106  0.00  0.00     0.001 C 
ATOM     11  C20 ZIN A   1      18.417  -1.992   8.176  0.00  0.00     0.012 C 
BRANCH   6  12
ATOM     12  C16 ZIN A   1      19.560   0.192   8.582  0.00  0.00     0.124 C 
BRANCH  12  13
ATOM     13  C17 ZIN A   1      19.320   1.638   8.934  0.00  0.00     0.173 C 
ATOM     14  O18 ZIN A   1      19.045   2.440   8.058  0.00  0.00    -0.648 OA
ATOM     15  O19 ZIN A   1      19.403   2.005  10.093  0.00  0.00    -0.648 OA
ENDBRANCH  12  13
ENDBRANCH   6  12
ENDBRANCH   5   6
ENDBRANCH   3   5
BRANCH   1  16
ATOM     16  O10 ZIN A   1      17.390  -0.728  12.925  0.00  0.00    -0.272 OA
BRANCH  16  17
ATOM     17  C7  ZIN A   1      18.691  -1.374  12.964  0.00  0.00     0.276 C 
ATOM     18  C9  ZIN A   1      19.309  -1.190  14.352  0.00  0.00     0.072 C 
BRANCH  17  19
ATOM     19  O6  ZIN A   1      18.536  -2.791  12.688  0.00  0.00    -0.289 OA
BRANCH  19  20
ATOM     20  C4  ZIN A   1      19.290  -3.305  11.703  0.00  0.00     0.264 C 
ATOM     21  O5  ZIN A   1      20.090  -2.607  11.128  0.00  0.00    -0.265 OA
BRANCH  20  22
ATOM     22  C2  ZIN A   1      19.137  -4.752  11.314  0.00  0.00     0.077 C 
ATOM     23  C1  ZIN A   1      17.652  -5.117  11.277  0.00  0.00     0.020 C 
ATOM     24  C3  ZIN A   1      19.752  -4.977   9.931  0.00  0.00     0.020 C 
ENDBRANCH  20  22
ENDBRANCH  19  20
ENDBRANCH  17  19
ENDBRANCH  16  17
ENDBRANCH   1  16
TORSDOF 9
ENDMDL
MODEL 3
REMARK VINA RESULT:      -6.4      1.939      5.134
REMARK  9 active torsions:
REMARK  status: ('A' for Active; 'I' for Inactive)
REMARK    1  A    between atoms: C2_2  and  C4_4 
REMARK    2  A    between atoms: C4_4  and  O6_6 
REMARK    3  A    between atoms: O6_6  and  C7_7 
REMARK    4  A    between atoms: C7_7  and  O10_9 
REMARK    5  A    between atoms: O10_9  and  C11_10 
REMARK       I    between atoms: C11_10  and  N13_12 
REMARK    6  A    between atoms: N13_12  and  C14_13 
REMARK    7  A    between atoms: C14_13  and  C15_14 
REMARK    8  A    between atoms: C15_14  and  C16_15 
REMARK    9  A    between atoms: C16_15  and  C17_16 
ROOT
ATOM      1  C11 ZIN A   1      18.721   3.713  15.516  0.00  0.00     0.362 C 
ATOM      2  O12 ZIN A   1      19.692   3.704  16.246  0.00  0.00    -0.238 OA
ATOM      3  N13 ZIN A   1      18.181   2.551  15.098  0.00  0.00    -0.336 N 
ATOM      4  H35 ZIN A   1      17.406   2.559  14.515  0.00  0.00     0.164 HD
ENDROOT
BRANCH   3   5
ATOM      5  C14 ZIN A   1      18.764   1.277  15.525  0.00  0.00     0.135 C 
BRANCH   5   6
ATOM      6  C15 ZIN A   1      18.690   0.271  14.375  0.00  0.00    -0.015 C 
ATOM      7  C24 ZIN A   1      19.891   0.471  13.447  0.00  0.00     0.012 C 
ATOM      8  C23 ZIN A   1      19.818  -0.536  12.296  0.00  0.00     0.001 C 
ATOM      9  C22 ZIN A   1      18.524  -0.319  11.510  0.00  0.00     0.000 C 
ATOM     10  C21 ZIN A   1      17.323  -0.518  12.438  0.00  0.00     0.001 C 
ATOM     11  C20 ZIN A   1      17.396   0.488  13.589  0.00  0.00     0.012 C 
BRANCH   6  12
ATOM     12  C16 ZIN A   1      18.713  -1.151  14.939  0.00  0.00     0.124 C 
BRANCH  12  13
ATOM     13  C17 ZIN A   1      18.346  -1.118  16.400  0.00  0.00     0.173 C 
ATOM     14  O18 ZIN A   1      19.220  -1.135  17.248  0.00  0.00    -0.648 OA
ATOM     15  O19 ZIN A   1      17.173  -1.075  16.733  0.00  0.00    -0.648 OA
ENDBRANCH  12  13
ENDBRANCH   6  12
ENDBRANCH   5   6
ENDBRANCH   3   5
BRANCH   1  16
ATOM     16  O10 ZIN A   1      18.185   4.884  15.123  0.00  0.00    -0.272 OA
BRANCH  16  17
ATOM     17  C7  ZIN A   1      17.096   4.822  14.164  0.00  0.00     0.276 C 
ATOM     18  C9  ZIN A   1      15.954   5.727  14.631  0.00  0.00     0.072 C 
BRANCH  17  19
ATOM     19  O6  ZIN A   1      17.568   5.271  12.866  0.00  0.00    -0.289 OA
BRANCH  19  20
ATOM     20  C4  ZIN A   1      17.353   4.452  11.824  0.00  0.00     0.264 C 
ATOM     21  O5  ZIN A   1      16.365   4.586  11.143  0.00  0.00    -0.265 OA
BRANCH  20  22
ATOM     22  C2  ZIN A   1      18.346   3.364  11.504  0.00  0.00     0.077 C 
ATOM     23  C1  ZIN A   1      18.323   3.077  10.002  0.00  0.00     0.020 C 
ATOM     24  C3  ZIN A   1      19.749   3.817  11.914  0.00  0.00     0.020 C 
ENDBRANCH  20  22
ENDBRANCH  19  20
ENDBRANCH  17  19
ENDBRANCH  16  17
ENDBRANCH   1  16
TORSDOF 9
ENDMDL
MODEL 4
REMARK VINA RESULT:      -6.4      4.855      7.723
REMARK  9 active torsions:
REMARK  status: ('A' for Active; 'I' for Inactive)
REMARK    1  A    between atoms: C2_2  and  C4_4 
REMARK    2  A    between atoms: C4_4  and  O6_6 
REMARK    3  A    between atoms: O6_6  and  C7_7 
REMARK    4  A    between atoms: C7_7  and  O10_9 
REMARK    5  A    between atoms: O10_9  and  C11_10 
REMARK       I    between atoms: C11_10  and  N13_12 
REMARK    6  A    between atoms: N13_12  and  C14_13 
REMARK    7  A    between atoms: C14_13  and  C15_14 
REMARK    8  A    between atoms: C15_14  and  C16_15 
REMARK    9  A    between atoms: C16_15  and  C17_16 
ROOT
ATOM      1  C11 ZIN A   1      19.884  -2.488  11.634  0.00  0.00     0.362 C 
ATOM      2  O12 ZIN A   1      19.402  -1.952  12.611  0.00  0.00    -0.238 OA
ATOM      3  N13 ZIN A   1      20.020  -1.798  10.484  0.00  0.00    -0.336 N 
ATOM      4  H35 ZIN A   1      20.405  -2.227   9.704  0.00  0.00     0.164 HD
ENDROOT
BRANCH   3   5
ATOM      5  C14 ZIN A   1      19.585  -0.401  10.413  0.00  0.00     0.135 C 
BRANCH   5   6
ATOM      6  C15 ZIN A   1      18.923  -0.141   9.058  0.00  0.00    -0.015 C 
ATOM      7  C24 ZIN A   1      19.307  -1.256   8.082  0.00  0.00     0.012 C 
ATOM      8  C23 ZIN A   1      18.644  -0.997   6.727  0.00  0.00     0.001 C 
ATOM      9  C22 ZIN A   1      19.120   0.349   6.177  0.00  0.00     0.000 C 
ATOM     10  C21 ZIN A   1      18.736   1.464   7.153  0.00  0.00     0.001 C 
ATOM     11  C20 ZIN A   1      19.398   1.204   8.508  0.00  0.00     0.012 C 
BRANCH   6  12
ATOM     12  C16 ZIN A   1      17.403  -0.115   9.230  0.00  0.00     0.124 C 
BRANCH  12  13
ATOM     13  C17 ZIN A   1      17.064   0.294  10.641  0.00  0.00     0.173 C 
ATOM     14  O18 ZIN A   1      17.171   1.460  10.979  0.00  0.00    -0.648 OA
ATOM     15  O19 ZIN A   1      16.684  -0.542  11.443  0.00  0.00    -0.648 OA
ENDBRANCH  12  13
ENDBRANCH   6  12
ENDBRANCH   5   6
ENDBRANCH   3   5
BRANCH   1  16
ATOM     16  O10 ZIN A   1      20.284  -3.773  11.699  0.00  0.00    -0.272 OA
BRANCH  16  17
ATOM     17  C7  ZIN A   1      19.477  -4.751  10.993  0.00  0.00     0.276 C 
ATOM     18  C9  ZIN A   1      18.009  -4.585  11.394  0.00  0.00     0.072 C 
BRANCH  17  19
ATOM     19  O6  ZIN A   1      19.612  -4.549   9.561  0.00  0.00    -0.289 OA
BRANCH  19  20
ATOM     20  C4  ZIN A   1      19.659  -5.650   8.793  0.00  0.00     0.264 C 
ATOM     21  O5  ZIN A   1      20.591  -6.412   8.886  0.00  0.00    -0.265 OA
BRANCH  20  22
ATOM     22  C2  ZIN A   1      18.548  -5.933   7.816  0.00  0.00     0.077 C 
ATOM     23  C1  ZIN A   1      17.556  -6.915   8.440  0.00  0.00     0.020 C 
ATOM     24  C3  ZIN A   1      17.826  -4.628   7.472  0.00  0.00     0.020 C 
ENDBRANCH  20  22
ENDBRANCH  19  20
ENDBRANCH  17  19
ENDBRANCH  16  17
ENDBRANCH   1  16
TORSDOF 9
ENDMDL
MODEL 5
REMARK VINA RESULT:      -6.3      4.558      8.935
REMARK  9 active torsions:
REMARK  status: ('A' for Active; 'I' for Inactive)
REMARK    1  A    between atoms: C2_2  and  C4_4 
REMARK    2  A    between atoms: C4_4  and  O6_6 
REMARK    3  A    between atoms: O6_6  and  C7_7 
REMARK    4  A    between atoms: C7_7  and  O10_9 
REMARK    5  A    between atoms: O10_9  and  C11_10 
REMARK       I    between atoms: C11_10  and  N13_12 
REMARK    6  A    between atoms: N13_12  and  C14_13 
REMARK    7  A    between atoms: C14_13  and  C15_14 
REMARK    8  A    between atoms: C15_14  and  C16_15 
REMARK    9  A    between atoms: C16_15  and  C17_16 
ROOT
ATOM      1  C11 ZIN A   1      18.789  -3.675   8.528  0.00  0.00     0.362 C 
ATOM      2  O12 ZIN A   1      17.724  -4.157   8.858  0.00  0.00    -0.238 OA
ATOM      3  N13 ZIN A   1      19.290  -2.621   9.203  0.00  0.00    -0.336 N 
ATOM      4  H35 ZIN A   1      20.140  -2.237   8.939  0.00  0.00     0.164 HD
ENDROOT
BRANCH   3   5
ATOM      5  C14 ZIN A   1      18.550  -2.057  10.334  0.00  0.00     0.135 C 
BRANCH   5   6
ATOM      6  C15 ZIN A   1      18.775  -0.545  10.388  0.00  0.00    -0.015 C 
ATOM      7  C24 ZIN A   1      17.424   0.173  10.335  0.00  0.00     0.012 C 
ATOM      8  C23 ZIN A   1      17.649   1.686  10.390  0.00  0.00     0.001 C 
ATOM      9  C22 ZIN A   1      18.503   2.117   9.196  0.00  0.00     0.000 C 
ATOM     10  C21 ZIN A   1      19.853   1.400   9.248  0.00  0.00     0.001 C 
ATOM     11  C20 ZIN A   1      19.629  -0.113   9.195  0.00  0.00     0.012 C 
BRANCH   6  12
ATOM     12  C16 ZIN A   1      19.495  -0.183  11.688  0.00  0.00     0.124 C 
BRANCH  12  13
ATOM     13  C17 ZIN A   1      18.880  -0.947  12.832  0.00  0.00     0.173 C 
ATOM     14  O18 ZIN A   1      19.392  -1.984  13.217  0.00  0.00    -0.648 OA
ATOM     15  O19 ZIN A   1      17.871  -0.527  13.373  0.00  0.00    -0.648 OA
ENDBRANCH  12  13
ENDBRANCH   6  12
ENDBRANCH   5   6
ENDBRANCH   3   5
BRANCH   1  16
ATOM     16  O10 ZIN A   1      19.470  -4.193   7.488  0.00  0.00    -0.272 OA
BRANCH  16  17
ATOM     17  C7  ZIN A   1      19.332  -3.521   6.209  0.00  0.00     0.276 C 
ATOM     18  C9  ZIN A   1      18.353  -4.299   5.327  0.00  0.00     0.072 C 
BRANCH  17  19
ATOM     19  O6  ZIN A   1      18.828  -2.175   6.421  0.00  0.00    -0.289 OA
BRANCH  19  20
ATOM     20  C4  ZIN A   1      19.061  -1.278   5.449  0.00  0.00     0.264 C 
ATOM     21  O5  ZIN A   1      19.914  -1.492   4.621  0.00  0.00    -0.265 OA
BRANCH  20  22
ATOM     22  C2  ZIN A   1      18.258  -0.005   5.391  0.00  0.00     0.077 C 
ATOM     23  C1  ZIN A   1      17.150  -0.051   6.445  0.00  0.00     0.020 C 
ATOM     24  C3  ZIN A   1      19.175   1.189   5.668  0.00  0.00     0.020 C 
ENDBRANCH  20  22
ENDBRANCH  19  20
ENDBRANCH  17  19
ENDBRANCH  16  17
ENDBRANCH   1  16
TORSDOF 9
ENDMDL
MODEL 6
REMARK VINA RESULT:      -6.3      3.282      4.440
REMARK  9 active torsions:
REMARK  status: ('A' for Active; 'I' for Inactive)
REMARK    1  A    between atoms: C2_2  and  C4_4 
REMARK    2  A    between atoms: C4_4  and  O6_6 
REMARK    3  A    between atoms: O6_6  and  C7_7 
REMARK    4  A    between atoms: C7_7  and  O10_9 
REMARK    5  A    between atoms: O10_9  and  C11_10 
REMARK       I    between atoms: C11_10  and  N13_12 
REMARK    6  A    between atoms: N13_12  and  C14_13 
REMARK    7  A    between atoms: C14_13  and  C15_14 
REMARK    8  A    between atoms: C15_14  and  C16_15 
REMARK    9  A    between atoms: C16_15  and  C17_16 
ROOT
ATOM      1  C11 ZIN A   1      19.760  -0.104  11.911  0.00  0.00     0.362 C 
ATOM      2  O12 ZIN A   1      20.880   0.032  11.462  0.00  0.00    -0.238 OA
ATOM      3  N13 ZIN A   1      19.128  -1.289  11.799  0.00  0.00    -0.336 N 
ATOM      4  H35 ZIN A   1      18.234  -1.398  12.158  0.00  0.00     0.164 HD
ENDROOT
BRANCH   3   5
ATOM      5  C14 ZIN A   1      19.793  -2.414  11.135  0.00  0.00     0.135 C 
BRANCH   5   6
ATOM      6  C15 ZIN A   1      18.741  -3.409  10.641  0.00  0.00    -0.015 C 
ATOM      7  C24 ZIN A   1      17.738  -3.687  11.763  0.00  0.00     0.012 C 
ATOM      8  C23 ZIN A   1      16.685  -4.682  11.269  0.00  0.00     0.001 C 
ATOM      9  C22 ZIN A   1      17.369  -5.988  10.861  0.00  0.00     0.000 C 
ATOM     10  C21 ZIN A   1      18.372  -5.709   9.740  0.00  0.00     0.001 C 
ATOM     11  C20 ZIN A   1      19.425  -4.714  10.233  0.00  0.00     0.012 C 
BRANCH   6  12
ATOM     12  C16 ZIN A   1      18.007  -2.818   9.435  0.00  0.00     0.124 C 
BRANCH  12  13
ATOM     13  C17 ZIN A   1      19.012  -2.299   8.440  0.00  0.00     0.173 C 
ATOM     14  O18 ZIN A   1      19.438  -1.162   8.541  0.00  0.00    -0.648 OA
ATOM     15  O19 ZIN A   1      19.400  -3.017   7.534  0.00  0.00    -0.648 OA
ENDBRANCH  12  13
ENDBRANCH   6  12
ENDBRANCH   5   6
ENDBRANCH   3   5
BRANCH   1  16
ATOM     16  O10 ZIN A   1      19.149   0.929  12.521  0.00  0.00    -0.272 OA
BRANCH  16  17
ATOM     17  C7  ZIN A   1      19.185   0.953  13.973  0.00  0.00     0.276 C 
ATOM     18  C9  ZIN A   1      18.781   2.343  14.470  0.00  0.00     0.072 C 
BRANCH  17  19
ATOM     19  O6  ZIN A   1      18.259  -0.036  14.497  0.00  0.00    -0.289 OA
BRANCH  19  20
ATOM     20  C4  ZIN A   1      18.761  -0.952  15.341  0.00  0.00     0.264 C 
ATOM     21  O5  ZIN A   1      19.649  -1.686  14.978  0.00  0.00    -0.265 OA
BRANCH  20  22
ATOM     22  C2  ZIN A   1      18.217  -1.062  16.742  0.00  0.00     0.077 C 
ATOM     23  C1  ZIN A   1      19.229  -0.480  17.730  0.00  0.00     0.020 C 
ATOM     24  C3  ZIN A   1      16.902  -0.286  16.841  0.00  0.00     0.020 C 
ENDBRANCH  20  22
ENDBRANCH  19  20
ENDBRANCH  17  19
ENDBRANCH  16  17
ENDBRANCH   1  16
TORSDOF 9
ENDMDL
MODEL 7
REMARK VINA RESULT:      -6.2      1.656      5.527
REMARK  9 active torsions:
REMARK  status: ('A' for Active; 'I' for Inactive)
REMARK    1  A    between atoms: C2_2  and  C4_4 
REMARK    2  A    between atoms: C4_4  and  O6_6 
REMARK    3  A    between atoms: O6_6  and  C7_7 
REMARK    4  A    between atoms: C7_7  and  O10_9 
REMARK    5  A    between atoms: O10_9  and  C11_10 
REMARK       I    between atoms: C11_10  and  N13_12 
REMARK    6  A    between atoms: N13_12  and  C14_13 
REMARK    7  A    between atoms: C14_13  and  C15_14 
REMARK    8  A    between atoms: C15_14  and  C16_15 
REMARK    9  A    between atoms: C16_15  and  C17_16 
ROOT
ATOM      1  C11 ZIN A   1      18.430   3.973  13.922  0.00  0.00     0.362 C 
ATOM      2  O12 ZIN A   1      19.092   4.396  14.849  0.00  0.00    -0.238 OA
ATOM      3  N13 ZIN A   1      18.002   2.695  13.928  0.00  0.00    -0.336 N 
ATOM      4  H35 ZIN A   1      17.473   2.357  13.189  0.00  0.00     0.164 HD
ENDROOT
BRANCH   3   5
ATOM      5  C14 ZIN A   1      18.335   1.816  15.052  0.00  0.00     0.135 C 
BRANCH   5   6
ATOM      6  C15 ZIN A   1      18.285   0.358  14.592  0.00  0.00    -0.015 C 
ATOM      7  C24 ZIN A   1      19.708  -0.145  14.337  0.00  0.00     0.012 C 
ATOM      8  C23 ZIN A   1      19.658  -1.604  13.878  0.00  0.00     0.001 C 
ATOM      9  C22 ZIN A   1      18.843  -1.703  12.587  0.00  0.00     0.000 C 
ATOM     10  C21 ZIN A   1      17.420  -1.201  12.841  0.00  0.00     0.001 C 
ATOM     11  C20 ZIN A   1      17.470   0.258  13.301  0.00  0.00     0.012 C 
BRANCH   6  12
ATOM     12  C16 ZIN A   1      17.629  -0.497  15.677  0.00  0.00     0.124 C 
BRANCH  12  13
ATOM     13  C17 ZIN A   1      18.123  -0.057  17.031  0.00  0.00     0.173 C 
ATOM     14  O18 ZIN A   1      17.450   0.698  17.710  0.00  0.00    -0.648 OA
ATOM     15  O19 ZIN A   1      19.198  -0.456  17.446  0.00  0.00    -0.648 OA
ENDBRANCH  12  13
ENDBRANCH   6  12
ENDBRANCH   5   6
ENDBRANCH   3   5
BRANCH   1  16
ATOM     16  O10 ZIN A   1      18.124   4.780  12.889  0.00  0.00    -0.272 OA
BRANCH  16  17
ATOM     17  C7  ZIN A   1      17.791   4.141  11.629  0.00  0.00     0.276 C 
ATOM     18  C9  ZIN A   1      17.022   5.127  10.745  0.00  0.00     0.072 C 
BRANCH  17  19
ATOM     19  O6  ZIN A   1      19.011   3.737  10.953  0.00  0.00    -0.289 OA
BRANCH  19  20
ATOM     20  C4  ZIN A   1      19.111   2.445  10.599  0.00  0.00     0.264 C 
ATOM     21  O5  ZIN A   1      19.745   1.678  11.283  0.00  0.00    -0.265 OA
BRANCH  20  22
ATOM     22  C2  ZIN A   1      18.430   1.953   9.349  0.00  0.00     0.077 C 
ATOM     23  C1  ZIN A   1      19.479   1.686   8.267  0.00  0.00     0.020 C 
ATOM     24  C3  ZIN A   1      17.674   0.658   9.655  0.00  0.00     0.020 C 
ENDBRANCH  20  22
ENDBRANCH  19  20
ENDBRANCH  17  19
ENDBRANCH  16  17
ENDBRANCH   1  16
TORSDOF 9
ENDMDL
MODEL 8
REMARK VINA RESULT:      -6.2      4.804      8.602
REMARK  9 active torsions:
REMARK  status: ('A' for Active; 'I' for Inactive)
REMARK    1  A    between atoms: C2_2  and  C4_4 
REMARK    2  A    between atoms: C4_4  and  O6_6 
REMARK    3  A    between atoms: O6_6  and  C7_7 
REMARK    4  A    between atoms: C7_7  and  O10_9 
REMARK    5  A    between atoms: O10_9  and  C11_10 
REMARK       I    between atoms: C11_10  and  N13_12 
REMARK    6  A    between atoms: N13_12  and  C14_13 
REMARK    7  A    between atoms: C14_13  and  C15_14 
REMARK    8  A    between atoms: C15_14  and  C16_15 
REMARK    9  A    between atoms: C16_15  and  C17_16 
ROOT
ATOM      1  C11 ZIN A   1      19.274  -3.477  10.443  0.00  0.00     0.362 C 
ATOM      2  O12 ZIN A   1      18.450  -3.509  11.335  0.00  0.00    -0.238 OA
ATOM      3  N13 ZIN A   1      19.849  -2.308  10.100  0.00  0.00    -0.336 N 
ATOM      4  H35 ZIN A   1      20.508  -2.283   9.387  0.00  0.00     0.164 HD
ENDROOT
BRANCH   3   5
ATOM      5  C14 ZIN A   1      19.482  -1.076  10.801  0.00  0.00     0.135 C 
BRANCH   5   6
ATOM      6  C15 ZIN A   1      18.892  -0.077   9.804  0.00  0.00    -0.015 C 
ATOM      7  C24 ZIN A   1      19.354  -0.436   8.390  0.00  0.00     0.012 C 
ATOM      8  C23 ZIN A   1      18.764   0.562   7.392  0.00  0.00     0.001 C 
ATOM      9  C22 ZIN A   1      19.240   1.973   7.741  0.00  0.00     0.000 C 
ATOM     10  C21 ZIN A   1      18.778   2.333   9.155  0.00  0.00     0.001 C 
ATOM     11  C20 ZIN A   1      19.368   1.334  10.153  0.00  0.00     0.012 C 
BRANCH   6  12
ATOM     12  C16 ZIN A   1      17.365  -0.132   9.871  0.00  0.00     0.124 C 
BRANCH  12  13
ATOM     13  C17 ZIN A   1      16.919   0.000  11.304  0.00  0.00     0.173 C 
ATOM     14  O18 ZIN A   1      16.910   1.094  11.841  0.00  0.00    -0.648 OA
ATOM     15  O19 ZIN A   1      16.568  -0.988  11.927  0.00  0.00    -0.648 OA
ENDBRANCH  12  13
ENDBRANCH   6  12
ENDBRANCH   5   6
ENDBRANCH   3   5
BRANCH   1  16
ATOM     16  O10 ZIN A   1      19.612  -4.609   9.798  0.00  0.00    -0.272 OA
BRANCH  16  17
ATOM     17  C7  ZIN A   1      18.944  -4.874   8.536  0.00  0.00     0.276 C 
ATOM     18  C9  ZIN A   1      17.608  -5.572   8.804  0.00  0.00     0.072 C 
BRANCH  17  19
ATOM     19  O6  ZIN A   1      18.704  -3.621   7.843  0.00  0.00    -0.289 OA
BRANCH  19  20
ATOM     20  C4  ZIN A   1      19.221  -3.500   6.609  0.00  0.00     0.264 C 
ATOM     21  O5  ZIN A   1      20.389  -3.739   6.417  0.00  0.00    -0.265 OA
BRANCH  20  22
ATOM     22  C2  ZIN A   1      18.343  -3.066   5.464  0.00  0.00     0.077 C 
ATOM     23  C1  ZIN A   1      19.059  -1.986   4.652  0.00  0.00     0.020 C 
ATOM     24  C3  ZIN A   1      18.047  -4.268   4.565  0.00  0.00     0.020 C 
ENDBRANCH  20  22
ENDBRANCH  19  20
ENDBRANCH  17  19
ENDBRANCH  16  17
ENDBRANCH   1  16
TORSDOF 9
ENDMDL
MODEL 9
REMARK VINA RESULT:      -6.2      4.168      6.501
REMARK  9 active torsions:
REMARK  status: ('A' for Active; 'I' for Inactive)
REMARK    1  A    between atoms: C2_2  and  C4_4 
REMARK    2  A    between atoms: C4_4  and  O6_6 
REMARK    3  A    between atoms: O6_6  and  C7_7 
REMARK    4  A    between atoms: C7_7  and  O10_9 
REMARK    5  A    between atoms: O10_9  and  C11_10 
REMARK       I    between atoms: C11_10  and  N13_12 
REMARK    6  A    between atoms: N13_12  and  C14_13 
REMARK    7  A    between atoms: C14_13  and  C15_14 
REMARK    8  A    between atoms: C15_14  and  C16_15 
REMARK    9  A    between atoms: C16_15  and  C17_16 
ROOT
ATOM      1  C11 ZIN A   1      19.074  -0.426   8.139  0.00  0.00     0.362 C 
ATOM      2  O12 ZIN A   1      18.054  -0.249   7.503  0.00  0.00    -0.238 OA
ATOM      3  N13 ZIN A   1      19.454  -1.676   8.469  0.00  0.00    -0.336 N 
ATOM      4  H35 ZIN A   1      20.269  -1.816   8.977  0.00  0.00     0.164 HD
ENDROOT
BRANCH   3   5
ATOM      5  C14 ZIN A   1      18.639  -2.822   8.060  0.00  0.00     0.135 C 
BRANCH   5   6
ATOM      6  C15 ZIN A   1      18.738  -3.922   9.119  0.00  0.00    -0.015 C 
ATOM      7  C24 ZIN A   1      17.357  -4.542   9.339  0.00  0.00     0.012 C 
ATOM      8  C23 ZIN A   1      17.456  -5.644  10.397  0.00  0.00     0.001 C 
ATOM      9  C22 ZIN A   1      17.962  -5.044  11.711  0.00  0.00     0.000 C 
ATOM     10  C21 ZIN A   1      19.343  -4.424  11.490  0.00  0.00     0.001 C 
ATOM     11  C20 ZIN A   1      19.245  -3.323  10.432  0.00  0.00     0.012 C 
BRANCH   6  12
ATOM     12  C16 ZIN A   1      19.712  -5.002   8.641  0.00  0.00     0.124 C 
BRANCH  12  13
ATOM     13  C17 ZIN A   1      19.832  -4.942   7.141  0.00  0.00     0.173 C 
ATOM     14  O18 ZIN A   1      20.590  -4.141   6.622  0.00  0.00    -0.648 OA
ATOM     15  O19 ZIN A   1      19.170  -5.693   6.445  0.00  0.00    -0.648 OA
ENDBRANCH  12  13
ENDBRANCH   6  12
ENDBRANCH   5   6
ENDBRANCH   3   5
BRANCH   1  16
ATOM     16  O10 ZIN A   1      19.824   0.627   8.515  0.00  0.00    -0.272 OA
BRANCH  16  17
ATOM     17  C7  ZIN A   1      19.536   1.213   9.813  0.00  0.00     0.276 C 
ATOM     18  C9  ZIN A   1      18.584   2.398   9.637  0.00  0.00     0.072 C 
BRANCH  17  19
ATOM     19  O6  ZIN A   1      18.915   0.216  10.667  0.00  0.00    -0.289 OA
BRANCH  19  20
ATOM     20  C4  ZIN A   1      19.430   0.063  11.897  0.00  0.00     0.264 C 
ATOM     21  O5  ZIN A   1      20.588   0.337  12.106  0.00  0.00    -0.265 OA
BRANCH  20  22
ATOM     22  C2  ZIN A   1      18.564  -0.451  13.018  0.00  0.00     0.077 C 
ATOM     23  C1  ZIN A   1      17.308  -1.101  12.436  0.00  0.00     0.020 C 
ATOM     24  C3  ZIN A   1      19.343  -1.486  13.831  0.00  0.00     0.020 C 
ENDBRANCH  20  22
ENDBRANCH  19  20
ENDBRANCH  17  19
ENDBRANCH  16  17
ENDBRANCH   1  16
TORSDOF 9
ENDMDL
