MODEL 1
REMARK VINA RESULT:      -8.5      0.000      0.000
REMARK  20 active torsions:
REMARK  status: ('A' for Active; 'I' for Inactive)
REMARK    1  A    between atoms: C2_2  and  C4_4 
REMARK    2  A    between atoms: C4_4  and  C5_5 
REMARK    3  A    between atoms: C5_5  and  N7_6 
REMARK    4  A    between atoms: C5_5  and  C30_28 
REMARK       I    between atoms: N7_6  and  C8_7 
REMARK    5  A    between atoms: C8_7  and  C10_9 
REMARK    6  A    between atoms: C10_9  and  C12_10 
REMARK    7  A    between atoms: C10_9  and  N20_18 
REMARK    8  A    between atoms: C12_10  and  C13_11 
REMARK    9  A    between atoms: C13_11  and  C14_12 
REMARK       I    between atoms: N20_18  and  C21_19 
REMARK   10  A    between atoms: C21_19  and  C23_21 
REMARK   11  A    between atoms: C23_21  and  N24_22 
REMARK       I    between atoms: C30_28  and  N32_30 
REMARK   12  A    between atoms: N32_30  and  C33_31 
REMARK   13  A    between atoms: C33_31  and  C35_32 
REMARK   14  A    between atoms: C33_31  and  C42_39 
REMARK   15  A    between atoms: C35_32  and  C36_33 
REMARK       I    between atoms: C42_39  and  N44_41 
REMARK   16  A    between atoms: N44_41  and  C45_42 
REMARK   17  A    between atoms: C45_42  and  C47_43 
REMARK   18  A    between atoms: C45_42  and  C51_47 
REMARK   19  A    between atoms: C47_43  and  C48_44 
REMARK   20  A    between atoms: C51_47  and  C53_49 
ROOT
ATOM      1  C5  ZIN A   1      18.614   1.216  15.801  0.00  0.00     0.177 C 
ENDROOT
BRANCH   1   2
ATOM      2  C4  ZIN A   1      17.534   0.439  16.556  0.00  0.00     0.038 C 
BRANCH   2   3
ATOM      3  C2  ZIN A   1      18.195  -0.493  17.574  0.00  0.00    -0.020 C 
ATOM      4  C1  ZIN A   1      18.722  -1.738  16.856  0.00  0.00     0.009 C 
ATOM      5  C3  ZIN A   1      19.357   0.233  18.252  0.00  0.00     0.009 C 
ENDBRANCH   2   3
ENDBRANCH   1   2
BRANCH   1   6
ATOM      6  N7  ZIN A   1      18.156   2.588  15.568  0.00  0.00    -0.346 N 
ATOM      7  C8  ZIN A   1      18.881   3.628  16.024  0.00  0.00     0.241 C 
ATOM      8  O9  ZIN A   1      19.913   3.429  16.629  0.00  0.00    -0.271 OA
ATOM      9  H66 ZIN A   1      17.330   2.747  15.084  0.00  0.00     0.163 HD
BRANCH   7  10
ATOM     10  C10 ZIN A   1      18.409   5.039  15.785  0.00  0.00     0.177 C 
BRANCH  10  11
ATOM     11  C12 ZIN A   1      18.535   5.845  17.080  0.00  0.00     0.039 C 
BRANCH  11  12
ATOM     12  C13 ZIN A   1      17.449   5.402  18.063  0.00  0.00     0.041 C 
BRANCH  12  13
ATOM     13  C14 ZIN A   1      16.826   6.616  18.703  0.00  0.00    -0.058 A 
ATOM     14  C19 ZIN A   1      15.846   6.464  19.665  0.00  0.00     0.007 A 
ATOM     15  C18 ZIN A   1      15.277   7.577  20.255  0.00  0.00     0.001 A 
ATOM     16  C17 ZIN A   1      15.684   8.844  19.876  0.00  0.00     0.000 A 
ATOM     17  C16 ZIN A   1      16.661   8.996  18.910  0.00  0.00     0.001 A 
ATOM     18  C15 ZIN A   1      17.232   7.882  18.323  0.00  0.00     0.007 A 
ENDBRANCH  12  13
ENDBRANCH  11  12
ENDBRANCH  10  11
BRANCH  10  19
ATOM     19  N20 ZIN A   1      17.008   5.020  15.357  0.00  0.00    -0.346 N 
ATOM     20  C21 ZIN A   1      16.564   5.926  14.464  0.00  0.00     0.246 C 
ATOM     21  O22 ZIN A   1      17.324   6.757  14.014  0.00  0.00    -0.272 OA
ATOM     22  H76 ZIN A   1      16.399   4.355  15.716  0.00  0.00     0.163 HD
BRANCH  20  23
ATOM     23  C23 ZIN A   1      15.123   5.906  14.022  0.00  0.00     0.374 C 
BRANCH  23  24
ATOM     24  N24 ZIN A   1      14.258   6.248  15.159  0.00  0.00     0.101 N 
ATOM     25  C29 ZIN A   1      14.531   7.612  15.636  0.00  0.00     0.299 C 
ATOM     26  C28 ZIN A   1      13.652   7.905  16.855  0.00  0.00     0.198 C 
ATOM     27  O27 ZIN A   1      12.278   7.720  16.502  0.00  0.00    -0.388 OA
ATOM     28  C26 ZIN A   1      11.977   6.403  16.033  0.00  0.00     0.198 C 
ATOM     29  C25 ZIN A   1      12.839   6.094  14.806  0.00  0.00     0.299 C 
ENDBRANCH  23  24
ENDBRANCH  20  23
ENDBRANCH  10  19
ENDBRANCH   7  10
ENDBRANCH   1   6
BRANCH   1  30
ATOM     30  C30 ZIN A   1      18.885   0.546  14.478  0.00  0.00     0.241 C 
ATOM     31  O31 ZIN A   1      20.009   0.532  14.024  0.00  0.00    -0.271 OA
ATOM     32  N32 ZIN A   1      17.876  -0.038  13.801  0.00  0.00    -0.346 N 
ATOM     33  H87 ZIN A   1      16.977  -0.028  14.165  0.00  0.00     0.163 HD
BRANCH  32  34
ATOM     34  C33 ZIN A   1      18.138  -0.689  12.515  0.00  0.00     0.180 C 
BRANCH  34  35
ATOM     35  C35 ZIN A   1      17.379  -2.016  12.451  0.00  0.00     0.073 C 
BRANCH  35  36
ATOM     36  C36 ZIN A   1      18.227  -3.048  11.752  0.00  0.00    -0.056 A 
ATOM     37  C41 ZIN A   1      19.589  -3.094  11.981  0.00  0.00     0.007 A 
ATOM     38  C40 ZIN A   1      20.365  -4.043  11.342  0.00  0.00     0.001 A 
ATOM     39  C39 ZIN A   1      19.780  -4.939  10.467  0.00  0.00     0.000 A 
ATOM     40  C38 ZIN A   1      18.419  -4.890  10.234  0.00  0.00     0.001 A 
ATOM     41  C37 ZIN A   1      17.642  -3.944  10.876  0.00  0.00     0.007 A 
ENDBRANCH  35  36
ENDBRANCH  34  35
BRANCH  34  42
ATOM     42  C42 ZIN A   1      17.678   0.207  11.394  0.00  0.00     0.241 C 
ATOM     43  O43 ZIN A   1      16.496   0.421  11.236  0.00  0.00    -0.271 OA
ATOM     44  N44 ZIN A   1      18.582   0.771  10.569  0.00  0.00    -0.348 N 
ATOM     45  H95 ZIN A   1      19.522   0.546  10.652  0.00  0.00     0.163 HD
BRANCH  44  46
ATOM     46  C45 ZIN A   1      18.146   1.726   9.547  0.00  0.00     0.158 C 
BRANCH  46  47
ATOM     47  C47 ZIN A   1      18.672   3.120   9.893  0.00  0.00     0.037 C 
BRANCH  47  48
ATOM     48  C48 ZIN A   1      17.885   3.682  11.078  0.00  0.00    -0.020 C 
ATOM     49  C49 ZIN A   1      18.851   4.038  12.210  0.00  0.00     0.009 C 
ATOM     50  C50 ZIN A   1      17.130   4.939  10.639  0.00  0.00     0.009 C 
ENDBRANCH  47  48
ENDBRANCH  46  47
BRANCH  46  51
ATOM     51  C51 ZIN A   1      18.683   1.304   8.204  0.00  0.00     0.185 C 
ATOM     52  O52 ZIN A   1      19.670   1.836   7.755  0.00  0.00    -0.292 OA
BRANCH  51  53
ATOM     53  C53 ZIN A   1      17.988   0.221   7.420  0.00  0.00     0.141 A 
ATOM     54  O56 ZIN A   1      16.975  -0.537   8.085  0.00  0.00    -0.367 OA
ATOM     55  C55 ZIN A   1      18.205  -1.228   7.860  0.00  0.00     0.215 A 
ATOM     56  C54 ZIN A   1      17.807   0.495   5.925  0.00  0.00     0.057 C 
ENDBRANCH  51  53
ENDBRANCH  46  51
ENDBRANCH  44  46
ENDBRANCH  34  42
ENDBRANCH  32  34
ENDBRANCH   1  30
TORSDOF 20
ENDMDL
MODEL 2
REMARK VINA RESULT:      -8.4      1.773      4.955
REMARK  20 active torsions:
REMARK  status: ('A' for Active; 'I' for Inactive)
REMARK    1  A    between atoms: C2_2  and  C4_4 
REMARK    2  A    between atoms: C4_4  and  C5_5 
REMARK    3  A    between atoms: C5_5  and  N7_6 
REMARK    4  A    between atoms: C5_5  and  C30_28 
REMARK       I    between atoms: N7_6  and  C8_7 
REMARK    5  A    between atoms: C8_7  and  C10_9 
REMARK    6  A    between atoms: C10_9  and  C12_10 
REMARK    7  A    between atoms: C10_9  and  N20_18 
REMARK    8  A    between atoms: C12_10  and  C13_11 
REMARK    9  A    between atoms: C13_11  and  C14_12 
REMARK       I    between atoms: N20_18  and  C21_19 
REMARK   10  A    between atoms: C21_19  and  C23_21 
REMARK   11  A    between atoms: C23_21  and  N24_22 
REMARK       I    between atoms: C30_28  and  N32_30 
REMARK   12  A    between atoms: N32_30  and  C33_31 
REMARK   13  A    between atoms: C33_31  and  C35_32 
REMARK   14  A    between atoms: C33_31  and  C42_39 
REMARK   15  A    between atoms: C35_32  and  C36_33 
REMARK       I    between atoms: C42_39  and  N44_41 
REMARK   16  A    between atoms: N44_41  and  C45_42 
REMARK   17  A    between atoms: C45_42  and  C47_43 
REMARK   18  A    between atoms: C45_42  and  C51_47 
REMARK   19  A    between atoms: C47_43  and  C48_44 
REMARK   20  A    between atoms: C51_47  and  C53_49 
ROOT
ATOM      1  C5  ZIN A   1      18.574   3.160  12.746  0.00  0.00     0.177 C 
ENDROOT
BRANCH   1   2
ATOM      2  C4  ZIN A   1      19.208   4.104  11.723  0.00  0.00     0.038 C 
BRANCH   2   3
ATOM      3  C2  ZIN A   1      18.120   4.665  10.804  0.00  0.00    -0.020 C 
ATOM      4  C1  ZIN A   1      18.128   3.898   9.479  0.00  0.00     0.009 C 
ATOM      5  C3  ZIN A   1      16.755   4.508  11.475  0.00  0.00     0.009 C 
ENDBRANCH   2   3
ENDBRANCH   1   2
BRANCH   1   6
ATOM      6  N7  ZIN A   1      19.134   3.430  14.073  0.00  0.00    -0.346 N 
ATOM      7  C8  ZIN A   1      18.400   4.083  14.994  0.00  0.00     0.241 C 
ATOM      8  O9  ZIN A   1      17.274   4.448  14.726  0.00  0.00    -0.271 OA
ATOM      9  H66 ZIN A   1      20.034   3.138  14.287  0.00  0.00     0.163 HD
BRANCH   7  10
ATOM     10  C10 ZIN A   1      18.976   4.362  16.359  0.00  0.00     0.177 C 
BRANCH  10  11
ATOM     11  C12 ZIN A   1      19.596   3.081  16.921  0.00  0.00     0.039 C 
BRANCH  11  12
ATOM     12  C13 ZIN A   1      18.525   2.281  17.665  0.00  0.00     0.041 C 
BRANCH  12  13
ATOM     13  C14 ZIN A   1      18.481   0.875  17.123  0.00  0.00    -0.058 A 
ATOM     14  C19 ZIN A   1      19.156  -0.140  17.775  0.00  0.00     0.007 A 
ATOM     15  C18 ZIN A   1      19.112  -1.429  17.280  0.00  0.00     0.001 A 
ATOM     16  C17 ZIN A   1      18.399  -1.703  16.126  0.00  0.00     0.000 A 
ATOM     17  C16 ZIN A   1      17.728  -0.687  15.471  0.00  0.00     0.001 A 
ATOM     18  C15 ZIN A   1      17.769   0.602  15.969  0.00  0.00     0.007 A 
ENDBRANCH  12  13
ENDBRANCH  11  12
ENDBRANCH  10  11
BRANCH  10  19
ATOM     19  N20 ZIN A   1      17.912   4.822  17.254  0.00  0.00    -0.346 N 
ATOM     20  C21 ZIN A   1      17.848   6.120  17.612  0.00  0.00     0.246 C 
ATOM     21  O22 ZIN A   1      18.670   6.906  17.193  0.00  0.00    -0.272 OA
ATOM     22  H76 ZIN A   1      17.253   4.193  17.589  0.00  0.00     0.163 HD
BRANCH  20  23
ATOM     23  C23 ZIN A   1      16.752   6.594  18.532  0.00  0.00     0.374 C 
BRANCH  23  24
ATOM     24  N24 ZIN A   1      15.610   7.060  17.734  0.00  0.00     0.101 N 
ATOM     25  C29 ZIN A   1      14.500   6.098  17.792  0.00  0.00     0.299 C 
ATOM     26  C28 ZIN A   1      13.357   6.592  16.903  0.00  0.00     0.198 C 
ATOM     27  O27 ZIN A   1      12.961   7.899  17.326  0.00  0.00    -0.388 OA
ATOM     28  C26 ZIN A   1      14.017   8.863  17.282  0.00  0.00     0.198 C 
ATOM     29  C25 ZIN A   1      15.167   8.391  18.176  0.00  0.00     0.299 C 
ENDBRANCH  23  24
ENDBRANCH  20  23
ENDBRANCH  10  19
ENDBRANCH   7  10
ENDBRANCH   1   6
BRANCH   1  30
ATOM     30  C30 ZIN A   1      18.864   1.732  12.360  0.00  0.00     0.241 C 
ATOM     31  O31 ZIN A   1      19.785   1.139  12.879  0.00  0.00    -0.271 OA
ATOM     32  N32 ZIN A   1      18.098   1.116  11.438  0.00  0.00    -0.346 N 
ATOM     33  H87 ZIN A   1      17.360   1.591  11.024  0.00  0.00     0.163 HD
BRANCH  32  34
ATOM     34  C33 ZIN A   1      18.379  -0.272  11.061  0.00  0.00     0.180 C 
BRANCH  34  35
ATOM     35  C35 ZIN A   1      17.554  -1.216  11.939  0.00  0.00     0.073 C 
BRANCH  35  36
ATOM     36  C36 ZIN A   1      18.101  -2.615  11.826  0.00  0.00    -0.056 A 
ATOM     37  C41 ZIN A   1      19.466  -2.821  11.764  0.00  0.00     0.007 A 
ATOM     38  C40 ZIN A   1      19.968  -4.105  11.665  0.00  0.00     0.001 A 
ATOM     39  C39 ZIN A   1      19.103  -5.183  11.619  0.00  0.00     0.000 A 
ATOM     40  C38 ZIN A   1      17.738  -4.977  11.675  0.00  0.00     0.001 A 
ATOM     41  C37 ZIN A   1      17.236  -3.693  11.779  0.00  0.00     0.007 A 
ENDBRANCH  35  36
ENDBRANCH  34  35
BRANCH  34  42
ATOM     42  C42 ZIN A   1      18.016  -0.484   9.615  0.00  0.00     0.241 C 
ATOM     43  O43 ZIN A   1      16.979  -0.031   9.178  0.00  0.00    -0.271 OA
ATOM     44  N44 ZIN A   1      18.842  -1.176   8.807  0.00  0.00    -0.348 N 
ATOM     45  H95 ZIN A   1      19.637  -1.597   9.171  0.00  0.00     0.163 HD
BRANCH  44  46
ATOM     46  C45 ZIN A   1      18.543  -1.292   7.378  0.00  0.00     0.158 C 
BRANCH  46  47
ATOM     47  C47 ZIN A   1      19.195  -0.132   6.623  0.00  0.00     0.037 C 
BRANCH  47  48
ATOM     48  C48 ZIN A   1      18.209   0.425   5.595  0.00  0.00    -0.020 C 
ATOM     49  C49 ZIN A   1      18.674   0.052   4.186  0.00  0.00     0.009 C 
ATOM     50  C50 ZIN A   1      16.820  -0.166   5.847  0.00  0.00     0.009 C 
ENDBRANCH  47  48
ENDBRANCH  46  47
BRANCH  46  51
ATOM     51  C51 ZIN A   1      19.083  -2.599   6.855  0.00  0.00     0.185 C 
ATOM     52  O52 ZIN A   1      20.142  -2.625   6.276  0.00  0.00    -0.292 OA
BRANCH  51  53
ATOM     53  C53 ZIN A   1      18.300  -3.871   7.054  0.00  0.00     0.141 A 
ATOM     54  O56 ZIN A   1      17.634  -4.055   8.305  0.00  0.00    -0.367 OA
ATOM     55  C55 ZIN A   1      18.801  -4.857   8.112  0.00  0.00     0.215 A 
ATOM     56  C54 ZIN A   1      17.635  -4.444   5.801  0.00  0.00     0.057 C 
ENDBRANCH  51  53
ENDBRANCH  46  51
ENDBRANCH  44  46
ENDBRANCH  34  42
ENDBRANCH  32  34
ENDBRANCH   1  30
TORSDOF 20
ENDMDL
MODEL 3
REMARK VINA RESULT:      -8.3      1.801      5.120
REMARK  20 active torsions:
REMARK  status: ('A' for Active; 'I' for Inactive)
REMARK    1  A    between atoms: C2_2  and  C4_4 
REMARK    2  A    between atoms: C4_4  and  C5_5 
REMARK    3  A    between atoms: C5_5  and  N7_6 
REMARK    4  A    between atoms: C5_5  and  C30_28 
REMARK       I    between atoms: N7_6  and  C8_7 
REMARK    5  A    between atoms: C8_7  and  C10_9 
REMARK    6  A    between atoms: C10_9  and  C12_10 
REMARK    7  A    between atoms: C10_9  and  N20_18 
REMARK    8  A    between atoms: C12_10  and  C13_11 
REMARK    9  A    between atoms: C13_11  and  C14_12 
REMARK       I    between atoms: N20_18  and  C21_19 
REMARK   10  A    between atoms: C21_19  and  C23_21 
REMARK   11  A    between atoms: C23_21  and  N24_22 
REMARK       I    between atoms: C30_28  and  N32_30 
REMARK   12  A    between atoms: N32_30  and  C33_31 
REMARK   13  A    between atoms: C33_31  and  C35_32 
REMARK   14  A    between atoms: C33_31  and  C42_39 
REMARK   15  A    between atoms: C35_32  and  C36_33 
REMARK       I    between atoms: C42_39  and  N44_41 
REMARK   16  A    between atoms: N44_41  and  C45_42 
REMARK   17  A    between atoms: C45_42  and  C47_43 
REMARK   18  A    between atoms: C45_42  and  C51_47 
REMARK   19  A    between atoms: C47_43  and  C48_44 
REMARK   20  A    between atoms: C51_47  and  C53_49 
ROOT
ATOM      1  C5  ZIN A   1      18.693   2.974  12.510  0.00  0.00     0.177 C 
ENDROOT
BRANCH   1   2
ATOM      2  C4  ZIN A   1      19.130   3.758  11.271  0.00  0.00     0.038 C 
BRANCH   2   3
ATOM      3  C2  ZIN A   1      18.015   3.714  10.222  0.00  0.00    -0.020 C 
ATOM      4  C1  ZIN A   1      17.497   5.132   9.972  0.00  0.00     0.009 C 
ATOM      5  C3  ZIN A   1      18.564   3.135   8.918  0.00  0.00     0.009 C 
ENDBRANCH   2   3
ENDBRANCH   1   2
BRANCH   1   6
ATOM      6  N7  ZIN A   1      19.330   3.546  13.699  0.00  0.00    -0.346 N 
ATOM      7  C8  ZIN A   1      18.592   4.230  14.595  0.00  0.00     0.241 C 
ATOM      8  O9  ZIN A   1      17.400   4.374  14.416  0.00  0.00    -0.271 OA
ATOM      9  H66 ZIN A   1      20.282   3.431  13.841  0.00  0.00     0.163 HD
BRANCH   7  10
ATOM     10  C10 ZIN A   1      19.247   4.820  15.818  0.00  0.00     0.177 C 
BRANCH  10  11
ATOM     11  C12 ZIN A   1      19.846   3.696  16.666  0.00  0.00     0.039 C 
BRANCH  11  12
ATOM     12  C13 ZIN A   1      18.732   3.007  17.458  0.00  0.00     0.041 C 
BRANCH  12  13
ATOM     13  C14 ZIN A   1      18.792   1.520  17.218  0.00  0.00    -0.058 A 
ATOM     14  C19 ZIN A   1      19.220   0.674  18.223  0.00  0.00     0.007 A 
ATOM     15  C18 ZIN A   1      19.270  -0.690  18.005  0.00  0.00     0.001 A 
ATOM     16  C17 ZIN A   1      18.901  -1.207  16.776  0.00  0.00     0.000 A 
ATOM     17  C16 ZIN A   1      18.478  -0.360  15.769  0.00  0.00     0.001 A 
ATOM     18  C15 ZIN A   1      18.424   1.003  15.989  0.00  0.00     0.007 A 
ENDBRANCH  12  13
ENDBRANCH  11  12
ENDBRANCH  10  11
BRANCH  10  19
ATOM     19  N20 ZIN A   1      18.247   5.546  16.605  0.00  0.00    -0.346 N 
ATOM     20  C21 ZIN A   1      18.169   6.888  16.521  0.00  0.00     0.246 C 
ATOM     21  O22 ZIN A   1      18.927   7.496  15.795  0.00  0.00    -0.272 OA
ATOM     22  H76 ZIN A   1      17.641   5.060  17.186  0.00  0.00     0.163 HD
BRANCH  20  23
ATOM     23  C23 ZIN A   1      17.140   7.635  17.330  0.00  0.00     0.374 C 
BRANCH  23  24
ATOM     24  N24 ZIN A   1      15.861   6.915  17.281  0.00  0.00     0.101 N 
ATOM     25  C29 ZIN A   1      15.061   7.180  18.486  0.00  0.00     0.299 C 
ATOM     26  C28 ZIN A   1      13.767   6.366  18.421  0.00  0.00     0.198 C 
ATOM     27  O27 ZIN A   1      13.062   6.695  17.221  0.00  0.00    -0.388 OA
ATOM     28  C26 ZIN A   1      13.811   6.450  16.028  0.00  0.00     0.198 C 
ATOM     29  C25 ZIN A   1      15.106   7.265  16.068  0.00  0.00     0.299 C 
ENDBRANCH  23  24
ENDBRANCH  20  23
ENDBRANCH  10  19
ENDBRANCH   7  10
ENDBRANCH   1   6
BRANCH   1  30
ATOM     30  C30 ZIN A   1      19.107   1.532  12.364  0.00  0.00     0.241 C 
ATOM     31  O31 ZIN A   1      20.111   1.130  12.913  0.00  0.00    -0.271 OA
ATOM     32  N32 ZIN A   1      18.361   0.689  11.621  0.00  0.00    -0.346 N 
ATOM     33  H87 ZIN A   1      17.558   1.010  11.183  0.00  0.00     0.163 HD
BRANCH  32  34
ATOM     34  C33 ZIN A   1      18.763  -0.713  11.479  0.00  0.00     0.180 C 
BRANCH  34  35
ATOM     35  C35 ZIN A   1      17.589  -1.621  11.853  0.00  0.00     0.073 C 
BRANCH  35  36
ATOM     36  C36 ZIN A   1      17.946  -3.054  11.553  0.00  0.00    -0.056 A 
ATOM     37  C41 ZIN A   1      16.976  -3.928  11.102  0.00  0.00     0.007 A 
ATOM     38  C40 ZIN A   1      17.305  -5.241  10.823  0.00  0.00     0.001 A 
ATOM     39  C39 ZIN A   1      18.602  -5.682  11.005  0.00  0.00     0.000 A 
ATOM     40  C38 ZIN A   1      19.572  -4.809  11.461  0.00  0.00     0.001 A 
ATOM     41  C37 ZIN A   1      19.244  -3.495  11.736  0.00  0.00     0.007 A 
ENDBRANCH  35  36
ENDBRANCH  34  35
BRANCH  34  42
ATOM     42  C42 ZIN A   1      19.167  -0.977  10.051  0.00  0.00     0.241 C 
ATOM     43  O43 ZIN A   1      20.315  -0.800   9.704  0.00  0.00    -0.271 OA
ATOM     44  N44 ZIN A   1      18.252  -1.408   9.161  0.00  0.00    -0.348 N 
ATOM     45  H95 ZIN A   1      17.320  -1.483   9.421  0.00  0.00     0.163 HD
BRANCH  44  46
ATOM     46  C45 ZIN A   1      18.664  -1.766   7.802  0.00  0.00     0.158 C 
BRANCH  46  47
ATOM     47  C47 ZIN A   1      18.207  -3.191   7.488  0.00  0.00     0.037 C 
BRANCH  47  48
ATOM     48  C48 ZIN A   1      19.337  -3.946   6.785  0.00  0.00    -0.020 C 
ATOM     49  C49 ZIN A   1      20.089  -4.805   7.804  0.00  0.00     0.009 C 
ATOM     50  C50 ZIN A   1      18.749  -4.845   5.696  0.00  0.00     0.009 C 
ENDBRANCH  47  48
ENDBRANCH  46  47
BRANCH  46  51
ATOM     51  C51 ZIN A   1      18.039  -0.809   6.819  0.00  0.00     0.185 C 
ATOM     52  O52 ZIN A   1      17.219  -0.007   7.196  0.00  0.00    -0.292 OA
BRANCH  51  53
ATOM     53  C53 ZIN A   1      18.437  -0.855   5.367  0.00  0.00     0.141 A 
ATOM     54  O56 ZIN A   1      19.816  -1.070   5.060  0.00  0.00    -0.367 OA
ATOM     55  C55 ZIN A   1      19.343   0.260   4.840  0.00  0.00     0.215 A 
ATOM     56  C54 ZIN A   1      17.394  -1.438   4.411  0.00  0.00     0.057 C 
ENDBRANCH  51  53
ENDBRANCH  46  51
ENDBRANCH  44  46
ENDBRANCH  34  42
ENDBRANCH  32  34
ENDBRANCH   1  30
TORSDOF 20
ENDMDL
MODEL 4
REMARK VINA RESULT:      -8.0      4.026     11.965
REMARK  20 active torsions:
REMARK  status: ('A' for Active; 'I' for Inactive)
REMARK    1  A    between atoms: C2_2  and  C4_4 
REMARK    2  A    between atoms: C4_4  and  C5_5 
REMARK    3  A    between atoms: C5_5  and  N7_6 
REMARK    4  A    between atoms: C5_5  and  C30_28 
REMARK       I    between atoms: N7_6  and  C8_7 
REMARK    5  A    between atoms: C8_7  and  C10_9 
REMARK    6  A    between atoms: C10_9  and  C12_10 
REMARK    7  A    between atoms: C10_9  and  N20_18 
REMARK    8  A    between atoms: C12_10  and  C13_11 
REMARK    9  A    between atoms: C13_11  and  C14_12 
REMARK       I    between atoms: N20_18  and  C21_19 
REMARK   10  A    between atoms: C21_19  and  C23_21 
REMARK   11  A    between atoms: C23_21  and  N24_22 
REMARK       I    between atoms: C30_28  and  N32_30 
REMARK   12  A    between atoms: N32_30  and  C33_31 
REMARK   13  A    between atoms: C33_31  and  C35_32 
REMARK   14  A    between atoms: C33_31  and  C42_39 
REMARK   15  A    between atoms: C35_32  and  C36_33 
REMARK       I    between atoms: C42_39  and  N44_41 
REMARK   16  A    between atoms: N44_41  and  C45_42 
REMARK   17  A    between atoms: C45_42  and  C47_43 
REMARK   18  A    between atoms: C45_42  and  C51_47 
REMARK   19  A    between atoms: C47_43  and  C48_44 
REMARK   20  A    between atoms: C51_47  and  C53_49 
ROOT
ATOM      1  C5  ZIN A   1      17.902  -0.893   8.729  0.00  0.00     0.177 C 
ENDROOT
BRANCH   1   2
ATOM      2  C4  ZIN A   1      17.030  -0.027   7.817  0.00  0.00     0.038 C 
BRANCH   2   3
ATOM      3  C2  ZIN A   1      17.838   0.388   6.585  0.00  0.00    -0.020 C 
ATOM      4  C1  ZIN A   1      19.316   0.514   6.964  0.00  0.00     0.009 C 
ATOM      5  C3  ZIN A   1      17.681  -0.669   5.491  0.00  0.00     0.009 C 
ENDBRANCH   2   3
ENDBRANCH   1   2
BRANCH   1   6
ATOM      6  N7  ZIN A   1      17.534  -2.301   8.563  0.00  0.00    -0.346 N 
ATOM      7  C8  ZIN A   1      18.470  -3.262   8.689  0.00  0.00     0.241 C 
ATOM      8  O9  ZIN A   1      19.619  -2.961   8.938  0.00  0.00    -0.271 OA
ATOM      9  H66 ZIN A   1      16.616  -2.541   8.364  0.00  0.00     0.163 HD
BRANCH   7  10
ATOM     10  C10 ZIN A   1      18.092  -4.711   8.518  0.00  0.00     0.177 C 
BRANCH  10  11
ATOM     11  C12 ZIN A   1      18.907  -5.318   7.373  0.00  0.00     0.039 C 
BRANCH  11  12
ATOM     12  C13 ZIN A   1      18.688  -4.497   6.101  0.00  0.00     0.041 C 
BRANCH  12  13
ATOM     13  C14 ZIN A   1      18.005  -5.352   5.063  0.00  0.00    -0.058 A 
ATOM     14  C19 ZIN A   1      17.764  -6.688   5.319  0.00  0.00     0.007 A 
ATOM     15  C18 ZIN A   1      17.135  -7.471   4.369  0.00  0.00     0.001 A 
ATOM     16  C17 ZIN A   1      16.754  -6.918   3.160  0.00  0.00     0.000 A 
ATOM     17  C16 ZIN A   1      17.000  -5.582   2.903  0.00  0.00     0.001 A 
ATOM     18  C15 ZIN A   1      17.625  -4.799   3.854  0.00  0.00     0.007 A 
ENDBRANCH  12  13
ENDBRANCH  11  12
ENDBRANCH  10  11
BRANCH  10  19
ATOM     19  N20 ZIN A   1      16.664  -4.809   8.205  0.00  0.00    -0.346 N 
ATOM     20  C21 ZIN A   1      15.970  -5.907   8.565  0.00  0.00     0.246 C 
ATOM     21  O22 ZIN A   1      16.527  -6.814   9.146  0.00  0.00    -0.272 OA
ATOM     22  H76 ZIN A   1      16.218  -4.084   7.740  0.00  0.00     0.163 HD
BRANCH  20  23
ATOM     23  C23 ZIN A   1      14.501  -6.008   8.245  0.00  0.00     0.374 C 
BRANCH  23  24
ATOM     24  N24 ZIN A   1      14.298  -7.006   7.185  0.00  0.00     0.101 N 
ATOM     25  C29 ZIN A   1      13.563  -8.172   7.694  0.00  0.00     0.299 C 
ATOM     26  C28 ZIN A   1      13.426  -9.209   6.576  0.00  0.00     0.198 C 
ATOM     27  O27 ZIN A   1      12.777  -8.608   5.452  0.00  0.00    -0.388 OA
ATOM     28  C26 ZIN A   1      13.466  -7.469   4.931  0.00  0.00     0.198 C 
ATOM     29  C25 ZIN A   1      13.603  -6.414   6.032  0.00  0.00     0.299 C 
ENDBRANCH  23  24
ENDBRANCH  20  23
ENDBRANCH  10  19
ENDBRANCH   7  10
ENDBRANCH   1   6
BRANCH   1  30
ATOM     30  C30 ZIN A   1      17.690  -0.484  10.164  0.00  0.00     0.241 C 
ATOM     31  O31 ZIN A   1      16.641   0.024  10.501  0.00  0.00    -0.271 OA
ATOM     32  N32 ZIN A   1      18.666  -0.682  11.072  0.00  0.00    -0.346 N 
ATOM     33  H87 ZIN A   1      19.504  -1.089  10.802  0.00  0.00     0.163 HD
BRANCH  32  34
ATOM     34  C33 ZIN A   1      18.460  -0.284  12.467  0.00  0.00     0.180 C 
BRANCH  34  35
ATOM     35  C35 ZIN A   1      19.007  -1.372  13.394  0.00  0.00     0.073 C 
BRANCH  35  36
ATOM     36  C36 ZIN A   1      18.630  -1.056  14.819  0.00  0.00    -0.056 A 
ATOM     37  C41 ZIN A   1      17.452  -0.388  15.090  0.00  0.00     0.007 A 
ATOM     38  C40 ZIN A   1      17.104  -0.101  16.397  0.00  0.00     0.001 A 
ATOM     39  C39 ZIN A   1      17.941  -0.476  17.431  0.00  0.00     0.000 A 
ATOM     40  C38 ZIN A   1      19.123  -1.140  17.160  0.00  0.00     0.001 A 
ATOM     41  C37 ZIN A   1      19.468  -1.430  15.854  0.00  0.00     0.007 A 
ENDBRANCH  35  36
ENDBRANCH  34  35
BRANCH  34  42
ATOM     42  C42 ZIN A   1      19.183   1.011  12.732  0.00  0.00     0.241 C 
ATOM     43  O43 ZIN A   1      20.394   1.029  12.791  0.00  0.00    -0.271 OA
ATOM     44  N44 ZIN A   1      18.483   2.150  12.902  0.00  0.00    -0.348 N 
ATOM     45  H95 ZIN A   1      17.514   2.125  12.924  0.00  0.00     0.163 HD
BRANCH  44  46
ATOM     46  C45 ZIN A   1      19.186   3.426  13.054  0.00  0.00     0.158 C 
BRANCH  46  47
ATOM     47  C47 ZIN A   1      19.159   4.185  11.726  0.00  0.00     0.037 C 
BRANCH  47  48
ATOM     48  C48 ZIN A   1      17.935   3.753  10.918  0.00  0.00    -0.020 C 
ATOM     49  C49 ZIN A   1      17.056   4.973  10.629  0.00  0.00     0.009 C 
ATOM     50  C50 ZIN A   1      18.389   3.130   9.597  0.00  0.00     0.009 C 
ENDBRANCH  47  48
ENDBRANCH  46  47
BRANCH  46  51
ATOM     51  C51 ZIN A   1      18.508   4.250  14.118  0.00  0.00     0.185 C 
ATOM     52  O52 ZIN A   1      17.439   3.903  14.560  0.00  0.00    -0.292 OA
BRANCH  51  53
ATOM     53  C53 ZIN A   1      19.163   5.507  14.630  0.00  0.00     0.141 A 
ATOM     54  O56 ZIN A   1      20.561   5.675  14.387  0.00  0.00    -0.367 OA
ATOM     55  C55 ZIN A   1      20.211   5.365  15.737  0.00  0.00     0.215 A 
ATOM     56  C54 ZIN A   1      18.284   6.759  14.635  0.00  0.00     0.057 C 
ENDBRANCH  51  53
ENDBRANCH  46  51
ENDBRANCH  44  46
ENDBRANCH  34  42
ENDBRANCH  32  34
ENDBRANCH   1  30
TORSDOF 20
ENDMDL
MODEL 5
REMARK VINA RESULT:      -7.8      2.006      4.574
REMARK  20 active torsions:
REMARK  status: ('A' for Active; 'I' for Inactive)
REMARK    1  A    between atoms: C2_2  and  C4_4 
REMARK    2  A    between atoms: C4_4  and  C5_5 
REMARK    3  A    between atoms: C5_5  and  N7_6 
REMARK    4  A    between atoms: C5_5  and  C30_28 
REMARK       I    between atoms: N7_6  and  C8_7 
REMARK    5  A    between atoms: C8_7  and  C10_9 
REMARK    6  A    between atoms: C10_9  and  C12_10 
REMARK    7  A    between atoms: C10_9  and  N20_18 
REMARK    8  A    between atoms: C12_10  and  C13_11 
REMARK    9  A    between atoms: C13_11  and  C14_12 
REMARK       I    between atoms: N20_18  and  C21_19 
REMARK   10  A    between atoms: C21_19  and  C23_21 
REMARK   11  A    between atoms: C23_21  and  N24_22 
REMARK       I    between atoms: C30_28  and  N32_30 
REMARK   12  A    between atoms: N32_30  and  C33_31 
REMARK   13  A    between atoms: C33_31  and  C35_32 
REMARK   14  A    between atoms: C33_31  and  C42_39 
REMARK   15  A    between atoms: C35_32  and  C36_33 
REMARK       I    between atoms: C42_39  and  N44_41 
REMARK   16  A    between atoms: N44_41  and  C45_42 
REMARK   17  A    between atoms: C45_42  and  C47_43 
REMARK   18  A    between atoms: C45_42  and  C51_47 
REMARK   19  A    between atoms: C47_43  and  C48_44 
REMARK   20  A    between atoms: C51_47  and  C53_49 
ROOT
ATOM      1  C5  ZIN A   1      17.953   0.905  13.740  0.00  0.00     0.177 C 
ENDROOT
BRANCH   1   2
ATOM      2  C4  ZIN A   1      17.045   0.213  14.758  0.00  0.00     0.038 C 
BRANCH   2   3
ATOM      3  C2  ZIN A   1      17.875  -0.750  15.609  0.00  0.00    -0.020 C 
ATOM      4  C1  ZIN A   1      19.198  -0.082  15.990  0.00  0.00     0.009 C 
ATOM      5  C3  ZIN A   1      17.101  -1.107  16.879  0.00  0.00     0.009 C 
ENDBRANCH   2   3
ENDBRANCH   1   2
BRANCH   1   6
ATOM      6  N7  ZIN A   1      17.790   2.357  13.847  0.00  0.00    -0.346 N 
ATOM      7  C8  ZIN A   1      18.759   3.179  13.399  0.00  0.00     0.241 C 
ATOM      8  O9  ZIN A   1      19.767   2.717  12.908  0.00  0.00    -0.271 OA
ATOM      9  H66 ZIN A   1      16.983   2.726  14.240  0.00  0.00     0.163 HD
BRANCH   7  10
ATOM     10  C10 ZIN A   1      18.591   4.673  13.511  0.00  0.00     0.177 C 
BRANCH  10  11
ATOM     11  C12 ZIN A   1      19.702   5.245  14.394  0.00  0.00     0.039 C 
BRANCH  11  12
ATOM     12  C13 ZIN A   1      19.079   5.995  15.574  0.00  0.00     0.041 C 
BRANCH  12  13
ATOM     13  C14 ZIN A   1      18.820   5.029  16.702  0.00  0.00    -0.058 A 
ATOM     14  C19 ZIN A   1      17.835   5.301  17.632  0.00  0.00     0.007 A 
ATOM     15  C18 ZIN A   1      17.594   4.413  18.664  0.00  0.00     0.001 A 
ATOM     16  C17 ZIN A   1      18.346   3.257  18.770  0.00  0.00     0.000 A 
ATOM     17  C16 ZIN A   1      19.334   2.987  17.842  0.00  0.00     0.001 A 
ATOM     18  C15 ZIN A   1      19.572   3.873  16.808  0.00  0.00     0.007 A 
ENDBRANCH  12  13
ENDBRANCH  11  12
ENDBRANCH  10  11
BRANCH  10  19
ATOM     19  N20 ZIN A   1      17.288   4.976  14.108  0.00  0.00    -0.346 N 
ATOM     20  C21 ZIN A   1      16.369   5.665  13.404  0.00  0.00     0.246 C 
ATOM     21  O22 ZIN A   1      16.620   6.036  12.277  0.00  0.00    -0.272 OA
ATOM     22  H76 ZIN A   1      17.087   4.679  15.009  0.00  0.00     0.163 HD
BRANCH  20  23
ATOM     23  C23 ZIN A   1      15.028   5.976  14.018  0.00  0.00     0.374 C 
BRANCH  23  24
ATOM     24  N24 ZIN A   1      15.220   6.489  15.381  0.00  0.00     0.101 N 
ATOM     25  C29 ZIN A   1      15.610   7.906  15.361  0.00  0.00     0.299 C 
ATOM     26  C28 ZIN A   1      15.857   8.382  16.794  0.00  0.00     0.198 C 
ATOM     27  O27 ZIN A   1      14.680   8.155  17.576  0.00  0.00    -0.388 OA
ATOM     28  C26 ZIN A   1      14.272   6.785  17.618  0.00  0.00     0.198 C 
ATOM     29  C25 ZIN A   1      14.009   6.293  16.192  0.00  0.00     0.299 C 
ENDBRANCH  23  24
ENDBRANCH  20  23
ENDBRANCH  10  19
ENDBRANCH   7  10
ENDBRANCH   1   6
BRANCH   1  30
ATOM     30  C30 ZIN A   1      17.580   0.460  12.349  0.00  0.00     0.241 C 
ATOM     31  O31 ZIN A   1      16.491  -0.033  12.142  0.00  0.00    -0.271 OA
ATOM     32  N32 ZIN A   1      18.457   0.609  11.337  0.00  0.00    -0.346 N 
ATOM     33  H87 ZIN A   1      19.327   1.004  11.503  0.00  0.00     0.163 HD
BRANCH  32  34
ATOM     34  C33 ZIN A   1      18.095   0.175   9.984  0.00  0.00     0.180 C 
BRANCH  34  35
ATOM     35  C35 ZIN A   1      18.388   1.303   8.992  0.00  0.00     0.073 C 
BRANCH  35  36
ATOM     36  C36 ZIN A   1      18.279   0.775   7.584  0.00  0.00    -0.056 A 
ATOM     37  C41 ZIN A   1      19.299   1.000   6.680  0.00  0.00     0.007 A 
ATOM     38  C40 ZIN A   1      19.200   0.512   5.390  0.00  0.00     0.001 A 
ATOM     39  C39 ZIN A   1      18.075  -0.192   5.003  0.00  0.00     0.000 A 
ATOM     40  C38 ZIN A   1      17.052  -0.413   5.906  0.00  0.00     0.001 A 
ATOM     41  C37 ZIN A   1      17.154   0.071   7.197  0.00  0.00     0.007 A 
ENDBRANCH  35  36
ENDBRANCH  34  35
BRANCH  34  42
ATOM     42  C42 ZIN A   1      18.902  -1.042   9.615  0.00  0.00     0.241 C 
ATOM     43  O43 ZIN A   1      20.090  -0.938   9.394  0.00  0.00    -0.271 OA
ATOM     44  N44 ZIN A   1      18.304  -2.246   9.530  0.00  0.00    -0.348 N 
ATOM     45  H95 ZIN A   1      17.342  -2.319   9.639  0.00  0.00     0.163 HD
BRANCH  44  46
ATOM     46  C45 ZIN A   1      19.104  -3.446   9.275  0.00  0.00     0.158 C 
BRANCH  46  47
ATOM     47  C47 ZIN A   1      19.162  -4.300  10.543  0.00  0.00     0.037 C 
BRANCH  47  48
ATOM     48  C48 ZIN A   1      18.030  -3.889  11.486  0.00  0.00    -0.020 C 
ATOM     49  C49 ZIN A   1      17.345  -5.141  12.038  0.00  0.00     0.009 C 
ATOM     50  C50 ZIN A   1      18.604  -3.071  12.645  0.00  0.00     0.009 C 
ENDBRANCH  47  48
ENDBRANCH  46  47
BRANCH  46  51
ATOM     51  C51 ZIN A   1      18.475  -4.243   8.161  0.00  0.00     0.185 C 
ATOM     52  O52 ZIN A   1      17.321  -4.589   8.243  0.00  0.00    -0.292 OA
BRANCH  51  53
ATOM     53  C53 ZIN A   1      19.287  -4.608   6.945  0.00  0.00     0.141 A 
ATOM     54  O56 ZIN A   1      19.399  -5.993   6.610  0.00  0.00    -0.367 OA
ATOM     55  C55 ZIN A   1      20.577  -5.401   7.161  0.00  0.00     0.215 A 
ATOM     56  C54 ZIN A   1      19.254  -3.597   5.796  0.00  0.00     0.057 C 
ENDBRANCH  51  53
ENDBRANCH  46  51
ENDBRANCH  44  46
ENDBRANCH  34  42
ENDBRANCH  32  34
ENDBRANCH   1  30
TORSDOF 20
ENDMDL
MODEL 6
REMARK VINA RESULT:      -7.6      1.835      5.921
REMARK  20 active torsions:
REMARK  status: ('A' for Active; 'I' for Inactive)
REMARK    1  A    between atoms: C2_2  and  C4_4 
REMARK    2  A    between atoms: C4_4  and  C5_5 
REMARK    3  A    between atoms: C5_5  and  N7_6 
REMARK    4  A    between atoms: C5_5  and  C30_28 
REMARK       I    between atoms: N7_6  and  C8_7 
REMARK    5  A    between atoms: C8_7  and  C10_9 
REMARK    6  A    between atoms: C10_9  and  C12_10 
REMARK    7  A    between atoms: C10_9  and  N20_18 
REMARK    8  A    between atoms: C12_10  and  C13_11 
REMARK    9  A    between atoms: C13_11  and  C14_12 
REMARK       I    between atoms: N20_18  and  C21_19 
REMARK   10  A    between atoms: C21_19  and  C23_21 
REMARK   11  A    between atoms: C23_21  and  N24_22 
REMARK       I    between atoms: C30_28  and  N32_30 
REMARK   12  A    between atoms: N32_30  and  C33_31 
REMARK   13  A    between atoms: C33_31  and  C35_32 
REMARK   14  A    between atoms: C33_31  and  C42_39 
REMARK   15  A    between atoms: C35_32  and  C36_33 
REMARK       I    between atoms: C42_39  and  N44_41 
REMARK   16  A    between atoms: N44_41  and  C45_42 
REMARK   17  A    between atoms: C45_42  and  C47_43 
REMARK   18  A    between atoms: C45_42  and  C51_47 
REMARK   19  A    between atoms: C47_43  and  C48_44 
REMARK   20  A    between atoms: C51_47  and  C53_49 
ROOT
ATOM      1  C5  ZIN A   1      17.823   3.433  11.872  0.00  0.00     0.177 C 
ENDROOT
BRANCH   1   2
ATOM      2  C4  ZIN A   1      18.616   4.555  11.199  0.00  0.00     0.038 C 
BRANCH   2   3
ATOM      3  C2  ZIN A   1      17.656   5.466  10.430  0.00  0.00    -0.020 C 
ATOM      4  C1  ZIN A   1      17.763   5.169   8.932  0.00  0.00     0.009 C 
ATOM      5  C3  ZIN A   1      16.224   5.211  10.900  0.00  0.00     0.009 C 
ENDBRANCH   2   3
ENDBRANCH   1   2
BRANCH   1   6
ATOM      6  N7  ZIN A   1      18.424   3.122  13.171  0.00  0.00    -0.346 N 
ATOM      7  C8  ZIN A   1      18.238   3.952  14.216  0.00  0.00     0.241 C 
ATOM      8  O9  ZIN A   1      17.574   4.959  14.081  0.00  0.00    -0.271 OA
ATOM      9  H66 ZIN A   1      18.955   2.317  13.279  0.00  0.00     0.163 HD
BRANCH   7  10
ATOM     10  C10 ZIN A   1      18.857   3.633  15.553  0.00  0.00     0.177 C 
BRANCH  10  11
ATOM     11  C12 ZIN A   1      19.226   2.149  15.601  0.00  0.00     0.039 C 
BRANCH  11  12
ATOM     12  C13 ZIN A   1      19.082   1.635  17.035  0.00  0.00     0.041 C 
BRANCH  12  13
ATOM     13  C14 ZIN A   1      18.467   0.258  17.016  0.00  0.00    -0.058 A 
ATOM     14  C19 ZIN A   1      17.099   0.111  17.147  0.00  0.00     0.007 A 
ATOM     15  C18 ZIN A   1      16.534  -1.150  17.125  0.00  0.00     0.001 A 
ATOM     16  C17 ZIN A   1      17.339  -2.266  16.980  0.00  0.00     0.000 A 
ATOM     17  C16 ZIN A   1      18.708  -2.118  16.854  0.00  0.00     0.001 A 
ATOM     18  C15 ZIN A   1      19.271  -0.856  16.872  0.00  0.00     0.007 A 
ENDBRANCH  12  13
ENDBRANCH  11  12
ENDBRANCH  10  11
BRANCH  10  19
ATOM     19  N20 ZIN A   1      17.898   3.933  16.619  0.00  0.00    -0.346 N 
ATOM     20  C21 ZIN A   1      18.000   5.084  17.312  0.00  0.00     0.246 C 
ATOM     21  O22 ZIN A   1      18.884   5.872  17.053  0.00  0.00    -0.272 OA
ATOM     22  H76 ZIN A   1      17.190   3.302  16.826  0.00  0.00     0.163 HD
BRANCH  20  23
ATOM     23  C23 ZIN A   1      17.013   5.393  18.408  0.00  0.00     0.374 C 
BRANCH  23  24
ATOM     24  N24 ZIN A   1      16.204   6.558  18.025  0.00  0.00     0.101 N 
ATOM     25  C29 ZIN A   1      15.063   6.155  17.191  0.00  0.00     0.299 C 
ATOM     26  C28 ZIN A   1      14.283   7.401  16.766  0.00  0.00     0.198 C 
ATOM     27  O27 ZIN A   1      13.872   8.121  17.932  0.00  0.00    -0.388 OA
ATOM     28  C26 ZIN A   1      14.958   8.530  18.767  0.00  0.00     0.198 C 
ATOM     29  C25 ZIN A   1      15.746   7.295  19.212  0.00  0.00     0.299 C 
ENDBRANCH  23  24
ENDBRANCH  20  23
ENDBRANCH  10  19
ENDBRANCH   7  10
ENDBRANCH   1   6
BRANCH   1  30
ATOM     30  C30 ZIN A   1      17.850   2.204  11.000  0.00  0.00     0.241 C 
ATOM     31  O31 ZIN A   1      17.018   1.335  11.150  0.00  0.00    -0.271 OA
ATOM     32  N32 ZIN A   1      18.800   2.072  10.053  0.00  0.00    -0.346 N 
ATOM     33  H87 ZIN A   1      19.465   2.768   9.931  0.00  0.00     0.163 HD
BRANCH  32  34
ATOM     34  C33 ZIN A   1      18.827   0.877   9.204  0.00  0.00     0.180 C 
BRANCH  34  35
ATOM     35  C35 ZIN A   1      19.496   1.214   7.870  0.00  0.00     0.073 C 
BRANCH  35  36
ATOM     36  C36 ZIN A   1      18.785   0.492   6.754  0.00  0.00    -0.056 A 
ATOM     37  C41 ZIN A   1      17.505   0.009   6.948  0.00  0.00     0.007 A 
ATOM     38  C40 ZIN A   1      16.852  -0.649   5.924  0.00  0.00     0.001 A 
ATOM     39  C39 ZIN A   1      17.483  -0.833   4.708  0.00  0.00     0.000 A 
ATOM     40  C38 ZIN A   1      18.766  -0.355   4.515  0.00  0.00     0.001 A 
ATOM     41  C37 ZIN A   1      19.417   0.307   5.538  0.00  0.00     0.007 A 
ENDBRANCH  35  36
ENDBRANCH  34  35
BRANCH  34  42
ATOM     42  C42 ZIN A   1      19.606  -0.212   9.896  0.00  0.00     0.241 C 
ATOM     43  O43 ZIN A   1      20.805  -0.102  10.039  0.00  0.00    -0.271 OA
ATOM     44  N44 ZIN A   1      18.969  -1.307  10.354  0.00  0.00    -0.348 N 
ATOM     45  H95 ZIN A   1      18.022  -1.427  10.179  0.00  0.00     0.163 HD
BRANCH  44  46
ATOM     46  C45 ZIN A   1      19.705  -2.316  11.119  0.00  0.00     0.158 C 
BRANCH  46  47
ATOM     47  C47 ZIN A   1      19.436  -2.122  12.612  0.00  0.00     0.037 C 
BRANCH  47  48
ATOM     48  C48 ZIN A   1      19.053  -0.666  12.876  0.00  0.00    -0.020 C 
ATOM     49  C49 ZIN A   1      17.760  -0.617  13.694  0.00  0.00     0.009 C 
ATOM     50  C50 ZIN A   1      20.174   0.025  13.655  0.00  0.00     0.009 C 
ENDBRANCH  47  48
ENDBRANCH  46  47
BRANCH  46  51
ATOM     51  C51 ZIN A   1      19.254  -3.692  10.701  0.00  0.00     0.185 C 
ATOM     52  O52 ZIN A   1      20.063  -4.580  10.574  0.00  0.00    -0.292 OA
BRANCH  51  53
ATOM     53  C53 ZIN A   1      17.795  -3.960  10.440  0.00  0.00     0.141 A 
ATOM     54  O56 ZIN A   1      16.838  -3.312  11.281  0.00  0.00    -0.367 OA
ATOM     55  C55 ZIN A   1      17.005  -4.712  11.513  0.00  0.00     0.215 A 
ATOM     56  C54 ZIN A   1      17.414  -4.195   8.976  0.00  0.00     0.057 C 
ENDBRANCH  51  53
ENDBRANCH  46  51
ENDBRANCH  44  46
ENDBRANCH  34  42
ENDBRANCH  32  34
ENDBRANCH   1  30
TORSDOF 20
ENDMDL
MODEL 7
REMARK VINA RESULT:      -7.6      2.387      5.846
REMARK  20 active torsions:
REMARK  status: ('A' for Active; 'I' for Inactive)
REMARK    1  A    between atoms: C2_2  and  C4_4 
REMARK    2  A    between atoms: C4_4  and  C5_5 
REMARK    3  A    between atoms: C5_5  and  N7_6 
REMARK    4  A    between atoms: C5_5  and  C30_28 
REMARK       I    between atoms: N7_6  and  C8_7 
REMARK    5  A    between atoms: C8_7  and  C10_9 
REMARK    6  A    between atoms: C10_9  and  C12_10 
REMARK    7  A    between atoms: C10_9  and  N20_18 
REMARK    8  A    between atoms: C12_10  and  C13_11 
REMARK    9  A    between atoms: C13_11  and  C14_12 
REMARK       I    between atoms: N20_18  and  C21_19 
REMARK   10  A    between atoms: C21_19  and  C23_21 
REMARK   11  A    between atoms: C23_21  and  N24_22 
REMARK       I    between atoms: C30_28  and  N32_30 
REMARK   12  A    between atoms: N32_30  and  C33_31 
REMARK   13  A    between atoms: C33_31  and  C35_32 
REMARK   14  A    between atoms: C33_31  and  C42_39 
REMARK   15  A    between atoms: C35_32  and  C36_33 
REMARK       I    between atoms: C42_39  and  N44_41 
REMARK   16  A    between atoms: N44_41  and  C45_42 
REMARK   17  A    between atoms: C45_42  and  C47_43 
REMARK   18  A    between atoms: C45_42  and  C51_47 
REMARK   19  A    between atoms: C47_43  and  C48_44 
REMARK   20  A    between atoms: C51_47  and  C53_49 
ROOT
ATOM      1  C5  ZIN A   1      19.448  -0.260  14.560  0.00  0.00     0.177 C 
ENDROOT
BRANCH   1   2
ATOM      2  C4  ZIN A   1      18.507  -0.795  15.641  0.00  0.00     0.038 C 
BRANCH   2   3
ATOM      3  C2  ZIN A   1      19.156  -0.618  17.015  0.00  0.00    -0.020 C 
ATOM      4  C1  ZIN A   1      18.142  -0.003  17.982  0.00  0.00     0.009 C 
ATOM      5  C3  ZIN A   1      19.607  -1.979  17.546  0.00  0.00     0.009 C 
ENDBRANCH   2   3
ENDBRANCH   1   2
BRANCH   1   6
ATOM      6  N7  ZIN A   1      19.416   1.205  14.566  0.00  0.00    -0.346 N 
ATOM      7  C8  ZIN A   1      18.242   1.853  14.702  0.00  0.00     0.241 C 
ATOM      8  O9  ZIN A   1      17.211   1.223  14.819  0.00  0.00    -0.271 OA
ATOM      9  H66 ZIN A   1      20.240   1.708  14.473  0.00  0.00     0.163 HD
BRANCH   7  10
ATOM     10  C10 ZIN A   1      18.209   3.360  14.708  0.00  0.00     0.177 C 
BRANCH  10  11
ATOM     11  C12 ZIN A   1      19.618   3.901  14.459  0.00  0.00     0.039 C 
BRANCH  11  12
ATOM     12  C13 ZIN A   1      19.560   5.006  13.402  0.00  0.00     0.041 C 
BRANCH  12  13
ATOM     13  C14 ZIN A   1      19.102   4.421  12.090  0.00  0.00    -0.058 A 
ATOM     14  C19 ZIN A   1      19.788   3.361  11.528  0.00  0.00     0.007 A 
ATOM     15  C18 ZIN A   1      19.367   2.822  10.327  0.00  0.00     0.001 A 
ATOM     16  C17 ZIN A   1      18.262   3.351   9.683  0.00  0.00     0.000 A 
ATOM     17  C16 ZIN A   1      17.579   4.414  10.242  0.00  0.00     0.001 A 
ATOM     18  C15 ZIN A   1      17.999   4.950  11.445  0.00  0.00     0.007 A 
ENDBRANCH  12  13
ENDBRANCH  11  12
ENDBRANCH  10  11
BRANCH  10  19
ATOM     19  N20 ZIN A   1      17.727   3.833  16.008  0.00  0.00    -0.346 N 
ATOM     20  C21 ZIN A   1      18.496   3.687  17.104  0.00  0.00     0.246 C 
ATOM     21  O22 ZIN A   1      19.587   3.165  17.016  0.00  0.00    -0.272 OA
ATOM     22  H76 ZIN A   1      16.854   4.251  16.079  0.00  0.00     0.163 HD
BRANCH  20  23
ATOM     23  C23 ZIN A   1      18.002   4.174  18.442  0.00  0.00     0.374 C 
BRANCH  23  24
ATOM     24  N24 ZIN A   1      17.007   5.237  18.239  0.00  0.00     0.101 N 
ATOM     25  C29 ZIN A   1      15.859   5.062  19.140  0.00  0.00     0.299 C 
ATOM     26  C28 ZIN A   1      14.823   6.152  18.855  0.00  0.00     0.198 C 
ATOM     27  O27 ZIN A   1      15.437   7.436  19.004  0.00  0.00    -0.388 OA
ATOM     28  C26 ZIN A   1      16.559   7.641  18.142  0.00  0.00     0.198 C 
ATOM     29  C25 ZIN A   1      17.612   6.565  18.420  0.00  0.00     0.299 C 
ENDBRANCH  23  24
ENDBRANCH  20  23
ENDBRANCH  10  19
ENDBRANCH   7  10
ENDBRANCH   1   6
BRANCH   1  30
ATOM     30  C30 ZIN A   1      19.005  -0.766  13.212  0.00  0.00     0.241 C 
ATOM     31  O31 ZIN A   1      17.843  -1.060  13.025  0.00  0.00    -0.271 OA
ATOM     32  N32 ZIN A   1      19.902  -0.894  12.213  0.00  0.00    -0.346 N 
ATOM     33  H87 ZIN A   1      20.830  -0.658  12.361  0.00  0.00     0.163 HD
BRANCH  32  34
ATOM     34  C33 ZIN A   1      19.472  -1.387  10.901  0.00  0.00     0.180 C 
BRANCH  34  35
ATOM     35  C35 ZIN A   1      20.163  -0.579   9.801  0.00  0.00     0.073 C 
BRANCH  35  36
ATOM     36  C36 ZIN A   1      19.167  -0.244   8.721  0.00  0.00    -0.056 A 
ATOM     37  C41 ZIN A   1      17.844  -0.618   8.860  0.00  0.00     0.007 A 
ATOM     38  C40 ZIN A   1      16.930  -0.307   7.871  0.00  0.00     0.001 A 
ATOM     39  C39 ZIN A   1      17.342   0.370   6.738  0.00  0.00     0.000 A 
ATOM     40  C38 ZIN A   1      18.666   0.740   6.596  0.00  0.00     0.001 A 
ATOM     41  C37 ZIN A   1      19.579   0.433   7.587  0.00  0.00     0.007 A 
ENDBRANCH  35  36
ENDBRANCH  34  35
BRANCH  34  42
ATOM     42  C42 ZIN A   1      19.841  -2.841  10.766  0.00  0.00     0.241 C 
ATOM     43  O43 ZIN A   1      20.659  -3.331  11.515  0.00  0.00    -0.271 OA
ATOM     44  N44 ZIN A   1      19.262  -3.597   9.812  0.00  0.00    -0.348 N 
ATOM     45  H95 ZIN A   1      18.660  -3.190   9.170  0.00  0.00     0.163 HD
BRANCH  44  46
ATOM     46  C45 ZIN A   1      19.541  -5.033   9.747  0.00  0.00     0.158 C 
BRANCH  46  47
ATOM     47  C47 ZIN A   1      18.274  -5.816  10.096  0.00  0.00     0.037 C 
BRANCH  47  48
ATOM     48  C48 ZIN A   1      17.102  -4.845  10.249  0.00  0.00    -0.020 C 
ATOM     49  C49 ZIN A   1      15.901  -5.364   9.455  0.00  0.00     0.009 C 
ATOM     50  C50 ZIN A   1      16.723  -4.731  11.727  0.00  0.00     0.009 C 
ENDBRANCH  47  48
ENDBRANCH  46  47
BRANCH  46  51
ATOM     51  C51 ZIN A   1      19.988  -5.396   8.354  0.00  0.00     0.185 C 
ATOM     52  O52 ZIN A   1      20.844  -6.233   8.194  0.00  0.00    -0.292 OA
BRANCH  51  53
ATOM     53  C53 ZIN A   1      19.369  -4.713   7.162  0.00  0.00     0.141 A 
ATOM     54  O56 ZIN A   1      17.958  -4.487   7.182  0.00  0.00    -0.367 OA
ATOM     55  C55 ZIN A   1      18.397  -5.524   6.302  0.00  0.00     0.215 A 
ATOM     56  C54 ZIN A   1      20.247  -3.674   6.461  0.00  0.00     0.057 C 
ENDBRANCH  51  53
ENDBRANCH  46  51
ENDBRANCH  44  46
ENDBRANCH  34  42
ENDBRANCH  32  34
ENDBRANCH   1  30
TORSDOF 20
ENDMDL
MODEL 8
REMARK VINA RESULT:      -7.5      1.984      5.128
REMARK  20 active torsions:
REMARK  status: ('A' for Active; 'I' for Inactive)
REMARK    1  A    between atoms: C2_2  and  C4_4 
REMARK    2  A    between atoms: C4_4  and  C5_5 
REMARK    3  A    between atoms: C5_5  and  N7_6 
REMARK    4  A    between atoms: C5_5  and  C30_28 
REMARK       I    between atoms: N7_6  and  C8_7 
REMARK    5  A    between atoms: C8_7  and  C10_9 
REMARK    6  A    between atoms: C10_9  and  C12_10 
REMARK    7  A    between atoms: C10_9  and  N20_18 
REMARK    8  A    between atoms: C12_10  and  C13_11 
REMARK    9  A    between atoms: C13_11  and  C14_12 
REMARK       I    between atoms: N20_18  and  C21_19 
REMARK   10  A    between atoms: C21_19  and  C23_21 
REMARK   11  A    between atoms: C23_21  and  N24_22 
REMARK       I    between atoms: C30_28  and  N32_30 
REMARK   12  A    between atoms: N32_30  and  C33_31 
REMARK   13  A    between atoms: C33_31  and  C35_32 
REMARK   14  A    between atoms: C33_31  and  C42_39 
REMARK   15  A    between atoms: C35_32  and  C36_33 
REMARK       I    between atoms: C42_39  and  N44_41 
REMARK   16  A    between atoms: N44_41  and  C45_42 
REMARK   17  A    between atoms: C45_42  and  C47_43 
REMARK   18  A    between atoms: C45_42  and  C51_47 
REMARK   19  A    between atoms: C47_43  and  C48_44 
REMARK   20  A    between atoms: C51_47  and  C53_49 
ROOT
ATOM      1  C5  ZIN A   1      17.967   0.757  13.234  0.00  0.00     0.177 C 
ENDROOT
BRANCH   1   2
ATOM      2  C4  ZIN A   1      17.181  -0.084  14.241  0.00  0.00     0.038 C 
BRANCH   2   3
ATOM      3  C2  ZIN A   1      18.146  -0.991  15.009  0.00  0.00    -0.020 C 
ATOM      4  C1  ZIN A   1      19.585  -0.541  14.748  0.00  0.00     0.009 C 
ATOM      5  C3  ZIN A   1      17.848  -0.902  16.506  0.00  0.00     0.009 C 
ENDBRANCH   2   3
ENDBRANCH   1   2
BRANCH   1   6
ATOM      6  N7  ZIN A   1      17.750   2.179  13.512  0.00  0.00    -0.346 N 
ATOM      7  C8  ZIN A   1      18.684   3.085  13.161  0.00  0.00     0.241 C 
ATOM      8  O9  ZIN A   1      19.706   2.723  12.617  0.00  0.00    -0.271 OA
ATOM      9  H66 ZIN A   1      16.933   2.469  13.947  0.00  0.00     0.163 HD
BRANCH   7  10
ATOM     10  C10 ZIN A   1      18.461   4.548  13.447  0.00  0.00     0.177 C 
BRANCH  10  11
ATOM     11  C12 ZIN A   1      19.558   5.057  14.385  0.00  0.00     0.039 C 
BRANCH  11  12
ATOM     12  C13 ZIN A   1      18.924   5.570  15.679  0.00  0.00     0.041 C 
BRANCH  12  13
ATOM     13  C14 ZIN A   1      18.847   4.446  16.681  0.00  0.00    -0.058 A 
ATOM     14  C19 ZIN A   1      19.576   3.290  16.479  0.00  0.00     0.007 A 
ATOM     15  C18 ZIN A   1      19.509   2.261  17.399  0.00  0.00     0.001 A 
ATOM     16  C17 ZIN A   1      18.704   2.385  18.518  0.00  0.00     0.000 A 
ATOM     17  C16 ZIN A   1      17.971   3.539  18.716  0.00  0.00     0.001 A 
ATOM     18  C15 ZIN A   1      18.042   4.570  17.798  0.00  0.00     0.007 A 
ENDBRANCH  12  13
ENDBRANCH  11  12
ENDBRANCH  10  11
BRANCH  10  19
ATOM     19  N20 ZIN A   1      17.154   4.728  14.084  0.00  0.00    -0.346 N 
ATOM     20  C21 ZIN A   1      16.307   5.671  13.627  0.00  0.00     0.246 C 
ATOM     21  O22 ZIN A   1      16.626   6.372  12.691  0.00  0.00    -0.272 OA
ATOM     22  H76 ZIN A   1      16.897   4.167  14.833  0.00  0.00     0.163 HD
BRANCH  20  23
ATOM     23  C23 ZIN A   1      14.961   5.856  14.281  0.00  0.00     0.374 C 
BRANCH  23  24
ATOM     24  N24 ZIN A   1      14.968   7.092  15.075  0.00  0.00     0.101 N 
ATOM     25  C29 ZIN A   1      13.612   7.647  15.195  0.00  0.00     0.299 C 
ATOM     26  C28 ZIN A   1      13.673   8.962  15.976  0.00  0.00     0.198 C 
ATOM     27  O27 ZIN A   1      14.276   8.725  17.252  0.00  0.00    -0.388 OA
ATOM     28  C26 ZIN A   1      15.597   8.185  17.173  0.00  0.00     0.198 C 
ATOM     29  C25 ZIN A   1      15.556   6.862  16.403  0.00  0.00     0.299 C 
ENDBRANCH  23  24
ENDBRANCH  20  23
ENDBRANCH  10  19
ENDBRANCH   7  10
ENDBRANCH   1   6
BRANCH   1  30
ATOM     30  C30 ZIN A   1      17.497   0.441  11.838  0.00  0.00     0.241 C 
ATOM     31  O31 ZIN A   1      16.325   0.210  11.631  0.00  0.00    -0.271 OA
ATOM     32  N32 ZIN A   1      18.380   0.414  10.820  0.00  0.00    -0.346 N 
ATOM     33  H87 ZIN A   1      19.318   0.599  10.986  0.00  0.00     0.163 HD
BRANCH  32  34
ATOM     34  C33 ZIN A   1      17.924   0.105   9.462  0.00  0.00     0.180 C 
BRANCH  34  35
ATOM     35  C35 ZIN A   1      18.509   1.125   8.483  0.00  0.00     0.073 C 
BRANCH  35  36
ATOM     36  C36 ZIN A   1      18.347   0.619   7.073  0.00  0.00    -0.056 A 
ATOM     37  C41 ZIN A   1      17.142   0.077   6.666  0.00  0.00     0.007 A 
ATOM     38  C40 ZIN A   1      16.993  -0.383   5.372  0.00  0.00     0.001 A 
ATOM     39  C39 ZIN A   1      18.052  -0.310   4.486  0.00  0.00     0.000 A 
ATOM     40  C38 ZIN A   1      19.259   0.227   4.894  0.00  0.00     0.001 A 
ATOM     41  C37 ZIN A   1      19.407   0.691   6.187  0.00  0.00     0.007 A 
ENDBRANCH  35  36
ENDBRANCH  34  35
BRANCH  34  42
ATOM     42  C42 ZIN A   1      18.382  -1.279   9.080  0.00  0.00     0.241 C 
ATOM     43  O43 ZIN A   1      19.564  -1.507   8.937  0.00  0.00    -0.271 OA
ATOM     44  N44 ZIN A   1      17.478  -2.261   8.900  0.00  0.00    -0.348 N 
ATOM     45  H95 ZIN A   1      16.530  -2.063   8.946  0.00  0.00     0.163 HD
BRANCH  44  46
ATOM     46  C45 ZIN A   1      17.928  -3.630   8.633  0.00  0.00     0.158 C 
BRANCH  46  47
ATOM     47  C47 ZIN A   1      18.903  -3.626   7.454  0.00  0.00     0.037 C 
BRANCH  47  48
ATOM     48  C48 ZIN A   1      18.142  -3.928   6.162  0.00  0.00    -0.020 C 
ATOM     49  C49 ZIN A   1      18.999  -3.527   4.959  0.00  0.00     0.009 C 
ATOM     50  C50 ZIN A   1      17.832  -5.424   6.090  0.00  0.00     0.009 C 
ENDBRANCH  47  48
ENDBRANCH  46  47
BRANCH  46  51
ATOM     51  C51 ZIN A   1      18.617  -4.181   9.854  0.00  0.00     0.185 C 
ATOM     52  O52 ZIN A   1      19.754  -4.578   9.777  0.00  0.00    -0.292 OA
BRANCH  51  53
ATOM     53  C53 ZIN A   1      17.886  -4.236  11.171  0.00  0.00     0.141 A 
ATOM     54  O56 ZIN A   1      17.060  -3.125  11.522  0.00  0.00    -0.367 OA
ATOM     55  C55 ZIN A   1      18.285  -3.228  12.250  0.00  0.00     0.215 A 
ATOM     56  C54 ZIN A   1      17.439  -5.628  11.624  0.00  0.00     0.057 C 
ENDBRANCH  51  53
ENDBRANCH  46  51
ENDBRANCH  44  46
ENDBRANCH  34  42
ENDBRANCH  32  34
ENDBRANCH   1  30
TORSDOF 20
ENDMDL
MODEL 9
REMARK VINA RESULT:      -7.5      4.593     12.041
REMARK  20 active torsions:
REMARK  status: ('A' for Active; 'I' for Inactive)
REMARK    1  A    between atoms: C2_2  and  C4_4 
REMARK    2  A    between atoms: C4_4  and  C5_5 
REMARK    3  A    between atoms: C5_5  and  N7_6 
REMARK    4  A    between atoms: C5_5  and  C30_28 
REMARK       I    between atoms: N7_6  and  C8_7 
REMARK    5  A    between atoms: C8_7  and  C10_9 
REMARK    6  A    between atoms: C10_9  and  C12_10 
REMARK    7  A    between atoms: C10_9  and  N20_18 
REMARK    8  A    between atoms: C12_10  and  C13_11 
REMARK    9  A    between atoms: C13_11  and  C14_12 
REMARK       I    between atoms: N20_18  and  C21_19 
REMARK   10  A    between atoms: C21_19  and  C23_21 
REMARK   11  A    between atoms: C23_21  and  N24_22 
REMARK       I    between atoms: C30_28  and  N32_30 
REMARK   12  A    between atoms: N32_30  and  C33_31 
REMARK   13  A    between atoms: C33_31  and  C35_32 
REMARK   14  A    between atoms: C33_31  and  C42_39 
REMARK   15  A    between atoms: C35_32  and  C36_33 
REMARK       I    between atoms: C42_39  and  N44_41 
REMARK   16  A    between atoms: N44_41  and  C45_42 
REMARK   17  A    between atoms: C45_42  and  C47_43 
REMARK   18  A    between atoms: C45_42  and  C51_47 
REMARK   19  A    between atoms: C47_43  and  C48_44 
REMARK   20  A    between atoms: C51_47  and  C53_49 
ROOT
ATOM      1  C5  ZIN A   1      18.589  -4.330  10.473  0.00  0.00     0.177 C 
ENDROOT
BRANCH   1   2
ATOM      2  C4  ZIN A   1      19.987  -4.589   9.908  0.00  0.00     0.038 C 
BRANCH   2   3
ATOM      3  C2  ZIN A   1      19.884  -5.534   8.708  0.00  0.00    -0.020 C 
ATOM      4  C1  ZIN A   1      20.417  -4.829   7.458  0.00  0.00     0.009 C 
ATOM      5  C3  ZIN A   1      20.712  -6.791   8.976  0.00  0.00     0.009 C 
ENDBRANCH   2   3
ENDBRANCH   1   2
BRANCH   1   6
ATOM      6  N7  ZIN A   1      17.607  -4.381   9.388  0.00  0.00    -0.346 N 
ATOM      7  C8  ZIN A   1      16.746  -5.415   9.305  0.00  0.00     0.241 C 
ATOM      8  O9  ZIN A   1      16.786  -6.305  10.129  0.00  0.00    -0.271 OA
ATOM      9  H66 ZIN A   1      17.575  -3.669   8.729  0.00  0.00     0.163 HD
BRANCH   7  10
ATOM     10  C10 ZIN A   1      15.736  -5.467   8.188  0.00  0.00     0.177 C 
BRANCH  10  11
ATOM     11  C12 ZIN A   1      15.081  -6.850   8.159  0.00  0.00     0.039 C 
BRANCH  11  12
ATOM     12  C13 ZIN A   1      13.593  -6.702   7.835  0.00  0.00     0.041 C 
BRANCH  12  13
ATOM     13  C14 ZIN A   1      13.304  -7.338   6.498  0.00  0.00    -0.058 A 
ATOM     14  C19 ZIN A   1      13.595  -6.657   5.332  0.00  0.00     0.007 A 
ATOM     15  C18 ZIN A   1      13.334  -7.241   4.107  0.00  0.00     0.001 A 
ATOM     16  C17 ZIN A   1      12.774  -8.504   4.049  0.00  0.00     0.000 A 
ATOM     17  C16 ZIN A   1      12.478  -9.183   5.216  0.00  0.00     0.001 A 
ATOM     18  C15 ZIN A   1      12.743  -8.600   6.441  0.00  0.00     0.007 A 
ENDBRANCH  12  13
ENDBRANCH  11  12
ENDBRANCH  10  11
BRANCH  10  19
ATOM     19  N20 ZIN A   1      16.407  -5.218   6.910  0.00  0.00    -0.346 N 
ATOM     20  C21 ZIN A   1      17.137  -6.193   6.332  0.00  0.00     0.246 C 
ATOM     21  O22 ZIN A   1      17.238  -7.275   6.869  0.00  0.00    -0.272 OA
ATOM     22  H76 ZIN A   1      16.326  -4.353   6.479  0.00  0.00     0.163 HD
BRANCH  20  23
ATOM     23  C23 ZIN A   1      17.827  -5.937   5.016  0.00  0.00     0.374 C 
BRANCH  23  24
ATOM     24  N24 ZIN A   1      16.828  -5.884   3.941  0.00  0.00     0.101 N 
ATOM     25  C29 ZIN A   1      16.616  -4.502   3.488  0.00  0.00     0.299 C 
ATOM     26  C28 ZIN A   1      15.528  -4.484   2.412  0.00  0.00     0.198 C 
ATOM     27  O27 ZIN A   1      15.909  -5.353   1.341  0.00  0.00    -0.388 OA
ATOM     28  C26 ZIN A   1      16.123  -6.707   1.746  0.00  0.00     0.198 C 
ATOM     29  C25 ZIN A   1      17.218  -6.747   2.816  0.00  0.00     0.299 C 
ENDBRANCH  23  24
ENDBRANCH  20  23
ENDBRANCH  10  19
ENDBRANCH   7  10
ENDBRANCH   1   6
BRANCH   1  30
ATOM     30  C30 ZIN A   1      18.552  -2.970  11.121  0.00  0.00     0.241 C 
ATOM     31  O31 ZIN A   1      19.521  -2.243  11.061  0.00  0.00    -0.271 OA
ATOM     32  N32 ZIN A   1      17.441  -2.562  11.767  0.00  0.00    -0.346 N 
ATOM     33  H87 ZIN A   1      16.666  -3.143  11.813  0.00  0.00     0.163 HD
BRANCH  32  34
ATOM     34  C33 ZIN A   1      17.405  -1.240  12.397  0.00  0.00     0.180 C 
BRANCH  34  35
ATOM     35  C35 ZIN A   1      18.749  -0.959  13.073  0.00  0.00     0.073 C 
BRANCH  35  36
ATOM     36  C36 ZIN A   1      18.544  -0.813  14.559  0.00  0.00    -0.056 A 
ATOM     37  C41 ZIN A   1      17.567   0.036  15.042  0.00  0.00     0.007 A 
ATOM     38  C40 ZIN A   1      17.377   0.167  16.405  0.00  0.00     0.001 A 
ATOM     39  C39 ZIN A   1      18.172  -0.544  17.284  0.00  0.00     0.000 A 
ATOM     40  C38 ZIN A   1      19.153  -1.389  16.801  0.00  0.00     0.001 A 
ATOM     41  C37 ZIN A   1      19.340  -1.524  15.439  0.00  0.00     0.007 A 
ENDBRANCH  35  36
ENDBRANCH  34  35
BRANCH  34  42
ATOM     42  C42 ZIN A   1      17.141  -0.191  11.348  0.00  0.00     0.241 C 
ATOM     43  O43 ZIN A   1      16.016   0.230  11.182  0.00  0.00    -0.271 OA
ATOM     44  N44 ZIN A   1      18.154   0.279  10.596  0.00  0.00    -0.348 N 
ATOM     45  H95 ZIN A   1      19.041  -0.106  10.681  0.00  0.00     0.163 HD
BRANCH  44  46
ATOM     46  C45 ZIN A   1      17.919   1.373   9.650  0.00  0.00     0.158 C 
BRANCH  46  47
ATOM     47  C47 ZIN A   1      18.544   2.660  10.192  0.00  0.00     0.037 C 
BRANCH  47  48
ATOM     48  C48 ZIN A   1      17.460   3.515  10.849  0.00  0.00    -0.020 C 
ATOM     49  C49 ZIN A   1      17.688   3.556  12.362  0.00  0.00     0.009 C 
ATOM     50  C50 ZIN A   1      17.521   4.937  10.286  0.00  0.00     0.009 C 
ENDBRANCH  47  48
ENDBRANCH  46  47
BRANCH  46  51
ATOM     51  C51 ZIN A   1      18.543   1.032   8.321  0.00  0.00     0.185 C 
ATOM     52  O52 ZIN A   1      19.415   1.732   7.867  0.00  0.00    -0.292 OA
BRANCH  51  53
ATOM     53  C53 ZIN A   1      18.077  -0.182   7.560  0.00  0.00     0.141 A 
ATOM     54  O56 ZIN A   1      17.669  -1.326   8.313  0.00  0.00    -0.367 OA
ATOM     55  C55 ZIN A   1      18.928  -1.450   7.650  0.00  0.00     0.215 A 
ATOM     56  C54 ZIN A   1      17.352   0.099   6.242  0.00  0.00     0.057 C 
ENDBRANCH  51  53
ENDBRANCH  46  51
ENDBRANCH  44  46
ENDBRANCH  34  42
ENDBRANCH  32  34
ENDBRANCH   1  30
TORSDOF 20
ENDMDL
