MODEL 1
REMARK VINA RESULT:      -5.6      0.000      0.000
REMARK  8 active torsions:
REMARK  status: ('A' for Active; 'I' for Inactive)
REMARK    1  A    between atoms: O2_2  and  C3_3 
REMARK    2  A    between atoms: C8_8  and  O9_9 
REMARK    3  A    between atoms: O9_9  and  C10_10 
REMARK    4  A    between atoms: C10_10  and  C11_11 
REMARK    5  A    between atoms: C11_11  and  O13_12 
REMARK    6  A    between atoms: C11_11  and  C14_13 
REMARK    7  A    between atoms: C14_13  and  O15_14 
REMARK    8  A    between atoms: O15_14  and  C16_15 
REMARK       I    between atoms: C16_15  and  N17_16 
ROOT
ATOM      1  C10 <0> d   1      17.204  -0.262  12.317  0.00  0.00     0.209 C 
ENDROOT
BRANCH   1   2
ATOM      2  O9  <0> d   1      16.731   0.002  10.995  0.00  0.00    -0.346 OA
BRANCH   2   3
ATOM      3  C8  <0> d   1      17.538   0.741  10.186  0.00  0.00     0.102 A 
ATOM      4  C3  <0> d   1      18.195   0.138   9.119  0.00  0.00     0.101 A 
ATOM      5  C4  <0> d   1      19.017   0.895   8.298  0.00  0.00     0.039 A 
ATOM      6  C5  <0> d   1      19.186   2.245   8.545  0.00  0.00     0.003 A 
ATOM      7  C6  <0> d   1      18.537   2.842   9.610  0.00  0.00     0.003 A 
ATOM      8  C7  <0> d   1      17.716   2.093  10.432  0.00  0.00     0.039 A 
BRANCH   4   9
ATOM      9  O2  <0> d   1      18.028  -1.190   8.876  0.00  0.00    -0.353 OA
ATOM     10  C1  <0> d   1      19.041  -1.842   8.108  0.00  0.00     0.210 C 
ENDBRANCH   4   9
ENDBRANCH   2   3
ENDBRANCH   1   2
BRANCH   1  11
ATOM     11  C11 <0> d   1      17.721  -1.700  12.397  0.00  0.00     0.166 C 
BRANCH  11  12
ATOM     12  O13 <0> d   1      17.088  -2.490  11.390  0.00  0.00    -0.391 OA
ATOM     13  H28 <0> d   1      16.343  -2.052  10.956  0.00  0.00     0.210 HD
ENDBRANCH  11  12
BRANCH  11  14
ATOM     14  C14 <0> d   1      19.235  -1.711  12.177  0.00  0.00     0.214 C 
BRANCH  14  15
ATOM     15  O15 <0> d   1      19.806  -0.477  12.685  0.00  0.00    -0.302 OA
BRANCH  15  16
ATOM     16  C16 <0> d   1      20.681   0.165  11.888  0.00  0.00     0.358 C 
ATOM     17  N17 <0> d   1      21.446  -0.534  11.025  0.00  0.00    -0.346 N 
ATOM     18  H31 <0> d   1      21.367  -1.499  10.979  0.00  0.00     0.161 HD
ATOM     19  H32 <0> d   1      22.076  -0.071  10.451  0.00  0.00     0.161 HD
ATOM     20  O18 <0> d   1      20.781   1.374  11.945  0.00  0.00    -0.239 OA
ENDBRANCH  15  16
ENDBRANCH  14  15
ENDBRANCH  11  14
ENDBRANCH   1  11
TORSDOF 8
ENDMDL
MODEL 2
REMARK VINA RESULT:      -5.6      3.245      6.048
REMARK  8 active torsions:
REMARK  status: ('A' for Active; 'I' for Inactive)
REMARK    1  A    between atoms: O2_2  and  C3_3 
REMARK    2  A    between atoms: C8_8  and  O9_9 
REMARK    3  A    between atoms: O9_9  and  C10_10 
REMARK    4  A    between atoms: C10_10  and  C11_11 
REMARK    5  A    between atoms: C11_11  and  O13_12 
REMARK    6  A    between atoms: C11_11  and  C14_13 
REMARK    7  A    between atoms: C14_13  and  O15_14 
REMARK    8  A    between atoms: O15_14  and  C16_15 
REMARK       I    between atoms: C16_15  and  N17_16 
ROOT
ATOM      1  C10 <0> d   1      19.361   0.689  12.702  0.00  0.00     0.209 C 
ENDROOT
BRANCH   1   2
ATOM      2  O9  <0> d   1      19.973   0.582  13.988  0.00  0.00    -0.346 OA
BRANCH   2   3
ATOM      3  C8  <0> d   1      19.187   0.155  15.013  0.00  0.00     0.102 A 
ATOM      4  C3  <0> d   1      18.668   1.072  15.921  0.00  0.00     0.101 A 
ATOM      5  C4  <0> d   1      17.868   0.632  16.965  0.00  0.00     0.039 A 
ATOM      6  C5  <0> d   1      17.593  -0.716  17.103  0.00  0.00     0.003 A 
ATOM      7  C6  <0> d   1      18.114  -1.627  16.203  0.00  0.00     0.003 A 
ATOM      8  C7  <0> d   1      18.912  -1.195  15.161  0.00  0.00     0.039 A 
BRANCH   4   9
ATOM      9  O2  <0> d   1      18.940   2.397  15.784  0.00  0.00    -0.353 OA
ATOM     10  C1  <0> d   1      19.361   3.099  16.956  0.00  0.00     0.210 C 
ENDBRANCH   4   9
ENDBRANCH   2   3
ENDBRANCH   1   2
BRANCH   1  11
ATOM     11  C11 <0> d   1      20.434   0.593  11.615  0.00  0.00     0.166 C 
BRANCH  11  12
ATOM     12  O13 <0> d   1      21.728   0.603  12.221  0.00  0.00    -0.391 OA
ATOM     13  H28 <0> d   1      22.027   1.480  12.495  0.00  0.00     0.210 HD
ENDBRANCH  11  12
BRANCH  11  14
ATOM     14  C14 <0> d   1      20.249  -0.707  10.829  0.00  0.00     0.214 C 
BRANCH  14  15
ATOM     15  O15 <0> d   1      19.253  -1.533  11.488  0.00  0.00    -0.302 OA
BRANCH  15  16
ATOM     16  C16 <0> d   1      19.561  -2.830  11.674  0.00  0.00     0.358 C 
ATOM     17  N17 <0> d   1      20.821  -3.261  11.466  0.00  0.00    -0.346 N 
ATOM     18  H31 <0> d   1      21.507  -2.637  11.182  0.00  0.00     0.161 HD
ATOM     19  H32 <0> d   1      21.043  -4.196  11.600  0.00  0.00     0.161 HD
ATOM     20  O18 <0> d   1      18.703  -3.613  12.030  0.00  0.00    -0.239 OA
ENDBRANCH  15  16
ENDBRANCH  14  15
ENDBRANCH  11  14
ENDBRANCH   1  11
TORSDOF 8
ENDMDL
MODEL 3
REMARK VINA RESULT:      -5.5      2.536      3.797
REMARK  8 active torsions:
REMARK  status: ('A' for Active; 'I' for Inactive)
REMARK    1  A    between atoms: O2_2  and  C3_3 
REMARK    2  A    between atoms: C8_8  and  O9_9 
REMARK    3  A    between atoms: O9_9  and  C10_10 
REMARK    4  A    between atoms: C10_10  and  C11_11 
REMARK    5  A    between atoms: C11_11  and  O13_12 
REMARK    6  A    between atoms: C11_11  and  C14_13 
REMARK    7  A    between atoms: C14_13  and  O15_14 
REMARK    8  A    between atoms: O15_14  and  C16_15 
REMARK       I    between atoms: C16_15  and  N17_16 
ROOT
ATOM      1  C10 <0> d   1      20.067  -0.282   9.144  0.00  0.00     0.209 C 
ENDROOT
BRANCH   1   2
ATOM      2  O9  <0> d   1      19.409  -1.336   8.437  0.00  0.00    -0.346 OA
BRANCH   2   3
ATOM      3  C8  <0> d   1      19.055  -1.088   7.148  0.00  0.00     0.102 A 
ATOM      4  C3  <0> d   1      19.401  -1.988   6.145  0.00  0.00     0.101 A 
ATOM      5  C4  <0> d   1      19.039  -1.731   4.832  0.00  0.00     0.039 A 
ATOM      6  C5  <0> d   1      18.339  -0.579   4.521  0.00  0.00     0.003 A 
ATOM      7  C6  <0> d   1      18.001   0.318   5.518  0.00  0.00     0.003 A 
ATOM      8  C7  <0> d   1      18.360   0.067   6.829  0.00  0.00     0.039 A 
BRANCH   4   9
ATOM      9  O2  <0> d   1      20.088  -3.121   6.452  0.00  0.00    -0.353 OA
ATOM     10  C1  <0> d   1      19.364  -4.352   6.408  0.00  0.00     0.210 C 
ENDBRANCH   4   9
ENDBRANCH   2   3
ENDBRANCH   1   2
BRANCH   1  11
ATOM     11  C11 <0> d   1      20.262  -0.692  10.605  0.00  0.00     0.166 C 
BRANCH  11  12
ATOM     12  O13 <0> d   1      21.636  -0.539  10.963  0.00  0.00    -0.391 OA
ATOM     13  H28 <0> d   1      22.179  -1.318  10.782  0.00  0.00     0.210 HD
ENDBRANCH  11  12
BRANCH  11  14
ATOM     14  C14 <0> d   1      19.400   0.197  11.503  0.00  0.00     0.214 C 
BRANCH  14  15
ATOM     15  O15 <0> d   1      19.086   1.431  10.805  0.00  0.00    -0.302 OA
BRANCH  15  16
ATOM     16  C16 <0> d   1      19.592   2.568  11.318  0.00  0.00     0.358 C 
ATOM     17  N17 <0> d   1      20.876   2.612  11.727  0.00  0.00    -0.346 N 
ATOM     18  H31 <0> d   1      21.435   1.823  11.655  0.00  0.00     0.161 HD
ATOM     19  H32 <0> d   1      21.240   3.431  12.096  0.00  0.00     0.161 HD
ATOM     20  O18 <0> d   1      18.892   3.557  11.409  0.00  0.00    -0.239 OA
ENDBRANCH  15  16
ENDBRANCH  14  15
ENDBRANCH  11  14
ENDBRANCH   1  11
TORSDOF 8
ENDMDL
MODEL 4
REMARK VINA RESULT:      -5.4      2.125      3.026
REMARK  8 active torsions:
REMARK  status: ('A' for Active; 'I' for Inactive)
REMARK    1  A    between atoms: O2_2  and  C3_3 
REMARK    2  A    between atoms: C8_8  and  O9_9 
REMARK    3  A    between atoms: O9_9  and  C10_10 
REMARK    4  A    between atoms: C10_10  and  C11_11 
REMARK    5  A    between atoms: C11_11  and  O13_12 
REMARK    6  A    between atoms: C11_11  and  C14_13 
REMARK    7  A    between atoms: C14_13  and  O15_14 
REMARK    8  A    between atoms: O15_14  and  C16_15 
REMARK       I    between atoms: C16_15  and  N17_16 
ROOT
ATOM      1  C10 <0> d   1      18.207  -2.081   9.365  0.00  0.00     0.209 C 
ENDROOT
BRANCH   1   2
ATOM      2  O9  <0> d   1      19.353  -1.949   8.523  0.00  0.00    -0.346 OA
BRANCH   2   3
ATOM      3  C8  <0> d   1      19.226  -1.153   7.428  0.00  0.00     0.102 A 
ATOM      4  C3  <0> d   1      19.441  -1.676   6.157  0.00  0.00     0.101 A 
ATOM      5  C4  <0> d   1      19.312  -0.860   5.044  0.00  0.00     0.039 A 
ATOM      6  C5  <0> d   1      18.975   0.472   5.199  0.00  0.00     0.003 A 
ATOM      7  C6  <0> d   1      18.767   0.993   6.463  0.00  0.00     0.003 A 
ATOM      8  C7  <0> d   1      18.895   0.185   7.577  0.00  0.00     0.039 A 
BRANCH   4   9
ATOM      9  O2  <0> d   1      19.772  -2.987   6.006  0.00  0.00    -0.353 OA
ATOM     10  C1  <0> d   1      18.733  -3.873   5.584  0.00  0.00     0.210 C 
ENDBRANCH   4   9
ENDBRANCH   2   3
ENDBRANCH   1   2
BRANCH   1  11
ATOM     11  C11 <0> d   1      18.618  -2.727  10.690  0.00  0.00     0.166 C 
BRANCH  11  12
ATOM     12  O13 <0> d   1      19.902  -3.335  10.545  0.00  0.00    -0.391 OA
ATOM     13  H28 <0> d   1      19.931  -4.041   9.885  0.00  0.00     0.210 HD
ENDBRANCH  11  12
BRANCH  11  14
ATOM     14  C14 <0> d   1      18.681  -1.658  11.782  0.00  0.00     0.214 C 
BRANCH  14  15
ATOM     15  O15 <0> d   1      19.186  -0.420  11.218  0.00  0.00    -0.302 OA
BRANCH  15  16
ATOM     16  C16 <0> d   1      20.471  -0.111  11.473  0.00  0.00     0.358 C 
ATOM     17  N17 <0> d   1      21.450  -0.586  10.676  0.00  0.00    -0.346 N 
ATOM     18  H31 <0> d   1      21.228  -1.152   9.920  0.00  0.00     0.161 HD
ATOM     19  H32 <0> d   1      22.376  -0.364  10.860  0.00  0.00     0.161 HD
ATOM     20  O18 <0> d   1      20.750   0.597  12.420  0.00  0.00    -0.239 OA
ENDBRANCH  15  16
ENDBRANCH  14  15
ENDBRANCH  11  14
ENDBRANCH   1  11
TORSDOF 8
ENDMDL
MODEL 5
REMARK VINA RESULT:      -5.4      1.754      3.028
REMARK  8 active torsions:
REMARK  status: ('A' for Active; 'I' for Inactive)
REMARK    1  A    between atoms: O2_2  and  C3_3 
REMARK    2  A    between atoms: C8_8  and  O9_9 
REMARK    3  A    between atoms: O9_9  and  C10_10 
REMARK    4  A    between atoms: C10_10  and  C11_11 
REMARK    5  A    between atoms: C11_11  and  O13_12 
REMARK    6  A    between atoms: C11_11  and  C14_13 
REMARK    7  A    between atoms: C14_13  and  O15_14 
REMARK    8  A    between atoms: O15_14  and  C16_15 
REMARK       I    between atoms: C16_15  and  N17_16 
ROOT
ATOM      1  C10 <0> d   1      18.880  -2.021  10.140  0.00  0.00     0.209 C 
ENDROOT
BRANCH   1   2
ATOM      2  O9  <0> d   1      19.882  -1.353   9.371  0.00  0.00    -0.346 OA
BRANCH   2   3
ATOM      3  C8  <0> d   1      19.458  -0.626   8.302  0.00  0.00     0.102 A 
ATOM      4  C3  <0> d   1      19.339   0.756   8.403  0.00  0.00     0.101 A 
ATOM      5  C4  <0> d   1      18.905   1.493   7.311  0.00  0.00     0.039 A 
ATOM      6  C5  <0> d   1      18.587   0.852   6.128  0.00  0.00     0.003 A 
ATOM      7  C6  <0> d   1      18.701  -0.523   6.031  0.00  0.00     0.003 A 
ATOM      8  C7  <0> d   1      19.132  -1.263   7.115  0.00  0.00     0.039 A 
BRANCH   4   9
ATOM      9  O2  <0> d   1      19.652   1.385   9.567  0.00  0.00    -0.353 OA
ATOM     10  C1  <0> d   1      18.938   2.586   9.868  0.00  0.00     0.210 C 
ENDBRANCH   4   9
ENDBRANCH   2   3
ENDBRANCH   1   2
BRANCH   1  11
ATOM     11  C11 <0> d   1      19.518  -2.630  11.391  0.00  0.00     0.166 C 
BRANCH  11  12
ATOM     12  O13 <0> d   1      20.940  -2.632  11.248  0.00  0.00    -0.391 OA
ATOM     13  H28 <0> d   1      21.416  -2.392  12.054  0.00  0.00     0.210 HD
ENDBRANCH  11  12
BRANCH  11  14
ATOM     14  C14 <0> d   1      19.130  -1.803  12.617  0.00  0.00     0.214 C 
BRANCH  14  15
ATOM     15  O15 <0> d   1      19.224  -0.390  12.296  0.00  0.00    -0.302 OA
BRANCH  15  16
ATOM     16  C16 <0> d   1      20.246   0.295  12.842  0.00  0.00     0.358 C 
ATOM     17  N17 <0> d   1      21.365   0.522  12.125  0.00  0.00    -0.346 N 
ATOM     18  H31 <0> d   1      21.434   0.191  11.216  0.00  0.00     0.161 HD
ATOM     19  H32 <0> d   1      22.102   1.015  12.518  0.00  0.00     0.161 HD
ATOM     20  O18 <0> d   1      20.160   0.709  13.981  0.00  0.00    -0.239 OA
ENDBRANCH  15  16
ENDBRANCH  14  15
ENDBRANCH  11  14
ENDBRANCH   1  11
TORSDOF 8
ENDMDL
MODEL 6
REMARK VINA RESULT:      -5.4      2.670      5.165
REMARK  8 active torsions:
REMARK  status: ('A' for Active; 'I' for Inactive)
REMARK    1  A    between atoms: O2_2  and  C3_3 
REMARK    2  A    between atoms: C8_8  and  O9_9 
REMARK    3  A    between atoms: O9_9  and  C10_10 
REMARK    4  A    between atoms: C10_10  and  C11_11 
REMARK    5  A    between atoms: C11_11  and  O13_12 
REMARK    6  A    between atoms: C11_11  and  C14_13 
REMARK    7  A    between atoms: C14_13  and  O15_14 
REMARK    8  A    between atoms: O15_14  and  C16_15 
REMARK       I    between atoms: C16_15  and  N17_16 
ROOT
ATOM      1  C10 <0> d   1      18.752   1.896  12.683  0.00  0.00     0.209 C 
ENDROOT
BRANCH   1   2
ATOM      2  O9  <0> d   1      19.682   1.281  13.576  0.00  0.00    -0.346 OA
BRANCH   2   3
ATOM      3  C8  <0> d   1      19.164   0.593  14.629  0.00  0.00     0.102 A 
ATOM      4  C3  <0> d   1      19.098  -0.796  14.590  0.00  0.00     0.101 A 
ATOM      5  C4  <0> d   1      18.569  -1.492  15.666  0.00  0.00     0.039 A 
ATOM      6  C5  <0> d   1      18.103  -0.805  16.772  0.00  0.00     0.003 A 
ATOM      7  C6  <0> d   1      18.164   0.576  16.808  0.00  0.00     0.003 A 
ATOM      8  C7  <0> d   1      18.690   1.276  15.738  0.00  0.00     0.039 A 
BRANCH   4   9
ATOM      9  O2  <0> d   1      19.556  -1.470  13.502  0.00  0.00    -0.353 OA
ATOM     10  C1  <0> d   1      18.595  -2.205  12.742  0.00  0.00     0.210 C 
ENDBRANCH   4   9
ENDBRANCH   2   3
ENDBRANCH   1   2
BRANCH   1  11
ATOM     11  C11 <0> d   1      19.514   2.601  11.558  0.00  0.00     0.166 C 
BRANCH  11  12
ATOM     12  O13 <0> d   1      20.915   2.556  11.831  0.00  0.00    -0.391 OA
ATOM     13  H28 <0> d   1      21.464   2.937  11.133  0.00  0.00     0.210 HD
ENDBRANCH  11  12
BRANCH  11  14
ATOM     14  C14 <0> d   1      19.231   1.896  10.230  0.00  0.00     0.214 C 
BRANCH  14  15
ATOM     15  O15 <0> d   1      19.123   0.466  10.456  0.00  0.00    -0.302 OA
BRANCH  15  16
ATOM     16  C16 <0> d   1      20.138  -0.301  10.012  0.00  0.00     0.358 C 
ATOM     17  N17 <0> d   1      21.220  -0.504  10.790  0.00  0.00    -0.346 N 
ATOM     18  H31 <0> d   1      21.269  -0.096  11.669  0.00  0.00     0.161 HD
ATOM     19  H32 <0> d   1      21.950  -1.056  10.471  0.00  0.00     0.161 HD
ATOM     20  O18 <0> d   1      20.077  -0.811   8.912  0.00  0.00    -0.239 OA
ENDBRANCH  15  16
ENDBRANCH  14  15
ENDBRANCH  11  14
ENDBRANCH   1  11
TORSDOF 8
ENDMDL
MODEL 7
REMARK VINA RESULT:      -5.4      3.859      6.356
REMARK  8 active torsions:
REMARK  status: ('A' for Active; 'I' for Inactive)
REMARK    1  A    between atoms: O2_2  and  C3_3 
REMARK    2  A    between atoms: C8_8  and  O9_9 
REMARK    3  A    between atoms: O9_9  and  C10_10 
REMARK    4  A    between atoms: C10_10  and  C11_11 
REMARK    5  A    between atoms: C11_11  and  O13_12 
REMARK    6  A    between atoms: C11_11  and  C14_13 
REMARK    7  A    between atoms: C14_13  and  O15_14 
REMARK    8  A    between atoms: O15_14  and  C16_15 
REMARK       I    between atoms: C16_15  and  N17_16 
ROOT
ATOM      1  C10 <0> d   1      19.509  -0.101  13.010  0.00  0.00     0.209 C 
ENDROOT
BRANCH   1   2
ATOM      2  O9  <0> d   1      18.643   0.543  13.945  0.00  0.00    -0.346 OA
BRANCH   2   3
ATOM      3  C8  <0> d   1      18.840   0.266  15.262  0.00  0.00     0.102 A 
ATOM      4  C3  <0> d   1      18.997   1.303  16.177  0.00  0.00     0.101 A 
ATOM      5  C4  <0> d   1      19.199   1.015  17.517  0.00  0.00     0.039 A 
ATOM      6  C5  <0> d   1      19.249  -0.300  17.942  0.00  0.00     0.003 A 
ATOM      7  C6  <0> d   1      19.099  -1.329  17.032  0.00  0.00     0.003 A 
ATOM      8  C7  <0> d   1      18.898  -1.050  15.693  0.00  0.00     0.039 A 
BRANCH   4   9
ATOM      9  O2  <0> d   1      18.947   2.596  15.757  0.00  0.00    -0.353 OA
ATOM     10  C1  <0> d   1      19.688   3.553  16.517  0.00  0.00     0.210 C 
ENDBRANCH   4   9
ENDBRANCH   2   3
ENDBRANCH   1   2
BRANCH   1  11
ATOM     11  C11 <0> d   1      20.360   0.950  12.293  0.00  0.00     0.166 C 
BRANCH  11  12
ATOM     12  O13 <0> d   1      21.579   0.353  11.847  0.00  0.00    -0.391 OA
ATOM     13  H28 <0> d   1      21.997   0.817  11.108  0.00  0.00     0.210 HD
ENDBRANCH  11  12
BRANCH  11  14
ATOM     14  C14 <0> d   1      19.589   1.496  11.090  0.00  0.00     0.214 C 
BRANCH  14  15
ATOM     15  O15 <0> d   1      19.237   2.883  11.330  0.00  0.00    -0.302 OA
BRANCH  15  16
ATOM     16  C16 <0> d   1      17.989   3.130  11.769  0.00  0.00     0.358 C 
ATOM     17  N17 <0> d   1      17.771   3.386  13.075  0.00  0.00    -0.346 N 
ATOM     18  H31 <0> d   1      18.514   3.390  13.698  0.00  0.00     0.161 HD
ATOM     19  H32 <0> d   1      16.872   3.563  13.391  0.00  0.00     0.161 HD
ATOM     20  O18 <0> d   1      17.058   3.125  10.988  0.00  0.00    -0.239 OA
ENDBRANCH  15  16
ENDBRANCH  14  15
ENDBRANCH  11  14
ENDBRANCH   1  11
TORSDOF 8
ENDMDL
MODEL 8
REMARK VINA RESULT:      -5.4      1.921      3.520
REMARK  8 active torsions:
REMARK  status: ('A' for Active; 'I' for Inactive)
REMARK    1  A    between atoms: O2_2  and  C3_3 
REMARK    2  A    between atoms: C8_8  and  O9_9 
REMARK    3  A    between atoms: O9_9  and  C10_10 
REMARK    4  A    between atoms: C10_10  and  C11_11 
REMARK    5  A    between atoms: C11_11  and  O13_12 
REMARK    6  A    between atoms: C11_11  and  C14_13 
REMARK    7  A    between atoms: C14_13  and  O15_14 
REMARK    8  A    between atoms: O15_14  and  C16_15 
REMARK       I    between atoms: C16_15  and  N17_16 
ROOT
ATOM      1  C10 <0> d   1      19.058   2.126   8.830  0.00  0.00     0.209 C 
ENDROOT
BRANCH   1   2
ATOM      2  O9  <0> d   1      18.550   0.800   8.671  0.00  0.00    -0.346 OA
BRANCH   2   3
ATOM      3  C8  <0> d   1      18.807   0.178   7.489  0.00  0.00     0.102 A 
ATOM      4  C3  <0> d   1      19.052  -1.191   7.460  0.00  0.00     0.101 A 
ATOM      5  C4  <0> d   1      19.314  -1.820   6.253  0.00  0.00     0.039 A 
ATOM      6  C5  <0> d   1      19.337  -1.086   5.082  0.00  0.00     0.003 A 
ATOM      7  C6  <0> d   1      19.100   0.276   5.112  0.00  0.00     0.003 A 
ATOM      8  C7  <0> d   1      18.838   0.910   6.312  0.00  0.00     0.039 A 
BRANCH   4   9
ATOM      9  O2  <0> d   1      19.028  -1.912   8.613  0.00  0.00    -0.353 OA
ATOM     10  C1  <0> d   1      17.963  -2.853   8.768  0.00  0.00     0.210 C 
ENDBRANCH   4   9
ENDBRANCH   2   3
ENDBRANCH   1   2
BRANCH   1  11
ATOM     11  C11 <0> d   1      18.520   2.726  10.131  0.00  0.00     0.166 C 
BRANCH  11  12
ATOM     12  O13 <0> d   1      17.466   1.904  10.634  0.00  0.00    -0.391 OA
ATOM     13  H28 <0> d   1      17.269   2.046  11.570  0.00  0.00     0.210 HD
ENDBRANCH  11  12
BRANCH  11  14
ATOM     14  C14 <0> d   1      19.646   2.800  11.163  0.00  0.00     0.214 C 
BRANCH  14  15
ATOM     15  O15 <0> d   1      19.485   1.732  12.132  0.00  0.00    -0.302 OA
BRANCH  15  16
ATOM     16  C16 <0> d   1      20.209   0.614  11.936  0.00  0.00     0.358 C 
ATOM     17  N17 <0> d   1      21.540   0.626  12.154  0.00  0.00    -0.346 N 
ATOM     18  H31 <0> d   1      21.975   1.440  12.450  0.00  0.00     0.161 HD
ATOM     19  H32 <0> d   1      22.062  -0.179  12.013  0.00  0.00     0.161 HD
ATOM     20  O18 <0> d   1      19.664  -0.406  11.565  0.00  0.00    -0.239 OA
ENDBRANCH  15  16
ENDBRANCH  14  15
ENDBRANCH  11  14
ENDBRANCH   1  11
TORSDOF 8
ENDMDL
MODEL 9
REMARK VINA RESULT:      -5.4      1.632      2.845
REMARK  8 active torsions:
REMARK  status: ('A' for Active; 'I' for Inactive)
REMARK    1  A    between atoms: O2_2  and  C3_3 
REMARK    2  A    between atoms: C8_8  and  O9_9 
REMARK    3  A    between atoms: O9_9  and  C10_10 
REMARK    4  A    between atoms: C10_10  and  C11_11 
REMARK    5  A    between atoms: C11_11  and  O13_12 
REMARK    6  A    between atoms: C11_11  and  C14_13 
REMARK    7  A    between atoms: C14_13  and  O15_14 
REMARK    8  A    between atoms: O15_14  and  C16_15 
REMARK       I    between atoms: C16_15  and  N17_16 
ROOT
ATOM      1  C10 <0> d   1      17.085  -0.533  12.257  0.00  0.00     0.209 C 
ENDROOT
BRANCH   1   2
ATOM      2  O9  <0> d   1      16.560   0.503  11.424  0.00  0.00    -0.346 OA
BRANCH   2   3
ATOM      3  C8  <0> d   1      17.400   1.035  10.497  0.00  0.00     0.102 A 
ATOM      4  C3  <0> d   1      17.645   2.405  10.483  0.00  0.00     0.101 A 
ATOM      5  C4  <0> d   1      18.502   2.943   9.535  0.00  0.00     0.039 A 
ATOM      6  C5  <0> d   1      19.105   2.119   8.603  0.00  0.00     0.003 A 
ATOM      7  C6  <0> d   1      18.856   0.759   8.613  0.00  0.00     0.003 A 
ATOM      8  C7  <0> d   1      18.003   0.216   9.556  0.00  0.00     0.039 A 
BRANCH   4   9
ATOM      9  O2  <0> d   1      17.051   3.213  11.401  0.00  0.00    -0.353 OA
ATOM     10  C1  <0> d   1      17.907   3.865  12.342  0.00  0.00     0.210 C 
ENDBRANCH   4   9
ENDBRANCH   2   3
ENDBRANCH   1   2
BRANCH   1  11
ATOM     11  C11 <0> d   1      17.944   0.086  13.362  0.00  0.00     0.166 C 
BRANCH  11  12
ATOM     12  O13 <0> d   1      17.241   0.023  14.604  0.00  0.00    -0.391 OA
ATOM     13  H28 <0> d   1      17.649  -0.561  15.257  0.00  0.00     0.210 HD
ENDBRANCH  11  12
BRANCH  11  14
ATOM     14  C14 <0> d   1      19.258  -0.687  13.480  0.00  0.00     0.214 C 
BRANCH  14  15
ATOM     15  O15 <0> d   1      20.373   0.238  13.386  0.00  0.00    -0.302 OA
BRANCH  15  16
ATOM     16  C16 <0> d   1      20.758   0.608  12.150  0.00  0.00     0.358 C 
ATOM     17  N17 <0> d   1      20.931   1.913  11.860  0.00  0.00    -0.346 N 
ATOM     18  H31 <0> d   1      20.777   2.586  12.541  0.00  0.00     0.161 HD
ATOM     19  H32 <0> d   1      21.208   2.180  10.970  0.00  0.00     0.161 HD
ATOM     20  O18 <0> d   1      20.951  -0.234  11.296  0.00  0.00    -0.239 OA
ENDBRANCH  15  16
ENDBRANCH  14  15
ENDBRANCH  11  14
ENDBRANCH   1  11
TORSDOF 8
ENDMDL
