MODEL 1
REMARK VINA RESULT:      -6.6      0.000      0.000
REMARK  1 active torsions:
REMARK  status: ('A' for Active; 'I' for Inactive)
REMARK    1  A    between atoms: C10_10  and  C12_11 
ROOT
ATOM      1  C1  ZIN A   1      17.897   2.141  10.811  0.00  0.00     0.001 A 
ATOM      2  C2  ZIN A   1      17.312   0.917  11.075  0.00  0.00     0.001 A 
ATOM      3  C3  ZIN A   1      17.335  -0.074  10.116  0.00  0.00     0.008 A 
ATOM      4  C4  ZIN A   1      17.944   0.146   8.888  0.00  0.00    -0.041 A 
ATOM      5  C5  ZIN A   1      18.531   1.362   8.627  0.00  0.00    -0.051 A 
ATOM      6  C6  ZIN A   1      18.503   2.361   9.591  0.00  0.00     0.007 A 
ATOM      7  C7  ZIN A   1      19.223   1.666   7.322  0.00  0.00     0.039 C 
ATOM      8  C8  ZIN A   1      18.802   0.667   6.246  0.00  0.00     0.006 C 
ATOM      9  C9  ZIN A   1      18.981  -0.750   6.803  0.00  0.00     0.017 C 
ATOM     10  C10 ZIN A   1      17.926  -0.978   7.884  0.00  0.00     0.086 C 
ENDROOT
BRANCH  10  11
ATOM     11  C12 ZIN A   1      18.213  -2.278   8.591  0.00  0.00     0.081 A 
ATOM     12  N17 ZIN A   1      19.329  -2.493   9.246  0.00  0.00    -0.378 N 
ATOM     13  C16 ZIN A   1      19.303  -3.847   9.822  0.00  0.00     0.140 A 
ATOM     14  H32 ZIN A   1      20.056  -1.857   9.340  0.00  0.00     0.160 HD
ATOM     15  C15 ZIN A   1      17.937  -4.398   9.362  0.00  0.00     0.140 A 
ATOM     16  N13 ZIN A   1      17.367  -3.282   8.591  0.00  0.00    -0.378 N 
ATOM     17  H14 ZIN A   1      16.503  -3.287   8.151  0.00  0.00     0.160 HD
ENDBRANCH  10  11
TORSDOF 1
ENDMDL
MODEL 2
REMARK VINA RESULT:      -6.6      1.293      1.632
REMARK  1 active torsions:
REMARK  status: ('A' for Active; 'I' for Inactive)
REMARK    1  A    between atoms: C10_10  and  C12_11 
ROOT
ATOM      1  C1  ZIN A   1      18.034   2.970  10.988  0.00  0.00     0.001 A 
ATOM      2  C2  ZIN A   1      17.561   1.840  11.630  0.00  0.00     0.001 A 
ATOM      3  C3  ZIN A   1      17.601   0.620  10.989  0.00  0.00     0.008 A 
ATOM      4  C4  ZIN A   1      18.114   0.515   9.703  0.00  0.00    -0.041 A 
ATOM      5  C5  ZIN A   1      18.591   1.637   9.065  0.00  0.00    -0.051 A 
ATOM      6  C6  ZIN A   1      18.546   2.867   9.710  0.00  0.00     0.007 A 
ATOM      7  C7  ZIN A   1      19.176   1.595   7.677  0.00  0.00     0.039 C 
ATOM      8  C8  ZIN A   1      18.767   0.310   6.961  0.00  0.00     0.006 C 
ATOM      9  C9  ZIN A   1      19.087  -0.878   7.876  0.00  0.00     0.017 C 
ATOM     10  C10 ZIN A   1      18.121  -0.848   9.059  0.00  0.00     0.086 C 
ENDROOT
BRANCH  10  11
ATOM     11  C12 ZIN A   1      18.549  -1.875  10.076  0.00  0.00     0.081 A 
ATOM     12  N17 ZIN A   1      17.697  -2.679  10.666  0.00  0.00    -0.378 N 
ATOM     13  C16 ZIN A   1      18.424  -3.560  11.596  0.00  0.00     0.140 A 
ATOM     14  H32 ZIN A   1      16.740  -2.695  10.511  0.00  0.00     0.160 HD
ATOM     15  C15 ZIN A   1      19.889  -3.102  11.441  0.00  0.00     0.140 A 
ATOM     16  N13 ZIN A   1      19.801  -2.026  10.441  0.00  0.00    -0.378 N 
ATOM     17  H14 ZIN A   1      20.549  -1.510  10.104  0.00  0.00     0.160 HD
ENDBRANCH  10  11
TORSDOF 1
ENDMDL
MODEL 3
REMARK VINA RESULT:      -6.5      1.553      2.268
REMARK  1 active torsions:
REMARK  status: ('A' for Active; 'I' for Inactive)
REMARK    1  A    between atoms: C10_10  and  C12_11 
ROOT
ATOM      1  C1  ZIN A   1      18.474   1.267   9.083  0.00  0.00     0.001 A 
ATOM      2  C2  ZIN A   1      17.943   0.027   9.383  0.00  0.00     0.001 A 
ATOM      3  C3  ZIN A   1      17.873  -0.943   8.406  0.00  0.00     0.008 A 
ATOM      4  C4  ZIN A   1      18.335  -0.686   7.122  0.00  0.00    -0.041 A 
ATOM      5  C5  ZIN A   1      18.869   0.546   6.824  0.00  0.00    -0.051 A 
ATOM      6  C6  ZIN A   1      18.935   1.524   7.808  0.00  0.00     0.007 A 
ATOM      7  C7  ZIN A   1      19.404   0.890   5.457  0.00  0.00     0.039 C 
ATOM      8  C8  ZIN A   1      18.879  -0.093   4.413  0.00  0.00     0.006 C 
ATOM      9  C9  ZIN A   1      19.143  -1.518   4.913  0.00  0.00     0.017 C 
ATOM     10  C10 ZIN A   1      18.221  -1.789   6.101  0.00  0.00     0.086 C 
ENDROOT
BRANCH  10  11
ATOM     11  C12 ZIN A   1      18.607  -3.098   6.740  0.00  0.00     0.081 A 
ATOM     12  N17 ZIN A   1      17.729  -4.032   7.019  0.00  0.00    -0.378 N 
ATOM     13  C16 ZIN A   1      18.418  -5.181   7.630  0.00  0.00     0.140 A 
ATOM     14  H32 ZIN A   1      16.776  -3.976   6.847  0.00  0.00     0.160 HD
ATOM     15  C15 ZIN A   1      19.893  -4.729   7.664  0.00  0.00     0.140 A 
ATOM     16  N13 ZIN A   1      19.846  -3.386   7.064  0.00  0.00    -0.378 N 
ATOM     17  H14 ZIN A   1      20.611  -2.805   6.929  0.00  0.00     0.160 HD
ENDBRANCH  10  11
TORSDOF 1
ENDMDL
MODEL 4
REMARK VINA RESULT:      -6.3      5.478      7.845
REMARK  1 active torsions:
REMARK  status: ('A' for Active; 'I' for Inactive)
REMARK    1  A    between atoms: C10_10  and  C12_11 
ROOT
ATOM      1  C1  ZIN A   1      18.286   2.659  18.453  0.00  0.00     0.001 A 
ATOM      2  C2  ZIN A   1      19.036   3.205  17.428  0.00  0.00     0.001 A 
ATOM      3  C3  ZIN A   1      19.301   2.457  16.300  0.00  0.00     0.008 A 
ATOM      4  C4  ZIN A   1      18.819   1.161  16.183  0.00  0.00    -0.041 A 
ATOM      5  C5  ZIN A   1      18.067   0.618  17.201  0.00  0.00    -0.051 A 
ATOM      6  C6  ZIN A   1      17.805   1.371  18.339  0.00  0.00     0.007 A 
ATOM      7  C7  ZIN A   1      17.498  -0.776  17.136  0.00  0.00     0.039 C 
ATOM      8  C8  ZIN A   1      18.213  -1.598  16.065  0.00  0.00     0.006 C 
ATOM      9  C9  ZIN A   1      18.214  -0.796  14.759  0.00  0.00     0.017 C 
ATOM     10  C10 ZIN A   1      19.152   0.398  14.927  0.00  0.00     0.086 C 
ENDROOT
BRANCH  10  11
ATOM     11  C12 ZIN A   1      19.008   1.313  13.738  0.00  0.00     0.081 A 
ATOM     12  N17 ZIN A   1      17.848   1.794  13.355  0.00  0.00    -0.378 N 
ATOM     13  C16 ZIN A   1      18.044   2.651  12.175  0.00  0.00     0.140 A 
ATOM     14  H32 ZIN A   1      16.998   1.615  13.784  0.00  0.00     0.160 HD
ATOM     15  C15 ZIN A   1      19.565   2.572  11.930  0.00  0.00     0.140 A 
ATOM     16  N13 ZIN A   1      20.033   1.685  13.007  0.00  0.00    -0.378 N 
ATOM     17  H14 ZIN A   1      20.953   1.416  13.153  0.00  0.00     0.160 HD
ENDBRANCH  10  11
TORSDOF 1
ENDMDL
MODEL 5
REMARK VINA RESULT:      -6.3      2.931      4.721
REMARK  1 active torsions:
REMARK  status: ('A' for Active; 'I' for Inactive)
REMARK    1  A    between atoms: C10_10  and  C12_11 
ROOT
ATOM      1  C1  ZIN A   1      19.318   0.325   8.126  0.00  0.00     0.001 A 
ATOM      2  C2  ZIN A   1      19.907  -0.452   9.106  0.00  0.00     0.001 A 
ATOM      3  C3  ZIN A   1      19.999   0.027  10.397  0.00  0.00     0.008 A 
ATOM      4  C4  ZIN A   1      19.501   1.281  10.721  0.00  0.00    -0.041 A 
ATOM      5  C5  ZIN A   1      18.909   2.053   9.747  0.00  0.00    -0.051 A 
ATOM      6  C6  ZIN A   1      18.822   1.572   8.447  0.00  0.00     0.007 A 
ATOM      7  C7  ZIN A   1      18.334   3.417  10.031  0.00  0.00     0.039 C 
ATOM      8  C8  ZIN A   1      18.878   3.966  11.347  0.00  0.00     0.006 C 
ATOM      9  C9  ZIN A   1      18.685   2.902  12.434  0.00  0.00     0.017 C 
ATOM     10  C10 ZIN A   1      19.641   1.744  12.149  0.00  0.00     0.086 C 
ENDROOT
BRANCH  10  11
ATOM     11  C12 ZIN A   1      19.323   0.599  13.075  0.00  0.00     0.081 A 
ATOM     12  N17 ZIN A   1      18.092   0.234  13.347  0.00  0.00    -0.378 N 
ATOM     13  C16 ZIN A   1      18.119  -0.910  14.274  0.00  0.00     0.140 A 
ATOM     14  H32 ZIN A   1      17.292   0.649  12.991  0.00  0.00     0.160 HD
ATOM     15  C15 ZIN A   1      19.627  -1.142  14.504  0.00  0.00     0.140 A 
ATOM     16  N13 ZIN A   1      20.257  -0.104  13.673  0.00  0.00    -0.378 N 
ATOM     17  H14 ZIN A   1      21.212   0.040  13.582  0.00  0.00     0.160 HD
ENDBRANCH  10  11
TORSDOF 1
ENDMDL
MODEL 6
REMARK VINA RESULT:      -6.2      3.364      5.572
REMARK  1 active torsions:
REMARK  status: ('A' for Active; 'I' for Inactive)
REMARK    1  A    between atoms: C10_10  and  C12_11 
ROOT
ATOM      1  C1  ZIN A   1      17.477  -1.252  12.218  0.00  0.00     0.001 A 
ATOM      2  C2  ZIN A   1      18.179  -0.410  13.061  0.00  0.00     0.001 A 
ATOM      3  C3  ZIN A   1      18.778   0.723  12.553  0.00  0.00     0.008 A 
ATOM      4  C4  ZIN A   1      18.680   1.029  11.203  0.00  0.00    -0.041 A 
ATOM      5  C5  ZIN A   1      17.977   0.194  10.364  0.00  0.00    -0.051 A 
ATOM      6  C6  ZIN A   1      17.378  -0.950  10.875  0.00  0.00     0.007 A 
ATOM      7  C7  ZIN A   1      17.817   0.472   8.891  0.00  0.00     0.039 C 
ATOM      8  C8  ZIN A   1      18.857   1.484   8.419  0.00  0.00     0.006 C 
ATOM      9  C9  ZIN A   1      18.811   2.698   9.353  0.00  0.00     0.017 C 
ATOM     10  C10 ZIN A   1      19.365   2.280  10.714  0.00  0.00     0.086 C 
ENDROOT
BRANCH  10  11
ATOM     11  C12 ZIN A   1      19.135   3.390  11.707  0.00  0.00     0.081 A 
ATOM     12  N17 ZIN A   1      17.942   3.876  11.956  0.00  0.00    -0.378 N 
ATOM     13  C16 ZIN A   1      18.053   4.940  12.968  0.00  0.00     0.140 A 
ATOM     14  H32 ZIN A   1      17.117   3.579  11.543  0.00  0.00     0.160 HD
ATOM     15  C15 ZIN A   1      19.567   4.991  13.261  0.00  0.00     0.140 A 
ATOM     16  N13 ZIN A   1      20.114   3.947  12.381  0.00  0.00    -0.378 N 
ATOM     17  H14 ZIN A   1      21.051   3.707  12.309  0.00  0.00     0.160 HD
ENDBRANCH  10  11
TORSDOF 1
ENDMDL
MODEL 7
REMARK VINA RESULT:      -6.2      4.169      6.897
REMARK  1 active torsions:
REMARK  status: ('A' for Active; 'I' for Inactive)
REMARK    1  A    between atoms: C10_10  and  C12_11 
ROOT
ATOM      1  C1  ZIN A   1      17.883  -2.002  11.665  0.00  0.00     0.001 A 
ATOM      2  C2  ZIN A   1      17.360  -0.780  11.284  0.00  0.00     0.001 A 
ATOM      3  C3  ZIN A   1      17.433   0.294  12.146  0.00  0.00     0.008 A 
ATOM      4  C4  ZIN A   1      18.030   0.161  13.392  0.00  0.00    -0.041 A 
ATOM      5  C5  ZIN A   1      18.556  -1.054  13.770  0.00  0.00    -0.051 A 
ATOM      6  C6  ZIN A   1      18.478  -2.137  12.903  0.00  0.00     0.007 A 
ATOM      7  C7  ZIN A   1      19.232  -1.267  15.100  0.00  0.00     0.039 C 
ATOM      8  C8  ZIN A   1      18.861  -0.152  16.075  0.00  0.00     0.006 C 
ATOM      9  C9  ZIN A   1      19.111   1.196  15.388  0.00  0.00     0.017 C 
ATOM     10  C10 ZIN A   1      18.069   1.374  14.285  0.00  0.00     0.086 C 
ENDROOT
BRANCH  10  11
ATOM     11  C12 ZIN A   1      18.421   2.586  13.461  0.00  0.00     0.081 A 
ATOM     12  N17 ZIN A   1      19.617   2.769  12.954  0.00  0.00    -0.378 N 
ATOM     13  C16 ZIN A   1      19.638   4.036  12.204  0.00  0.00     0.140 A 
ATOM     14  H32 ZIN A   1      20.368   2.164  13.053  0.00  0.00     0.160 HD
ATOM     15  C15 ZIN A   1      18.202   4.573  12.381  0.00  0.00     0.140 A 
ATOM     16  N13 ZIN A   1      17.556   3.538  13.203  0.00  0.00    -0.378 N 
ATOM     17  H14 ZIN A   1      16.635   3.556  13.506  0.00  0.00     0.160 HD
ENDBRANCH  10  11
TORSDOF 1
ENDMDL
MODEL 8
REMARK VINA RESULT:      -6.0      2.468      3.456
REMARK  1 active torsions:
REMARK  status: ('A' for Active; 'I' for Inactive)
REMARK    1  A    between atoms: C10_10  and  C12_11 
ROOT
ATOM      1  C1  ZIN A   1      17.838   4.377  10.577  0.00  0.00     0.001 A 
ATOM      2  C2  ZIN A   1      17.374   3.630  11.644  0.00  0.00     0.001 A 
ATOM      3  C3  ZIN A   1      17.509   2.257  11.629  0.00  0.00     0.008 A 
ATOM      4  C4  ZIN A   1      18.109   1.619  10.553  0.00  0.00    -0.041 A 
ATOM      5  C5  ZIN A   1      18.577   2.363   9.493  0.00  0.00    -0.051 A 
ATOM      6  C6  ZIN A   1      18.436   3.744   9.507  0.00  0.00     0.007 A 
ATOM      7  C7  ZIN A   1      19.253   1.739   8.299  0.00  0.00     0.039 C 
ATOM      8  C8  ZIN A   1      18.948   0.244   8.230  0.00  0.00     0.006 C 
ATOM      9  C9  ZIN A   1      19.260  -0.378   9.597  0.00  0.00     0.017 C 
ATOM     10  C10 ZIN A   1      18.218   0.117  10.599  0.00  0.00     0.086 C 
ENDROOT
BRANCH  10  11
ATOM     11  C12 ZIN A   1      18.623  -0.309  11.986  0.00  0.00     0.081 A 
ATOM     12  N17 ZIN A   1      17.832  -1.004  12.770  0.00  0.00    -0.378 N 
ATOM     13  C16 ZIN A   1      18.516  -1.261  14.047  0.00  0.00     0.140 A 
ATOM     14  H32 ZIN A   1      16.939  -1.304  12.541  0.00  0.00     0.160 HD
ATOM     15  C15 ZIN A   1      19.880  -0.563  13.863  0.00  0.00     0.140 A 
ATOM     16  N13 ZIN A   1      19.791  -0.007  12.504  0.00  0.00    -0.378 N 
ATOM     17  H14 ZIN A   1      20.486   0.503  12.059  0.00  0.00     0.160 HD
ENDBRANCH  10  11
TORSDOF 1
ENDMDL
MODEL 9
REMARK VINA RESULT:      -6.0      4.833      6.948
REMARK  1 active torsions:
REMARK  status: ('A' for Active; 'I' for Inactive)
REMARK    1  A    between atoms: C10_10  and  C12_11 
ROOT
ATOM      1  C1  ZIN A   1      17.482   4.865  10.147  0.00  0.00     0.001 A 
ATOM      2  C2  ZIN A   1      17.041   5.276  11.392  0.00  0.00     0.001 A 
ATOM      3  C3  ZIN A   1      17.265   4.480  12.495  0.00  0.00     0.008 A 
ATOM      4  C4  ZIN A   1      17.931   3.269  12.368  0.00  0.00    -0.041 A 
ATOM      5  C5  ZIN A   1      18.376   2.861  11.131  0.00  0.00    -0.051 A 
ATOM      6  C6  ZIN A   1      18.146   3.662  10.019  0.00  0.00     0.007 A 
ATOM      7  C7  ZIN A   1      19.120   1.567  10.922  0.00  0.00     0.039 C 
ATOM      8  C8  ZIN A   1      18.914   0.631  12.110  0.00  0.00     0.006 C 
ATOM      9  C9  ZIN A   1      19.231   1.404  13.396  0.00  0.00     0.017 C 
ATOM     10  C10 ZIN A   1      18.135   2.446  13.614  0.00  0.00     0.086 C 
ENDROOT
BRANCH  10  11
ATOM     11  C12 ZIN A   1      18.533   3.354  14.749  0.00  0.00     0.081 A 
ATOM     12  N17 ZIN A   1      17.749   3.583  15.776  0.00  0.00    -0.378 N 
ATOM     13  C16 ZIN A   1      18.423   4.503  16.707  0.00  0.00     0.140 A 
ATOM     14  H32 ZIN A   1      16.867   3.201  15.905  0.00  0.00     0.160 HD
ATOM     15  C15 ZIN A   1      19.771   4.783  16.010  0.00  0.00     0.140 A 
ATOM     16  N13 ZIN A   1      19.686   3.980  14.780  0.00  0.00    -0.378 N 
ATOM     17  H14 ZIN A   1      20.374   3.922  14.098  0.00  0.00     0.160 HD
ENDBRANCH  10  11
TORSDOF 1
ENDMDL
