MODEL 1
REMARK VINA RESULT:      -8.8      0.000      0.000
REMARK  13 active torsions:
REMARK  status: ('A' for Active; 'I' for Inactive)
REMARK    1  A    between atoms: O2_2  and  C3_3 
REMARK    2  A    between atoms: C3_3  and  C5_5 
REMARK    3  A    between atoms: C5_5  and  C6_6 
REMARK    4  A    between atoms: C6_6  and  O7_7 
REMARK    5  A    between atoms: C6_6  and  C8_8 
REMARK    6  A    between atoms: C6_6  and  C15_15 
REMARK    7  A    between atoms: C8_8  and  C9_9 
REMARK    8  A    between atoms: C9_9  and  C10_10 
REMARK    9  A    between atoms: C10_10  and  C11_11 
REMARK   10  A    between atoms: C11_11  and  O14_14 
REMARK   11  A    between atoms: C15_15  and  O17_17 
REMARK   12  A    between atoms: O17_17  and  C18_18 
REMARK   13  A    between atoms: C20_19  and  O21_20 
ROOT
ATOM      1  C18 ZIN A   1      17.887   3.349  12.732  0.00  0.00     0.199 C 
ATOM      2  C20 ZIN A   1      17.170   4.592  12.248  0.00  0.00     0.074 C 
ATOM      3  C23 ZIN A   1      17.275   5.568  13.127  0.00  0.00     0.048 C 
ATOM      4  C24 ZIN A   1      18.072   5.118  14.317  0.00  0.00     0.158 C 
ATOM      5  C25 ZIN A   1      17.157   4.856  15.525  0.00  0.00     0.046 C 
ATOM      6  C26 ZIN A   1      16.996   6.299  16.082  0.00  0.00     0.030 C 
ATOM      7  C27 ZIN A   1      18.372   6.941  15.806  0.00  0.00     0.236 C 
ATOM      8  N28 ZIN A   1      19.041   6.122  14.763  0.00  0.00    -0.058 N 
ATOM      9  H29 ZIN A   1      19.374   6.693  14.002  0.00  0.00     0.281 HD
ATOM     10  C30 ZIN A   1      20.153   5.411  15.436  0.00  0.00     0.241 C 
ATOM     11  C31 ZIN A   1      19.590   4.625  16.616  0.00  0.00     0.067 C 
ATOM     12  C32 ZIN A   1      19.246   3.203  16.245  0.00  0.00    -0.047 A 
ATOM     13  C33 ZIN A   1      19.345   2.251  17.264  0.00  0.00     0.047 A 
ATOM     14  C34 ZIN A   1      19.018   0.940  16.965  0.00  0.00     0.105 A 
ATOM     15  C35 ZIN A   1      18.595   0.578  15.677  0.00  0.00     0.105 A 
ATOM     16  C36 ZIN A   1      18.505   1.523  14.668  0.00  0.00     0.048 A 
ATOM     17  C37 ZIN A   1      18.851   2.838  14.978  0.00  0.00    -0.039 A 
ATOM     18  C38 ZIN A   1      18.810   3.848  13.867  0.00  0.00     0.095 C 
ATOM     19  O40 ZIN A   1      18.333  -0.749  15.660  0.00  0.00    -0.323 OA
ATOM     20  C41 ZIN A   1      18.974  -1.283  16.836  0.00  0.00     0.352 C 
ATOM     21  O42 ZIN A   1      19.026  -0.165  17.745  0.00  0.00    -0.323 OA
ENDROOT
BRANCH   1  22
ATOM     22  O17 ZIN A   1      18.673   2.767  11.660  0.00  0.00    -0.306 OA
BRANCH  22  23
ATOM     23  C15 ZIN A   1      18.181   1.664  11.074  0.00  0.00     0.294 C 
ATOM     24  O16 ZIN A   1      17.005   1.404  11.166  0.00  0.00    -0.262 OA
BRANCH  23  25
ATOM     25  C6  ZIN A   1      19.096   0.751  10.299  0.00  0.00     0.154 C 
BRANCH  25  26
ATOM     26  C5  ZIN A   1      18.469  -0.643  10.213  0.00  0.00     0.159 C 
BRANCH  26  27
ATOM     27  C3  ZIN A   1      18.995  -1.500  11.335  0.00  0.00     0.261 C 
ATOM     28  O4  ZIN A   1      18.481  -1.447  12.428  0.00  0.00    -0.265 OA
BRANCH  27  29
ATOM     29  O2  ZIN A   1      20.034  -2.323  11.122  0.00  0.00    -0.326 OA
ATOM     30  C1  ZIN A   1      19.749  -3.746  11.067  0.00  0.00     0.213 C 
ENDBRANCH  27  29
ENDBRANCH  26  27
ENDBRANCH  25  26
BRANCH  25  31
ATOM     31  O7  ZIN A   1      20.358   0.665  10.963  0.00  0.00    -0.379 OA
ATOM     32  H48 ZIN A   1      21.113   0.588  10.364  0.00  0.00     0.211 HD
ENDBRANCH  25  31
BRANCH  25  33
ATOM     33  C8  ZIN A   1      19.297   1.307   8.889  0.00  0.00     0.049 C 
BRANCH  33  34
ATOM     34  C9  ZIN A   1      18.446   0.509   7.899  0.00  0.00     0.006 C 
BRANCH  34  35
ATOM     35  C10 ZIN A   1      18.936   0.774   6.474  0.00  0.00     0.037 C 
BRANCH  35  36
ATOM     36  C11 ZIN A   1      19.003  -0.545   5.703  0.00  0.00     0.051 C 
ATOM     37  C12 ZIN A   1      19.347  -1.682   6.666  0.00  0.00     0.045 C 
ATOM     38  C13 ZIN A   1      17.647  -0.823   5.050  0.00  0.00     0.045 C 
BRANCH  36  39
ATOM     39  O14 ZIN A   1      20.009  -0.455   4.692  0.00  0.00    -0.391 OA
ATOM     40  H61 ZIN A   1      20.011   0.385   4.212  0.00  0.00     0.210 HD
ENDBRANCH  36  39
ENDBRANCH  35  36
ENDBRANCH  34  35
ENDBRANCH  33  34
ENDBRANCH  25  33
ENDBRANCH  23  25
ENDBRANCH  22  23
ENDBRANCH   1  22
BRANCH   2  41
ATOM     41  O21 ZIN A   1      16.509   4.688  11.067  0.00  0.00    -0.358 OA
ATOM     42  C22 ZIN A   1      17.221   5.263   9.970  0.00  0.00     0.209 C 
ENDBRANCH   2  41
TORSDOF 13
ENDMDL
MODEL 2
REMARK VINA RESULT:      -8.4      2.945      9.268
REMARK  13 active torsions:
REMARK  status: ('A' for Active; 'I' for Inactive)
REMARK    1  A    between atoms: O2_2  and  C3_3 
REMARK    2  A    between atoms: C3_3  and  C5_5 
REMARK    3  A    between atoms: C5_5  and  C6_6 
REMARK    4  A    between atoms: C6_6  and  O7_7 
REMARK    5  A    between atoms: C6_6  and  C8_8 
REMARK    6  A    between atoms: C6_6  and  C15_15 
REMARK    7  A    between atoms: C8_8  and  C9_9 
REMARK    8  A    between atoms: C9_9  and  C10_10 
REMARK    9  A    between atoms: C10_10  and  C11_11 
REMARK   10  A    between atoms: C11_11  and  O14_14 
REMARK   11  A    between atoms: C15_15  and  O17_17 
REMARK   12  A    between atoms: O17_17  and  C18_18 
REMARK   13  A    between atoms: C20_19  and  O21_20 
ROOT
ATOM      1  C18 ZIN A   1      18.520  -1.499  10.536  0.00  0.00     0.199 C 
ATOM      2  C20 ZIN A   1      17.713  -2.026  11.703  0.00  0.00     0.074 C 
ATOM      3  C23 ZIN A   1      17.459  -3.311  11.558  0.00  0.00     0.048 C 
ATOM      4  C24 ZIN A   1      18.058  -3.822  10.279  0.00  0.00     0.158 C 
ATOM      5  C25 ZIN A   1      16.971  -4.040   9.213  0.00  0.00     0.046 C 
ATOM      6  C26 ZIN A   1      16.448  -5.447   9.620  0.00  0.00     0.030 C 
ATOM      7  C27 ZIN A   1      17.717  -6.165  10.125  0.00  0.00     0.236 C 
ATOM      8  N28 ZIN A   1      18.721  -5.118  10.442  0.00  0.00    -0.058 N 
ATOM      9  H29 ZIN A   1      19.100  -5.237  11.369  0.00  0.00     0.281 HD
ATOM     10  C30 ZIN A   1      19.776  -5.220   9.406  0.00  0.00     0.241 C 
ATOM     11  C31 ZIN A   1      19.127  -5.102   8.031  0.00  0.00     0.067 C 
ATOM     12  C32 ZIN A   1      19.122  -3.681   7.521  0.00  0.00    -0.047 A 
ATOM     13  C33 ZIN A   1      19.172  -3.517   6.134  0.00  0.00     0.047 A 
ATOM     14  C34 ZIN A   1      19.150  -2.228   5.629  0.00  0.00     0.105 A 
ATOM     15  C35 ZIN A   1      19.074  -1.119   6.486  0.00  0.00     0.105 A 
ATOM     16  C36 ZIN A   1      19.032  -1.287   7.860  0.00  0.00     0.048 A 
ATOM     17  C37 ZIN A   1      19.069  -2.588   8.357  0.00  0.00    -0.039 A 
ATOM     18  C38 ZIN A   1      19.084  -2.764   9.848  0.00  0.00     0.095 C 
ATOM     19  O40 ZIN A   1      19.058   0.009   5.739  0.00  0.00    -0.323 OA
ATOM     20  C41 ZIN A   1      19.525  -0.387   4.433  0.00  0.00     0.352 C 
ATOM     21  O42 ZIN A   1      19.189  -1.787   4.351  0.00  0.00    -0.323 OA
ENDROOT
BRANCH   1  22
ATOM     22  O17 ZIN A   1      19.601  -0.654  11.007  0.00  0.00    -0.306 OA
BRANCH  22  23
ATOM     23  C15 ZIN A   1      19.379   0.670  11.018  0.00  0.00     0.294 C 
ATOM     24  O16 ZIN A   1      18.833   1.199  10.079  0.00  0.00    -0.262 OA
BRANCH  23  25
ATOM     25  C6  ZIN A   1      19.809   1.497  12.203  0.00  0.00     0.154 C 
BRANCH  25  26
ATOM     26  C5  ZIN A   1      18.653   2.400  12.639  0.00  0.00     0.159 C 
BRANCH  26  27
ATOM     27  C3  ZIN A   1      18.997   3.836  12.339  0.00  0.00     0.261 C 
ATOM     28  O4  ZIN A   1      19.567   4.507  13.167  0.00  0.00    -0.265 OA
BRANCH  27  29
ATOM     29  O2  ZIN A   1      18.670   4.372  11.152  0.00  0.00    -0.326 OA
ATOM     30  C1  ZIN A   1      17.267   4.342  10.780  0.00  0.00     0.213 C 
ENDBRANCH  27  29
ENDBRANCH  26  27
ENDBRANCH  25  26
BRANCH  25  31
ATOM     31  O7  ZIN A   1      20.931   2.302  11.839  0.00  0.00    -0.379 OA
ATOM     32  H48 ZIN A   1      20.700   3.205  11.580  0.00  0.00     0.211 HD
ENDBRANCH  25  31
BRANCH  25  33
ATOM     33  C8  ZIN A   1      20.196   0.571  13.357  0.00  0.00     0.049 C 
BRANCH  33  34
ATOM     34  C9  ZIN A   1      19.396   0.950  14.605  0.00  0.00     0.006 C 
BRANCH  34  35
ATOM     35  C10 ZIN A   1      19.154  -0.299  15.455  0.00  0.00     0.037 C 
BRANCH  35  36
ATOM     36  C11 ZIN A   1      18.329   0.075  16.688  0.00  0.00     0.051 C 
ATOM     37  C12 ZIN A   1      17.128  -0.865  16.803  0.00  0.00     0.045 C 
ATOM     38  C13 ZIN A   1      19.199  -0.054  17.941  0.00  0.00     0.045 C 
BRANCH  36  39
ATOM     39  O14 ZIN A   1      17.870   1.422  16.563  0.00  0.00    -0.391 OA
ATOM     40  H61 ZIN A   1      17.497   1.787  17.378  0.00  0.00     0.210 HD
ENDBRANCH  36  39
ENDBRANCH  35  36
ENDBRANCH  34  35
ENDBRANCH  33  34
ENDBRANCH  25  33
ENDBRANCH  23  25
ENDBRANCH  22  23
ENDBRANCH   1  22
BRANCH   2  41
ATOM     41  O21 ZIN A   1      17.306  -1.276  12.758  0.00  0.00    -0.358 OA
ATOM     42  C22 ZIN A   1      16.443  -0.172  12.475  0.00  0.00     0.209 C 
ENDBRANCH   2  41
TORSDOF 13
ENDMDL
MODEL 3
REMARK VINA RESULT:      -8.2      1.531      3.126
REMARK  13 active torsions:
REMARK  status: ('A' for Active; 'I' for Inactive)
REMARK    1  A    between atoms: O2_2  and  C3_3 
REMARK    2  A    between atoms: C3_3  and  C5_5 
REMARK    3  A    between atoms: C5_5  and  C6_6 
REMARK    4  A    between atoms: C6_6  and  O7_7 
REMARK    5  A    between atoms: C6_6  and  C8_8 
REMARK    6  A    between atoms: C6_6  and  C15_15 
REMARK    7  A    between atoms: C8_8  and  C9_9 
REMARK    8  A    between atoms: C9_9  and  C10_10 
REMARK    9  A    between atoms: C10_10  and  C11_11 
REMARK   10  A    between atoms: C11_11  and  O14_14 
REMARK   11  A    between atoms: C15_15  and  O17_17 
REMARK   12  A    between atoms: O17_17  and  C18_18 
REMARK   13  A    between atoms: C20_19  and  O21_20 
ROOT
ATOM      1  C18 ZIN A   1      18.351   3.094  12.974  0.00  0.00     0.199 C 
ATOM      2  C20 ZIN A   1      17.558   4.056  12.115  0.00  0.00     0.074 C 
ATOM      3  C23 ZIN A   1      17.383   5.206  12.734  0.00  0.00     0.048 C 
ATOM      4  C24 ZIN A   1      18.031   5.175  14.088  0.00  0.00     0.158 C 
ATOM      5  C25 ZIN A   1      16.976   5.035  15.199  0.00  0.00     0.046 C 
ATOM      6  C26 ZIN A   1      16.530   6.515  15.360  0.00  0.00     0.030 C 
ATOM      7  C27 ZIN A   1      17.831   7.307  15.111  0.00  0.00     0.236 C 
ATOM      8  N28 ZIN A   1      18.767   6.405  14.392  0.00  0.00    -0.058 N 
ATOM      9  H29 ZIN A   1      19.137   6.841  13.562  0.00  0.00     0.281 HD
ATOM     10  C30 ZIN A   1      19.842   6.063  15.353  0.00  0.00     0.241 C 
ATOM     11  C31 ZIN A   1      19.208   5.474  16.610  0.00  0.00     0.067 C 
ATOM     12  C32 ZIN A   1      19.128   3.968  16.558  0.00  0.00    -0.047 A 
ATOM     13  C33 ZIN A   1      19.190   3.298  17.783  0.00  0.00     0.047 A 
ATOM     14  C34 ZIN A   1      19.100   1.916  17.775  0.00  0.00     0.105 A 
ATOM     15  C35 ZIN A   1      18.946   1.210  16.572  0.00  0.00     0.105 A 
ATOM     16  C36 ZIN A   1      18.892   1.878  15.360  0.00  0.00     0.048 A 
ATOM     17  C37 ZIN A   1      18.998   3.268  15.379  0.00  0.00    -0.039 A 
ATOM     18  C38 ZIN A   1      18.999   3.984  14.059  0.00  0.00     0.095 C 
ATOM     19  O40 ZIN A   1      18.875  -0.112  16.848  0.00  0.00    -0.323 OA
ATOM     20  C41 ZIN A   1      19.385  -0.254  18.191  0.00  0.00     0.352 C 
ATOM     21  O42 ZIN A   1      19.133   1.031  18.797  0.00  0.00    -0.323 OA
ENDROOT
BRANCH   1  22
ATOM     22  O17 ZIN A   1      19.373   2.433  12.184  0.00  0.00    -0.306 OA
BRANCH  22  23
ATOM     23  C15 ZIN A   1      19.485   1.102  12.323  0.00  0.00     0.294 C 
ATOM     24  O16 ZIN A   1      20.254   0.642  13.133  0.00  0.00    -0.262 OA
BRANCH  23  25
ATOM     25  C6  ZIN A   1      18.650   0.182  11.470  0.00  0.00     0.154 C 
BRANCH  25  26
ATOM     26  C5  ZIN A   1      19.562  -0.599  10.522  0.00  0.00     0.159 C 
BRANCH  26  27
ATOM     27  C3  ZIN A   1      19.155  -0.328   9.096  0.00  0.00     0.261 C 
ATOM     28  O4  ZIN A   1      18.404  -1.085   8.527  0.00  0.00    -0.265 OA
BRANCH  27  29
ATOM     29  O2  ZIN A   1      19.628   0.754   8.457  0.00  0.00    -0.326 OA
ATOM     30  C1  ZIN A   1      18.976   1.122   7.213  0.00  0.00     0.213 C 
ENDBRANCH  27  29
ENDBRANCH  26  27
ENDBRANCH  25  26
BRANCH  25  31
ATOM     31  O7  ZIN A   1      17.720   0.953  10.707  0.00  0.00    -0.379 OA
ATOM     32  H48 ZIN A   1      17.099   1.464  11.245  0.00  0.00     0.211 HD
ENDBRANCH  25  31
BRANCH  25  33
ATOM     33  C8  ZIN A   1      17.890  -0.796  12.367  0.00  0.00     0.049 C 
BRANCH  33  34
ATOM     34  C9  ZIN A   1      18.492  -2.195  12.222  0.00  0.00     0.006 C 
BRANCH  34  35
ATOM     35  C10 ZIN A   1      17.449  -3.140  11.622  0.00  0.00     0.037 C 
BRANCH  35  36
ATOM     36  C11 ZIN A   1      18.152  -4.222  10.801  0.00  0.00     0.051 C 
ATOM     37  C12 ZIN A   1      19.611  -4.332  11.245  0.00  0.00     0.045 C 
ATOM     38  C13 ZIN A   1      17.450  -5.565  11.020  0.00  0.00     0.045 C 
BRANCH  36  39
ATOM     39  O14 ZIN A   1      18.099  -3.878   9.415  0.00  0.00    -0.391 OA
ATOM     40  H61 ZIN A   1      18.966  -3.719   9.016  0.00  0.00     0.210 HD
ENDBRANCH  36  39
ENDBRANCH  35  36
ENDBRANCH  34  35
ENDBRANCH  33  34
ENDBRANCH  25  33
ENDBRANCH  23  25
ENDBRANCH  22  23
ENDBRANCH   1  22
BRANCH   2  41
ATOM     41  O21 ZIN A   1      17.091   3.772  10.873  0.00  0.00    -0.358 OA
ATOM     42  C22 ZIN A   1      17.790   4.350   9.769  0.00  0.00     0.209 C 
ENDBRANCH   2  41
TORSDOF 13
ENDMDL
MODEL 4
REMARK VINA RESULT:      -8.1      3.351      9.903
REMARK  13 active torsions:
REMARK  status: ('A' for Active; 'I' for Inactive)
REMARK    1  A    between atoms: O2_2  and  C3_3 
REMARK    2  A    between atoms: C3_3  and  C5_5 
REMARK    3  A    between atoms: C5_5  and  C6_6 
REMARK    4  A    between atoms: C6_6  and  O7_7 
REMARK    5  A    between atoms: C6_6  and  C8_8 
REMARK    6  A    between atoms: C6_6  and  C15_15 
REMARK    7  A    between atoms: C8_8  and  C9_9 
REMARK    8  A    between atoms: C9_9  and  C10_10 
REMARK    9  A    between atoms: C10_10  and  C11_11 
REMARK   10  A    between atoms: C11_11  and  O14_14 
REMARK   11  A    between atoms: C15_15  and  O17_17 
REMARK   12  A    between atoms: O17_17  and  C18_18 
REMARK   13  A    between atoms: C20_19  and  O21_20 
ROOT
ATOM      1  C18 ZIN A   1      17.894  -3.367  10.131  0.00  0.00     0.199 C 
ATOM      2  C20 ZIN A   1      17.198  -4.665  10.480  0.00  0.00     0.074 C 
ATOM      3  C23 ZIN A   1      17.337  -5.548   9.512  0.00  0.00     0.048 C 
ATOM      4  C24 ZIN A   1      18.141  -4.967   8.385  0.00  0.00     0.158 C 
ATOM      5  C25 ZIN A   1      17.238  -4.608   7.193  0.00  0.00     0.046 C 
ATOM      6  C26 ZIN A   1      17.117  -5.993   6.496  0.00  0.00     0.030 C 
ATOM      7  C27 ZIN A   1      18.503  -6.630   6.730  0.00  0.00     0.236 C 
ATOM      8  N28 ZIN A   1      19.138  -5.903   7.859  0.00  0.00    -0.058 N 
ATOM      9  H29 ZIN A   1      19.473  -6.539   8.567  0.00  0.00     0.281 HD
ATOM     10  C30 ZIN A   1      20.244  -5.107   7.277  0.00  0.00     0.241 C 
ATOM     11  C31 ZIN A   1      19.681  -4.221   6.170  0.00  0.00     0.067 C 
ATOM     12  C32 ZIN A   1      19.300  -2.850   6.672  0.00  0.00    -0.047 A 
ATOM     13  C33 ZIN A   1      19.393  -1.801   5.752  0.00  0.00     0.047 A 
ATOM     14  C34 ZIN A   1      19.033  -0.532   6.172  0.00  0.00     0.105 A 
ATOM     15  C35 ZIN A   1      18.583  -0.307   7.483  0.00  0.00     0.105 A 
ATOM     16  C36 ZIN A   1      18.500  -1.348   8.392  0.00  0.00     0.048 A 
ATOM     17  C37 ZIN A   1      18.879  -2.619   7.962  0.00  0.00    -0.039 A 
ATOM     18  C38 ZIN A   1      18.844  -3.733   8.968  0.00  0.00     0.095 C 
ATOM     19  O40 ZIN A   1      18.292   1.006   7.624  0.00  0.00    -0.323 OA
ATOM     20  C41 ZIN A   1      18.939   1.666   6.516  0.00  0.00     0.352 C 
ATOM     21  O42 ZIN A   1      19.028   0.643   5.503  0.00  0.00    -0.323 OA
ENDROOT
BRANCH   1  22
ATOM     22  O17 ZIN A   1      18.651  -2.876  11.268  0.00  0.00    -0.306 OA
BRANCH  22  23
ATOM     23  C15 ZIN A   1      18.121  -1.854  11.958  0.00  0.00     0.294 C 
ATOM     24  O16 ZIN A   1      16.930  -1.652  11.919  0.00  0.00    -0.262 OA
BRANCH  23  25
ATOM     25  C6  ZIN A   1      19.010  -0.958  12.781  0.00  0.00     0.154 C 
BRANCH  25  26
ATOM     26  C5  ZIN A   1      18.350   0.414  12.935  0.00  0.00     0.159 C 
BRANCH  26  27
ATOM     27  C3  ZIN A   1      18.944   1.372  11.935  0.00  0.00     0.261 C 
ATOM     28  O4  ZIN A   1      18.544   1.383  10.795  0.00  0.00    -0.265 OA
BRANCH  27  29
ATOM     29  O2  ZIN A   1      19.920   2.214  12.311  0.00  0.00    -0.326 OA
ATOM     30  C1  ZIN A   1      19.941   3.523  11.682  0.00  0.00     0.213 C 
ENDBRANCH  27  29
ENDBRANCH  26  27
ENDBRANCH  25  26
BRANCH  25  31
ATOM     31  O7  ZIN A   1      20.272  -0.808  12.127  0.00  0.00    -0.379 OA
ATOM     32  H48 ZIN A   1      21.020  -0.718  12.733  0.00  0.00     0.211 HD
ENDBRANCH  25  31
BRANCH  25  33
ATOM     33  C8  ZIN A   1      19.221  -1.580  14.163  0.00  0.00     0.049 C 
BRANCH  33  34
ATOM     34  C9  ZIN A   1      18.356  -0.846  15.189  0.00  0.00     0.006 C 
BRANCH  34  35
ATOM     35  C10 ZIN A   1      18.966  -1.012  16.583  0.00  0.00     0.037 C 
BRANCH  35  36
ATOM     36  C11 ZIN A   1      18.951   0.333  17.311  0.00  0.00     0.051 C 
ATOM     37  C12 ZIN A   1      19.182   1.461  16.305  0.00  0.00     0.045 C 
ATOM     38  C13 ZIN A   1      17.595   0.528  17.993  0.00  0.00     0.045 C 
BRANCH  36  39
ATOM     39  O14 ZIN A   1      19.986   0.354  18.296  0.00  0.00    -0.391 OA
ATOM     40  H61 ZIN A   1      19.662   0.383  19.207  0.00  0.00     0.210 HD
ENDBRANCH  36  39
ENDBRANCH  35  36
ENDBRANCH  34  35
ENDBRANCH  33  34
ENDBRANCH  25  33
ENDBRANCH  23  25
ENDBRANCH  22  23
ENDBRANCH   1  22
BRANCH   2  41
ATOM     41  O21 ZIN A   1      16.522  -4.889  11.635  0.00  0.00    -0.358 OA
ATOM     42  C22 ZIN A   1      17.166  -5.706  12.615  0.00  0.00     0.209 C 
ENDBRANCH   2  41
TORSDOF 13
ENDMDL
MODEL 5
REMARK VINA RESULT:      -8.1      3.504      9.253
REMARK  13 active torsions:
REMARK  status: ('A' for Active; 'I' for Inactive)
REMARK    1  A    between atoms: O2_2  and  C3_3 
REMARK    2  A    between atoms: C3_3  and  C5_5 
REMARK    3  A    between atoms: C5_5  and  C6_6 
REMARK    4  A    between atoms: C6_6  and  O7_7 
REMARK    5  A    between atoms: C6_6  and  C8_8 
REMARK    6  A    between atoms: C6_6  and  C15_15 
REMARK    7  A    between atoms: C8_8  and  C9_9 
REMARK    8  A    between atoms: C9_9  and  C10_10 
REMARK    9  A    between atoms: C10_10  and  C11_11 
REMARK   10  A    between atoms: C11_11  and  O14_14 
REMARK   11  A    between atoms: C15_15  and  O17_17 
REMARK   12  A    between atoms: O17_17  and  C18_18 
REMARK   13  A    between atoms: C20_19  and  O21_20 
ROOT
ATOM      1  C18 ZIN A   1      18.589  -3.313  10.195  0.00  0.00     0.199 C 
ATOM      2  C20 ZIN A   1      17.898  -4.543  10.744  0.00  0.00     0.074 C 
ATOM      3  C23 ZIN A   1      17.748  -5.456   9.807  0.00  0.00     0.048 C 
ATOM      4  C24 ZIN A   1      18.314  -4.968   8.505  0.00  0.00     0.158 C 
ATOM      5  C25 ZIN A   1      17.192  -4.565   7.533  0.00  0.00     0.046 C 
ATOM      6  C26 ZIN A   1      16.815  -5.951   6.938  0.00  0.00     0.030 C 
ATOM      7  C27 ZIN A   1      18.168  -6.692   6.880  0.00  0.00     0.236 C 
ATOM      8  N28 ZIN A   1      19.095  -5.993   7.807  0.00  0.00    -0.058 N 
ATOM      9  H29 ZIN A   1      19.535  -6.637   8.446  0.00  0.00     0.281 HD
ATOM     10  C30 ZIN A   1      20.094  -5.302   6.958  0.00  0.00     0.241 C 
ATOM     11  C31 ZIN A   1      19.360  -4.400   5.971  0.00  0.00     0.067 C 
ATOM     12  C32 ZIN A   1      19.204  -2.991   6.490  0.00  0.00    -0.047 A 
ATOM     13  C33 ZIN A   1      19.162  -1.975   5.531  0.00  0.00     0.047 A 
ATOM     14  C34 ZIN A   1      19.000  -0.672   5.970  0.00  0.00     0.105 A 
ATOM     15  C35 ZIN A   1      18.879  -0.380   7.337  0.00  0.00     0.105 A 
ATOM     16  C36 ZIN A   1      18.929  -1.390   8.284  0.00  0.00     0.048 A 
ATOM     17  C37 ZIN A   1      19.106  -2.697   7.832  0.00  0.00    -0.039 A 
ATOM     18  C38 ZIN A   1      19.220  -3.781   8.864  0.00  0.00     0.095 C 
ATOM     19  O40 ZIN A   1      18.723   0.955   7.487  0.00  0.00    -0.323 OA
ATOM     20  C41 ZIN A   1      19.148   1.535   6.236  0.00  0.00     0.352 C 
ATOM     21  O42 ZIN A   1      18.929   0.485   5.272  0.00  0.00    -0.323 OA
ENDROOT
BRANCH   1  22
ATOM     22  O17 ZIN A   1      19.619  -2.859  11.111  0.00  0.00    -0.306 OA
BRANCH  22  23
ATOM     23  C15 ZIN A   1      19.534  -1.591  11.543  0.00  0.00     0.294 C 
ATOM     24  O16 ZIN A   1      20.249  -0.741  11.068  0.00  0.00    -0.262 OA
BRANCH  23  25
ATOM     25  C6  ZIN A   1      18.545  -1.226  12.621  0.00  0.00     0.154 C 
BRANCH  25  26
ATOM     26  C5  ZIN A   1      19.197  -0.246  13.599  0.00  0.00     0.159 C 
BRANCH  26  27
ATOM     27  C3  ZIN A   1      18.842  -0.635  15.011  0.00  0.00     0.261 C 
ATOM     28  O4  ZIN A   1      19.530  -1.425  15.612  0.00  0.00    -0.265 OA
BRANCH  27  29
ATOM     29  O2  ZIN A   1      17.759  -0.105  15.601  0.00  0.00    -0.326 OA
ATOM     30  C1  ZIN A   1      17.227  -0.806  16.757  0.00  0.00     0.213 C 
ENDBRANCH  27  29
ENDBRANCH  26  27
ENDBRANCH  25  26
BRANCH  25  31
ATOM     31  O7  ZIN A   1      18.149  -2.406  13.322  0.00  0.00    -0.379 OA
ATOM     32  H48 ZIN A   1      17.877  -2.247  14.237  0.00  0.00     0.211 HD
ENDBRANCH  25  31
BRANCH  25  33
ATOM     33  C8  ZIN A   1      17.317  -0.572  11.986  0.00  0.00     0.049 C 
BRANCH  33  34
ATOM     34  C9  ZIN A   1      17.445   0.950  12.081  0.00  0.00     0.006 C 
BRANCH  34  35
ATOM     35  C10 ZIN A   1      17.548   1.542  10.673  0.00  0.00     0.037 C 
BRANCH  35  36
ATOM     36  C11 ZIN A   1      18.674   2.576  10.635  0.00  0.00     0.051 C 
ATOM     37  C12 ZIN A   1      18.203   3.815   9.872  0.00  0.00     0.045 C 
ATOM     38  C13 ZIN A   1      19.053   2.970  12.064  0.00  0.00     0.045 C 
BRANCH  36  39
ATOM     39  O14 ZIN A   1      19.813   2.016   9.977  0.00  0.00    -0.391 OA
ATOM     40  H61 ZIN A   1      20.113   2.523   9.210  0.00  0.00     0.210 HD
ENDBRANCH  36  39
ENDBRANCH  35  36
ENDBRANCH  34  35
ENDBRANCH  33  34
ENDBRANCH  25  33
ENDBRANCH  23  25
ENDBRANCH  22  23
ENDBRANCH   1  22
BRANCH   2  41
ATOM     41  O21 ZIN A   1      17.489  -4.686  12.030  0.00  0.00    -0.358 OA
ATOM     42  C22 ZIN A   1      17.400  -6.018  12.538  0.00  0.00     0.209 C 
ENDBRANCH   2  41
TORSDOF 13
ENDMDL
MODEL 6
REMARK VINA RESULT:      -8.0      3.411      7.121
REMARK  13 active torsions:
REMARK  status: ('A' for Active; 'I' for Inactive)
REMARK    1  A    between atoms: O2_2  and  C3_3 
REMARK    2  A    between atoms: C3_3  and  C5_5 
REMARK    3  A    between atoms: C5_5  and  C6_6 
REMARK    4  A    between atoms: C6_6  and  O7_7 
REMARK    5  A    between atoms: C6_6  and  C8_8 
REMARK    6  A    between atoms: C6_6  and  C15_15 
REMARK    7  A    between atoms: C8_8  and  C9_9 
REMARK    8  A    between atoms: C9_9  and  C10_10 
REMARK    9  A    between atoms: C10_10  and  C11_11 
REMARK   10  A    between atoms: C11_11  and  O14_14 
REMARK   11  A    between atoms: C15_15  and  O17_17 
REMARK   12  A    between atoms: O17_17  and  C18_18 
REMARK   13  A    between atoms: C20_19  and  O21_20 
ROOT
ATOM      1  C18 ZIN A   1      18.451  -1.153  11.262  0.00  0.00     0.199 C 
ATOM      2  C20 ZIN A   1      18.869  -0.901  12.695  0.00  0.00     0.074 C 
ATOM      3  C23 ZIN A   1      19.087   0.382  12.902  0.00  0.00     0.048 C 
ATOM      4  C24 ZIN A   1      18.847   1.164  11.644  0.00  0.00     0.158 C 
ATOM      5  C25 ZIN A   1      20.176   1.596  11.002  0.00  0.00     0.046 C 
ATOM      6  C26 ZIN A   1      20.492   2.875  11.829  0.00  0.00     0.030 C 
ATOM      7  C27 ZIN A   1      19.097   3.482  12.091  0.00  0.00     0.236 C 
ATOM      8  N28 ZIN A   1      18.100   2.402  11.880  0.00  0.00    -0.058 N 
ATOM      9  H29 ZIN A   1      17.470   2.322  12.664  0.00  0.00     0.281 HD
ATOM     10  C30 ZIN A   1      17.374   2.738  10.632  0.00  0.00     0.241 C 
ATOM     11  C31 ZIN A   1      18.389   2.913   9.507  0.00  0.00     0.067 C 
ATOM     12  C32 ZIN A   1      18.609   1.636   8.731  0.00  0.00    -0.047 A 
ATOM     13  C33 ZIN A   1      18.959   1.777   7.385  0.00  0.00     0.047 A 
ATOM     14  C34 ZIN A   1      19.188   0.628   6.648  0.00  0.00     0.105 A 
ATOM     15  C35 ZIN A   1      19.076  -0.641   7.237  0.00  0.00     0.105 A 
ATOM     16  C36 ZIN A   1      18.722  -0.775   8.569  0.00  0.00     0.048 A 
ATOM     17  C37 ZIN A   1      18.480   0.388   9.298  0.00  0.00    -0.039 A 
ATOM     18  C38 ZIN A   1      18.039   0.237  10.725  0.00  0.00     0.095 C 
ATOM     19  O40 ZIN A   1      19.359  -1.580   6.306  0.00  0.00    -0.323 OA
ATOM     20  C41 ZIN A   1      19.258  -0.906   5.035  0.00  0.00     0.352 C 
ATOM     21  O42 ZIN A   1      19.532   0.475   5.349  0.00  0.00    -0.323 OA
ENDROOT
BRANCH   1  22
ATOM     22  O17 ZIN A   1      17.325  -2.068  11.216  0.00  0.00    -0.306 OA
BRANCH  22  23
ATOM     23  C15 ZIN A   1      17.606  -3.381  11.233  0.00  0.00     0.294 C 
ATOM     24  O16 ZIN A   1      17.653  -3.975  12.284  0.00  0.00    -0.262 OA
BRANCH  23  25
ATOM     25  C6  ZIN A   1      17.860  -4.114   9.941  0.00  0.00     0.154 C 
BRANCH  25  26
ATOM     26  C5  ZIN A   1      19.366  -4.319   9.760  0.00  0.00     0.159 C 
BRANCH  26  27
ATOM     27  C3  ZIN A   1      19.613  -5.180   8.548  0.00  0.00     0.261 C 
ATOM     28  O4  ZIN A   1      20.176  -6.243   8.665  0.00  0.00    -0.265 OA
BRANCH  27  29
ATOM     29  O2  ZIN A   1      19.210  -4.765   7.336  0.00  0.00    -0.326 OA
ATOM     30  C1  ZIN A   1      18.813  -5.790   6.387  0.00  0.00     0.213 C 
ENDBRANCH  27  29
ENDBRANCH  26  27
ENDBRANCH  25  26
BRANCH  25  31
ATOM     31  O7  ZIN A   1      17.350  -3.346   8.849  0.00  0.00    -0.379 OA
ATOM     32  H48 ZIN A   1      17.242  -3.850   8.031  0.00  0.00     0.211 HD
ENDBRANCH  25  31
BRANCH  25  33
ATOM     33  C8  ZIN A   1      17.161  -5.474   9.980  0.00  0.00     0.049 C 
BRANCH  33  34
ATOM     34  C9  ZIN A   1      15.849  -5.396   9.197  0.00  0.00     0.006 C 
BRANCH  34  35
ATOM     35  C10 ZIN A   1      15.705  -6.639   8.316  0.00  0.00     0.037 C 
BRANCH  35  36
ATOM     36  C11 ZIN A   1      14.332  -6.632   7.644  0.00  0.00     0.051 C 
ATOM     37  C12 ZIN A   1      14.482  -6.216   6.180  0.00  0.00     0.045 C 
ATOM     38  C13 ZIN A   1      13.722  -8.034   7.716  0.00  0.00     0.045 C 
BRANCH  36  39
ATOM     39  O14 ZIN A   1      13.476  -5.706   8.317  0.00  0.00    -0.391 OA
ATOM     40  H61 ZIN A   1      12.644  -6.092   8.626  0.00  0.00     0.210 HD
ENDBRANCH  36  39
ENDBRANCH  35  36
ENDBRANCH  34  35
ENDBRANCH  33  34
ENDBRANCH  25  33
ENDBRANCH  23  25
ENDBRANCH  22  23
ENDBRANCH   1  22
BRANCH   2  41
ATOM     41  O21 ZIN A   1      19.001  -1.866  13.639  0.00  0.00    -0.358 OA
ATOM     42  C22 ZIN A   1      19.205  -1.434  14.985  0.00  0.00     0.209 C 
ENDBRANCH   2  41
TORSDOF 13
ENDMDL
MODEL 7
REMARK VINA RESULT:      -8.0      3.061      9.059
REMARK  13 active torsions:
REMARK  status: ('A' for Active; 'I' for Inactive)
REMARK    1  A    between atoms: O2_2  and  C3_3 
REMARK    2  A    between atoms: C3_3  and  C5_5 
REMARK    3  A    between atoms: C5_5  and  C6_6 
REMARK    4  A    between atoms: C6_6  and  O7_7 
REMARK    5  A    between atoms: C6_6  and  C8_8 
REMARK    6  A    between atoms: C6_6  and  C15_15 
REMARK    7  A    between atoms: C8_8  and  C9_9 
REMARK    8  A    between atoms: C9_9  and  C10_10 
REMARK    9  A    between atoms: C10_10  and  C11_11 
REMARK   10  A    between atoms: C11_11  and  O14_14 
REMARK   11  A    between atoms: C15_15  and  O17_17 
REMARK   12  A    between atoms: O17_17  and  C18_18 
REMARK   13  A    between atoms: C20_19  and  O21_20 
ROOT
ATOM      1  C18 ZIN A   1      18.553   0.555  14.614  0.00  0.00     0.199 C 
ATOM      2  C20 ZIN A   1      18.476  -0.916  14.960  0.00  0.00     0.074 C 
ATOM      3  C23 ZIN A   1      18.694  -1.662  13.895  0.00  0.00     0.048 C 
ATOM      4  C24 ZIN A   1      18.947  -0.798  12.694  0.00  0.00     0.158 C 
ATOM      5  C25 ZIN A   1      17.723  -0.780  11.762  0.00  0.00     0.046 C 
ATOM      6  C26 ZIN A   1      17.952  -2.093  10.962  0.00  0.00     0.030 C 
ATOM      7  C27 ZIN A   1      19.489  -2.166  10.832  0.00  0.00     0.236 C 
ATOM      8  N28 ZIN A   1      20.063  -1.278  11.875  0.00  0.00    -0.058 N 
ATOM      9  H29 ZIN A   1      20.760  -1.756  12.425  0.00  0.00     0.281 HD
ATOM     10  C30 ZIN A   1      20.637  -0.112  11.163  0.00  0.00     0.241 C 
ATOM     11  C31 ZIN A   1      19.550   0.520  10.299  0.00  0.00     0.067 C 
ATOM     12  C32 ZIN A   1      18.827   1.636  11.013  0.00  0.00    -0.047 A 
ATOM     13  C33 ZIN A   1      18.317   2.661  10.211  0.00  0.00     0.047 A 
ATOM     14  C34 ZIN A   1      17.632   3.692  10.831  0.00  0.00     0.105 A 
ATOM     15  C35 ZIN A   1      17.450   3.705  12.223  0.00  0.00     0.105 A 
ATOM     16  C36 ZIN A   1      17.964   2.690  13.013  0.00  0.00     0.048 A 
ATOM     17  C37 ZIN A   1      18.665   1.664  12.380  0.00  0.00    -0.039 A 
ATOM     18  C38 ZIN A   1      19.271   0.598  13.246  0.00  0.00     0.095 C 
ATOM     19  O40 ZIN A   1      16.745   4.808  12.561  0.00  0.00    -0.323 OA
ATOM     20  C41 ZIN A   1      16.831   5.686  11.420  0.00  0.00     0.352 C 
ATOM     21  O42 ZIN A   1      17.046   4.793  10.307  0.00  0.00    -0.323 OA
ENDROOT
BRANCH   1  22
ATOM     22  O17 ZIN A   1      19.324   1.271  15.613  0.00  0.00    -0.306 OA
BRANCH  22  23
ATOM     23  C15 ZIN A   1      18.638   1.876  16.596  0.00  0.00     0.294 C 
ATOM     24  O16 ZIN A   1      17.692   1.320  17.102  0.00  0.00    -0.262 OA
BRANCH  23  25
ATOM     25  C6  ZIN A   1      19.046   3.248  17.067  0.00  0.00     0.154 C 
BRANCH  25  26
ATOM     26  C5  ZIN A   1      18.129   4.297  16.434  0.00  0.00     0.159 C 
BRANCH  26  27
ATOM     27  C3  ZIN A   1      18.959   5.451  15.932  0.00  0.00     0.261 C 
ATOM     28  O4  ZIN A   1      19.188   6.391  16.656  0.00  0.00    -0.265 OA
BRANCH  27  29
ATOM     29  O2  ZIN A   1      19.441   5.437  14.679  0.00  0.00    -0.326 OA
ATOM     30  C1  ZIN A   1      20.553   6.325  14.390  0.00  0.00     0.213 C 
ENDBRANCH  27  29
ENDBRANCH  26  27
ENDBRANCH  25  26
BRANCH  25  31
ATOM     31  O7  ZIN A   1      20.398   3.501  16.680  0.00  0.00    -0.379 OA
ATOM     32  H48 ZIN A   1      20.584   3.306  15.751  0.00  0.00     0.211 HD
ENDBRANCH  25  31
BRANCH  25  33
ATOM     33  C8  ZIN A   1      18.928   3.320  18.590  0.00  0.00     0.049 C 
BRANCH  33  34
ATOM     34  C9  ZIN A   1      17.594   3.967  18.968  0.00  0.00     0.006 C 
BRANCH  34  35
ATOM     35  C10 ZIN A   1      17.794   4.877  20.182  0.00  0.00     0.037 C 
BRANCH  35  36
ATOM     36  C11 ZIN A   1      17.286   6.282  19.857  0.00  0.00     0.051 C 
ATOM     37  C12 ZIN A   1      16.088   6.186  18.911  0.00  0.00     0.045 C 
ATOM     38  C13 ZIN A   1      16.862   6.983  21.149  0.00  0.00     0.045 C 
BRANCH  36  39
ATOM     39  O14 ZIN A   1      18.330   7.032  19.229  0.00  0.00    -0.391 OA
ATOM     40  H61 ZIN A   1      18.013   7.753  18.668  0.00  0.00     0.210 HD
ENDBRANCH  36  39
ENDBRANCH  35  36
ENDBRANCH  34  35
ENDBRANCH  33  34
ENDBRANCH  25  33
ENDBRANCH  23  25
ENDBRANCH  22  23
ENDBRANCH   1  22
BRANCH   2  41
ATOM     41  O21 ZIN A   1      18.217  -1.403  16.199  0.00  0.00    -0.358 OA
ATOM     42  C22 ZIN A   1      19.341  -1.790  16.992  0.00  0.00     0.209 C 
ENDBRANCH   2  41
TORSDOF 13
ENDMDL
MODEL 8
REMARK VINA RESULT:      -7.9      4.302      7.132
REMARK  13 active torsions:
REMARK  status: ('A' for Active; 'I' for Inactive)
REMARK    1  A    between atoms: O2_2  and  C3_3 
REMARK    2  A    between atoms: C3_3  and  C5_5 
REMARK    3  A    between atoms: C5_5  and  C6_6 
REMARK    4  A    between atoms: C6_6  and  O7_7 
REMARK    5  A    between atoms: C6_6  and  C8_8 
REMARK    6  A    between atoms: C6_6  and  C15_15 
REMARK    7  A    between atoms: C8_8  and  C9_9 
REMARK    8  A    between atoms: C9_9  and  C10_10 
REMARK    9  A    between atoms: C10_10  and  C11_11 
REMARK   10  A    between atoms: C11_11  and  O14_14 
REMARK   11  A    between atoms: C15_15  and  O17_17 
REMARK   12  A    between atoms: O17_17  and  C18_18 
REMARK   13  A    between atoms: C20_19  and  O21_20 
ROOT
ATOM      1  C18 ZIN A   1      19.028  -1.122   7.821  0.00  0.00     0.199 C 
ATOM      2  C20 ZIN A   1      18.892   0.304   7.335  0.00  0.00     0.074 C 
ATOM      3  C23 ZIN A   1      18.909   1.150   8.345  0.00  0.00     0.048 C 
ATOM      4  C24 ZIN A   1      19.056   0.411   9.644  0.00  0.00     0.158 C 
ATOM      5  C25 ZIN A   1      17.721   0.366  10.406  0.00  0.00     0.046 C 
ATOM      6  C26 ZIN A   1      17.742   1.755  11.105  0.00  0.00     0.030 C 
ATOM      7  C27 ZIN A   1      19.238   1.967  11.426  0.00  0.00     0.236 C 
ATOM      8  N28 ZIN A   1      20.011   1.048  10.553  0.00  0.00    -0.058 N 
ATOM      9  H29 ZIN A   1      20.741   1.536  10.057  0.00  0.00     0.281 HD
ATOM     10  C30 ZIN A   1      20.566  -0.004  11.438  0.00  0.00     0.241 C 
ATOM     11  C31 ZIN A   1      19.419  -0.652  12.208  0.00  0.00     0.067 C 
ATOM     12  C32 ZIN A   1      18.884  -1.879  11.511  0.00  0.00    -0.047 A 
ATOM     13  C33 ZIN A   1      18.344  -2.875  12.331  0.00  0.00     0.047 A 
ATOM     14  C34 ZIN A   1      17.826  -4.007  11.725  0.00  0.00     0.105 A 
ATOM     15  C35 ZIN A   1      17.838  -4.148  10.328  0.00  0.00     0.105 A 
ATOM     16  C36 ZIN A   1      18.381  -3.161   9.521  0.00  0.00     0.048 A 
ATOM     17  C37 ZIN A   1      18.912  -2.032  10.143  0.00  0.00    -0.039 A 
ATOM     18  C38 ZIN A   1      19.553  -0.993   9.269  0.00  0.00     0.095 C 
ATOM     19  O40 ZIN A   1      17.268  -5.330  10.004  0.00  0.00    -0.323 OA
ATOM     20  C41 ZIN A   1      17.261  -6.102  11.223  0.00  0.00     0.352 C 
ATOM     21  O42 ZIN A   1      17.256  -5.107  12.267  0.00  0.00    -0.323 OA
ENDROOT
BRANCH   1  22
ATOM     22  O17 ZIN A   1      19.978  -1.850   7.001  0.00  0.00    -0.306 OA
BRANCH  22  23
ATOM     23  C15 ZIN A   1      19.530  -2.332   5.831  0.00  0.00     0.294 C 
ATOM     24  O16 ZIN A   1      19.844  -1.794   4.796  0.00  0.00    -0.262 OA
BRANCH  23  25
ATOM     25  C6  ZIN A   1      18.637  -3.545   5.808  0.00  0.00     0.154 C 
BRANCH  25  26
ATOM     26  C5  ZIN A   1      18.324  -3.920   4.358  0.00  0.00     0.159 C 
BRANCH  26  27
ATOM     27  C3  ZIN A   1      16.928  -3.468   4.012  0.00  0.00     0.261 C 
ATOM     28  O4  ZIN A   1      16.726  -2.321   3.690  0.00  0.00    -0.265 OA
BRANCH  27  29
ATOM     29  O2  ZIN A   1      15.908  -4.339   4.065  0.00  0.00    -0.326 OA
ATOM     30  C1  ZIN A   1      15.382  -4.816   2.798  0.00  0.00     0.213 C 
ENDBRANCH  27  29
ENDBRANCH  26  27
ENDBRANCH  25  26
BRANCH  25  31
ATOM     31  O7  ZIN A   1      17.420  -3.254   6.498  0.00  0.00    -0.379 OA
ATOM     32  H48 ZIN A   1      17.460  -3.416   7.451  0.00  0.00     0.211 HD
ENDBRANCH  25  31
BRANCH  25  33
ATOM     33  C8  ZIN A   1      19.346  -4.714   6.494  0.00  0.00     0.049 C 
BRANCH  33  34
ATOM     34  C9  ZIN A   1      18.751  -6.034   5.999  0.00  0.00     0.006 C 
BRANCH  34  35
ATOM     35  C10 ZIN A   1      17.991  -6.712   7.141  0.00  0.00     0.037 C 
BRANCH  35  36
ATOM     36  C11 ZIN A   1      16.530  -6.912   6.734  0.00  0.00     0.051 C 
ATOM     37  C12 ZIN A   1      16.470  -7.558   5.350  0.00  0.00     0.045 C 
ATOM     38  C13 ZIN A   1      15.838  -7.820   7.752  0.00  0.00     0.045 C 
BRANCH  36  39
ATOM     39  O14 ZIN A   1      15.868  -5.645   6.699  0.00  0.00    -0.391 OA
ATOM     40  H61 ZIN A   1      16.469  -4.889   6.647  0.00  0.00     0.210 HD
ENDBRANCH  36  39
ENDBRANCH  35  36
ENDBRANCH  34  35
ENDBRANCH  33  34
ENDBRANCH  25  33
ENDBRANCH  23  25
ENDBRANCH  22  23
ENDBRANCH   1  22
BRANCH   2  41
ATOM     41  O21 ZIN A   1      18.771   0.665   6.032  0.00  0.00    -0.358 OA
ATOM     42  C22 ZIN A   1      17.480   0.521   5.436  0.00  0.00     0.209 C 
ENDBRANCH   2  41
TORSDOF 13
ENDMDL
MODEL 9
REMARK VINA RESULT:      -7.6      4.437      8.198
REMARK  13 active torsions:
REMARK  status: ('A' for Active; 'I' for Inactive)
REMARK    1  A    between atoms: O2_2  and  C3_3 
REMARK    2  A    between atoms: C3_3  and  C5_5 
REMARK    3  A    between atoms: C5_5  and  C6_6 
REMARK    4  A    between atoms: C6_6  and  O7_7 
REMARK    5  A    between atoms: C6_6  and  C8_8 
REMARK    6  A    between atoms: C6_6  and  C15_15 
REMARK    7  A    between atoms: C8_8  and  C9_9 
REMARK    8  A    between atoms: C9_9  and  C10_10 
REMARK    9  A    between atoms: C10_10  and  C11_11 
REMARK   10  A    between atoms: C11_11  and  O14_14 
REMARK   11  A    between atoms: C15_15  and  O17_17 
REMARK   12  A    between atoms: O17_17  and  C18_18 
REMARK   13  A    between atoms: C20_19  and  O21_20 
ROOT
ATOM      1  C18 ZIN A   1      18.182  -3.414   9.949  0.00  0.00     0.199 C 
ATOM      2  C20 ZIN A   1      18.462  -3.813  11.382  0.00  0.00     0.074 C 
ATOM      3  C23 ZIN A   1      18.499  -2.755  12.166  0.00  0.00     0.048 C 
ATOM      4  C24 ZIN A   1      18.252  -1.505  11.372  0.00  0.00     0.158 C 
ATOM      5  C25 ZIN A   1      19.557  -0.721  11.158  0.00  0.00     0.046 C 
ATOM      6  C26 ZIN A   1      19.648   0.058  12.501  0.00  0.00     0.030 C 
ATOM      7  C27 ZIN A   1      18.172   0.362  12.834  0.00  0.00     0.236 C 
ATOM      8  N28 ZIN A   1      17.337  -0.578  12.044  0.00  0.00    -0.058 N 
ATOM      9  H29 ZIN A   1      16.669  -1.058  12.626  0.00  0.00     0.281 HD
ATOM     10  C30 ZIN A   1      16.666   0.232  11.000  0.00  0.00     0.241 C 
ATOM     11  C31 ZIN A   1      17.728   0.984  10.204  0.00  0.00     0.067 C 
ATOM     12  C32 ZIN A   1      18.164   0.227   8.973  0.00  0.00    -0.047 A 
ATOM     13  C33 ZIN A   1      18.589   0.997   7.886  0.00  0.00     0.047 A 
ATOM     14  C34 ZIN A   1      19.014   0.335   6.747  0.00  0.00     0.105 A 
ATOM     15  C35 ZIN A   1      19.023  -1.067   6.687  0.00  0.00     0.105 A 
ATOM     16  C36 ZIN A   1      18.595  -1.825   7.765  0.00  0.00     0.048 A 
ATOM     17  C37 ZIN A   1      18.155  -1.148   8.902  0.00  0.00    -0.039 A 
ATOM     18  C38 ZIN A   1      17.636  -1.971  10.044  0.00  0.00     0.095 C 
ATOM     19  O40 ZIN A   1      19.489  -1.450   5.477  0.00  0.00    -0.323 OA
ATOM     20  C41 ZIN A   1      19.395  -0.279   4.639  0.00  0.00     0.352 C 
ATOM     21  O42 ZIN A   1      19.466   0.822   5.569  0.00  0.00    -0.323 OA
ENDROOT
BRANCH   1  22
ATOM     22  O17 ZIN A   1      17.189  -4.294   9.363  0.00  0.00    -0.306 OA
BRANCH  22  23
ATOM     23  C15 ZIN A   1      17.642  -5.313   8.615  0.00  0.00     0.294 C 
ATOM     24  O16 ZIN A   1      18.828  -5.440   8.422  0.00  0.00    -0.262 OA
BRANCH  23  25
ATOM     25  C6  ZIN A   1      16.673  -6.299   8.017  0.00  0.00     0.154 C 
BRANCH  25  26
ATOM     26  C5  ZIN A   1      15.242  -5.792   8.216  0.00  0.00     0.159 C 
BRANCH  26  27
ATOM     27  C3  ZIN A   1      14.277  -6.735   7.547  0.00  0.00     0.261 C 
ATOM     28  O4  ZIN A   1      14.209  -7.887   7.906  0.00  0.00    -0.265 OA
BRANCH  27  29
ATOM     29  O2  ZIN A   1      13.492  -6.297   6.549  0.00  0.00    -0.326 OA
ATOM     30  C1  ZIN A   1      13.469  -7.088   5.332  0.00  0.00     0.213 C 
ENDBRANCH  27  29
ENDBRANCH  26  27
ENDBRANCH  25  26
BRANCH  25  31
ATOM     31  O7  ZIN A   1      16.822  -7.565   8.661  0.00  0.00    -0.379 OA
ATOM     32  H48 ZIN A   1      16.155  -7.744   9.338  0.00  0.00     0.211 HD
ENDBRANCH  25  31
BRANCH  25  33
ATOM     33  C8  ZIN A   1      16.955  -6.450   6.521  0.00  0.00     0.049 C 
BRANCH  33  34
ATOM     34  C9  ZIN A   1      16.893  -5.076   5.849  0.00  0.00     0.006 C 
BRANCH  34  35
ATOM     35  C10 ZIN A   1      18.046  -4.943   4.852  0.00  0.00     0.037 C 
BRANCH  35  36
ATOM     36  C11 ZIN A   1      17.514  -4.394   3.527  0.00  0.00     0.051 C 
ATOM     37  C12 ZIN A   1      16.493  -5.372   2.942  0.00  0.00     0.045 C 
ATOM     38  C13 ZIN A   1      16.843  -3.040   3.769  0.00  0.00     0.045 C 
BRANCH  36  39
ATOM     39  O14 ZIN A   1      18.598  -4.231   2.609  0.00  0.00    -0.391 OA
ATOM     40  H61 ZIN A   1      18.951  -3.332   2.574  0.00  0.00     0.210 HD
ENDBRANCH  36  39
ENDBRANCH  35  36
ENDBRANCH  34  35
ENDBRANCH  33  34
ENDBRANCH  25  33
ENDBRANCH  23  25
ENDBRANCH  22  23
ENDBRANCH   1  22
BRANCH   2  41
ATOM     41  O21 ZIN A   1      18.648  -5.089  11.803  0.00  0.00    -0.358 OA
ATOM     42  C22 ZIN A   1      17.491  -5.803  12.244  0.00  0.00     0.209 C 
ENDBRANCH   2  41
TORSDOF 13
ENDMDL
