MODEL 1
REMARK VINA RESULT:      -6.2      0.000      0.000
REMARK  15 active torsions:
REMARK  status: ('A' for Active; 'I' for Inactive)
REMARK    1  A    between atoms: O2_2  and  C3_3 
REMARK    2  A    between atoms: C3_3  and  C4_4 
REMARK       I    between atoms: C4_4  and  N6_6 
REMARK    3  A    between atoms: N6_6  and  C7_7 
REMARK    4  A    between atoms: C10_10  and  C11_11 
REMARK       I    between atoms: C11_11  and  N13_13 
REMARK    5  A    between atoms: N13_13  and  C14_14 
REMARK    6  A    between atoms: C14_14  and  C15_15 
REMARK    7  A    between atoms: C15_15  and  O17_16 
REMARK    8  A    between atoms: C15_15  and  C18_17 
REMARK    9  A    between atoms: C18_17  and  O19_18 
REMARK   10  A    between atoms: C22_21  and  C23_22 
REMARK       I    between atoms: C23_22  and  N25_24 
REMARK   11  A    between atoms: N25_24  and  C27_26 
REMARK   12  A    between atoms: C27_26  and  C28_27 
REMARK   13  A    between atoms: C28_27  and  O30_28 
REMARK   14  A    between atoms: C28_27  and  C31_29 
REMARK   15  A    between atoms: C31_29  and  O32_30 
ROOT
ATOM      1  C7  ZIN A   1      18.765   1.292  14.277  0.00  0.00     0.070 A 
ATOM      2  C8  ZIN A   1      18.627   2.636  14.591  0.00  0.00     0.051 A 
ATOM      3  I9  ZIN A   1      19.135   3.319  16.506  0.00  0.00    -0.041 I 
ATOM      4  C10 ZIN A   1      18.150   3.534  13.634  0.00  0.00     0.068 A 
ATOM      5  C20 ZIN A   1      17.813   3.078  12.360  0.00  0.00     0.040 A 
ATOM      6  I21 ZIN A   1      17.097   4.421  10.920  0.00  0.00    -0.042 I 
ATOM      7  C22 ZIN A   1      17.952   1.727  12.047  0.00  0.00     0.068 A 
ATOM      8  C33 ZIN A   1      18.436   0.835  13.009  0.00  0.00     0.051 A 
ATOM      9  I34 ZIN A   1      18.647  -1.195  12.539  0.00  0.00    -0.041 I 
ENDROOT
BRANCH   4  10
ATOM     10  C11 ZIN A   1      18.003   4.966  13.971  0.00  0.00     0.254 C 
ATOM     11  O12 ZIN A   1      18.938   5.726  13.810  0.00  0.00    -0.268 OA
ATOM     12  N13 ZIN A   1      16.834   5.427  14.456  0.00  0.00    -0.354 N 
ATOM     13  H41 ZIN A   1      16.089   4.820  14.584  0.00  0.00     0.162 HD
BRANCH  12  14
ATOM     14  C14 ZIN A   1      16.688   6.847  14.789  0.00  0.00     0.156 C 
BRANCH  14  15
ATOM     15  C15 ZIN A   1      16.304   6.987  16.263  0.00  0.00     0.159 C 
BRANCH  15  16
ATOM     16  O17 ZIN A   1      15.706   5.771  16.718  0.00  0.00    -0.392 OA
ATOM     17  H44 ZIN A   1      16.022   4.981  16.257  0.00  0.00     0.210 HD
ENDBRANCH  15  16
BRANCH  15  18
ATOM     18  C18 ZIN A   1      17.557   7.280  17.091  0.00  0.00     0.197 C 
BRANCH  18  19
ATOM     19  O19 ZIN A   1      18.680   7.423  16.221  0.00  0.00    -0.398 OA
ATOM     20  H47 ZIN A   1      18.459   7.770  15.346  0.00  0.00     0.209 HD
ENDBRANCH  18  19
ENDBRANCH  15  18
ENDBRANCH  14  15
ENDBRANCH  12  14
ENDBRANCH   4  10
BRANCH   1  21
ATOM     21  N6  ZIN A   1      19.244   0.394  15.239  0.00  0.00    -0.323 N 
ATOM     22  C4  ZIN A   1      18.377  -0.295  16.008  0.00  0.00     0.245 C 
ATOM     23  O5  ZIN A   1      17.186  -0.082  15.920  0.00  0.00    -0.271 OA
ATOM     24  H40 ZIN A   1      20.199   0.268  15.354  0.00  0.00     0.169 HD
BRANCH  22  25
ATOM     25  C3  ZIN A   1      18.888  -1.330  16.977  0.00  0.00     0.270 C 
BRANCH  25  26
ATOM     26  O2  ZIN A   1      19.518  -0.678  18.081  0.00  0.00    -0.387 OA
ATOM     27  C1  ZIN A   1      18.632   0.118  18.869  0.00  0.00     0.202 C 
ENDBRANCH  25  26
ENDBRANCH  22  25
ENDBRANCH   1  21
BRANCH   7  28
ATOM     28  C23 ZIN A   1      17.597   1.239  10.699  0.00  0.00     0.256 C 
ATOM     29  O24 ZIN A   1      16.487   0.793  10.486  0.00  0.00    -0.267 OA
ATOM     30  N25 ZIN A   1      18.506   1.288   9.705  0.00  0.00    -0.350 N 
ATOM     31  C26 ZIN A   1      19.845   1.825   9.961  0.00  0.00     0.153 C 
BRANCH  30  32
ATOM     32  C27 ZIN A   1      18.154   0.805   8.367  0.00  0.00     0.159 C 
BRANCH  32  33
ATOM     33  C28 ZIN A   1      19.196  -0.213   7.900  0.00  0.00     0.159 C 
BRANCH  33  34
ATOM     34  O30 ZIN A   1      19.147  -0.327   6.477  0.00  0.00    -0.392 OA
ATOM     35  H53 ZIN A   1      18.320  -0.015   6.086  0.00  0.00     0.210 HD
ENDBRANCH  33  34
BRANCH  33  36
ATOM     36  C31 ZIN A   1      18.898  -1.574   8.532  0.00  0.00     0.197 C 
BRANCH  36  37
ATOM     37  O32 ZIN A   1      17.576  -1.983   8.180  0.00  0.00    -0.398 OA
ATOM     38  H56 ZIN A   1      16.990  -2.116   8.938  0.00  0.00     0.209 HD
ENDBRANCH  36  37
ENDBRANCH  33  36
ENDBRANCH  32  33
ENDBRANCH  30  32
ENDBRANCH   7  28
TORSDOF 15
ENDMDL
MODEL 2
REMARK VINA RESULT:      -6.1      4.202      8.406
REMARK  15 active torsions:
REMARK  status: ('A' for Active; 'I' for Inactive)
REMARK    1  A    between atoms: O2_2  and  C3_3 
REMARK    2  A    between atoms: C3_3  and  C4_4 
REMARK       I    between atoms: C4_4  and  N6_6 
REMARK    3  A    between atoms: N6_6  and  C7_7 
REMARK    4  A    between atoms: C10_10  and  C11_11 
REMARK       I    between atoms: C11_11  and  N13_13 
REMARK    5  A    between atoms: N13_13  and  C14_14 
REMARK    6  A    between atoms: C14_14  and  C15_15 
REMARK    7  A    between atoms: C15_15  and  O17_16 
REMARK    8  A    between atoms: C15_15  and  C18_17 
REMARK    9  A    between atoms: C18_17  and  O19_18 
REMARK   10  A    between atoms: C22_21  and  C23_22 
REMARK       I    between atoms: C23_22  and  N25_24 
REMARK   11  A    between atoms: N25_24  and  C27_26 
REMARK   12  A    between atoms: C27_26  and  C28_27 
REMARK   13  A    between atoms: C28_27  and  O30_28 
REMARK   14  A    between atoms: C28_27  and  C31_29 
REMARK   15  A    between atoms: C31_29  and  O32_30 
ROOT
ATOM      1  C7  ZIN A   1      18.920  -2.008   8.373  0.00  0.00     0.070 A 
ATOM      2  C8  ZIN A   1      18.732  -1.528   9.660  0.00  0.00     0.051 A 
ATOM      3  I9  ZIN A   1      18.987   0.513  10.063  0.00  0.00    -0.041 I 
ATOM      4  C10 ZIN A   1      18.372  -2.402  10.688  0.00  0.00     0.068 A 
ATOM      5  C20 ZIN A   1      18.201  -3.759  10.419  0.00  0.00     0.040 A 
ATOM      6  I21 ZIN A   1      17.661  -5.076  11.958  0.00  0.00    -0.042 I 
ATOM      7  C22 ZIN A   1      18.391  -4.240   9.124  0.00  0.00     0.068 A 
ATOM      8  C33 ZIN A   1      18.746  -3.358   8.099  0.00  0.00     0.051 A 
ATOM      9  I34 ZIN A   1      19.031  -4.077   6.153  0.00  0.00    -0.041 I 
ENDROOT
BRANCH   4  10
ATOM     10  C11 ZIN A   1      18.171  -1.889  12.060  0.00  0.00     0.254 C 
ATOM     11  O12 ZIN A   1      17.060  -1.567  12.432  0.00  0.00    -0.268 OA
ATOM     12  N13 ZIN A   1      19.221  -1.778  12.898  0.00  0.00    -0.354 N 
ATOM     13  H41 ZIN A   1      20.108  -2.035  12.601  0.00  0.00     0.162 HD
BRANCH  12  14
ATOM     14  C14 ZIN A   1      19.022  -1.270  14.258  0.00  0.00     0.156 C 
BRANCH  14  15
ATOM     15  C15 ZIN A   1      19.734   0.076  14.408  0.00  0.00     0.159 C 
BRANCH  15  16
ATOM     16  O17 ZIN A   1      20.743   0.196  13.402  0.00  0.00    -0.392 OA
ATOM     17  H44 ZIN A   1      20.417   0.532  12.555  0.00  0.00     0.210 HD
ENDBRANCH  15  16
BRANCH  15  18
ATOM     18  C18 ZIN A   1      18.719   1.210  14.248  0.00  0.00     0.197 C 
BRANCH  18  19
ATOM     19  O19 ZIN A   1      17.402   0.663  14.170  0.00  0.00    -0.398 OA
ATOM     20  H47 ZIN A   1      16.929   0.891  13.358  0.00  0.00     0.209 HD
ENDBRANCH  18  19
ENDBRANCH  15  18
ENDBRANCH  14  15
ENDBRANCH  12  14
ENDBRANCH   4  10
BRANCH   1  21
ATOM     21  N6  ZIN A   1      19.281  -1.129   7.344  0.00  0.00    -0.323 N 
ATOM     22  C4  ZIN A   1      18.345  -0.351   6.763  0.00  0.00     0.245 C 
ATOM     23  O5  ZIN A   1      17.180  -0.465   7.079  0.00  0.00    -0.271 OA
ATOM     24  H40 ZIN A   1      20.203  -1.082   7.047  0.00  0.00     0.169 HD
BRANCH  22  25
ATOM     25  C3  ZIN A   1      18.749   0.662   5.723  0.00  0.00     0.270 C 
BRANCH  25  26
ATOM     26  O2  ZIN A   1      19.147  -0.015   4.529  0.00  0.00    -0.387 OA
ATOM     27  C1  ZIN A   1      18.128  -0.841   3.962  0.00  0.00     0.202 C 
ENDBRANCH  25  26
ENDBRANCH  22  25
ENDBRANCH   1  21
BRANCH   7  28
ATOM     28  C23 ZIN A   1      18.211  -5.676   8.834  0.00  0.00     0.256 C 
ATOM     29  O24 ZIN A   1      19.176  -6.414   8.790  0.00  0.00    -0.267 OA
ATOM     30  N25 ZIN A   1      16.975  -6.169   8.616  0.00  0.00    -0.350 N 
ATOM     31  C26 ZIN A   1      15.812  -5.280   8.669  0.00  0.00     0.153 C 
BRANCH  30  32
ATOM     32  C27 ZIN A   1      16.796  -7.595   8.328  0.00  0.00     0.159 C 
BRANCH  32  33
ATOM     33  C28 ZIN A   1      15.903  -7.759   7.097  0.00  0.00     0.159 C 
BRANCH  33  34
ATOM     34  O30 ZIN A   1      14.898  -8.739   7.365  0.00  0.00    -0.392 OA
ATOM     35  H53 ZIN A   1      14.210  -8.438   7.975  0.00  0.00     0.210 HD
ENDBRANCH  33  34
BRANCH  33  36
ATOM     36  C31 ZIN A   1      16.753  -8.213   5.908  0.00  0.00     0.197 C 
BRANCH  36  37
ATOM     37  O32 ZIN A   1      18.126  -7.913   6.162  0.00  0.00    -0.398 OA
ATOM     38  H56 ZIN A   1      18.475  -8.319   6.968  0.00  0.00     0.209 HD
ENDBRANCH  36  37
ENDBRANCH  33  36
ENDBRANCH  32  33
ENDBRANCH  30  32
ENDBRANCH   7  28
TORSDOF 15
ENDMDL
MODEL 3
REMARK VINA RESULT:      -6.1      1.042      7.260
REMARK  15 active torsions:
REMARK  status: ('A' for Active; 'I' for Inactive)
REMARK    1  A    between atoms: O2_2  and  C3_3 
REMARK    2  A    between atoms: C3_3  and  C4_4 
REMARK       I    between atoms: C4_4  and  N6_6 
REMARK    3  A    between atoms: N6_6  and  C7_7 
REMARK    4  A    between atoms: C10_10  and  C11_11 
REMARK       I    between atoms: C11_11  and  N13_13 
REMARK    5  A    between atoms: N13_13  and  C14_14 
REMARK    6  A    between atoms: C14_14  and  C15_15 
REMARK    7  A    between atoms: C15_15  and  O17_16 
REMARK    8  A    between atoms: C15_15  and  C18_17 
REMARK    9  A    between atoms: C18_17  and  O19_18 
REMARK   10  A    between atoms: C22_21  and  C23_22 
REMARK       I    between atoms: C23_22  and  N25_24 
REMARK   11  A    between atoms: N25_24  and  C27_26 
REMARK   12  A    between atoms: C27_26  and  C28_27 
REMARK   13  A    between atoms: C28_27  and  O30_28 
REMARK   14  A    between atoms: C28_27  and  C31_29 
REMARK   15  A    between atoms: C31_29  and  O32_30 
ROOT
ATOM      1  C7  ZIN A   1      18.926   1.727  14.318  0.00  0.00     0.070 A 
ATOM      2  C8  ZIN A   1      18.679   1.248  13.041  0.00  0.00     0.051 A 
ATOM      3  I9  ZIN A   1      18.829  -0.805  12.647  0.00  0.00    -0.041 I 
ATOM      4  C10 ZIN A   1      18.330   2.131  12.016  0.00  0.00     0.068 A 
ATOM      5  C20 ZIN A   1      18.230   3.496  12.279  0.00  0.00     0.040 A 
ATOM      6  I21 ZIN A   1      17.707   4.825  10.746  0.00  0.00    -0.042 I 
ATOM      7  C22 ZIN A   1      18.479   3.976  13.564  0.00  0.00     0.068 A 
ATOM      8  C33 ZIN A   1      18.822   3.085  14.586  0.00  0.00     0.051 A 
ATOM      9  I34 ZIN A   1      19.196   3.804  16.517  0.00  0.00    -0.041 I 
ENDROOT
BRANCH   4  10
ATOM     10  C11 ZIN A   1      18.067   1.618  10.655  0.00  0.00     0.254 C 
ATOM     11  O12 ZIN A   1      16.955   1.228  10.357  0.00  0.00    -0.268 OA
ATOM     12  N13 ZIN A   1      19.060   1.583   9.745  0.00  0.00    -0.354 N 
ATOM     13  H41 ZIN A   1      19.947   1.894   9.982  0.00  0.00     0.162 HD
BRANCH  12  14
ATOM     14  C14 ZIN A   1      18.799   1.075   8.395  0.00  0.00     0.156 C 
BRANCH  14  15
ATOM     15  C15 ZIN A   1      19.471  -0.289   8.225  0.00  0.00     0.159 C 
BRANCH  15  16
ATOM     16  O17 ZIN A   1      20.491  -0.444   9.215  0.00  0.00    -0.392 OA
ATOM     17  H44 ZIN A   1      21.374  -0.597   8.850  0.00  0.00     0.210 HD
ENDBRANCH  15  16
BRANCH  15  18
ATOM     18  C18 ZIN A   1      18.428  -1.396   8.390  0.00  0.00     0.197 C 
BRANCH  18  19
ATOM     19  O19 ZIN A   1      17.120  -0.844   8.238  0.00  0.00    -0.398 OA
ATOM     20  H47 ZIN A   1      16.872  -0.220   8.934  0.00  0.00     0.209 HD
ENDBRANCH  18  19
ENDBRANCH  15  18
ENDBRANCH  14  15
ENDBRANCH  12  14
ENDBRANCH   4  10
BRANCH   1  21
ATOM     21  N6  ZIN A   1      19.275   0.840  15.344  0.00  0.00    -0.323 N 
ATOM     22  C4  ZIN A   1      18.316   0.149  15.993  0.00  0.00     0.245 C 
ATOM     23  O5  ZIN A   1      17.147   0.352  15.742  0.00  0.00    -0.271 OA
ATOM     24  H40 ZIN A   1      20.207   0.723  15.588  0.00  0.00     0.169 HD
BRANCH  22  25
ATOM     25  C3  ZIN A   1      18.698  -0.875  17.030  0.00  0.00     0.270 C 
BRANCH  25  26
ATOM     26  O2  ZIN A   1      19.282  -0.217  18.156  0.00  0.00    -0.387 OA
ATOM     27  C1  ZIN A   1      18.373   0.613  18.881  0.00  0.00     0.202 C 
ENDBRANCH  25  26
ENDBRANCH  22  25
ENDBRANCH   1  21
BRANCH   7  28
ATOM     28  C23 ZIN A   1      18.374   5.421  13.848  0.00  0.00     0.256 C 
ATOM     29  O24 ZIN A   1      19.371   6.116  13.848  0.00  0.00    -0.267 OA
ATOM     30  N25 ZIN A   1      17.170   5.970  14.109  0.00  0.00    -0.350 N 
ATOM     31  C26 ZIN A   1      15.968   5.133  14.108  0.00  0.00     0.153 C 
BRANCH  30  32
ATOM     32  C27 ZIN A   1      17.065   7.404  14.389  0.00  0.00     0.159 C 
BRANCH  32  33
ATOM     33  C28 ZIN A   1      16.236   7.617  15.657  0.00  0.00     0.159 C 
BRANCH  33  34
ATOM     34  O30 ZIN A   1      15.329   8.703  15.456  0.00  0.00    -0.392 OA
ATOM     35  H53 ZIN A   1      15.763   9.556  15.317  0.00  0.00     0.210 HD
ENDBRANCH  33  34
BRANCH  33  36
ATOM     36  C31 ZIN A   1      17.167   7.939  16.828  0.00  0.00     0.197 C 
BRANCH  36  37
ATOM     37  O32 ZIN A   1      18.523   7.739  16.427  0.00  0.00    -0.398 OA
ATOM     38  H56 ZIN A   1      18.716   6.841  16.124  0.00  0.00     0.209 HD
ENDBRANCH  36  37
ENDBRANCH  33  36
ENDBRANCH  32  33
ENDBRANCH  30  32
ENDBRANCH   7  28
TORSDOF 15
ENDMDL
MODEL 4
REMARK VINA RESULT:      -6.0      4.154     10.548
REMARK  15 active torsions:
REMARK  status: ('A' for Active; 'I' for Inactive)
REMARK    1  A    between atoms: O2_2  and  C3_3 
REMARK    2  A    between atoms: C3_3  and  C4_4 
REMARK       I    between atoms: C4_4  and  N6_6 
REMARK    3  A    between atoms: N6_6  and  C7_7 
REMARK    4  A    between atoms: C10_10  and  C11_11 
REMARK       I    between atoms: C11_11  and  N13_13 
REMARK    5  A    between atoms: N13_13  and  C14_14 
REMARK    6  A    between atoms: C14_14  and  C15_15 
REMARK    7  A    between atoms: C15_15  and  O17_16 
REMARK    8  A    between atoms: C15_15  and  C18_17 
REMARK    9  A    between atoms: C18_17  and  O19_18 
REMARK   10  A    between atoms: C22_21  and  C23_22 
REMARK       I    between atoms: C23_22  and  N25_24 
REMARK   11  A    between atoms: N25_24  and  C27_26 
REMARK   12  A    between atoms: C27_26  and  C28_27 
REMARK   13  A    between atoms: C28_27  and  O30_28 
REMARK   14  A    between atoms: C28_27  and  C31_29 
REMARK   15  A    between atoms: C31_29  and  O32_30 
ROOT
ATOM      1  C7  ZIN A   1      18.755  -1.672   8.355  0.00  0.00     0.070 A 
ATOM      2  C8  ZIN A   1      18.434  -2.972   7.996  0.00  0.00     0.051 A 
ATOM      3  I9  ZIN A   1      18.712  -3.609   6.018  0.00  0.00    -0.041 I 
ATOM      4  C10 ZIN A   1      17.927  -3.858   8.949  0.00  0.00     0.068 A 
ATOM      5  C20 ZIN A   1      17.744  -3.434  10.264  0.00  0.00     0.040 A 
ATOM      6  I21 ZIN A   1      16.984  -4.759  11.699  0.00  0.00    -0.042 I 
ATOM      7  C22 ZIN A   1      18.067  -2.126  10.623  0.00  0.00     0.068 A 
ATOM      8  C33 ZIN A   1      18.579  -1.247   9.665  0.00  0.00     0.051 A 
ATOM      9  I34 ZIN A   1      19.066   0.718  10.202  0.00  0.00    -0.041 I 
ENDROOT
BRANCH   4  10
ATOM     10  C11 ZIN A   1      17.586  -5.244   8.564  0.00  0.00     0.254 C 
ATOM     11  O12 ZIN A   1      18.400  -6.134   8.714  0.00  0.00    -0.268 OA
ATOM     12  N13 ZIN A   1      16.373  -5.520   8.047  0.00  0.00    -0.354 N 
ATOM     13  H41 ZIN A   1      15.724  -4.810   7.926  0.00  0.00     0.162 HD
BRANCH  12  14
ATOM     14  C14 ZIN A   1      16.035  -6.894   7.665  0.00  0.00     0.156 C 
BRANCH  14  15
ATOM     15  C15 ZIN A   1      15.763  -6.953   6.161  0.00  0.00     0.159 C 
BRANCH  15  16
ATOM     16  O17 ZIN A   1      15.396  -5.654   5.692  0.00  0.00    -0.392 OA
ATOM     17  H44 ZIN A   1      15.227  -5.613   4.740  0.00  0.00     0.210 HD
ENDBRANCH  15  16
BRANCH  15  18
ATOM     18  C18 ZIN A   1      17.025  -7.420   5.433  0.00  0.00     0.197 C 
BRANCH  18  19
ATOM     19  O19 ZIN A   1      18.007  -7.821   6.389  0.00  0.00    -0.398 OA
ATOM     20  H47 ZIN A   1      17.958  -7.341   7.228  0.00  0.00     0.209 HD
ENDBRANCH  18  19
ENDBRANCH  15  18
ENDBRANCH  14  15
ENDBRANCH  12  14
ENDBRANCH   4  10
BRANCH   1  21
ATOM     21  N6  ZIN A   1      19.263  -0.786   7.397  0.00  0.00    -0.323 N 
ATOM     22  C4  ZIN A   1      18.437   0.073   6.767  0.00  0.00     0.245 C 
ATOM     23  O5  ZIN A   1      17.242   0.027   6.975  0.00  0.00    -0.271 OA
ATOM     24  H40 ZIN A   1      20.210  -0.791   7.184  0.00  0.00     0.169 HD
BRANCH  22  25
ATOM     25  C3  ZIN A   1      18.997   1.090   5.807  0.00  0.00     0.270 C 
BRANCH  25  26
ATOM     26  O2  ZIN A   1      19.436   0.430   4.618  0.00  0.00    -0.387 OA
ATOM     27  C1  ZIN A   1      18.406  -0.290   3.939  0.00  0.00     0.202 C 
ENDBRANCH  25  26
ENDBRANCH  22  25
ENDBRANCH   1  21
BRANCH   7  28
ATOM     28  C23 ZIN A   1      17.875  -1.672  12.015  0.00  0.00     0.256 C 
ATOM     29  O24 ZIN A   1      16.828  -1.151  12.346  0.00  0.00    -0.267 OA
ATOM     30  N25 ZIN A   1      18.862  -1.835  12.918  0.00  0.00    -0.350 N 
ATOM     31  C26 ZIN A   1      20.124  -2.463  12.519  0.00  0.00     0.153 C 
BRANCH  30  32
ATOM     32  C27 ZIN A   1      18.672  -1.385  14.300  0.00  0.00     0.159 C 
BRANCH  32  33
ATOM     33  C28 ZIN A   1      18.832   0.135  14.369  0.00  0.00     0.159 C 
BRANCH  33  34
ATOM     34  O30 ZIN A   1      20.157   0.493  13.971  0.00  0.00    -0.392 OA
ATOM     35  H53 ZIN A   1      20.845   0.188  14.577  0.00  0.00     0.210 HD
ENDBRANCH  33  34
BRANCH  33  36
ATOM     36  C31 ZIN A   1      18.584   0.609  15.802  0.00  0.00     0.197 C 
BRANCH  36  37
ATOM     37  O32 ZIN A   1      18.525  -0.520  16.675  0.00  0.00    -0.398 OA
ATOM     38  H56 ZIN A   1      19.387  -0.805  17.008  0.00  0.00     0.209 HD
ENDBRANCH  36  37
ENDBRANCH  33  36
ENDBRANCH  32  33
ENDBRANCH  30  32
ENDBRANCH   7  28
TORSDOF 15
ENDMDL
MODEL 5
REMARK VINA RESULT:      -5.9      3.252      9.804
REMARK  15 active torsions:
REMARK  status: ('A' for Active; 'I' for Inactive)
REMARK    1  A    between atoms: O2_2  and  C3_3 
REMARK    2  A    between atoms: C3_3  and  C4_4 
REMARK       I    between atoms: C4_4  and  N6_6 
REMARK    3  A    between atoms: N6_6  and  C7_7 
REMARK    4  A    between atoms: C10_10  and  C11_11 
REMARK       I    between atoms: C11_11  and  N13_13 
REMARK    5  A    between atoms: N13_13  and  C14_14 
REMARK    6  A    between atoms: C14_14  and  C15_15 
REMARK    7  A    between atoms: C15_15  and  O17_16 
REMARK    8  A    between atoms: C15_15  and  C18_17 
REMARK    9  A    between atoms: C18_17  and  O19_18 
REMARK   10  A    between atoms: C22_21  and  C23_22 
REMARK       I    between atoms: C23_22  and  N25_24 
REMARK   11  A    between atoms: N25_24  and  C27_26 
REMARK   12  A    between atoms: C27_26  and  C28_27 
REMARK   13  A    between atoms: C28_27  and  O30_28 
REMARK   14  A    between atoms: C28_27  and  C31_29 
REMARK   15  A    between atoms: C31_29  and  O32_30 
ROOT
ATOM      1  C7  ZIN A   1      18.980  -0.570   8.468  0.00  0.00     0.070 A 
ATOM      2  C8  ZIN A   1      18.883  -1.939   8.666  0.00  0.00     0.051 A 
ATOM      3  I9  ZIN A   1      19.218  -3.253   7.067  0.00  0.00    -0.041 I 
ATOM      4  C10 ZIN A   1      18.565  -2.444   9.928  0.00  0.00     0.068 A 
ATOM      5  C20 ZIN A   1      18.343  -1.570  10.991  0.00  0.00     0.040 A 
ATOM      6  I21 ZIN A   1      17.865  -2.322  12.888  0.00  0.00    -0.042 I 
ATOM      7  C22 ZIN A   1      18.440  -0.194  10.789  0.00  0.00     0.068 A 
ATOM      8  C33 ZIN A   1      18.765   0.304   9.524  0.00  0.00     0.051 A 
ATOM      9  I34 ZIN A   1      18.912   2.371   9.220  0.00  0.00    -0.041 I 
ENDROOT
BRANCH   4  10
ATOM     10  C11 ZIN A   1      18.463  -3.904  10.137  0.00  0.00     0.254 C 
ATOM     11  O12 ZIN A   1      19.433  -4.533  10.512  0.00  0.00    -0.268 OA
ATOM     12  N13 ZIN A   1      17.294  -4.537   9.912  0.00  0.00    -0.354 N 
ATOM     13  H41 ZIN A   1      16.521  -4.035   9.613  0.00  0.00     0.162 HD
BRANCH  12  14
ATOM     14  C14 ZIN A   1      17.193  -5.984  10.120  0.00  0.00     0.156 C 
BRANCH  14  15
ATOM     15  C15 ZIN A   1      16.566  -6.633   8.885  0.00  0.00     0.159 C 
BRANCH  15  16
ATOM     16  O17 ZIN A   1      15.817  -5.654   8.160  0.00  0.00    -0.392 OA
ATOM     17  H44 ZIN A   1      16.019  -4.741   8.409  0.00  0.00     0.210 HD
ENDBRANCH  15  16
BRANCH  15  18
ATOM     18  C18 ZIN A   1      17.670  -7.197   7.988  0.00  0.00     0.197 C 
BRANCH  18  19
ATOM     19  O19 ZIN A   1      18.944  -6.796   8.492  0.00  0.00    -0.398 OA
ATOM     20  H47 ZIN A   1      19.684  -7.006   7.906  0.00  0.00     0.209 HD
ENDBRANCH  18  19
ENDBRANCH  15  18
ENDBRANCH  14  15
ENDBRANCH  12  14
ENDBRANCH   4  10
BRANCH   1  21
ATOM     21  N6  ZIN A   1      19.300  -0.067   7.201  0.00  0.00    -0.323 N 
ATOM     22  C4  ZIN A   1      18.317   0.268   6.341  0.00  0.00     0.245 C 
ATOM     23  O5  ZIN A   1      17.158   0.062   6.634  0.00  0.00    -0.271 OA
ATOM     24  H40 ZIN A   1      20.228   0.040   6.941  0.00  0.00     0.169 HD
BRANCH  22  25
ATOM     25  C3  ZIN A   1      18.658   0.898   5.015  0.00  0.00     0.270 C 
BRANCH  25  26
ATOM     26  O2  ZIN A   1      19.071  -0.118   4.098  0.00  0.00    -0.387 OA
ATOM     27  C1  ZIN A   1      18.114  -1.165   3.921  0.00  0.00     0.202 C 
ENDBRANCH  25  26
ENDBRANCH  22  25
ENDBRANCH   1  21
BRANCH   7  28
ATOM     28  C23 ZIN A   1      18.207   0.737  11.913  0.00  0.00     0.256 C 
ATOM     29  O24 ZIN A   1      17.092   1.172  12.121  0.00  0.00    -0.267 OA
ATOM     30  N25 ZIN A   1      19.233   1.104  12.706  0.00  0.00    -0.350 N 
ATOM     31  C26 ZIN A   1      20.578   0.579  12.455  0.00  0.00     0.153 C 
BRANCH  30  32
ATOM     32  C27 ZIN A   1      19.003   2.027  13.821  0.00  0.00     0.159 C 
BRANCH  32  33
ATOM     33  C28 ZIN A   1      18.692   1.229  15.088  0.00  0.00     0.159 C 
BRANCH  33  34
ATOM     34  O30 ZIN A   1      17.278   1.074  15.220  0.00  0.00    -0.392 OA
ATOM     35  H53 ZIN A   1      17.015   0.350  15.804  0.00  0.00     0.210 HD
ENDBRANCH  33  34
BRANCH  33  36
ATOM     36  C31 ZIN A   1      19.240   1.974  16.307  0.00  0.00     0.197 C 
BRANCH  36  37
ATOM     37  O32 ZIN A   1      19.857   3.191  15.884  0.00  0.00    -0.398 OA
ATOM     38  H56 ZIN A   1      19.255   3.948  15.855  0.00  0.00     0.209 HD
ENDBRANCH  36  37
ENDBRANCH  33  36
ENDBRANCH  32  33
ENDBRANCH  30  32
ENDBRANCH   7  28
TORSDOF 15
ENDMDL
MODEL 6
REMARK VINA RESULT:      -5.8      1.930      5.493
REMARK  15 active torsions:
REMARK  status: ('A' for Active; 'I' for Inactive)
REMARK    1  A    between atoms: O2_2  and  C3_3 
REMARK    2  A    between atoms: C3_3  and  C4_4 
REMARK       I    between atoms: C4_4  and  N6_6 
REMARK    3  A    between atoms: N6_6  and  C7_7 
REMARK    4  A    between atoms: C10_10  and  C11_11 
REMARK       I    between atoms: C11_11  and  N13_13 
REMARK    5  A    between atoms: N13_13  and  C14_14 
REMARK    6  A    between atoms: C14_14  and  C15_15 
REMARK    7  A    between atoms: C15_15  and  O17_16 
REMARK    8  A    between atoms: C15_15  and  C18_17 
REMARK    9  A    between atoms: C18_17  and  O19_18 
REMARK   10  A    between atoms: C22_21  and  C23_22 
REMARK       I    between atoms: C23_22  and  N25_24 
REMARK   11  A    between atoms: N25_24  and  C27_26 
REMARK   12  A    between atoms: C27_26  and  C28_27 
REMARK   13  A    between atoms: C28_27  and  O30_28 
REMARK   14  A    between atoms: C28_27  and  C31_29 
REMARK   15  A    between atoms: C31_29  and  O32_30 
ROOT
ATOM      1  C7  ZIN A   1      17.617   5.297  14.203  0.00  0.00     0.070 A 
ATOM      2  C8  ZIN A   1      17.944   4.662  15.391  0.00  0.00     0.051 A 
ATOM      3  I9  ZIN A   1      17.919   5.735  17.191  0.00  0.00    -0.041 I 
ATOM      4  C10 ZIN A   1      18.290   3.309  15.391  0.00  0.00     0.068 A 
ATOM      5  C20 ZIN A   1      18.305   2.595  14.194  0.00  0.00     0.040 A 
ATOM      6  I21 ZIN A   1      18.822   0.565  14.187  0.00  0.00    -0.042 I 
ATOM      7  C22 ZIN A   1      17.977   3.236  13.000  0.00  0.00     0.068 A 
ATOM      8  C33 ZIN A   1      17.627   4.589  13.008  0.00  0.00     0.051 A 
ATOM      9  I34 ZIN A   1      17.132   5.553  11.216  0.00  0.00    -0.041 I 
ENDROOT
BRANCH   4  10
ATOM     10  C11 ZIN A   1      18.637   2.633  16.659  0.00  0.00     0.254 C 
ATOM     11  O12 ZIN A   1      19.790   2.619  17.044  0.00  0.00    -0.268 OA
ATOM     12  N13 ZIN A   1      17.675   2.033  17.388  0.00  0.00    -0.354 N 
ATOM     13  H41 ZIN A   1      16.756   2.044  17.081  0.00  0.00     0.162 HD
BRANCH  12  14
ATOM     14  C14 ZIN A   1      18.020   1.363  18.645  0.00  0.00     0.156 C 
BRANCH  14  15
ATOM     15  C15 ZIN A   1      17.938  -0.153  18.454  0.00  0.00     0.159 C 
BRANCH  15  16
ATOM     16  O17 ZIN A   1      17.057  -0.449  17.368  0.00  0.00    -0.392 OA
ATOM     17  H44 ZIN A   1      17.055  -1.381  17.106  0.00  0.00     0.210 HD
ENDBRANCH  15  16
BRANCH  15  18
ATOM     18  C18 ZIN A   1      19.332  -0.704  18.144  0.00  0.00     0.197 C 
BRANCH  18  19
ATOM     19  O19 ZIN A   1      20.308   0.311  18.380  0.00  0.00    -0.398 OA
ATOM     20  H47 ZIN A   1      21.222  -0.001  18.326  0.00  0.00     0.209 HD
ENDBRANCH  18  19
ENDBRANCH  15  18
ENDBRANCH  14  15
ENDBRANCH  12  14
ENDBRANCH   4  10
BRANCH   1  21
ATOM     21  N6  ZIN A   1      17.271   6.654  14.206  0.00  0.00    -0.323 N 
ATOM     22  C4  ZIN A   1      16.022   7.030  14.546  0.00  0.00     0.245 C 
ATOM     23  O5  ZIN A   1      15.177   6.191  14.775  0.00  0.00    -0.271 OA
ATOM     24  H40 ZIN A   1      17.930   7.323  13.962  0.00  0.00     0.169 HD
BRANCH  22  25
ATOM     25  C3  ZIN A   1      15.677   8.494  14.642  0.00  0.00     0.270 C 
BRANCH  25  26
ATOM     26  O2  ZIN A   1      16.294   9.053  15.803  0.00  0.00    -0.387 OA
ATOM     27  C1  ZIN A   1      15.471   9.021  16.971  0.00  0.00     0.202 C 
ENDBRANCH  25  26
ENDBRANCH  22  25
ENDBRANCH   1  21
BRANCH   7  28
ATOM     28  C23 ZIN A   1      17.991   2.485  11.728  0.00  0.00     0.256 C 
ATOM     29  O24 ZIN A   1      16.982   1.932  11.336  0.00  0.00    -0.267 OA
ATOM     30  N25 ZIN A   1      19.125   2.410  11.003  0.00  0.00    -0.350 N 
ATOM     31  C26 ZIN A   1      20.342   3.076  11.474  0.00  0.00     0.153 C 
BRANCH  30  32
ATOM     32  C27 ZIN A   1      19.139   1.666   9.741  0.00  0.00     0.159 C 
BRANCH  32  33
ATOM     33  C28 ZIN A   1      19.446   0.193  10.020  0.00  0.00     0.159 C 
BRANCH  33  34
ATOM     34  O30 ZIN A   1      20.784  -0.100   9.613  0.00  0.00    -0.392 OA
ATOM     35  H53 ZIN A   1      21.461   0.269  10.195  0.00  0.00     0.210 HD
ENDBRANCH  33  34
BRANCH  33  36
ATOM     36  C31 ZIN A   1      18.470  -0.688   9.239  0.00  0.00     0.197 C 
BRANCH  36  37
ATOM     37  O32 ZIN A   1      17.167  -0.103   9.273  0.00  0.00    -0.398 OA
ATOM     38  H56 ZIN A   1      17.011   0.549   8.576  0.00  0.00     0.209 HD
ENDBRANCH  36  37
ENDBRANCH  33  36
ENDBRANCH  32  33
ENDBRANCH  30  32
ENDBRANCH   7  28
TORSDOF 15
ENDMDL
MODEL 7
REMARK VINA RESULT:      -5.7      1.195      4.846
REMARK  15 active torsions:
REMARK  status: ('A' for Active; 'I' for Inactive)
REMARK    1  A    between atoms: O2_2  and  C3_3 
REMARK    2  A    between atoms: C3_3  and  C4_4 
REMARK       I    between atoms: C4_4  and  N6_6 
REMARK    3  A    between atoms: N6_6  and  C7_7 
REMARK    4  A    between atoms: C10_10  and  C11_11 
REMARK       I    between atoms: C11_11  and  N13_13 
REMARK    5  A    between atoms: N13_13  and  C14_14 
REMARK    6  A    between atoms: C14_14  and  C15_15 
REMARK    7  A    between atoms: C15_15  and  O17_16 
REMARK    8  A    between atoms: C15_15  and  C18_17 
REMARK    9  A    between atoms: C18_17  and  O19_18 
REMARK   10  A    between atoms: C22_21  and  C23_22 
REMARK       I    between atoms: C23_22  and  N25_24 
REMARK   11  A    between atoms: N25_24  and  C27_26 
REMARK   12  A    between atoms: C27_26  and  C28_27 
REMARK   13  A    between atoms: C28_27  and  O30_28 
REMARK   14  A    between atoms: C28_27  and  C31_29 
REMARK   15  A    between atoms: C31_29  and  O32_30 
ROOT
ATOM      1  C7  ZIN A   1      18.359   3.670  13.322  0.00  0.00     0.070 A 
ATOM      2  C8  ZIN A   1      18.598   2.827  14.396  0.00  0.00     0.051 A 
ATOM      3  I9  ZIN A   1      19.111   3.630  16.263  0.00  0.00    -0.041 I 
ATOM      4  C10 ZIN A   1      18.497   1.443  14.237  0.00  0.00     0.068 A 
ATOM      5  C20 ZIN A   1      18.155   0.910  12.995  0.00  0.00     0.040 A 
ATOM      6  I21 ZIN A   1      18.002  -1.166  12.749  0.00  0.00    -0.042 I 
ATOM      7  C22 ZIN A   1      17.916   1.760  11.916  0.00  0.00     0.068 A 
ATOM      8  C33 ZIN A   1      18.013   3.144  12.085  0.00  0.00     0.051 A 
ATOM      9  I34 ZIN A   1      17.653   4.423  10.467  0.00  0.00    -0.041 I 
ENDROOT
BRANCH   4  10
ATOM     10  C11 ZIN A   1      18.752   0.544  15.383  0.00  0.00     0.254 C 
ATOM     11  O12 ZIN A   1      19.812  -0.043  15.470  0.00  0.00    -0.268 OA
ATOM     12  N13 ZIN A   1      17.808   0.377  16.330  0.00  0.00    -0.354 N 
ATOM     13  H41 ZIN A   1      16.962   0.846  16.260  0.00  0.00     0.162 HD
BRANCH  12  14
ATOM     14  C14 ZIN A   1      18.060  -0.514  17.466  0.00  0.00     0.156 C 
BRANCH  14  15
ATOM     15  C15 ZIN A   1      18.586   0.304  18.647  0.00  0.00     0.159 C 
BRANCH  15  16
ATOM     16  O17 ZIN A   1      19.990   0.523  18.488  0.00  0.00    -0.392 OA
ATOM     17  H44 ZIN A   1      20.216   1.408  18.169  0.00  0.00     0.210 HD
ENDBRANCH  15  16
BRANCH  15  18
ATOM     18  C18 ZIN A   1      17.862   1.651  18.698  0.00  0.00     0.197 C 
BRANCH  18  19
ATOM     19  O19 ZIN A   1      16.458   1.444  18.541  0.00  0.00    -0.398 OA
ATOM     20  H47 ZIN A   1      16.232   0.705  17.959  0.00  0.00     0.209 HD
ENDBRANCH  18  19
ENDBRANCH  15  18
ENDBRANCH  14  15
ENDBRANCH  12  14
ENDBRANCH   4  10
BRANCH   1  21
ATOM     21  N6  ZIN A   1      18.461   5.057  13.486  0.00  0.00    -0.323 N 
ATOM     22  C4  ZIN A   1      17.406   5.762  13.941  0.00  0.00     0.245 C 
ATOM     23  O5  ZIN A   1      16.345   5.207  14.136  0.00  0.00    -0.271 OA
ATOM     24  H40 ZIN A   1      19.291   5.512  13.270  0.00  0.00     0.169 HD
BRANCH  22  25
ATOM     25  C3  ZIN A   1      17.545   7.239  14.206  0.00  0.00     0.270 C 
BRANCH  25  26
ATOM     26  O2  ZIN A   1      18.485   7.446  15.263  0.00  0.00    -0.387 OA
ATOM     27  C1  ZIN A   1      17.899   7.473  16.566  0.00  0.00     0.202 C 
ENDBRANCH  25  26
ENDBRANCH  22  25
ENDBRANCH   1  21
BRANCH   7  28
ATOM     28  C23 ZIN A   1      17.552   1.200  10.599  0.00  0.00     0.256 C 
ATOM     29  O24 ZIN A   1      16.392   0.938  10.348  0.00  0.00    -0.267 OA
ATOM     30  N25 ZIN A   1      18.508   0.979   9.674  0.00  0.00    -0.350 N 
ATOM     31  C26 ZIN A   1      19.906   1.295   9.976  0.00  0.00     0.153 C 
BRANCH  30  32
ATOM     32  C27 ZIN A   1      18.147   0.424   8.367  0.00  0.00     0.159 C 
BRANCH  32  33
ATOM     33  C28 ZIN A   1      19.132  -0.685   7.993  0.00  0.00     0.159 C 
BRANCH  33  34
ATOM     34  O30 ZIN A   1      19.147  -0.851   6.574  0.00  0.00    -0.392 OA
ATOM     35  H53 ZIN A   1      19.814  -1.475   6.259  0.00  0.00     0.210 HD
ENDBRANCH  33  34
BRANCH  33  36
ATOM     36  C31 ZIN A   1      18.701  -1.995   8.655  0.00  0.00     0.197 C 
BRANCH  36  37
ATOM     37  O32 ZIN A   1      17.624  -2.572   7.914  0.00  0.00    -0.398 OA
ATOM     38  H56 ZIN A   1      17.684  -3.532   7.817  0.00  0.00     0.209 HD
ENDBRANCH  36  37
ENDBRANCH  33  36
ENDBRANCH  32  33
ENDBRANCH  30  32
ENDBRANCH   7  28
TORSDOF 15
ENDMDL
MODEL 8
REMARK VINA RESULT:      -5.7      3.153      8.545
REMARK  15 active torsions:
REMARK  status: ('A' for Active; 'I' for Inactive)
REMARK    1  A    between atoms: O2_2  and  C3_3 
REMARK    2  A    between atoms: C3_3  and  C4_4 
REMARK       I    between atoms: C4_4  and  N6_6 
REMARK    3  A    between atoms: N6_6  and  C7_7 
REMARK    4  A    between atoms: C10_10  and  C11_11 
REMARK       I    between atoms: C11_11  and  N13_13 
REMARK    5  A    between atoms: N13_13  and  C14_14 
REMARK    6  A    between atoms: C14_14  and  C15_15 
REMARK    7  A    between atoms: C15_15  and  O17_16 
REMARK    8  A    between atoms: C15_15  and  C18_17 
REMARK    9  A    between atoms: C18_17  and  O19_18 
REMARK   10  A    between atoms: C22_21  and  C23_22 
REMARK       I    between atoms: C23_22  and  N25_24 
REMARK   11  A    between atoms: N25_24  and  C27_26 
REMARK   12  A    between atoms: C27_26  and  C28_27 
REMARK   13  A    between atoms: C28_27  and  O30_28 
REMARK   14  A    between atoms: C28_27  and  C31_29 
REMARK   15  A    between atoms: C31_29  and  O32_30 
ROOT
ATOM      1  C7  ZIN A   1      18.838  -2.274  10.542  0.00  0.00     0.070 A 
ATOM      2  C8  ZIN A   1      18.538  -1.877   9.247  0.00  0.00     0.051 A 
ATOM      3  I9  ZIN A   1      18.066  -3.314   7.797  0.00  0.00    -0.041 I 
ATOM      4  C10 ZIN A   1      18.549  -0.523   8.909  0.00  0.00     0.068 A 
ATOM      5  C20 ZIN A   1      18.863   0.433   9.875  0.00  0.00     0.040 A 
ATOM      6  I21 ZIN A   1      18.881   2.467   9.373  0.00  0.00    -0.042 I 
ATOM      7  C22 ZIN A   1      19.164   0.032  11.176  0.00  0.00     0.068 A 
ATOM      8  C33 ZIN A   1      19.145  -1.326  11.508  0.00  0.00     0.051 A 
ATOM      9  I34 ZIN A   1      19.597  -1.930  13.462  0.00  0.00    -0.041 I 
ENDROOT
BRANCH   4  10
ATOM     10  C11 ZIN A   1      18.229  -0.101   7.528  0.00  0.00     0.254 C 
ATOM     11  O12 ZIN A   1      17.083   0.172   7.227  0.00  0.00    -0.268 OA
ATOM     12  N13 ZIN A   1      19.207  -0.021   6.605  0.00  0.00    -0.354 N 
ATOM     13  H41 ZIN A   1      20.121  -0.239   6.845  0.00  0.00     0.162 HD
BRANCH  12  14
ATOM     14  C14 ZIN A   1      18.890   0.396   5.236  0.00  0.00     0.156 C 
BRANCH  14  15
ATOM     15  C15 ZIN A   1      18.919  -0.822   4.312  0.00  0.00     0.159 C 
BRANCH  15  16
ATOM     16  O17 ZIN A   1      19.870  -1.770   4.803  0.00  0.00    -0.392 OA
ATOM     17  H44 ZIN A   1      20.784  -1.577   4.551  0.00  0.00     0.210 HD
ENDBRANCH  15  16
BRANCH  15  18
ATOM     18  C18 ZIN A   1      17.531  -1.466   4.273  0.00  0.00     0.197 C 
BRANCH  18  19
ATOM     19  O19 ZIN A   1      17.614  -2.735   3.623  0.00  0.00    -0.398 OA
ATOM     20  H47 ZIN A   1      17.232  -3.463   4.132  0.00  0.00     0.209 HD
ENDBRANCH  18  19
ENDBRANCH  15  18
ENDBRANCH  14  15
ENDBRANCH  12  14
ENDBRANCH   4  10
BRANCH   1  21
ATOM     21  N6  ZIN A   1      18.825  -3.633  10.879  0.00  0.00    -0.323 N 
ATOM     22  C4  ZIN A   1      17.686  -4.210  11.311  0.00  0.00     0.245 C 
ATOM     23  O5  ZIN A   1      16.692  -3.537  11.481  0.00  0.00    -0.271 OA
ATOM     24  H40 ZIN A   1      19.637  -4.159  10.803  0.00  0.00     0.169 HD
BRANCH  22  25
ATOM     25  C3  ZIN A   1      17.649  -5.692  11.582  0.00  0.00     0.270 C 
BRANCH  25  26
ATOM     26  O2  ZIN A   1      17.840  -6.404  10.358  0.00  0.00    -0.387 OA
ATOM     27  C1  ZIN A   1      16.694  -6.416   9.506  0.00  0.00     0.202 C 
ENDBRANCH  25  26
ENDBRANCH  22  25
ENDBRANCH   1  21
BRANCH   7  28
ATOM     28  C23 ZIN A   1      19.496   1.040  12.203  0.00  0.00     0.256 C 
ATOM     29  O24 ZIN A   1      20.644   1.419  12.334  0.00  0.00    -0.267 OA
ATOM     30  N25 ZIN A   1      18.526   1.538  12.995  0.00  0.00    -0.350 N 
ATOM     31  C26 ZIN A   1      17.143   1.081  12.836  0.00  0.00     0.153 C 
BRANCH  30  32
ATOM     32  C27 ZIN A   1      18.855   2.539  14.013  0.00  0.00     0.159 C 
BRANCH  32  33
ATOM     33  C28 ZIN A   1      18.695   3.941  13.422  0.00  0.00     0.159 C 
BRANCH  33  34
ATOM     34  O30 ZIN A   1      19.950   4.385  12.904  0.00  0.00    -0.392 OA
ATOM     35  H53 ZIN A   1      20.028   5.346  12.836  0.00  0.00     0.210 HD
ENDBRANCH  33  34
BRANCH  33  36
ATOM     36  C31 ZIN A   1      18.224   4.904  14.514  0.00  0.00     0.197 C 
BRANCH  36  37
ATOM     37  O32 ZIN A   1      16.861   4.627  14.839  0.00  0.00    -0.398 OA
ATOM     38  H56 ZIN A   1      16.555   5.055  15.651  0.00  0.00     0.209 HD
ENDBRANCH  36  37
ENDBRANCH  33  36
ENDBRANCH  32  33
ENDBRANCH  30  32
ENDBRANCH   7  28
TORSDOF 15
ENDMDL
MODEL 9
REMARK VINA RESULT:      -5.6      4.470      9.774
REMARK  15 active torsions:
REMARK  status: ('A' for Active; 'I' for Inactive)
REMARK    1  A    between atoms: O2_2  and  C3_3 
REMARK    2  A    between atoms: C3_3  and  C4_4 
REMARK       I    between atoms: C4_4  and  N6_6 
REMARK    3  A    between atoms: N6_6  and  C7_7 
REMARK    4  A    between atoms: C10_10  and  C11_11 
REMARK       I    between atoms: C11_11  and  N13_13 
REMARK    5  A    between atoms: N13_13  and  C14_14 
REMARK    6  A    between atoms: C14_14  and  C15_15 
REMARK    7  A    between atoms: C15_15  and  O17_16 
REMARK    8  A    between atoms: C15_15  and  C18_17 
REMARK    9  A    between atoms: C18_17  and  O19_18 
REMARK   10  A    between atoms: C22_21  and  C23_22 
REMARK       I    between atoms: C23_22  and  N25_24 
REMARK   11  A    between atoms: N25_24  and  C27_26 
REMARK   12  A    between atoms: C27_26  and  C28_27 
REMARK   13  A    between atoms: C28_27  and  O30_28 
REMARK   14  A    between atoms: C28_27  and  C31_29 
REMARK   15  A    between atoms: C31_29  and  O32_30 
ROOT
ATOM      1  C7  ZIN A   1      17.984  -4.566   9.170  0.00  0.00     0.070 A 
ATOM      2  C8  ZIN A   1      18.287  -3.775   8.071  0.00  0.00     0.051 A 
ATOM      3  I9  ZIN A   1      18.578  -4.661   6.194  0.00  0.00    -0.041 I 
ATOM      4  C10 ZIN A   1      18.397  -2.390   8.213  0.00  0.00     0.068 A 
ATOM      5  C20 ZIN A   1      18.202  -1.802   9.462  0.00  0.00     0.040 A 
ATOM      6  I21 ZIN A   1      18.365   0.276   9.681  0.00  0.00    -0.042 I 
ATOM      7  C22 ZIN A   1      17.898  -2.599  10.565  0.00  0.00     0.068 A 
ATOM      8  C33 ZIN A   1      17.784  -3.983  10.414  0.00  0.00     0.051 A 
ATOM      9  I34 ZIN A   1      17.327  -5.182  12.069  0.00  0.00    -0.041 I 
ENDROOT
BRANCH   4  10
ATOM     10  C11 ZIN A   1      18.719  -1.549   7.041  0.00  0.00     0.254 C 
ATOM     11  O12 ZIN A   1      19.877  -1.382   6.713  0.00  0.00    -0.268 OA
ATOM     12  N13 ZIN A   1      17.728  -0.967   6.337  0.00  0.00    -0.354 N 
ATOM     13  H41 ZIN A   1      16.804  -1.100   6.599  0.00  0.00     0.162 HD
BRANCH  12  14
ATOM     14  C14 ZIN A   1      18.047  -0.133   5.175  0.00  0.00     0.156 C 
BRANCH  14  15
ATOM     15  C15 ZIN A   1      18.108  -1.007   3.922  0.00  0.00     0.159 C 
BRANCH  15  16
ATOM     16  O17 ZIN A   1      19.363  -1.692   3.879  0.00  0.00    -0.392 OA
ATOM     17  H44 ZIN A   1      19.645  -1.940   2.988  0.00  0.00     0.210 HD
ENDBRANCH  15  16
BRANCH  15  18
ATOM     18  C18 ZIN A   1      16.971  -2.030   3.957  0.00  0.00     0.197 C 
BRANCH  18  19
ATOM     19  O19 ZIN A   1      17.149  -2.977   2.904  0.00  0.00    -0.398 OA
ATOM     20  H47 ZIN A   1      17.552  -3.809   3.187  0.00  0.00     0.209 HD
ENDBRANCH  18  19
ENDBRANCH  15  18
ENDBRANCH  14  15
ENDBRANCH  12  14
ENDBRANCH   4  10
BRANCH   1  21
ATOM     21  N6  ZIN A   1      17.874  -5.954   9.024  0.00  0.00    -0.323 N 
ATOM     22  C4  ZIN A   1      16.729  -6.495   8.563  0.00  0.00     0.245 C 
ATOM     23  O5  ZIN A   1      15.768  -5.787   8.346  0.00  0.00    -0.271 OA
ATOM     24  H40 ZIN A   1      18.622  -6.527   9.257  0.00  0.00     0.169 HD
BRANCH  22  25
ATOM     25  C3  ZIN A   1      16.643  -7.979   8.316  0.00  0.00     0.270 C 
BRANCH  25  26
ATOM     26  O2  ZIN A   1      17.646  -8.363   7.374  0.00  0.00    -0.387 OA
ATOM     27  C1  ZIN A   1      17.181  -8.431   6.025  0.00  0.00     0.202 C 
ENDBRANCH  25  26
ENDBRANCH  22  25
ENDBRANCH   1  21
BRANCH   7  28
ATOM     28  C23 ZIN A   1      17.690  -1.980  11.890  0.00  0.00     0.256 C 
ATOM     29  O24 ZIN A   1      16.626  -1.454  12.155  0.00  0.00    -0.267 OA
ATOM     30  N25 ZIN A   1      18.680  -1.997  12.804  0.00  0.00    -0.350 N 
ATOM     31  C26 ZIN A   1      19.961  -2.631  12.485  0.00  0.00     0.153 C 
BRANCH  30  32
ATOM     32  C27 ZIN A   1      18.473  -1.384  14.119  0.00  0.00     0.159 C 
BRANCH  32  33
ATOM     33  C28 ZIN A   1      19.628  -0.430  14.425  0.00  0.00     0.159 C 
BRANCH  33  34
ATOM     34  O30 ZIN A   1      19.395   0.214  15.680  0.00  0.00    -0.392 OA
ATOM     35  H53 ZIN A   1      18.945  -0.343  16.329  0.00  0.00     0.210 HD
ENDBRANCH  33  34
BRANCH  33  36
ATOM     36  C31 ZIN A   1      19.724   0.625  13.321  0.00  0.00     0.197 C 
BRANCH  36  37
ATOM     37  O32 ZIN A   1      21.041   0.618  12.768  0.00  0.00    -0.398 OA
ATOM     38  H56 ZIN A   1      21.420   1.500  12.644  0.00  0.00     0.209 HD
ENDBRANCH  36  37
ENDBRANCH  33  36
ENDBRANCH  32  33
ENDBRANCH  30  32
ENDBRANCH   7  28
TORSDOF 15
ENDMDL
