MODEL 1
REMARK VINA RESULT:      -8.2      0.000      0.000
REMARK  9 active torsions:
REMARK  status: ('A' for Active; 'I' for Inactive)
REMARK    1  A    between atoms: C4_4  and  C5_5 
REMARK    2  A    between atoms: C16_15  and  C18_16 
REMARK    3  A    between atoms: C18_16  and  C21_18 
REMARK    4  A    between atoms: C21_18  and  C22_19 
REMARK    5  A    between atoms: C22_19  and  C23_20 
REMARK    6  A    between atoms: C23_20  and  C24_21 
REMARK    7  A    between atoms: C24_21  and  O27_24 
REMARK    8  A    between atoms: C29_26  and  O31_27 
REMARK    9  A    between atoms: C33_29  and  O35_30 
ROOT
ATOM      1  C5  ZIN A   1      19.794  -3.492  11.553  0.00  0.00     0.004 C 
ATOM      2  C6  ZIN A   1      18.940  -4.466  11.239  0.00  0.00    -0.075 C 
ATOM      3  C7  ZIN A   1      17.700  -4.764  12.068  0.00  0.00     0.034 C 
ATOM      4  C8  ZIN A   1      16.461  -4.843  11.178  0.00  0.00     0.005 C 
ATOM      5  C9  ZIN A   1      16.694  -5.743   9.955  0.00  0.00     0.010 C 
ATOM      6  C10 ZIN A   1      17.854  -5.165   9.178  0.00  0.00    -0.033 C 
ATOM      7  C11 ZIN A   1      17.621  -3.669   8.959  0.00  0.00     0.016 C 
ATOM      8  C12 ZIN A   1      19.131  -5.344  10.037  0.00  0.00     0.023 C 
ATOM      9  C14 ZIN A   1      20.219  -4.927   9.045  0.00  0.00     0.010 C 
ATOM     10  C15 ZIN A   1      19.759  -5.606   7.724  0.00  0.00     0.006 C 
ATOM     11  C16 ZIN A   1      18.231  -5.813   7.854  0.00  0.00    -0.002 C 
ENDROOT
BRANCH   1  12
ATOM     12  C4  ZIN A   1      19.556  -2.666  12.739  0.00  0.00     0.008 C 
ATOM     13  C3  ZIN A   1      19.181  -1.377  12.601  0.00  0.00    -0.048 C 
ATOM     14  C2  ZIN A   1      18.999  -0.763  11.269  0.00  0.00    -0.033 C 
ATOM     15  C28 ZIN A   1      18.926  -0.490  13.802  0.00  0.00     0.071 C 
ATOM     16  C1  ZIN A   1      19.865  -0.973  10.278  0.00  0.00     0.022 C 
ATOM     17  C33 ZIN A   1      17.783   0.123  11.087  0.00  0.00     0.153 C 
ATOM     18  C32 ZIN A   1      17.684   1.067  12.284  0.00  0.00     0.068 C 
ATOM     19  C29 ZIN A   1      17.608   0.257  13.580  0.00  0.00     0.125 C 
BRANCH  17  20
ATOM     20  O35 ZIN A   1      16.609  -0.690  11.016  0.00  0.00    -0.391 OA
ATOM     21  H74 ZIN A   1      15.999  -0.565  11.756  0.00  0.00     0.210 HD
ENDBRANCH  17  20
BRANCH  19  22
ATOM     22  O31 ZIN A   1      17.372   1.142  14.677  0.00  0.00    -0.395 OA
ATOM     23  H71 ZIN A   1      18.151   1.645  14.950  0.00  0.00     0.210 HD
ENDBRANCH  19  22
ENDBRANCH   1  12
BRANCH  11  24
ATOM     24  C18 ZIN A   1      17.502  -5.127   6.698  0.00  0.00    -0.014 C 
ATOM     25  C20 ZIN A   1      16.326  -5.997   6.247  0.00  0.00     0.010 C 
BRANCH  24  26
ATOM     26  C21 ZIN A   1      18.470  -4.933   5.528  0.00  0.00     0.005 C 
BRANCH  26  27
ATOM     27  C22 ZIN A   1      18.322  -3.515   4.972  0.00  0.00     0.003 C 
BRANCH  27  28
ATOM     28  C23 ZIN A   1      19.263  -2.573   5.722  0.00  0.00     0.037 C 
BRANCH  28  29
ATOM     29  C24 ZIN A   1      18.965  -1.127   5.321  0.00  0.00     0.051 C 
ATOM     30  C25 ZIN A   1      17.722  -1.091   4.430  0.00  0.00     0.045 C 
ATOM     31  C26 ZIN A   1      18.717  -0.289   6.577  0.00  0.00     0.045 C 
BRANCH  29  32
ATOM     32  O27 ZIN A   1      20.080  -0.592   4.605  0.00  0.00    -0.391 OA
ATOM     33  H68 ZIN A   1      20.089  -0.817   3.665  0.00  0.00     0.210 HD
ENDBRANCH  29  32
ENDBRANCH  28  29
ENDBRANCH  27  28
ENDBRANCH  26  27
ENDBRANCH  24  26
ENDBRANCH  11  24
TORSDOF 9
ENDMDL
MODEL 2
REMARK VINA RESULT:      -8.0      2.729      8.816
REMARK  9 active torsions:
REMARK  status: ('A' for Active; 'I' for Inactive)
REMARK    1  A    between atoms: C4_4  and  C5_5 
REMARK    2  A    between atoms: C16_15  and  C18_16 
REMARK    3  A    between atoms: C18_16  and  C21_18 
REMARK    4  A    between atoms: C21_18  and  C22_19 
REMARK    5  A    between atoms: C22_19  and  C23_20 
REMARK    6  A    between atoms: C23_20  and  C24_21 
REMARK    7  A    between atoms: C24_21  and  O27_24 
REMARK    8  A    between atoms: C29_26  and  O31_27 
REMARK    9  A    between atoms: C33_29  and  O35_30 
ROOT
ATOM      1  C5  ZIN A   1      18.782  -1.363   7.882  0.00  0.00     0.004 C 
ATOM      2  C6  ZIN A   1      19.244  -0.305   8.548  0.00  0.00    -0.075 C 
ATOM      3  C7  ZIN A   1      19.314   1.082   7.928  0.00  0.00     0.034 C 
ATOM      4  C8  ZIN A   1      18.673   2.119   8.849  0.00  0.00     0.005 C 
ATOM      5  C9  ZIN A   1      19.184   1.992  10.293  0.00  0.00     0.010 C 
ATOM      6  C10 ZIN A   1      18.853   0.597  10.772  0.00  0.00    -0.033 C 
ATOM      7  C11 ZIN A   1      17.381   0.299  10.482  0.00  0.00     0.016 C 
ATOM      8  C12 ZIN A   1      19.726  -0.397   9.965  0.00  0.00     0.023 C 
ATOM      9  C14 ZIN A   1      19.447  -1.707  10.705  0.00  0.00     0.010 C 
ATOM     10  C15 ZIN A   1      19.486  -1.274  12.198  0.00  0.00     0.006 C 
ATOM     11  C16 ZIN A   1      19.162   0.239  12.218  0.00  0.00    -0.002 C 
ENDROOT
BRANCH   1  12
ATOM     12  C4  ZIN A   1      18.324  -1.214   6.498  0.00  0.00     0.008 C 
ATOM     13  C3  ZIN A   1      18.382  -2.263   5.651  0.00  0.00    -0.048 C 
ATOM     14  C2  ZIN A   1      18.900  -3.579   6.083  0.00  0.00    -0.033 C 
ATOM     15  C28 ZIN A   1      17.919  -2.150   4.213  0.00  0.00     0.071 C 
ATOM     16  C1  ZIN A   1      19.998  -3.686   6.832  0.00  0.00     0.022 C 
ATOM     17  C33 ZIN A   1      18.128  -4.799   5.625  0.00  0.00     0.153 C 
ATOM     18  C32 ZIN A   1      17.819  -4.652   4.137  0.00  0.00     0.068 C 
ATOM     19  C29 ZIN A   1      17.036  -3.360   3.893  0.00  0.00     0.125 C 
BRANCH  17  20
ATOM     20  O35 ZIN A   1      16.907  -4.893   6.363  0.00  0.00    -0.391 OA
ATOM     21  H74 ZIN A   1      16.633  -5.800   6.557  0.00  0.00     0.210 HD
ENDBRANCH  17  20
BRANCH  19  22
ATOM     22  O31 ZIN A   1      16.631  -3.303   2.524  0.00  0.00    -0.395 OA
ATOM     23  H71 ZIN A   1      16.763  -2.439   2.111  0.00  0.00     0.210 HD
ENDBRANCH  19  22
ENDBRANCH   1  12
BRANCH  11  24
ATOM     24  C18 ZIN A   1      17.946   0.510  13.106  0.00  0.00    -0.014 C 
ATOM     25  C20 ZIN A   1      18.002   1.950  13.622  0.00  0.00     0.010 C 
BRANCH  24  26
ATOM     26  C21 ZIN A   1      17.955  -0.456  14.293  0.00  0.00     0.005 C 
BRANCH  26  27
ATOM     27  C22 ZIN A   1      17.645   0.312  15.579  0.00  0.00     0.003 C 
BRANCH  27  28
ATOM     28  C23 ZIN A   1      18.458  -0.277  16.733  0.00  0.00     0.037 C 
BRANCH  28  29
ATOM     29  C24 ZIN A   1      18.882   0.844  17.683  0.00  0.00     0.051 C 
ATOM     30  C25 ZIN A   1      19.232   2.094  16.873  0.00  0.00     0.045 C 
ATOM     31  C26 ZIN A   1      17.732   1.164  18.641  0.00  0.00     0.045 C 
BRANCH  29  32
ATOM     32  O27 ZIN A   1      20.023   0.426  18.434  0.00  0.00    -0.391 OA
ATOM     33  H68 ZIN A   1      20.041  -0.521  18.630  0.00  0.00     0.210 HD
ENDBRANCH  29  32
ENDBRANCH  28  29
ENDBRANCH  27  28
ENDBRANCH  26  27
ENDBRANCH  24  26
ENDBRANCH  11  24
TORSDOF 9
ENDMDL
MODEL 3
REMARK VINA RESULT:      -8.0      2.439      7.702
REMARK  9 active torsions:
REMARK  status: ('A' for Active; 'I' for Inactive)
REMARK    1  A    between atoms: C4_4  and  C5_5 
REMARK    2  A    between atoms: C16_15  and  C18_16 
REMARK    3  A    between atoms: C18_16  and  C21_18 
REMARK    4  A    between atoms: C21_18  and  C22_19 
REMARK    5  A    between atoms: C22_19  and  C23_20 
REMARK    6  A    between atoms: C23_20  and  C24_21 
REMARK    7  A    between atoms: C24_21  and  O27_24 
REMARK    8  A    between atoms: C29_26  and  O31_27 
REMARK    9  A    between atoms: C33_29  and  O35_30 
ROOT
ATOM      1  C5  ZIN A   1      19.295  -1.993   9.317  0.00  0.00     0.004 C 
ATOM      2  C6  ZIN A   1      19.476  -0.814   8.723  0.00  0.00    -0.075 C 
ATOM      3  C7  ZIN A   1      19.155  -0.582   7.254  0.00  0.00     0.034 C 
ATOM      4  C8  ZIN A   1      18.287   0.663   7.081  0.00  0.00     0.005 C 
ATOM      5  C9  ZIN A   1      18.854   1.866   7.851  0.00  0.00     0.010 C 
ATOM      6  C10 ZIN A   1      18.922   1.480   9.311  0.00  0.00    -0.033 C 
ATOM      7  C11 ZIN A   1      17.576   0.896   9.743  0.00  0.00     0.016 C 
ATOM      8  C12 ZIN A   1      20.006   0.382   9.458  0.00  0.00     0.023 C 
ATOM      9  C14 ZIN A   1      20.109   0.266  10.980  0.00  0.00     0.010 C 
ATOM     10  C15 ZIN A   1      20.074   1.751  11.441  0.00  0.00     0.006 C 
ATOM     11  C16 ZIN A   1      19.358   2.536  10.317  0.00  0.00    -0.002 C 
ENDROOT
BRANCH   1  12
ATOM     12  C4  ZIN A   1      18.775  -3.127   8.549  0.00  0.00     0.008 C 
ATOM     13  C3  ZIN A   1      18.497  -4.292   9.170  0.00  0.00    -0.048 C 
ATOM     14  C2  ZIN A   1      18.704  -4.463  10.624  0.00  0.00    -0.033 C 
ATOM     15  C28 ZIN A   1      17.958  -5.488   8.412  0.00  0.00     0.071 C 
ATOM     16  C1  ZIN A   1      19.799  -4.006  11.233  0.00  0.00     0.022 C 
ATOM     17  C33 ZIN A   1      17.616  -5.190  11.387  0.00  0.00     0.153 C 
ATOM     18  C32 ZIN A   1      17.229  -6.446  10.609  0.00  0.00     0.068 C 
ATOM     19  C29 ZIN A   1      16.777  -6.065   9.198  0.00  0.00     0.125 C 
BRANCH  17  20
ATOM     20  O35 ZIN A   1      16.477  -4.336  11.519  0.00  0.00    -0.391 OA
ATOM     21  H74 ZIN A   1      15.846  -4.623  12.193  0.00  0.00     0.210 HD
ENDBRANCH  17  20
BRANCH  19  22
ATOM     22  O31 ZIN A   1      16.284  -7.229   8.529  0.00  0.00    -0.395 OA
ATOM     23  H71 ZIN A   1      15.835  -7.040   7.694  0.00  0.00     0.210 HD
ENDBRANCH  19  22
ENDBRANCH   1  12
BRANCH  11  24
ATOM     24  C18 ZIN A   1      18.140   3.274  10.876  0.00  0.00    -0.014 C 
ATOM     25  C20 ZIN A   1      17.864   4.518  10.029  0.00  0.00     0.010 C 
BRANCH  24  26
ATOM     26  C21 ZIN A   1      18.417   3.693  12.322  0.00  0.00     0.005 C 
BRANCH  26  27
ATOM     27  C22 ZIN A   1      17.467   2.947  13.261  0.00  0.00     0.003 C 
BRANCH  27  28
ATOM     28  C23 ZIN A   1      18.254   2.395  14.449  0.00  0.00     0.037 C 
BRANCH  28  29
ATOM     29  C24 ZIN A   1      17.943   0.906  14.620  0.00  0.00     0.051 C 
ATOM     30  C25 ZIN A   1      17.274   0.376  13.350  0.00  0.00     0.045 C 
ATOM     31  C26 ZIN A   1      19.243   0.138  14.870  0.00  0.00     0.045 C 
BRANCH  29  32
ATOM     32  O27 ZIN A   1      17.064   0.728  15.732  0.00  0.00    -0.391 OA
ATOM     33  H68 ZIN A   1      16.673   1.550  16.060  0.00  0.00     0.210 HD
ENDBRANCH  29  32
ENDBRANCH  28  29
ENDBRANCH  27  28
ENDBRANCH  26  27
ENDBRANCH  24  26
ENDBRANCH  11  24
TORSDOF 9
ENDMDL
MODEL 4
REMARK VINA RESULT:      -7.9      4.072     10.260
REMARK  9 active torsions:
REMARK  status: ('A' for Active; 'I' for Inactive)
REMARK    1  A    between atoms: C4_4  and  C5_5 
REMARK    2  A    between atoms: C16_15  and  C18_16 
REMARK    3  A    between atoms: C18_16  and  C21_18 
REMARK    4  A    between atoms: C21_18  and  C22_19 
REMARK    5  A    between atoms: C22_19  and  C23_20 
REMARK    6  A    between atoms: C23_20  and  C24_21 
REMARK    7  A    between atoms: C24_21  and  O27_24 
REMARK    8  A    between atoms: C29_26  and  O31_27 
REMARK    9  A    between atoms: C33_29  and  O35_30 
ROOT
ATOM      1  C5  ZIN A   1      19.664   3.520  11.310  0.00  0.00     0.004 C 
ATOM      2  C6  ZIN A   1      18.843   4.514  11.646  0.00  0.00    -0.075 C 
ATOM      3  C7  ZIN A   1      17.601   4.856  10.837  0.00  0.00     0.034 C 
ATOM      4  C8  ZIN A   1      16.376   4.960  11.745  0.00  0.00     0.005 C 
ATOM      5  C9  ZIN A   1      16.651   5.840  12.975  0.00  0.00     0.010 C 
ATOM      6  C10 ZIN A   1      17.804   5.220  13.729  0.00  0.00    -0.033 C 
ATOM      7  C11 ZIN A   1      17.531   3.729  13.936  0.00  0.00     0.016 C 
ATOM      8  C12 ZIN A   1      19.075   5.372  12.855  0.00  0.00     0.023 C 
ATOM      9  C14 ZIN A   1      20.163   4.914  13.827  0.00  0.00     0.010 C 
ATOM     10  C15 ZIN A   1      19.740   5.592  15.161  0.00  0.00     0.006 C 
ATOM     11  C16 ZIN A   1      18.217   5.843  15.055  0.00  0.00    -0.002 C 
ENDROOT
BRANCH   1  12
ATOM     12  C4  ZIN A   1      19.387   2.714  10.118  0.00  0.00     0.008 C 
ATOM     13  C3  ZIN A   1      19.039   1.417  10.246  0.00  0.00    -0.048 C 
ATOM     14  C2  ZIN A   1      18.925   0.773  11.572  0.00  0.00    -0.033 C 
ATOM     15  C28 ZIN A   1      18.744   0.550   9.039  0.00  0.00     0.071 C 
ATOM     16  C1  ZIN A   1      19.831   0.977  12.528  0.00  0.00     0.022 C 
ATOM     17  C33 ZIN A   1      17.733  -0.137  11.789  0.00  0.00     0.153 C 
ATOM     18  C32 ZIN A   1      17.596  -1.058  10.578  0.00  0.00     0.068 C 
ATOM     19  C29 ZIN A   1      17.450  -0.224   9.304  0.00  0.00     0.125 C 
BRANCH  17  20
ATOM     20  O35 ZIN A   1      16.551   0.654  11.928  0.00  0.00    -0.391 OA
ATOM     21  H74 ZIN A   1      15.737   0.137  11.999  0.00  0.00     0.210 HD
ENDBRANCH  17  20
BRANCH  19  22
ATOM     22  O31 ZIN A   1      17.180  -1.090   8.199  0.00  0.00    -0.395 OA
ATOM     23  H71 ZIN A   1      17.914  -1.676   7.971  0.00  0.00     0.210 HD
ENDBRANCH  19  22
ENDBRANCH   1  12
BRANCH  11  24
ATOM     24  C18 ZIN A   1      17.484   5.165  16.214  0.00  0.00    -0.014 C 
ATOM     25  C20 ZIN A   1      16.345   6.067  16.695  0.00  0.00     0.010 C 
BRANCH  24  26
ATOM     26  C21 ZIN A   1      18.463   4.923  17.365  0.00  0.00     0.005 C 
BRANCH  26  27
ATOM     27  C22 ZIN A   1      18.261   3.512  17.919  0.00  0.00     0.003 C 
BRANCH  27  28
ATOM     28  C23 ZIN A   1      19.204   2.543  17.203  0.00  0.00     0.037 C 
BRANCH  28  29
ATOM     29  C24 ZIN A   1      18.914   1.114  17.666  0.00  0.00     0.051 C 
ATOM     30  C25 ZIN A   1      17.654   1.104  18.534  0.00  0.00     0.045 C 
ATOM     31  C26 ZIN A   1      18.699   0.216  16.445  0.00  0.00     0.045 C 
BRANCH  29  32
ATOM     32  O27 ZIN A   1      20.021   0.626  18.426  0.00  0.00    -0.391 OA
ATOM     33  H68 ZIN A   1      19.787  -0.064  19.062  0.00  0.00     0.210 HD
ENDBRANCH  29  32
ENDBRANCH  28  29
ENDBRANCH  27  28
ENDBRANCH  26  27
ENDBRANCH  24  26
ENDBRANCH  11  24
TORSDOF 9
ENDMDL
MODEL 5
REMARK VINA RESULT:      -7.8      3.024      5.363
REMARK  9 active torsions:
REMARK  status: ('A' for Active; 'I' for Inactive)
REMARK    1  A    between atoms: C4_4  and  C5_5 
REMARK    2  A    between atoms: C16_15  and  C18_16 
REMARK    3  A    between atoms: C18_16  and  C21_18 
REMARK    4  A    between atoms: C21_18  and  C22_19 
REMARK    5  A    between atoms: C22_19  and  C23_20 
REMARK    6  A    between atoms: C23_20  and  C24_21 
REMARK    7  A    between atoms: C24_21  and  O27_24 
REMARK    8  A    between atoms: C29_26  and  O31_27 
REMARK    9  A    between atoms: C33_29  and  O35_30 
ROOT
ATOM      1  C5  ZIN A   1      18.898   2.059  13.668  0.00  0.00     0.004 C 
ATOM      2  C6  ZIN A   1      19.231   0.828  14.056  0.00  0.00    -0.075 C 
ATOM      3  C7  ZIN A   1      18.876   0.283  15.432  0.00  0.00     0.034 C 
ATOM      4  C8  ZIN A   1      18.205  -1.084  15.315  0.00  0.00     0.005 C 
ATOM      5  C9  ZIN A   1      18.991  -2.028  14.390  0.00  0.00     0.010 C 
ATOM      6  C10 ZIN A   1      19.070  -1.371  13.031  0.00  0.00    -0.033 C 
ATOM      7  C11 ZIN A   1      17.673  -0.917  12.606  0.00  0.00     0.016 C 
ATOM      8  C12 ZIN A   1      19.976  -0.121  13.165  0.00  0.00     0.023 C 
ATOM      9  C14 ZIN A   1      20.136   0.291  11.700  0.00  0.00     0.010 C 
ATOM     10  C15 ZIN A   1      20.354  -1.071  10.982  0.00  0.00     0.006 C 
ATOM     11  C16 ZIN A   1      19.714  -2.147  11.891  0.00  0.00    -0.002 C 
ENDROOT
BRANCH   1  12
ATOM     12  C4  ZIN A   1      18.170   2.943  14.581  0.00  0.00     0.008 C 
ATOM     13  C3  ZIN A   1      17.863   4.201  14.202  0.00  0.00    -0.048 C 
ATOM     14  C2  ZIN A   1      18.243   4.723  12.872  0.00  0.00    -0.033 C 
ATOM     15  C28 ZIN A   1      17.111   5.146  15.117  0.00  0.00     0.071 C 
ATOM     16  C1  ZIN A   1      19.449   4.496  12.351  0.00  0.00     0.022 C 
ATOM     17  C33 ZIN A   1      17.198   5.535  12.134  0.00  0.00     0.153 C 
ATOM     18  C32 ZIN A   1      16.589   6.544  13.106  0.00  0.00     0.068 C 
ATOM     19  C29 ZIN A   1      15.993   5.813  14.310  0.00  0.00     0.125 C 
BRANCH  17  20
ATOM     20  O35 ZIN A   1      16.178   4.663  11.643  0.00  0.00    -0.391 OA
ATOM     21  H74 ZIN A   1      15.340   4.729  12.122  0.00  0.00     0.210 HD
ENDBRANCH  17  20
BRANCH  19  22
ATOM     22  O31 ZIN A   1      15.303   6.750  15.139  0.00  0.00    -0.395 OA
ATOM     23  H71 ZIN A   1      15.669   7.645  15.110  0.00  0.00     0.210 HD
ENDBRANCH  19  22
ENDBRANCH   1  12
BRANCH  11  24
ATOM     24  C18 ZIN A   1      18.656  -2.935  11.118  0.00  0.00    -0.014 C 
ATOM     25  C20 ZIN A   1      18.587  -4.365  11.658  0.00  0.00     0.010 C 
BRANCH  24  26
ATOM     26  C21 ZIN A   1      19.028  -2.969   9.634  0.00  0.00     0.005 C 
BRANCH  26  27
ATOM     27  C22 ZIN A   1      17.919  -2.307   8.814  0.00  0.00     0.003 C 
BRANCH  27  28
ATOM     28  C23 ZIN A   1      18.541  -1.489   7.681  0.00  0.00     0.037 C 
BRANCH  28  29
ATOM     29  C24 ZIN A   1      17.860  -0.121   7.606  0.00  0.00     0.051 C 
ATOM     30  C25 ZIN A   1      17.436   0.316   9.010  0.00  0.00     0.045 C 
ATOM     31  C26 ZIN A   1      18.837   0.905   7.027  0.00  0.00     0.045 C 
BRANCH  29  32
ATOM     32  O27 ZIN A   1      16.708  -0.208   6.766  0.00  0.00    -0.391 OA
ATOM     33  H68 ZIN A   1      16.013  -0.787   7.109  0.00  0.00     0.210 HD
ENDBRANCH  29  32
ENDBRANCH  28  29
ENDBRANCH  27  28
ENDBRANCH  26  27
ENDBRANCH  24  26
ENDBRANCH  11  24
TORSDOF 9
ENDMDL
MODEL 6
REMARK VINA RESULT:      -7.6      3.254      8.508
REMARK  9 active torsions:
REMARK  status: ('A' for Active; 'I' for Inactive)
REMARK    1  A    between atoms: C4_4  and  C5_5 
REMARK    2  A    between atoms: C16_15  and  C18_16 
REMARK    3  A    between atoms: C18_16  and  C21_18 
REMARK    4  A    between atoms: C21_18  and  C22_19 
REMARK    5  A    between atoms: C22_19  and  C23_20 
REMARK    6  A    between atoms: C23_20  and  C24_21 
REMARK    7  A    between atoms: C24_21  and  O27_24 
REMARK    8  A    between atoms: C29_26  and  O31_27 
REMARK    9  A    between atoms: C33_29  and  O35_30 
ROOT
ATOM      1  C5  ZIN A   1      19.182  -1.834   9.721  0.00  0.00     0.004 C 
ATOM      2  C6  ZIN A   1      19.473  -0.615   9.267  0.00  0.00    -0.075 C 
ATOM      3  C7  ZIN A   1      19.310  -0.228   7.805  0.00  0.00     0.034 C 
ATOM      4  C8  ZIN A   1      18.520   1.072   7.675  0.00  0.00     0.005 C 
ATOM      5  C9  ZIN A   1      19.059   2.165   8.612  0.00  0.00     0.010 C 
ATOM      6  C10 ZIN A   1      18.964   1.639  10.026  0.00  0.00    -0.033 C 
ATOM      7  C11 ZIN A   1      17.557   1.089  10.268  0.00  0.00     0.016 C 
ATOM      8  C12 ZIN A   1      19.979   0.476  10.165  0.00  0.00     0.023 C 
ATOM      9  C14 ZIN A   1      19.924   0.210  11.671  0.00  0.00     0.010 C 
ATOM     10  C15 ZIN A   1      19.907   1.644  12.273  0.00  0.00     0.006 C 
ATOM     11  C16 ZIN A   1      19.342   2.570  11.170  0.00  0.00    -0.002 C 
ENDROOT
BRANCH   1  12
ATOM     12  C4  ZIN A   1      18.692  -2.860   8.797  0.00  0.00     0.008 C 
ATOM     13  C3  ZIN A   1      18.422  -4.102   9.250  0.00  0.00    -0.048 C 
ATOM     14  C2  ZIN A   1      18.607  -4.465  10.671  0.00  0.00    -0.033 C 
ATOM     15  C28 ZIN A   1      17.913  -5.191   8.328  0.00  0.00     0.071 C 
ATOM     16  C1  ZIN A   1      19.684  -4.081  11.356  0.00  0.00     0.022 C 
ATOM     17  C33 ZIN A   1      17.516  -5.302  11.309  0.00  0.00     0.153 C 
ATOM     18  C32 ZIN A   1      17.162  -6.447  10.361  0.00  0.00     0.068 C 
ATOM     19  C29 ZIN A   1      16.728  -5.885   9.006  0.00  0.00     0.125 C 
BRANCH  17  20
ATOM     20  O35 ZIN A   1      16.363  -4.489  11.533  0.00  0.00    -0.391 OA
ATOM     21  H74 ZIN A   1      16.028  -4.520  12.439  0.00  0.00     0.210 HD
ENDBRANCH  17  20
BRANCH  19  22
ATOM     22  O31 ZIN A   1      16.265  -6.953   8.177  0.00  0.00    -0.395 OA
ATOM     23  H71 ZIN A   1      16.734  -7.029   7.335  0.00  0.00     0.210 HD
ENDBRANCH  19  22
ENDBRANCH   1  12
BRANCH  11  24
ATOM     24  C18 ZIN A   1      18.108   3.314  11.681  0.00  0.00    -0.014 C 
ATOM     25  C20 ZIN A   1      18.046   4.701  11.038  0.00  0.00     0.010 C 
BRANCH  24  26
ATOM     26  C21 ZIN A   1      18.195   3.462  13.202  0.00  0.00     0.005 C 
BRANCH  26  27
ATOM     27  C22 ZIN A   1      18.721   4.855  13.551  0.00  0.00     0.003 C 
BRANCH  27  28
ATOM     28  C23 ZIN A   1      18.306   5.214  14.978  0.00  0.00     0.037 C 
BRANCH  28  29
ATOM     29  C24 ZIN A   1      19.556   5.416  15.837  0.00  0.00     0.051 C 
ATOM     30  C25 ZIN A   1      19.971   4.080  16.455  0.00  0.00     0.045 C 
ATOM     31  C26 ZIN A   1      20.695   5.950  14.965  0.00  0.00     0.045 C 
BRANCH  29  32
ATOM     32  O27 ZIN A   1      19.273   6.355  16.876  0.00  0.00    -0.391 OA
ATOM     33  H68 ZIN A   1      19.957   7.028  16.996  0.00  0.00     0.210 HD
ENDBRANCH  29  32
ENDBRANCH  28  29
ENDBRANCH  27  28
ENDBRANCH  26  27
ENDBRANCH  24  26
ENDBRANCH  11  24
TORSDOF 9
ENDMDL
MODEL 7
REMARK VINA RESULT:      -7.5      3.469      6.096
REMARK  9 active torsions:
REMARK  status: ('A' for Active; 'I' for Inactive)
REMARK    1  A    between atoms: C4_4  and  C5_5 
REMARK    2  A    between atoms: C16_15  and  C18_16 
REMARK    3  A    between atoms: C18_16  and  C21_18 
REMARK    4  A    between atoms: C21_18  and  C22_19 
REMARK    5  A    between atoms: C22_19  and  C23_20 
REMARK    6  A    between atoms: C23_20  and  C24_21 
REMARK    7  A    between atoms: C24_21  and  O27_24 
REMARK    8  A    between atoms: C29_26  and  O31_27 
REMARK    9  A    between atoms: C33_29  and  O35_30 
ROOT
ATOM      1  C5  ZIN A   1      18.913   1.664  15.309  0.00  0.00     0.004 C 
ATOM      2  C6  ZIN A   1      19.310   0.613  14.593  0.00  0.00    -0.075 C 
ATOM      3  C7  ZIN A   1      19.304  -0.803  15.149  0.00  0.00     0.034 C 
ATOM      4  C8  ZIN A   1      18.600  -1.758  14.187  0.00  0.00     0.005 C 
ATOM      5  C9  ZIN A   1      19.109  -1.596  12.746  0.00  0.00     0.010 C 
ATOM      6  C10 ZIN A   1      18.855  -0.164  12.333  0.00  0.00    -0.033 C 
ATOM      7  C11 ZIN A   1      17.405   0.204  12.648  0.00  0.00     0.016 C 
ATOM      8  C12 ZIN A   1      19.788   0.742  13.177  0.00  0.00     0.023 C 
ATOM      9  C14 ZIN A   1      19.581   2.098  12.499  0.00  0.00     0.010 C 
ATOM     10  C15 ZIN A   1      19.586   1.731  10.988  0.00  0.00     0.006 C 
ATOM     11  C16 ZIN A   1      19.176   0.242  10.902  0.00  0.00    -0.002 C 
ENDROOT
BRANCH   1  12
ATOM     12  C4  ZIN A   1      18.455   1.479  16.688  0.00  0.00     0.008 C 
ATOM     13  C3  ZIN A   1      18.403   2.533  17.529  0.00  0.00    -0.048 C 
ATOM     14  C2  ZIN A   1      18.798   3.889  17.096  0.00  0.00    -0.033 C 
ATOM     15  C28 ZIN A   1      17.935   2.383  18.963  0.00  0.00     0.071 C 
ATOM     16  C1  ZIN A   1      19.888   4.098  16.358  0.00  0.00     0.022 C 
ATOM     17  C33 ZIN A   1      17.906   5.033  17.537  0.00  0.00     0.153 C 
ATOM     18  C32 ZIN A   1      17.596   4.864  19.023  0.00  0.00     0.068 C 
ATOM     19  C29 ZIN A   1      16.937   3.504  19.265  0.00  0.00     0.125 C 
BRANCH  17  20
ATOM     20  O35 ZIN A   1      16.691   5.006  16.785  0.00  0.00    -0.391 OA
ATOM     21  H74 ZIN A   1      16.501   5.829  16.315  0.00  0.00     0.210 HD
ENDBRANCH  17  20
BRANCH  19  22
ATOM     22  O31 ZIN A   1      16.522   3.416  20.630  0.00  0.00    -0.395 OA
ATOM     23  H71 ZIN A   1      17.136   2.928  21.196  0.00  0.00     0.210 HD
ENDBRANCH  19  22
ENDBRANCH   1  12
BRANCH  11  24
ATOM     24  C18 ZIN A   1      17.943   0.080  10.013  0.00  0.00    -0.014 C 
ATOM     25  C20 ZIN A   1      17.814  -1.381   9.579  0.00  0.00     0.010 C 
BRANCH  24  26
ATOM     26  C21 ZIN A   1      18.087   0.968   8.774  0.00  0.00     0.005 C 
BRANCH  26  27
ATOM     27  C22 ZIN A   1      19.100   0.344   7.813  0.00  0.00     0.003 C 
BRANCH  27  28
ATOM     28  C23 ZIN A   1      18.649   0.582   6.372  0.00  0.00     0.037 C 
BRANCH  28  29
ATOM     29  C24 ZIN A   1      18.945  -0.663   5.533  0.00  0.00     0.051 C 
ATOM     30  C25 ZIN A   1      19.324  -1.823   6.457  0.00  0.00     0.045 C 
ATOM     31  C26 ZIN A   1      17.701  -1.041   4.725  0.00  0.00     0.045 C 
BRANCH  29  32
ATOM     32  O27 ZIN A   1      20.027  -0.391   4.641  0.00  0.00    -0.391 OA
ATOM     33  H68 ZIN A   1      19.764   0.068   3.831  0.00  0.00     0.210 HD
ENDBRANCH  29  32
ENDBRANCH  28  29
ENDBRANCH  27  28
ENDBRANCH  26  27
ENDBRANCH  24  26
ENDBRANCH  11  24
TORSDOF 9
ENDMDL
MODEL 8
REMARK VINA RESULT:      -7.3      2.767      5.223
REMARK  9 active torsions:
REMARK  status: ('A' for Active; 'I' for Inactive)
REMARK    1  A    between atoms: C4_4  and  C5_5 
REMARK    2  A    between atoms: C16_15  and  C18_16 
REMARK    3  A    between atoms: C18_16  and  C21_18 
REMARK    4  A    between atoms: C21_18  and  C22_19 
REMARK    5  A    between atoms: C22_19  and  C23_20 
REMARK    6  A    between atoms: C23_20  and  C24_21 
REMARK    7  A    between atoms: C24_21  and  O27_24 
REMARK    8  A    between atoms: C29_26  and  O31_27 
REMARK    9  A    between atoms: C33_29  and  O35_30 
ROOT
ATOM      1  C5  ZIN A   1      18.371  -0.383  13.888  0.00  0.00     0.004 C 
ATOM      2  C6  ZIN A   1      17.709  -0.428  12.733  0.00  0.00    -0.075 C 
ATOM      3  C7  ZIN A   1      17.202   0.824  12.033  0.00  0.00     0.034 C 
ATOM      4  C8  ZIN A   1      17.626   0.833  10.566  0.00  0.00     0.005 C 
ATOM      5  C9  ZIN A   1      17.318  -0.504   9.875  0.00  0.00     0.010 C 
ATOM      6  C10 ZIN A   1      18.063  -1.586  10.623  0.00  0.00    -0.033 C 
ATOM      7  C11 ZIN A   1      19.523  -1.165  10.799  0.00  0.00     0.016 C 
ATOM      8  C12 ZIN A   1      17.416  -1.718  12.026  0.00  0.00     0.023 C 
ATOM      9  C14 ZIN A   1      18.114  -2.971  12.559  0.00  0.00     0.010 C 
ATOM     10  C15 ZIN A   1      18.111  -3.918  11.326  0.00  0.00     0.006 C 
ATOM     11  C16 ZIN A   1      18.011  -3.006  10.080  0.00  0.00    -0.002 C 
ENDROOT
BRANCH   1  12
ATOM     12  C4  ZIN A   1      18.628   0.907  14.534  0.00  0.00     0.008 C 
ATOM     13  C3  ZIN A   1      18.385   1.062  15.852  0.00  0.00    -0.048 C 
ATOM     14  C2  ZIN A   1      17.860  -0.046  16.678  0.00  0.00    -0.033 C 
ATOM     15  C28 ZIN A   1      18.638   2.379  16.558  0.00  0.00     0.071 C 
ATOM     16  C1  ZIN A   1      16.880  -0.839  16.243  0.00  0.00     0.022 C 
ATOM     17  C33 ZIN A   1      18.484  -0.232  18.047  0.00  0.00     0.153 C 
ATOM     18  C32 ZIN A   1      18.578   1.132  18.729  0.00  0.00     0.068 C 
ATOM     19  C29 ZIN A   1      19.391   2.093  17.860  0.00  0.00     0.125 C 
BRANCH  17  20
ATOM     20  O35 ZIN A   1      19.792  -0.789  17.900  0.00  0.00    -0.391 OA
ATOM     21  H74 ZIN A   1      20.467  -0.355  18.439  0.00  0.00     0.210 HD
ENDBRANCH  17  20
BRANCH  19  22
ATOM     22  O31 ZIN A   1      19.594   3.317  18.570  0.00  0.00    -0.395 OA
ATOM     23  H71 ZIN A   1      19.137   4.075  18.183  0.00  0.00     0.210 HD
ENDBRANCH  19  22
ENDBRANCH   1  12
BRANCH  11  24
ATOM     24  C18 ZIN A   1      19.190  -3.260   9.140  0.00  0.00    -0.014 C 
ATOM     25  C20 ZIN A   1      18.789  -2.898   7.708  0.00  0.00     0.010 C 
BRANCH  24  26
ATOM     26  C21 ZIN A   1      19.581  -4.739   9.200  0.00  0.00     0.005 C 
BRANCH  26  27
ATOM     27  C22 ZIN A   1      18.900  -5.494   8.057  0.00  0.00     0.003 C 
BRANCH  27  28
ATOM     28  C23 ZIN A   1      17.904  -6.501   8.633  0.00  0.00     0.037 C 
BRANCH  28  29
ATOM     29  C24 ZIN A   1      16.522  -6.256   8.026  0.00  0.00     0.051 C 
ATOM     30  C25 ZIN A   1      15.868  -7.597   7.686  0.00  0.00     0.045 C 
ATOM     31  C26 ZIN A   1      15.648  -5.505   9.033  0.00  0.00     0.045 C 
BRANCH  29  32
ATOM     32  O27 ZIN A   1      16.655  -5.475   6.837  0.00  0.00    -0.391 OA
ATOM     33  H68 ZIN A   1      16.584  -4.522   6.982  0.00  0.00     0.210 HD
ENDBRANCH  29  32
ENDBRANCH  28  29
ENDBRANCH  27  28
ENDBRANCH  26  27
ENDBRANCH  24  26
ENDBRANCH  11  24
TORSDOF 9
ENDMDL
MODEL 9
REMARK VINA RESULT:      -7.2      4.269      7.303
REMARK  9 active torsions:
REMARK  status: ('A' for Active; 'I' for Inactive)
REMARK    1  A    between atoms: C4_4  and  C5_5 
REMARK    2  A    between atoms: C16_15  and  C18_16 
REMARK    3  A    between atoms: C18_16  and  C21_18 
REMARK    4  A    between atoms: C21_18  and  C22_19 
REMARK    5  A    between atoms: C22_19  and  C23_20 
REMARK    6  A    between atoms: C23_20  and  C24_21 
REMARK    7  A    between atoms: C24_21  and  O27_24 
REMARK    8  A    between atoms: C29_26  and  O31_27 
REMARK    9  A    between atoms: C33_29  and  O35_30 
ROOT
ATOM      1  C5  ZIN A   1      19.095   2.005  16.507  0.00  0.00     0.004 C 
ATOM      2  C6  ZIN A   1      19.025   0.690  16.302  0.00  0.00    -0.075 C 
ATOM      3  C7  ZIN A   1      18.373  -0.258  17.298  0.00  0.00     0.034 C 
ATOM      4  C8  ZIN A   1      17.368  -1.170  16.598  0.00  0.00     0.005 C 
ATOM      5  C9  ZIN A   1      17.964  -1.814  15.336  0.00  0.00     0.010 C 
ATOM      6  C10 ZIN A   1      18.382  -0.696  14.409  0.00  0.00    -0.033 C 
ATOM      7  C11 ZIN A   1      17.226   0.294  14.256  0.00  0.00     0.016 C 
ATOM      8  C12 ZIN A   1      19.577   0.039  15.068  0.00  0.00     0.023 C 
ATOM      9  C14 ZIN A   1      20.016   0.970  13.935  0.00  0.00     0.010 C 
ATOM     10  C15 ZIN A   1      19.931   0.051  12.683  0.00  0.00     0.006 C 
ATOM     11  C16 ZIN A   1      18.915  -1.062  13.031  0.00  0.00    -0.002 C 
ENDROOT
BRANCH   1  12
ATOM     12  C4  ZIN A   1      18.538   2.585  17.731  0.00  0.00     0.008 C 
ATOM     13  C3  ZIN A   1      18.325   3.915  17.812  0.00  0.00    -0.048 C 
ATOM     14  C2  ZIN A   1      18.640   4.819  16.685  0.00  0.00    -0.033 C 
ATOM     15  C28 ZIN A   1      17.751   4.554  19.060  0.00  0.00     0.071 C 
ATOM     16  C1  ZIN A   1      19.769   4.697  15.986  0.00  0.00     0.022 C 
ATOM     17  C33 ZIN A   1      17.621   5.895  16.369  0.00  0.00     0.153 C 
ATOM     18  C32 ZIN A   1      17.200   6.567  17.675  0.00  0.00     0.068 C 
ATOM     19  C29 ZIN A   1      16.640   5.521  18.640  0.00  0.00     0.125 C 
BRANCH  17  20
ATOM     20  O35 ZIN A   1      16.482   5.301  15.743  0.00  0.00    -0.391 OA
ATOM     21  H74 ZIN A   1      16.096   4.569  16.243  0.00  0.00     0.210 HD
ENDBRANCH  17  20
BRANCH  19  22
ATOM     22  O31 ZIN A   1      16.119   6.176  19.799  0.00  0.00    -0.395 OA
ATOM     23  H71 ZIN A   1      16.778   6.343  20.486  0.00  0.00     0.210 HD
ENDBRANCH  19  22
ENDBRANCH   1  12
BRANCH  11  24
ATOM     24  C18 ZIN A   1      17.778  -1.083  12.008  0.00  0.00    -0.014 C 
ATOM     25  C20 ZIN A   1      17.441  -2.532  11.649  0.00  0.00     0.010 C 
BRANCH  24  26
ATOM     26  C21 ZIN A   1      18.214  -0.334  10.747  0.00  0.00     0.005 C 
BRANCH  26  27
ATOM     27  C22 ZIN A   1      17.374   0.935  10.591  0.00  0.00     0.003 C 
BRANCH  27  28
ATOM     28  C23 ZIN A   1      18.246   2.059  10.030  0.00  0.00     0.037 C 
BRANCH  28  29
ATOM     29  C24 ZIN A   1      18.073   3.315  10.886  0.00  0.00     0.051 C 
ATOM     30  C25 ZIN A   1      19.367   3.592  11.655  0.00  0.00     0.045 C 
ATOM     31  C26 ZIN A   1      17.752   4.508   9.983  0.00  0.00     0.045 C 
BRANCH  29  32
ATOM     32  O27 ZIN A   1      17.002   3.117  11.811  0.00  0.00    -0.391 OA
ATOM     33  H68 ZIN A   1      17.231   3.323  12.728  0.00  0.00     0.210 HD
ENDBRANCH  29  32
ENDBRANCH  28  29
ENDBRANCH  27  28
ENDBRANCH  26  27
ENDBRANCH  24  26
ENDBRANCH  11  24
TORSDOF 9
ENDMDL
