MODEL 1
REMARK VINA RESULT:      -8.0      0.000      0.000
REMARK  3 active torsions:
REMARK  status: ('A' for Active; 'I' for Inactive)
REMARK    1  A    between atoms: C5_5  and  S6_6 
REMARK    2  A    between atoms: S6_6  and  N9_9 
REMARK       I    between atoms: N9_9  and  C10_10 
REMARK       I    between atoms: C10_10  and  N12_12 
REMARK    3  A    between atoms: N12_12  and  N13_13 
ROOT
ATOM      1  N9  ZIN A   1      18.111   2.875  12.807  0.00  0.00    -0.101 NA
ATOM      2  C10 ZIN A   1      17.704   3.509  13.924  0.00  0.00     0.367 C 
ATOM      3  O11 ZIN A   1      17.195   4.610  13.845  0.00  0.00    -0.243 OA
ATOM      4  N12 ZIN A   1      17.862   2.923  15.128  0.00  0.00    -0.269 N 
ATOM      5  H27 ZIN A   1      17.569   3.380  15.931  0.00  0.00     0.185 HD
ENDROOT
BRANCH   1   6
ATOM      6  S6  ZIN A   1      17.918   3.594  11.327  0.00  0.00     0.287 S 
ATOM      7  O7  ZIN A   1      18.993   4.514  11.186  0.00  0.00    -0.198 OA
ATOM      8  O8  ZIN A   1      16.552   3.975  11.243  0.00  0.00    -0.198 OA
BRANCH   6   9
ATOM      9  C5  ZIN A   1      18.165   2.349  10.105  0.00  0.00     0.081 A 
ATOM     10  C4  ZIN A   1      18.984   2.599   9.020  0.00  0.00     0.026 A 
ATOM     11  C3  ZIN A   1      19.179   1.623   8.062  0.00  0.00     0.008 A 
ATOM     12  C2  ZIN A   1      18.555   0.395   8.188  0.00  0.00    -0.062 A 
ATOM     13  C1  ZIN A   1      18.767  -0.670   7.143  0.00  0.00     0.048 C 
ATOM     14  C21 ZIN A   1      17.732   0.148   9.271  0.00  0.00     0.008 A 
ATOM     15  C20 ZIN A   1      17.540   1.123  10.232  0.00  0.00     0.026 A 
ENDBRANCH   6   9
ENDBRANCH   1   6
BRANCH   4  16
ATOM     16  N13 ZIN A   1      18.434   1.686  15.215  0.00  0.00    -0.227 NA
ATOM     17  C19 ZIN A   1      17.409   0.621  15.143  0.00  0.00     0.113 C 
ATOM     18  C18 ZIN A   1      17.950  -0.735  15.504  0.00  0.00     0.016 C 
ATOM     19  C17 ZIN A   1      17.697  -0.978  17.007  0.00  0.00     0.001 C 
ATOM     20  C16 ZIN A   1      18.661  -0.281  17.849  0.00  0.00     0.001 C 
ATOM     21  C15 ZIN A   1      18.603   1.249  17.657  0.00  0.00     0.016 C 
ATOM     22  C14 ZIN A   1      19.332   1.599  16.389  0.00  0.00     0.113 C 
ENDBRANCH   4  16
TORSDOF 3
ENDMDL
MODEL 2
REMARK VINA RESULT:      -7.9      1.010      2.097
REMARK  3 active torsions:
REMARK  status: ('A' for Active; 'I' for Inactive)
REMARK    1  A    between atoms: C5_5  and  S6_6 
REMARK    2  A    between atoms: S6_6  and  N9_9 
REMARK       I    between atoms: N9_9  and  C10_10 
REMARK       I    between atoms: C10_10  and  N12_12 
REMARK    3  A    between atoms: N12_12  and  N13_13 
ROOT
ATOM      1  N9  ZIN A   1      18.236   2.557  12.611  0.00  0.00    -0.101 NA
ATOM      2  C10 ZIN A   1      19.389   1.902  12.852  0.00  0.00     0.367 C 
ATOM      3  O11 ZIN A   1      20.268   1.892  12.013  0.00  0.00    -0.243 OA
ATOM      4  N12 ZIN A   1      19.567   1.257  14.022  0.00  0.00    -0.269 N 
ATOM      5  H27 ZIN A   1      20.396   0.785  14.195  0.00  0.00     0.185 HD
ENDROOT
BRANCH   1   6
ATOM      6  S6  ZIN A   1      18.017   3.349  11.174  0.00  0.00     0.287 S 
ATOM      7  O7  ZIN A   1      19.119   4.235  11.033  0.00  0.00    -0.198 OA
ATOM      8  O8  ZIN A   1      16.664   3.783  11.158  0.00  0.00    -0.198 OA
BRANCH   6   9
ATOM      9  C5  ZIN A   1      18.172   2.153   9.889  0.00  0.00     0.081 A 
ATOM     10  C4  ZIN A   1      17.451   0.976   9.951  0.00  0.00     0.026 A 
ATOM     11  C3  ZIN A   1      17.571   0.038   8.944  0.00  0.00     0.008 A 
ATOM     12  C2  ZIN A   1      18.413   0.277   7.873  0.00  0.00    -0.062 A 
ATOM     13  C1  ZIN A   1      18.545  -0.746   6.775  0.00  0.00     0.048 C 
ATOM     14  C21 ZIN A   1      19.139   1.452   7.815  0.00  0.00     0.008 A 
ATOM     15  C20 ZIN A   1      19.015   2.392   8.821  0.00  0.00     0.026 A 
ENDBRANCH   6   9
ENDBRANCH   1   6
BRANCH   4  16
ATOM     16  N13 ZIN A   1      18.578   1.267  14.965  0.00  0.00    -0.227 NA
ATOM     17  C19 ZIN A   1      19.136   1.502  16.315  0.00  0.00     0.113 C 
ATOM     18  C18 ZIN A   1      18.136   1.255  17.411  0.00  0.00     0.016 C 
ATOM     19  C17 ZIN A   1      18.297  -0.199  17.901  0.00  0.00     0.001 C 
ATOM     20  C16 ZIN A   1      17.667  -1.158  17.001  0.00  0.00     0.001 C 
ATOM     21  C15 ZIN A   1      18.285  -1.121  15.588  0.00  0.00     0.016 C 
ATOM     22  C14 ZIN A   1      17.724   0.064  14.851  0.00  0.00     0.113 C 
ENDBRANCH   4  16
TORSDOF 3
ENDMDL
MODEL 3
REMARK VINA RESULT:      -7.6      2.532      7.410
REMARK  3 active torsions:
REMARK  status: ('A' for Active; 'I' for Inactive)
REMARK    1  A    between atoms: C5_5  and  S6_6 
REMARK    2  A    between atoms: S6_6  and  N9_9 
REMARK       I    between atoms: N9_9  and  C10_10 
REMARK       I    between atoms: C10_10  and  N12_12 
REMARK    3  A    between atoms: N12_12  and  N13_13 
ROOT
ATOM      1  N9  ZIN A   1      18.496   1.329  10.233  0.00  0.00    -0.101 NA
ATOM      2  C10 ZIN A   1      17.495   0.468   9.965  0.00  0.00     0.367 C 
ATOM      3  O11 ZIN A   1      16.569   0.353  10.744  0.00  0.00    -0.243 OA
ATOM      4  N12 ZIN A   1      17.520  -0.265   8.834  0.00  0.00    -0.269 N 
ATOM      5  H27 ZIN A   1      16.799  -0.885   8.642  0.00  0.00     0.185 HD
ENDROOT
BRANCH   1   6
ATOM      6  S6  ZIN A   1      18.466   2.230  11.622  0.00  0.00     0.287 S 
ATOM      7  O7  ZIN A   1      17.182   2.837  11.678  0.00  0.00    -0.198 OA
ATOM      8  O8  ZIN A   1      19.678   2.972  11.644  0.00  0.00    -0.198 OA
BRANCH   6   9
ATOM      9  C5  ZIN A   1      18.546   1.105  12.976  0.00  0.00     0.081 A 
ATOM     10  C4  ZIN A   1      17.615   1.184  13.994  0.00  0.00     0.026 A 
ATOM     11  C3  ZIN A   1      17.676   0.301  15.056  0.00  0.00     0.008 A 
ATOM     12  C2  ZIN A   1      18.669  -0.660  15.099  0.00  0.00    -0.062 A 
ATOM     13  C1  ZIN A   1      18.737  -1.622  16.258  0.00  0.00     0.048 C 
ATOM     14  C21 ZIN A   1      19.604  -0.734  14.083  0.00  0.00     0.008 A 
ATOM     15  C20 ZIN A   1      19.540   0.146  13.020  0.00  0.00     0.026 A 
ENDBRANCH   6   9
ENDBRANCH   1   6
BRANCH   4  16
ATOM     16  N13 ZIN A   1      18.561  -0.136   7.959  0.00  0.00    -0.227 NA
ATOM     17  C19 ZIN A   1      18.131   0.555   6.722  0.00  0.00     0.113 C 
ATOM     18  C18 ZIN A   1      19.158   0.482   5.626  0.00  0.00     0.016 C 
ATOM     19  C17 ZIN A   1      18.833  -0.732   4.731  0.00  0.00     0.001 C 
ATOM     20  C16 ZIN A   1      19.264  -1.990   5.328  0.00  0.00     0.001 C 
ATOM     21  C15 ZIN A   1      18.565  -2.265   6.676  0.00  0.00     0.016 C 
ATOM     22  C14 ZIN A   1      19.233  -1.436   7.738  0.00  0.00     0.113 C 
ENDBRANCH   4  16
TORSDOF 3
ENDMDL
MODEL 4
REMARK VINA RESULT:      -7.6      2.710      4.199
REMARK  3 active torsions:
REMARK  status: ('A' for Active; 'I' for Inactive)
REMARK    1  A    between atoms: C5_5  and  S6_6 
REMARK    2  A    between atoms: S6_6  and  N9_9 
REMARK       I    between atoms: N9_9  and  C10_10 
REMARK       I    between atoms: C10_10  and  N12_12 
REMARK    3  A    between atoms: N12_12  and  N13_13 
ROOT
ATOM      1  N9  ZIN A   1      17.795   1.595  12.659  0.00  0.00    -0.101 NA
ATOM      2  C10 ZIN A   1      17.634   1.619  13.996  0.00  0.00     0.367 C 
ATOM      3  O11 ZIN A   1      17.270   0.619  14.582  0.00  0.00    -0.243 OA
ATOM      4  N12 ZIN A   1      17.875   2.753  14.684  0.00  0.00    -0.269 N 
ATOM      5  H27 ZIN A   1      17.759   2.771  15.647  0.00  0.00     0.185 HD
ENDROOT
BRANCH   1   6
ATOM      6  S6  ZIN A   1      17.498   0.203  11.813  0.00  0.00     0.287 S 
ATOM      7  O7  ZIN A   1      16.087   0.027  11.812  0.00  0.00    -0.198 OA
ATOM      8  O8  ZIN A   1      18.402  -0.771  12.315  0.00  0.00    -0.198 OA
BRANCH   6   9
ATOM      9  C5  ZIN A   1      17.964   0.499  10.139  0.00  0.00     0.081 A 
ATOM     10  C4  ZIN A   1      18.928   1.445   9.848  0.00  0.00     0.026 A 
ATOM     11  C3  ZIN A   1      19.294   1.678   8.536  0.00  0.00     0.008 A 
ATOM     12  C2  ZIN A   1      18.697   0.963   7.514  0.00  0.00    -0.062 A 
ATOM     13  C1  ZIN A   1      19.096   1.216   6.083  0.00  0.00     0.048 C 
ATOM     14  C21 ZIN A   1      17.728   0.020   7.806  0.00  0.00     0.008 A 
ATOM     15  C20 ZIN A   1      17.365  -0.215   9.119  0.00  0.00     0.026 A 
ENDBRANCH   6   9
ENDBRANCH   1   6
BRANCH   4  16
ATOM     16  N13 ZIN A   1      18.284   3.878  14.026  0.00  0.00    -0.227 NA
ATOM     17  C19 ZIN A   1      19.305   4.609  14.808  0.00  0.00     0.113 C 
ATOM     18  C18 ZIN A   1      19.587   5.982  14.261  0.00  0.00     0.016 C 
ATOM     19  C17 ZIN A   1      18.693   6.997  15.003  0.00  0.00     0.001 C 
ATOM     20  C16 ZIN A   1      17.322   6.993  14.505  0.00  0.00     0.001 C 
ATOM     21  C15 ZIN A   1      16.640   5.621  14.689  0.00  0.00     0.016 C 
ATOM     22  C14 ZIN A   1      17.125   4.697  13.605  0.00  0.00     0.113 C 
ENDBRANCH   4  16
TORSDOF 3
ENDMDL
MODEL 5
REMARK VINA RESULT:      -7.6      3.377      3.934
REMARK  3 active torsions:
REMARK  status: ('A' for Active; 'I' for Inactive)
REMARK    1  A    between atoms: C5_5  and  S6_6 
REMARK    2  A    between atoms: S6_6  and  N9_9 
REMARK       I    between atoms: N9_9  and  C10_10 
REMARK       I    between atoms: C10_10  and  N12_12 
REMARK    3  A    between atoms: N12_12  and  N13_13 
ROOT
ATOM      1  N9  ZIN A   1      18.620  -1.804  12.490  0.00  0.00    -0.101 NA
ATOM      2  C10 ZIN A   1      17.616  -0.952  12.779  0.00  0.00     0.367 C 
ATOM      3  O11 ZIN A   1      16.698  -0.808  11.997  0.00  0.00    -0.243 OA
ATOM      4  N12 ZIN A   1      17.632  -0.259  13.936  0.00  0.00    -0.269 N 
ATOM      5  H27 ZIN A   1      16.910   0.354  14.143  0.00  0.00     0.185 HD
ENDROOT
BRANCH   1   6
ATOM      6  S6  ZIN A   1      18.602  -2.655  11.069  0.00  0.00     0.287 S 
ATOM      7  O7  ZIN A   1      17.323  -3.271  10.988  0.00  0.00    -0.198 OA
ATOM      8  O8  ZIN A   1      19.820  -3.385  11.024  0.00  0.00    -0.198 OA
BRANCH   6   9
ATOM      9  C5  ZIN A   1      18.674  -1.482   9.757  0.00  0.00     0.081 A 
ATOM     10  C4  ZIN A   1      19.627  -0.481   9.778  0.00  0.00     0.026 A 
ATOM     11  C3  ZIN A   1      19.685   0.440   8.748  0.00  0.00     0.008 A 
ATOM     12  C2  ZIN A   1      18.790   0.358   7.697  0.00  0.00    -0.062 A 
ATOM     13  C1  ZIN A   1      18.853   1.362   6.574  0.00  0.00     0.048 C 
ATOM     14  C21 ZIN A   1      17.834  -0.640   7.680  0.00  0.00     0.008 A 
ATOM     15  C20 ZIN A   1      17.778  -1.562   8.708  0.00  0.00     0.026 A 
ENDBRANCH   6   9
ENDBRANCH   1   6
BRANCH   4  16
ATOM     16  N13 ZIN A   1      18.664  -0.421  14.815  0.00  0.00    -0.227 NA
ATOM     17  C19 ZIN A   1      18.250  -1.243  15.974  0.00  0.00     0.113 C 
ATOM     18  C18 ZIN A   1      19.256  -1.225  17.092  0.00  0.00     0.016 C 
ATOM     19  C17 ZIN A   1      18.859  -0.117  18.089  0.00  0.00     0.001 C 
ATOM     20  C16 ZIN A   1      19.238   1.211  17.620  0.00  0.00     0.001 C 
ATOM     21  C15 ZIN A   1      18.546   1.576  16.290  0.00  0.00     0.016 C 
ATOM     22  C14 ZIN A   1      19.270   0.883  15.168  0.00  0.00     0.113 C 
ENDBRANCH   4  16
TORSDOF 3
ENDMDL
MODEL 6
REMARK VINA RESULT:      -7.5      4.373      7.666
REMARK  3 active torsions:
REMARK  status: ('A' for Active; 'I' for Inactive)
REMARK    1  A    between atoms: C5_5  and  S6_6 
REMARK    2  A    between atoms: S6_6  and  N9_9 
REMARK       I    between atoms: N9_9  and  C10_10 
REMARK       I    between atoms: C10_10  and  N12_12 
REMARK    3  A    between atoms: N12_12  and  N13_13 
ROOT
ATOM      1  N9  ZIN A   1      17.759  -1.427  10.529  0.00  0.00    -0.101 NA
ATOM      2  C10 ZIN A   1      17.574  -1.449   9.194  0.00  0.00     0.367 C 
ATOM      3  O11 ZIN A   1      17.227  -0.439   8.613  0.00  0.00    -0.243 OA
ATOM      4  N12 ZIN A   1      17.774  -2.589   8.503  0.00  0.00    -0.269 N 
ATOM      5  H27 ZIN A   1      17.640  -2.604   7.543  0.00  0.00     0.185 HD
ENDROOT
BRANCH   1   6
ATOM      6  S6  ZIN A   1      17.513  -0.027  11.378  0.00  0.00     0.287 S 
ATOM      7  O7  ZIN A   1      16.108   0.188  11.399  0.00  0.00    -0.198 OA
ATOM      8  O8  ZIN A   1      18.437   0.921  10.862  0.00  0.00    -0.198 OA
BRANCH   6   9
ATOM      9  C5  ZIN A   1      17.995  -0.335  13.045  0.00  0.00     0.081 A 
ATOM     10  C4  ZIN A   1      17.385   0.350  14.078  0.00  0.00     0.026 A 
ATOM     11  C3  ZIN A   1      17.761   0.108  15.385  0.00  0.00     0.008 A 
ATOM     12  C2  ZIN A   1      18.749  -0.820  15.660  0.00  0.00    -0.062 A 
ATOM     13  C1  ZIN A   1      19.160  -1.084  17.085  0.00  0.00     0.048 C 
ATOM     14  C21 ZIN A   1      19.363  -1.501  14.625  0.00  0.00     0.008 A 
ATOM     15  C20 ZIN A   1      18.984  -1.262  13.318  0.00  0.00     0.026 A 
ENDBRANCH   6   9
ENDBRANCH   1   6
BRANCH   4  16
ATOM     16  N13 ZIN A   1      18.164  -3.723   9.157  0.00  0.00    -0.227 NA
ATOM     17  C19 ZIN A   1      19.049  -4.548   8.304  0.00  0.00     0.113 C 
ATOM     18  C18 ZIN A   1      19.284  -5.923   8.866  0.00  0.00     0.016 C 
ATOM     19  C17 ZIN A   1      18.252  -6.888   8.247  0.00  0.00     0.001 C 
ATOM     20  C16 ZIN A   1      16.940  -6.770   8.874  0.00  0.00     0.001 C 
ATOM     21  C15 ZIN A   1      16.343  -5.356   8.711  0.00  0.00     0.016 C 
ATOM     22  C14 ZIN A   1      16.996  -4.444   9.712  0.00  0.00     0.113 C 
ENDBRANCH   4  16
TORSDOF 3
ENDMDL
MODEL 7
REMARK VINA RESULT:      -7.5      4.874      8.642
REMARK  3 active torsions:
REMARK  status: ('A' for Active; 'I' for Inactive)
REMARK    1  A    between atoms: C5_5  and  S6_6 
REMARK    2  A    between atoms: S6_6  and  N9_9 
REMARK       I    between atoms: N9_9  and  C10_10 
REMARK       I    between atoms: C10_10  and  N12_12 
REMARK    3  A    between atoms: N12_12  and  N13_13 
ROOT
ATOM      1  N9  ZIN A   1      18.298  -2.890   9.899  0.00  0.00    -0.101 NA
ATOM      2  C10 ZIN A   1      17.731  -3.544   8.866  0.00  0.00     0.367 C 
ATOM      3  O11 ZIN A   1      17.066  -4.541   9.070  0.00  0.00    -0.243 OA
ATOM      4  N12 ZIN A   1      17.900  -3.092   7.607  0.00  0.00    -0.269 N 
ATOM      5  H27 ZIN A   1      17.491  -3.563   6.864  0.00  0.00     0.185 HD
ENDROOT
BRANCH   1   6
ATOM      6  S6  ZIN A   1      18.091  -3.444  11.446  0.00  0.00     0.287 S 
ATOM      7  O7  ZIN A   1      19.171  -4.332  11.701  0.00  0.00    -0.198 OA
ATOM      8  O8  ZIN A   1      16.727  -3.827  11.554  0.00  0.00    -0.198 OA
BRANCH   6   9
ATOM      9  C5  ZIN A   1      18.310  -2.070  12.527  0.00  0.00     0.081 A 
ATOM     10  C4  ZIN A   1      19.338  -2.075  13.450  0.00  0.00     0.026 A 
ATOM     11  C3  ZIN A   1      19.511  -0.997  14.297  0.00  0.00     0.008 A 
ATOM     12  C2  ZIN A   1      18.656   0.087  14.221  0.00  0.00    -0.062 A 
ATOM     13  C1  ZIN A   1      18.844   1.262  15.146  0.00  0.00     0.048 C 
ATOM     14  C21 ZIN A   1      17.624   0.088  13.302  0.00  0.00     0.008 A 
ATOM     15  C20 ZIN A   1      17.453  -0.988  12.451  0.00  0.00     0.026 A 
ENDBRANCH   6   9
ENDBRANCH   1   6
BRANCH   4  16
ATOM     16  N13 ZIN A   1      18.646  -1.971   7.378  0.00  0.00    -0.227 NA
ATOM     17  C19 ZIN A   1      17.795  -0.760   7.366  0.00  0.00     0.113 C 
ATOM     18  C18 ZIN A   1      18.517   0.455   6.854  0.00  0.00     0.016 C 
ATOM     19  C17 ZIN A   1      18.243   0.586   5.341  0.00  0.00     0.001 C 
ATOM     20  C16 ZIN A   1      19.058  -0.330   4.551  0.00  0.00     0.001 C 
ATOM     21  C15 ZIN A   1      18.780  -1.806   4.902  0.00  0.00     0.016 C 
ATOM     22  C14 ZIN A   1      19.500  -2.138   6.180  0.00  0.00     0.113 C 
ENDBRANCH   4  16
TORSDOF 3
ENDMDL
MODEL 8
REMARK VINA RESULT:      -7.0      2.540      3.746
REMARK  3 active torsions:
REMARK  status: ('A' for Active; 'I' for Inactive)
REMARK    1  A    between atoms: C5_5  and  S6_6 
REMARK    2  A    between atoms: S6_6  and  N9_9 
REMARK       I    between atoms: N9_9  and  C10_10 
REMARK       I    between atoms: C10_10  and  N12_12 
REMARK    3  A    between atoms: N12_12  and  N13_13 
ROOT
ATOM      1  N9  ZIN A   1      18.159   1.588  12.281  0.00  0.00    -0.101 NA
ATOM      2  C10 ZIN A   1      17.692   2.804  11.933  0.00  0.00     0.367 C 
ATOM      3  O11 ZIN A   1      16.892   2.910  11.025  0.00  0.00    -0.243 OA
ATOM      4  N12 ZIN A   1      18.112   3.902  12.593  0.00  0.00    -0.269 N 
ATOM      5  H27 ZIN A   1      17.776   4.777  12.343  0.00  0.00     0.185 HD
ENDROOT
BRANCH   1   6
ATOM      6  S6  ZIN A   1      17.644   0.239  11.470  0.00  0.00     0.287 S 
ATOM      7  O7  ZIN A   1      16.223   0.259  11.523  0.00  0.00    -0.198 OA
ATOM      8  O8  ZIN A   1      18.425  -0.843  11.958  0.00  0.00    -0.198 OA
BRANCH   6   9
ATOM      9  C5  ZIN A   1      18.083   0.448   9.777  0.00  0.00     0.081 A 
ATOM     10  C4  ZIN A   1      17.293  -0.103   8.786  0.00  0.00     0.026 A 
ATOM     11  C3  ZIN A   1      17.636   0.060   7.457  0.00  0.00     0.008 A 
ATOM     12  C2  ZIN A   1      18.770   0.776   7.119  0.00  0.00    -0.062 A 
ATOM     13  C1  ZIN A   1      19.145   0.954   5.670  0.00  0.00     0.048 C 
ATOM     14  C21 ZIN A   1      19.563   1.321   8.111  0.00  0.00     0.008 A 
ATOM     15  C20 ZIN A   1      19.218   1.161   9.440  0.00  0.00     0.026 A 
ENDBRANCH   6   9
ENDBRANCH   1   6
BRANCH   4  16
ATOM     16  N13 ZIN A   1      19.011   3.783  13.614  0.00  0.00    -0.227 NA
ATOM     17  C19 ZIN A   1      18.332   3.428  14.881  0.00  0.00     0.113 C 
ATOM     18  C18 ZIN A   1      19.232   3.551  16.079  0.00  0.00     0.016 C 
ATOM     19  C17 ZIN A   1      19.041   4.953  16.693  0.00  0.00     0.001 C 
ATOM     20  C16 ZIN A   1      19.758   5.983  15.950  0.00  0.00     0.001 C 
ATOM     21  C15 ZIN A   1      19.269   6.094  14.491  0.00  0.00     0.016 C 
ATOM     22  C14 ZIN A   1      19.884   4.976  13.695  0.00  0.00     0.113 C 
ENDBRANCH   4  16
TORSDOF 3
ENDMDL
MODEL 9
REMARK VINA RESULT:      -7.0      1.682      6.746
REMARK  3 active torsions:
REMARK  status: ('A' for Active; 'I' for Inactive)
REMARK    1  A    between atoms: C5_5  and  S6_6 
REMARK    2  A    between atoms: S6_6  and  N9_9 
REMARK       I    between atoms: N9_9  and  C10_10 
REMARK       I    between atoms: C10_10  and  N12_12 
REMARK    3  A    between atoms: N12_12  and  N13_13 
ROOT
ATOM      1  N9  ZIN A   1      18.399   2.798  12.053  0.00  0.00    -0.101 NA
ATOM      2  C10 ZIN A   1      18.122   3.237  10.810  0.00  0.00     0.367 C 
ATOM      3  O11 ZIN A   1      17.906   4.417  10.616  0.00  0.00    -0.243 OA
ATOM      4  N12 ZIN A   1      18.084   2.367   9.780  0.00  0.00    -0.269 N 
ATOM      5  H27 ZIN A   1      17.884   2.683   8.885  0.00  0.00     0.185 HD
ENDROOT
BRANCH   1   6
ATOM      6  S6  ZIN A   1      18.445   3.867  13.318  0.00  0.00     0.287 S 
ATOM      7  O7  ZIN A   1      17.145   4.435  13.410  0.00  0.00    -0.198 OA
ATOM      8  O8  ZIN A   1      19.622   4.642  13.144  0.00  0.00    -0.198 OA
BRANCH   6   9
ATOM      9  C5  ZIN A   1      18.681   2.925  14.789  0.00  0.00     0.081 A 
ATOM     10  C4  ZIN A   1      18.455   1.562  14.779  0.00  0.00     0.026 A 
ATOM     11  C3  ZIN A   1      18.642   0.822  15.932  0.00  0.00     0.008 A 
ATOM     12  C2  ZIN A   1      19.054   1.447  17.094  0.00  0.00    -0.062 A 
ATOM     13  C1  ZIN A   1      19.257   0.641  18.352  0.00  0.00     0.048 C 
ATOM     14  C21 ZIN A   1      19.275   2.811  17.104  0.00  0.00     0.008 A 
ATOM     15  C20 ZIN A   1      19.092   3.550  15.951  0.00  0.00     0.026 A 
ENDBRANCH   6   9
ENDBRANCH   1   6
BRANCH   4  16
ATOM     16  N13 ZIN A   1      18.327   1.040   9.998  0.00  0.00    -0.227 NA
ATOM     17  C19 ZIN A   1      19.638   0.642   9.438  0.00  0.00     0.113 C 
ATOM     18  C18 ZIN A   1      19.832  -0.849   9.410  0.00  0.00     0.016 C 
ATOM     19  C17 ZIN A   1      19.394  -1.373   8.027  0.00  0.00     0.001 C 
ATOM     20  C16 ZIN A   1      17.944  -1.479   7.910  0.00  0.00     0.001 C 
ATOM     21  C15 ZIN A   1      17.245  -0.114   8.081  0.00  0.00     0.016 C 
ATOM     22  C14 ZIN A   1      17.186   0.211   9.548  0.00  0.00     0.113 C 
ENDBRANCH   4  16
TORSDOF 3
ENDMDL
