MODEL 1
REMARK VINA RESULT:      -4.2      0.000      0.000
REMARK  2 active torsions:
REMARK  status: ('A' for Active; 'I' for Inactive)
REMARK    1  A    between atoms: O1_1  and  C2_2 
REMARK    2  A    between atoms: C5_5  and  O6_6 
ROOT
ATOM      1  C2  <0> d   1      19.317   1.207  17.924  0.00  0.00     0.065 A 
ATOM      2  C3  <0> d   1      19.272  -0.164  18.130  0.00  0.00     0.039 A 
ATOM      3  C4  <0> d   1      18.991  -1.011  17.076  0.00  0.00     0.039 A 
ATOM      4  C5  <0> d   1      18.755  -0.492  15.812  0.00  0.00     0.065 A 
ATOM      5  C7  <0> d   1      18.799   0.879  15.606  0.00  0.00     0.039 A 
ATOM      6  C8  <0> d   1      19.075   1.727  16.661  0.00  0.00     0.039 A 
ENDROOT
BRANCH   1   7
ATOM      7  O1  <0> d   1      19.593   2.042  18.962  0.00  0.00    -0.361 OA
ATOM      8  H9  <0> d   1      20.288   1.720  19.552  0.00  0.00     0.217 HD
ENDBRANCH   1   7
BRANCH   4   9
ATOM      9  O6  <0> d   1      18.480  -1.327  14.774  0.00  0.00    -0.361 OA
ATOM     10  H12 <0> d   1      17.596  -1.210  14.400  0.00  0.00     0.217 HD
ENDBRANCH   4   9
TORSDOF 2
ENDMDL
MODEL 2
REMARK VINA RESULT:      -4.2      0.023      1.699
REMARK  2 active torsions:
REMARK  status: ('A' for Active; 'I' for Inactive)
REMARK    1  A    between atoms: O1_1  and  C2_2 
REMARK    2  A    between atoms: C5_5  and  O6_6 
ROOT
ATOM      1  C2  <0> d   1      19.316   1.224  17.930  0.00  0.00     0.065 A 
ATOM      2  C3  <0> d   1      19.080   1.747  16.667  0.00  0.00     0.039 A 
ATOM      3  C4  <0> d   1      18.794   0.901  15.613  0.00  0.00     0.039 A 
ATOM      4  C5  <0> d   1      18.742  -0.469  15.817  0.00  0.00     0.065 A 
ATOM      5  C7  <0> d   1      18.979  -0.992  17.079  0.00  0.00     0.039 A 
ATOM      6  C8  <0> d   1      19.270  -0.147  18.133  0.00  0.00     0.039 A 
ENDROOT
BRANCH   1   7
ATOM      7  O1  <0> d   1      19.599   2.056  18.968  0.00  0.00    -0.361 OA
ATOM      8  H9  <0> d   1      20.072   1.631  19.696  0.00  0.00     0.217 HD
ENDBRANCH   1   7
BRANCH   4   9
ATOM      9  O6  <0> d   1      18.459  -1.301  14.778  0.00  0.00    -0.361 OA
ATOM     10  H12 <0> d   1      17.528  -1.296  14.514  0.00  0.00     0.217 HD
ENDBRANCH   4   9
TORSDOF 2
ENDMDL
MODEL 3
REMARK VINA RESULT:      -4.2      0.042      3.645
REMARK  2 active torsions:
REMARK  status: ('A' for Active; 'I' for Inactive)
REMARK    1  A    between atoms: O1_1  and  C2_2 
REMARK    2  A    between atoms: C5_5  and  O6_6 
ROOT
ATOM      1  C2  <0> d   1      18.726  -0.455  15.811  0.00  0.00     0.065 A 
ATOM      2  C3  <0> d   1      18.760   0.918  15.616  0.00  0.00     0.039 A 
ATOM      3  C4  <0> d   1      19.059   1.758  16.671  0.00  0.00     0.039 A 
ATOM      4  C5  <0> d   1      19.324   1.229  17.925  0.00  0.00     0.065 A 
ATOM      5  C7  <0> d   1      19.288  -0.144  18.121  0.00  0.00     0.039 A 
ATOM      6  C8  <0> d   1      18.986  -0.983  17.067  0.00  0.00     0.039 A 
ENDROOT
BRANCH   1   7
ATOM      7  O1  <0> d   1      18.431  -1.282  14.772  0.00  0.00    -0.361 OA
ATOM      8  H9  <0> d   1      18.296  -2.204  15.030  0.00  0.00     0.217 HD
ENDBRANCH   1   7
BRANCH   4   9
ATOM      9  O6  <0> d   1      19.619   2.057  18.964  0.00  0.00    -0.361 OA
ATOM     10  H12 <0> d   1      19.622   1.619  19.826  0.00  0.00     0.217 HD
ENDBRANCH   4   9
TORSDOF 2
ENDMDL
MODEL 4
REMARK VINA RESULT:      -4.2      0.075      3.226
REMARK  2 active torsions:
REMARK  status: ('A' for Active; 'I' for Inactive)
REMARK    1  A    between atoms: O1_1  and  C2_2 
REMARK    2  A    between atoms: C5_5  and  O6_6 
ROOT
ATOM      1  C2  <0> d   1      18.760  -0.411  15.822  0.00  0.00     0.065 A 
ATOM      2  C3  <0> d   1      19.006  -0.942  17.080  0.00  0.00     0.039 A 
ATOM      3  C4  <0> d   1      19.289  -0.103  18.140  0.00  0.00     0.039 A 
ATOM      4  C5  <0> d   1      19.328   1.270  17.947  0.00  0.00     0.065 A 
ATOM      5  C7  <0> d   1      19.084   1.800  16.689  0.00  0.00     0.039 A 
ATOM      6  C8  <0> d   1      18.804   0.961  15.629  0.00  0.00     0.039 A 
ENDROOT
BRANCH   1   7
ATOM      7  O1  <0> d   1      18.482  -1.238  14.778  0.00  0.00    -0.361 OA
ATOM      8  H9  <0> d   1      18.207  -2.126  15.043  0.00  0.00     0.217 HD
ENDBRANCH   1   7
BRANCH   4   9
ATOM      9  O6  <0> d   1      19.606   2.095  18.992  0.00  0.00    -0.361 OA
ATOM     10  H12 <0> d   1      18.844   2.602  19.306  0.00  0.00     0.217 HD
ENDBRANCH   4   9
TORSDOF 2
ENDMDL
MODEL 5
REMARK VINA RESULT:      -4.2      9.272     10.660
REMARK  2 active torsions:
REMARK  status: ('A' for Active; 'I' for Inactive)
REMARK    1  A    between atoms: O1_1  and  C2_2 
REMARK    2  A    between atoms: C5_5  and  O6_6 
ROOT
ATOM      1  C2  <0> d   1      18.801   0.430   7.529  0.00  0.00     0.065 A 
ATOM      2  C3  <0> d   1      18.940   1.075   6.308  0.00  0.00     0.039 A 
ATOM      3  C4  <0> d   1      19.204   0.344   5.167  0.00  0.00     0.039 A 
ATOM      4  C5  <0> d   1      19.330  -1.035   5.241  0.00  0.00     0.065 A 
ATOM      5  C7  <0> d   1      19.193  -1.680   6.461  0.00  0.00     0.039 A 
ATOM      6  C8  <0> d   1      18.932  -0.948   7.603  0.00  0.00     0.039 A 
ENDROOT
BRANCH   1   7
ATOM      7  O1  <0> d   1      18.541   1.151   8.653  0.00  0.00    -0.361 OA
ATOM      8  H9  <0> d   1      19.151   1.887   8.797  0.00  0.00     0.217 HD
ENDBRANCH   1   7
BRANCH   4   9
ATOM      9  O6  <0> d   1      19.590  -1.755   4.116  0.00  0.00    -0.361 OA
ATOM     10  H12 <0> d   1      19.538  -1.240   3.299  0.00  0.00     0.217 HD
ENDBRANCH   4   9
TORSDOF 2
ENDMDL
MODEL 6
REMARK VINA RESULT:      -4.2      9.315     11.012
REMARK  2 active torsions:
REMARK  status: ('A' for Active; 'I' for Inactive)
REMARK    1  A    between atoms: O1_1  and  C2_2 
REMARK    2  A    between atoms: C5_5  and  O6_6 
ROOT
ATOM      1  C2  <0> d   1      19.332  -1.078   5.206  0.00  0.00     0.065 A 
ATOM      2  C3  <0> d   1      19.211  -1.703   6.438  0.00  0.00     0.039 A 
ATOM      3  C4  <0> d   1      18.971  -0.952   7.572  0.00  0.00     0.039 A 
ATOM      4  C5  <0> d   1      18.852   0.426   7.480  0.00  0.00     0.065 A 
ATOM      5  C7  <0> d   1      18.975   1.051   6.247  0.00  0.00     0.039 A 
ATOM      6  C8  <0> d   1      19.218   0.301   5.114  0.00  0.00     0.039 A 
ENDROOT
BRANCH   1   7
ATOM      7  O1  <0> d   1      19.568  -1.818   4.089  0.00  0.00    -0.361 OA
ATOM      8  H9  <0> d   1      18.829  -1.837   3.466  0.00  0.00     0.217 HD
ENDBRANCH   1   7
BRANCH   4   9
ATOM      9  O6  <0> d   1      18.615   1.165   8.597  0.00  0.00    -0.361 OA
ATOM     10  H12 <0> d   1      19.201   1.928   8.694  0.00  0.00     0.217 HD
ENDBRANCH   4   9
TORSDOF 2
ENDMDL
MODEL 7
REMARK VINA RESULT:      -4.1      8.025      9.376
REMARK  2 active torsions:
REMARK  status: ('A' for Active; 'I' for Inactive)
REMARK    1  A    between atoms: O1_1  and  C2_2 
REMARK    2  A    between atoms: C5_5  and  O6_6 
ROOT
ATOM      1  C2  <0> d   1      18.951   1.349   8.618  0.00  0.00     0.065 A 
ATOM      2  C3  <0> d   1      19.194   1.519   7.264  0.00  0.00     0.039 A 
ATOM      3  C4  <0> d   1      18.453   0.815   6.335  0.00  0.00     0.039 A 
ATOM      4  C5  <0> d   1      17.464  -0.062   6.757  0.00  0.00     0.065 A 
ATOM      5  C7  <0> d   1      17.222  -0.233   8.112  0.00  0.00     0.039 A 
ATOM      6  C8  <0> d   1      17.967   0.468   9.041  0.00  0.00     0.039 A 
ENDROOT
BRANCH   1   7
ATOM      7  O1  <0> d   1      19.682   2.042   9.533  0.00  0.00    -0.361 OA
ATOM      8  H9  <0> d   1      19.153   2.604  10.115  0.00  0.00     0.217 HD
ENDBRANCH   1   7
BRANCH   4   9
ATOM      9  O6  <0> d   1      16.734  -0.754   5.843  0.00  0.00    -0.361 OA
ATOM     10  H12 <0> d   1      15.777  -0.668   5.957  0.00  0.00     0.217 HD
ENDBRANCH   4   9
TORSDOF 2
ENDMDL
MODEL 8
REMARK VINA RESULT:      -4.1      5.950      7.135
REMARK  2 active torsions:
REMARK  status: ('A' for Active; 'I' for Inactive)
REMARK    1  A    between atoms: O1_1  and  C2_2 
REMARK    2  A    between atoms: C5_5  and  O6_6 
ROOT
ATOM      1  C2  <0> d   1      19.851   2.738  11.508  0.00  0.00     0.065 A 
ATOM      2  C3  <0> d   1      19.468   3.829  12.275  0.00  0.00     0.039 A 
ATOM      3  C4  <0> d   1      18.492   4.690  11.812  0.00  0.00     0.039 A 
ATOM      4  C5  <0> d   1      17.896   4.465  10.580  0.00  0.00     0.065 A 
ATOM      5  C7  <0> d   1      18.281   3.376   9.812  0.00  0.00     0.039 A 
ATOM      6  C8  <0> d   1      19.259   2.517  10.274  0.00  0.00     0.039 A 
ENDROOT
BRANCH   1   7
ATOM      7  O1  <0> d   1      20.812   1.890  11.964  0.00  0.00    -0.361 OA
ATOM      8  H9  <0> d   1      21.617   1.884  11.429  0.00  0.00     0.217 HD
ENDBRANCH   1   7
BRANCH   4   9
ATOM      9  O6  <0> d   1      16.936   5.314  10.125  0.00  0.00    -0.361 OA
ATOM     10  H12 <0> d   1      16.910   6.163  10.588  0.00  0.00     0.217 HD
ENDBRANCH   4   9
TORSDOF 2
ENDMDL
MODEL 9
REMARK VINA RESULT:      -4.0      7.973      9.840
REMARK  2 active torsions:
REMARK  status: ('A' for Active; 'I' for Inactive)
REMARK    1  A    between atoms: O1_1  and  C2_2 
REMARK    2  A    between atoms: C5_5  and  O6_6 
ROOT
ATOM      1  C2  <0> d   1      17.655  -0.100   6.770  0.00  0.00     0.065 A 
ATOM      2  C3  <0> d   1      18.593   0.848   6.389  0.00  0.00     0.039 A 
ATOM      3  C4  <0> d   1      19.252   1.591   7.349  0.00  0.00     0.039 A 
ATOM      4  C5  <0> d   1      18.977   1.389   8.693  0.00  0.00     0.065 A 
ATOM      5  C7  <0> d   1      18.038   0.441   9.073  0.00  0.00     0.039 A 
ATOM      6  C8  <0> d   1      17.376  -0.299   8.113  0.00  0.00     0.039 A 
ENDROOT
BRANCH   1   7
ATOM      7  O1  <0> d   1      17.005  -0.831   5.824  0.00  0.00    -0.361 OA
ATOM      8  H9  <0> d   1      16.217  -1.285   6.151  0.00  0.00     0.217 HD
ENDBRANCH   1   7
BRANCH   4   9
ATOM      9  O6  <0> d   1      19.627   2.120   9.637  0.00  0.00    -0.361 OA
ATOM     10  H12 <0> d   1      20.545   1.851   9.779  0.00  0.00     0.217 HD
ENDBRANCH   4   9
TORSDOF 2
ENDMDL
