MODEL 1
REMARK VINA RESULT:      -9.2      0.000      0.000
REMARK  6 active torsions:
REMARK  status: ('A' for Active; 'I' for Inactive)
REMARK    1  A    between atoms: C5_5  and  C6_6 
REMARK    2  A    between atoms: C9_9  and  C10_10 
REMARK    3  A    between atoms: C13_13  and  N14_14 
REMARK    4  A    between atoms: C16_16  and  C18_17 
REMARK    5  A    between atoms: C18_17  and  O19_18 
REMARK    6  A    between atoms: O19_18  and  P20_19 
ROOT
ATOM      1  C10 ZIN A   1      18.877  -2.072  12.605  0.00  0.00     0.014 A 
ATOM      2  C11 ZIN A   1      19.931  -2.955  12.377  0.00  0.00     0.017 A 
ATOM      3  C12 ZIN A   1      19.907  -3.787  11.278  0.00  0.00     0.031 A 
ATOM      4  C13 ZIN A   1      18.832  -3.748  10.397  0.00  0.00     0.042 A 
ATOM      5  C27 ZIN A   1      17.780  -2.869  10.622  0.00  0.00     0.073 A 
ATOM      6  C28 ZIN A   1      17.796  -2.037  11.723  0.00  0.00     0.129 A 
ATOM      7  F29 ZIN A   1      16.772  -1.183  11.940  0.00  0.00    -0.205 F 
ENDROOT
BRANCH   1   8
ATOM      8  C9  ZIN A   1      18.901  -1.176  13.786  0.00  0.00    -0.005 A 
ATOM      9  C8  ZIN A   1      18.567  -1.664  15.054  0.00  0.00     0.016 A 
ATOM     10  C7  ZIN A   1      18.604  -0.792  16.125  0.00  0.00     0.037 A 
ATOM     11  C6  ZIN A   1      18.969   0.535  15.909  0.00  0.00     0.107 A 
ATOM     12  N31 ZIN A   1      19.275   0.967  14.692  0.00  0.00    -0.256 NA
ATOM     13  C30 ZIN A   1      19.258   0.165  13.648  0.00  0.00     0.129 A 
BRANCH  11  14
ATOM     14  C5  ZIN A   1      19.011   1.479  17.053  0.00  0.00     0.222 A 
ATOM     15  N4  ZIN A   1      19.765   1.368  18.155  0.00  0.00    -0.106 NA
ATOM     16  N3  ZIN A   1      19.507   2.389  18.900  0.00  0.00    -0.046 NA
ATOM     17  N2  ZIN A   1      18.631   3.126  18.311  0.00  0.00    -0.172 N 
ATOM     18  C1  ZIN A   1      18.082   4.376  18.840  0.00  0.00     0.206 C 
ATOM     19  N32 ZIN A   1      18.311   2.589  17.184  0.00  0.00    -0.130 NA
ENDBRANCH  11  14
ENDBRANCH   1   8
BRANCH   4  20
ATOM     20  N14 ZIN A   1      18.812  -4.593   9.284  0.00  0.00    -0.291 N 
ATOM     21  C25 ZIN A   1      18.212  -5.790   9.224  0.00  0.00     0.368 A 
ATOM     22  O24 ZIN A   1      18.335  -6.399   8.040  0.00  0.00    -0.294 OA
ATOM     23  O26 ZIN A   1      17.604  -6.275  10.159  0.00  0.00    -0.238 OA
ATOM     24  C16 ZIN A   1      19.118  -5.560   7.142  0.00  0.00     0.176 A 
ATOM     25  C15 ZIN A   1      19.450  -4.316   7.988  0.00  0.00     0.169 A 
BRANCH  24  26
ATOM     26  C18 ZIN A   1      18.294  -5.169   5.914  0.00  0.00     0.216 C 
BRANCH  26  27
ATOM     27  O19 ZIN A   1      18.204  -3.745   5.833  0.00  0.00    -0.280 OA
BRANCH  27  28
ATOM     28  P20 ZIN A   1      18.316  -2.937   4.446  0.00  0.00     0.422 P 
ATOM     29  O21 ZIN A   1      18.361  -3.951   3.252  0.00  0.00    -0.617 OA
ATOM     30  O22 ZIN A   1      17.073  -1.998   4.287  0.00  0.00    -0.617 OA
ATOM     31  O23 ZIN A   1      19.625  -2.075   4.447  0.00  0.00    -0.617 OA
ENDBRANCH  27  28
ENDBRANCH  26  27
ENDBRANCH  24  26
ENDBRANCH   4  20
TORSDOF 6
ENDMDL
MODEL 2
REMARK VINA RESULT:      -9.0      7.205     11.513
REMARK  6 active torsions:
REMARK  status: ('A' for Active; 'I' for Inactive)
REMARK    1  A    between atoms: C5_5  and  C6_6 
REMARK    2  A    between atoms: C9_9  and  C10_10 
REMARK    3  A    between atoms: C13_13  and  N14_14 
REMARK    4  A    between atoms: C16_16  and  C18_17 
REMARK    5  A    between atoms: C18_17  and  O19_18 
REMARK    6  A    between atoms: O19_18  and  P20_19 
ROOT
ATOM      1  C10 ZIN A   1      18.759   2.420  10.040  0.00  0.00     0.014 A 
ATOM      2  C11 ZIN A   1      18.069   3.627   9.950  0.00  0.00     0.017 A 
ATOM      3  C12 ZIN A   1      18.048   4.492  11.024  0.00  0.00     0.031 A 
ATOM      4  C13 ZIN A   1      18.716   4.162  12.198  0.00  0.00     0.042 A 
ATOM      5  C27 ZIN A   1      19.405   2.959  12.292  0.00  0.00     0.073 A 
ATOM      6  C28 ZIN A   1      19.425   2.087  11.222  0.00  0.00     0.129 A 
ATOM      7  F29 ZIN A   1      20.096   0.917  11.314  0.00  0.00    -0.205 F 
ENDROOT
BRANCH   1   8
ATOM      8  C9  ZIN A   1      18.782   1.489   8.887  0.00  0.00    -0.005 A 
ATOM      9  C8  ZIN A   1      19.179   1.936   7.622  0.00  0.00     0.016 A 
ATOM     10  C7  ZIN A   1      19.184   1.031   6.578  0.00  0.00     0.037 A 
ATOM     11  C6  ZIN A   1      18.796  -0.286   6.816  0.00  0.00     0.107 A 
ATOM     12  N31 ZIN A   1      18.420  -0.675   8.028  0.00  0.00    -0.256 NA
ATOM     13  C30 ZIN A   1      18.407   0.155   9.049  0.00  0.00     0.129 A 
BRANCH  11  14
ATOM     14  C5  ZIN A   1      18.797  -1.263   5.700  0.00  0.00     0.222 A 
ATOM     15  N4  ZIN A   1      19.766  -1.439   4.791  0.00  0.00    -0.106 NA
ATOM     16  N3  ZIN A   1      19.382  -2.381   3.999  0.00  0.00    -0.046 NA
ATOM     17  N2  ZIN A   1      18.223  -2.797   4.374  0.00  0.00    -0.172 N 
ATOM     18  C1  ZIN A   1      17.453  -3.860   3.725  0.00  0.00     0.206 C 
ATOM     19  N32 ZIN A   1      17.844  -2.127   5.408  0.00  0.00    -0.130 NA
ENDBRANCH  11  14
ENDBRANCH   1   8
BRANCH   4  20
ATOM     20  N14 ZIN A   1      18.693   5.041  13.284  0.00  0.00    -0.291 N 
ATOM     21  C25 ZIN A   1      17.592   5.482  13.908  0.00  0.00     0.368 A 
ATOM     22  O24 ZIN A   1      17.844   6.315  14.925  0.00  0.00    -0.294 OA
ATOM     23  O26 ZIN A   1      16.469   5.149  13.586  0.00  0.00    -0.238 OA
ATOM     24  C16 ZIN A   1      19.282   6.509  15.048  0.00  0.00     0.176 A 
ATOM     25  C15 ZIN A   1      19.875   5.638  13.925  0.00  0.00     0.169 A 
BRANCH  24  26
ATOM     26  C18 ZIN A   1      19.775   6.031  16.416  0.00  0.00     0.216 C 
BRANCH  26  27
ATOM     27  O19 ZIN A   1      20.024   4.625  16.368  0.00  0.00    -0.280 OA
BRANCH  27  28
ATOM     28  P20 ZIN A   1      19.022   3.534  16.999  0.00  0.00     0.422 P 
ATOM     29  O21 ZIN A   1      19.788   2.677  18.064  0.00  0.00    -0.617 OA
ATOM     30  O22 ZIN A   1      17.819   4.266  17.685  0.00  0.00    -0.617 OA
ATOM     31  O23 ZIN A   1      18.486   2.598  15.863  0.00  0.00    -0.617 OA
ENDBRANCH  27  28
ENDBRANCH  26  27
ENDBRANCH  24  26
ENDBRANCH   4  20
TORSDOF 6
ENDMDL
MODEL 3
REMARK VINA RESULT:      -8.6      8.021     12.102
REMARK  6 active torsions:
REMARK  status: ('A' for Active; 'I' for Inactive)
REMARK    1  A    between atoms: C5_5  and  C6_6 
REMARK    2  A    between atoms: C9_9  and  C10_10 
REMARK    3  A    between atoms: C13_13  and  N14_14 
REMARK    4  A    between atoms: C16_16  and  C18_17 
REMARK    5  A    between atoms: C18_17  and  O19_18 
REMARK    6  A    between atoms: O19_18  and  P20_19 
ROOT
ATOM      1  C10 ZIN A   1      18.111   2.550  10.556  0.00  0.00     0.014 A 
ATOM      2  C11 ZIN A   1      18.023   1.980  11.825  0.00  0.00     0.017 A 
ATOM      3  C12 ZIN A   1      17.816   2.781  12.928  0.00  0.00     0.031 A 
ATOM      4  C13 ZIN A   1      17.696   4.158  12.776  0.00  0.00     0.042 A 
ATOM      5  C27 ZIN A   1      17.783   4.730  11.513  0.00  0.00     0.073 A 
ATOM      6  C28 ZIN A   1      17.995   3.933  10.406  0.00  0.00     0.129 A 
ATOM      7  F29 ZIN A   1      18.080   4.490   9.177  0.00  0.00    -0.205 F 
ENDROOT
BRANCH   1   8
ATOM      8  C9  ZIN A   1      18.334   1.690   9.370  0.00  0.00    -0.005 A 
ATOM      9  C8  ZIN A   1      19.157   2.122   8.325  0.00  0.00     0.016 A 
ATOM     10  C7  ZIN A   1      19.335   1.286   7.239  0.00  0.00     0.037 A 
ATOM     11  C6  ZIN A   1      18.694   0.049   7.221  0.00  0.00     0.107 A 
ATOM     12  N31 ZIN A   1      17.915  -0.328   8.227  0.00  0.00    -0.256 NA
ATOM     13  C30 ZIN A   1      17.725   0.437   9.281  0.00  0.00     0.129 A 
BRANCH  11  14
ATOM     14  C5  ZIN A   1      18.879  -0.855   6.059  0.00  0.00     0.222 A 
ATOM     15  N4  ZIN A   1      19.765  -0.709   5.064  0.00  0.00    -0.106 NA
ATOM     16  N3  ZIN A   1      19.603  -1.703   4.258  0.00  0.00    -0.046 NA
ATOM     17  N2  ZIN A   1      18.661  -2.457   4.708  0.00  0.00    -0.172 N 
ATOM     18  C1  ZIN A   1      18.182  -3.685   4.071  0.00  0.00     0.206 C 
ATOM     19  N32 ZIN A   1      18.202  -1.957   5.803  0.00  0.00    -0.130 NA
ENDBRANCH  11  14
ENDBRANCH   1   8
BRANCH   4  20
ATOM     20  N14 ZIN A   1      17.485   4.967  13.896  0.00  0.00    -0.291 N 
ATOM     21  C25 ZIN A   1      16.364   5.651  14.165  0.00  0.00     0.368 A 
ATOM     22  O24 ZIN A   1      16.415   6.348  15.306  0.00  0.00    -0.294 OA
ATOM     23  O26 ZIN A   1      15.387   5.634  13.442  0.00  0.00    -0.238 OA
ATOM     24  C16 ZIN A   1      17.717   6.159  15.932  0.00  0.00     0.176 A 
ATOM     25  C15 ZIN A   1      18.460   5.211  14.971  0.00  0.00     0.169 A 
BRANCH  24  26
ATOM     26  C18 ZIN A   1      17.564   5.513  17.310  0.00  0.00     0.216 C 
BRANCH  26  27
ATOM     27  O19 ZIN A   1      16.197   5.584  17.721  0.00  0.00    -0.280 OA
BRANCH  27  28
ATOM     28  P20 ZIN A   1      15.706   5.208  19.208  0.00  0.00     0.422 P 
ATOM     29  O21 ZIN A   1      15.944   3.680  19.465  0.00  0.00    -0.617 OA
ATOM     30  O22 ZIN A   1      16.519   6.046  20.252  0.00  0.00    -0.617 OA
ATOM     31  O23 ZIN A   1      14.180   5.531  19.352  0.00  0.00    -0.617 OA
ENDBRANCH  27  28
ENDBRANCH  26  27
ENDBRANCH  24  26
ENDBRANCH   4  20
TORSDOF 6
ENDMDL
MODEL 4
REMARK VINA RESULT:      -8.5      4.152      4.811
REMARK  6 active torsions:
REMARK  status: ('A' for Active; 'I' for Inactive)
REMARK    1  A    between atoms: C5_5  and  C6_6 
REMARK    2  A    between atoms: C9_9  and  C10_10 
REMARK    3  A    between atoms: C13_13  and  N14_14 
REMARK    4  A    between atoms: C16_16  and  C18_17 
REMARK    5  A    between atoms: C18_17  and  O19_18 
REMARK    6  A    between atoms: O19_18  and  P20_19 
ROOT
ATOM      1  C10 ZIN A   1      18.337   2.212   9.919  0.00  0.00     0.014 A 
ATOM      2  C11 ZIN A   1      19.159   2.482   8.828  0.00  0.00     0.017 A 
ATOM      3  C12 ZIN A   1      19.219   1.596   7.773  0.00  0.00     0.031 A 
ATOM      4  C13 ZIN A   1      18.460   0.432   7.797  0.00  0.00     0.042 A 
ATOM      5  C27 ZIN A   1      17.638   0.159   8.884  0.00  0.00     0.073 A 
ATOM      6  C28 ZIN A   1      17.579   1.039   9.945  0.00  0.00     0.129 A 
ATOM      7  F29 ZIN A   1      16.780   0.773  11.002  0.00  0.00    -0.205 F 
ENDROOT
BRANCH   1   8
ATOM      8  C9  ZIN A   1      18.272   3.163  11.054  0.00  0.00    -0.005 A 
ATOM      9  C8  ZIN A   1      17.296   4.166  11.085  0.00  0.00     0.016 A 
ATOM     10  C7  ZIN A   1      17.275   5.029  12.164  0.00  0.00     0.037 A 
ATOM     11  C6  ZIN A   1      18.218   4.875  13.177  0.00  0.00     0.107 A 
ATOM     12  N31 ZIN A   1      19.134   3.917  13.114  0.00  0.00    -0.256 NA
ATOM     13  C30 ZIN A   1      19.183   3.071  12.106  0.00  0.00     0.129 A 
BRANCH  11  14
ATOM     14  C5  ZIN A   1      18.203   5.798  14.339  0.00  0.00     0.222 A 
ATOM     15  N4  ZIN A   1      19.220   6.555  14.773  0.00  0.00    -0.106 NA
ATOM     16  N3  ZIN A   1      18.799   7.208  15.802  0.00  0.00    -0.046 NA
ATOM     17  N2  ZIN A   1      17.571   6.892  16.024  0.00  0.00    -0.172 N 
ATOM     18  C1  ZIN A   1      16.743   7.424  17.108  0.00  0.00     0.206 C 
ATOM     19  N32 ZIN A   1      17.188   6.031  15.147  0.00  0.00    -0.130 NA
ENDBRANCH  11  14
ENDBRANCH   1   8
BRANCH   4  20
ATOM     20  N14 ZIN A   1      18.523  -0.464   6.726  0.00  0.00    -0.291 N 
ATOM     21  C25 ZIN A   1      19.031  -1.703   6.774  0.00  0.00     0.368 A 
ATOM     22  O24 ZIN A   1      18.967  -2.360   5.610  0.00  0.00    -0.294 OA
ATOM     23  O26 ZIN A   1      19.501  -2.188   7.784  0.00  0.00    -0.238 OA
ATOM     24  C16 ZIN A   1      18.355  -1.504   4.603  0.00  0.00     0.176 A 
ATOM     25  C15 ZIN A   1      18.045  -0.198   5.360  0.00  0.00     0.169 A 
BRANCH  24  26
ATOM     26  C18 ZIN A   1      17.066  -2.134   4.071  0.00  0.00     0.216 C 
BRANCH  26  27
ATOM     27  O19 ZIN A   1      17.086  -3.542   4.319  0.00  0.00    -0.280 OA
BRANCH  27  28
ATOM     28  P20 ZIN A   1      16.313  -4.607   3.392  0.00  0.00     0.422 P 
ATOM     29  O21 ZIN A   1      16.054  -3.979   1.980  0.00  0.00    -0.617 OA
ATOM     30  O22 ZIN A   1      17.188  -5.897   3.238  0.00  0.00    -0.617 OA
ATOM     31  O23 ZIN A   1      14.944  -4.980   4.056  0.00  0.00    -0.617 OA
ENDBRANCH  27  28
ENDBRANCH  26  27
ENDBRANCH  24  26
ENDBRANCH   4  20
TORSDOF 6
ENDMDL
MODEL 5
REMARK VINA RESULT:      -8.5      4.125      5.341
REMARK  6 active torsions:
REMARK  status: ('A' for Active; 'I' for Inactive)
REMARK    1  A    between atoms: C5_5  and  C6_6 
REMARK    2  A    between atoms: C9_9  and  C10_10 
REMARK    3  A    between atoms: C13_13  and  N14_14 
REMARK    4  A    between atoms: C16_16  and  C18_17 
REMARK    5  A    between atoms: C18_17  and  O19_18 
REMARK    6  A    between atoms: O19_18  and  P20_19 
ROOT
ATOM      1  C10 ZIN A   1      18.209   2.515  10.396  0.00  0.00     0.014 A 
ATOM      2  C11 ZIN A   1      18.965   2.762   9.252  0.00  0.00     0.017 A 
ATOM      3  C12 ZIN A   1      19.084   1.790   8.281  0.00  0.00     0.031 A 
ATOM      4  C13 ZIN A   1      18.451   0.563   8.441  0.00  0.00     0.042 A 
ATOM      5  C27 ZIN A   1      17.695   0.313   9.581  0.00  0.00     0.073 A 
ATOM      6  C28 ZIN A   1      17.577   1.280  10.558  0.00  0.00     0.129 A 
ATOM      7  F29 ZIN A   1      16.842   1.037  11.666  0.00  0.00    -0.205 F 
ENDROOT
BRANCH   1   8
ATOM      8  C9  ZIN A   1      18.080   3.558  11.441  0.00  0.00    -0.005 A 
ATOM      9  C8  ZIN A   1      17.031   4.482  11.396  0.00  0.00     0.016 A 
ATOM     10  C7  ZIN A   1      16.952   5.436  12.392  0.00  0.00     0.037 A 
ATOM     11  C6  ZIN A   1      17.913   5.448  13.401  0.00  0.00     0.107 A 
ATOM     12  N31 ZIN A   1      18.899   4.560  13.410  0.00  0.00    -0.256 NA
ATOM     13  C30 ZIN A   1      19.005   3.632  12.483  0.00  0.00     0.129 A 
BRANCH  11  14
ATOM     14  C5  ZIN A   1      17.837   6.469  14.474  0.00  0.00     0.222 A 
ATOM     15  N4  ZIN A   1      18.869   7.090  15.063  0.00  0.00    -0.106 NA
ATOM     16  N3  ZIN A   1      18.378   7.900  15.939  0.00  0.00    -0.046 NA
ATOM     17  N2  ZIN A   1      17.094   7.809  15.920  0.00  0.00    -0.172 N 
ATOM     18  C1  ZIN A   1      16.179   8.571  16.773  0.00  0.00     0.206 C 
ATOM     19  N32 ZIN A   1      16.741   6.940  15.037  0.00  0.00    -0.130 NA
ENDBRANCH  11  14
ENDBRANCH   1   8
BRANCH   4  20
ATOM     20  N14 ZIN A   1      18.573  -0.419   7.455  0.00  0.00    -0.291 N 
ATOM     21  C25 ZIN A   1      18.967  -0.211   6.191  0.00  0.00     0.368 A 
ATOM     22  O24 ZIN A   1      19.005  -1.321   5.445  0.00  0.00    -0.294 OA
ATOM     23  O26 ZIN A   1      19.270   0.886   5.763  0.00  0.00    -0.238 OA
ATOM     24  C16 ZIN A   1      18.584  -2.460   6.250  0.00  0.00     0.176 A 
ATOM     25  C15 ZIN A   1      18.285  -1.851   7.633  0.00  0.00     0.169 A 
BRANCH  24  26
ATOM     26  C18 ZIN A   1      19.708  -3.494   6.350  0.00  0.00     0.216 C 
BRANCH  26  27
ATOM     27  O19 ZIN A   1      19.180  -4.727   6.842  0.00  0.00    -0.280 OA
BRANCH  27  28
ATOM     28  P20 ZIN A   1      19.802  -5.506   8.106  0.00  0.00     0.422 P 
ATOM     29  O21 ZIN A   1      21.314  -5.818   7.835  0.00  0.00    -0.617 OA
ATOM     30  O22 ZIN A   1      19.675  -4.610   9.385  0.00  0.00    -0.617 OA
ATOM     31  O23 ZIN A   1      19.024  -6.847   8.328  0.00  0.00    -0.617 OA
ENDBRANCH  27  28
ENDBRANCH  26  27
ENDBRANCH  24  26
ENDBRANCH   4  20
TORSDOF 6
ENDMDL
MODEL 6
REMARK VINA RESULT:      -8.4      8.111     11.996
REMARK  6 active torsions:
REMARK  status: ('A' for Active; 'I' for Inactive)
REMARK    1  A    between atoms: C5_5  and  C6_6 
REMARK    2  A    between atoms: C9_9  and  C10_10 
REMARK    3  A    between atoms: C13_13  and  N14_14 
REMARK    4  A    between atoms: C16_16  and  C18_17 
REMARK    5  A    between atoms: C18_17  and  O19_18 
REMARK    6  A    between atoms: O19_18  and  P20_19 
ROOT
ATOM      1  C10 ZIN A   1      18.285   2.466  10.605  0.00  0.00     0.014 A 
ATOM      2  C11 ZIN A   1      17.639   3.694  10.470  0.00  0.00     0.017 A 
ATOM      3  C12 ZIN A   1      17.521   4.533  11.557  0.00  0.00     0.031 A 
ATOM      4  C13 ZIN A   1      18.045   4.157  12.789  0.00  0.00     0.042 A 
ATOM      5  C27 ZIN A   1      18.690   2.934  12.927  0.00  0.00     0.073 A 
ATOM      6  C28 ZIN A   1      18.806   2.087  11.844  0.00  0.00     0.129 A 
ATOM      7  F29 ZIN A   1      19.433   0.897  11.979  0.00  0.00    -0.205 F 
ENDROOT
BRANCH   1   8
ATOM      8  C9  ZIN A   1      18.412   1.562   9.437  0.00  0.00    -0.005 A 
ATOM      9  C8  ZIN A   1      17.619   0.414   9.339  0.00  0.00     0.016 A 
ATOM     10  C7  ZIN A   1      17.773  -0.399   8.232  0.00  0.00     0.037 A 
ATOM     11  C6  ZIN A   1      18.707  -0.052   7.258  0.00  0.00     0.107 A 
ATOM     12  N31 ZIN A   1      19.448   1.042   7.385  0.00  0.00    -0.256 NA
ATOM     13  C30 ZIN A   1      19.326   1.845   8.421  0.00  0.00     0.129 A 
BRANCH  11  14
ATOM     14  C5  ZIN A   1      18.880  -0.919   6.067  0.00  0.00     0.222 A 
ATOM     15  N4  ZIN A   1      19.713  -0.708   5.038  0.00  0.00    -0.106 NA
ATOM     16  N3  ZIN A   1      19.559  -1.689   4.215  0.00  0.00    -0.046 NA
ATOM     17  N2  ZIN A   1      18.673  -2.496   4.685  0.00  0.00    -0.172 N 
ATOM     18  C1  ZIN A   1      18.222  -3.730   4.038  0.00  0.00     0.206 C 
ATOM     19  N32 ZIN A   1      18.242  -2.044   5.812  0.00  0.00    -0.130 NA
ENDBRANCH  11  14
ENDBRANCH   1   8
BRANCH   4  20
ATOM     20  N14 ZIN A   1      17.924   5.011  13.888  0.00  0.00    -0.291 N 
ATOM     21  C25 ZIN A   1      18.884   5.820  14.358  0.00  0.00     0.368 A 
ATOM     22  O24 ZIN A   1      18.513   6.541  15.422  0.00  0.00    -0.294 OA
ATOM     23  O26 ZIN A   1      19.989   5.896  13.858  0.00  0.00    -0.238 OA
ATOM     24  C16 ZIN A   1      17.136   6.217  15.771  0.00  0.00     0.176 A 
ATOM     25  C15 ZIN A   1      16.722   5.167  14.723  0.00  0.00     0.169 A 
BRANCH  24  26
ATOM     26  C18 ZIN A   1      16.247   7.458  15.667  0.00  0.00     0.216 C 
BRANCH  26  27
ATOM     27  O19 ZIN A   1      15.536   7.640  16.894  0.00  0.00    -0.280 OA
BRANCH  27  28
ATOM     28  P20 ZIN A   1      14.159   6.878  17.230  0.00  0.00     0.422 P 
ATOM     29  O21 ZIN A   1      13.125   7.901  17.813  0.00  0.00    -0.617 OA
ATOM     30  O22 ZIN A   1      13.581   6.241  15.921  0.00  0.00    -0.617 OA
ATOM     31  O23 ZIN A   1      14.429   5.751  18.284  0.00  0.00    -0.617 OA
ENDBRANCH  27  28
ENDBRANCH  26  27
ENDBRANCH  24  26
ENDBRANCH   4  20
TORSDOF 6
ENDMDL
MODEL 7
REMARK VINA RESULT:      -8.4      7.435     11.878
REMARK  6 active torsions:
REMARK  status: ('A' for Active; 'I' for Inactive)
REMARK    1  A    between atoms: C5_5  and  C6_6 
REMARK    2  A    between atoms: C9_9  and  C10_10 
REMARK    3  A    between atoms: C13_13  and  N14_14 
REMARK    4  A    between atoms: C16_16  and  C18_17 
REMARK    5  A    between atoms: C18_17  and  O19_18 
REMARK    6  A    between atoms: O19_18  and  P20_19 
ROOT
ATOM      1  C10 ZIN A   1      18.025   0.422   8.152  0.00  0.00     0.014 A 
ATOM      2  C11 ZIN A   1      17.367   0.196   9.360  0.00  0.00     0.017 A 
ATOM      3  C12 ZIN A   1      17.506   1.092  10.399  0.00  0.00     0.031 A 
ATOM      4  C13 ZIN A   1      18.302   2.221  10.244  0.00  0.00     0.042 A 
ATOM      5  C27 ZIN A   1      18.959   2.450   9.041  0.00  0.00     0.073 A 
ATOM      6  C28 ZIN A   1      18.828   1.554   8.000  0.00  0.00     0.129 A 
ATOM      7  F29 ZIN A   1      19.468   1.777   6.830  0.00  0.00    -0.205 F 
ENDROOT
BRANCH   1   8
ATOM      8  C9  ZIN A   1      17.877  -0.540   7.034  0.00  0.00    -0.005 A 
ATOM      9  C8  ZIN A   1      17.191  -0.177   5.871  0.00  0.00     0.016 A 
ATOM     10  C7  ZIN A   1      17.079  -1.107   4.856  0.00  0.00     0.037 A 
ATOM     11  C6  ZIN A   1      17.648  -2.368   5.023  0.00  0.00     0.107 A 
ATOM     12  N31 ZIN A   1      18.288  -2.682   6.142  0.00  0.00    -0.256 NA
ATOM     13  C30 ZIN A   1      18.421  -1.822   7.129  0.00  0.00     0.129 A 
BRANCH  11  14
ATOM     14  C5  ZIN A   1      17.532  -3.374   3.939  0.00  0.00     0.222 A 
ATOM     15  N4  ZIN A   1      18.453  -4.283   3.589  0.00  0.00    -0.106 NA
ATOM     16  N3  ZIN A   1      17.966  -4.962   2.606  0.00  0.00    -0.046 NA
ATOM     17  N2  ZIN A   1      16.789  -4.517   2.332  0.00  0.00    -0.172 N 
ATOM     18  C1  ZIN A   1      15.914  -5.030   1.276  0.00  0.00     0.206 C 
ATOM     19  N32 ZIN A   1      16.505  -3.546   3.130  0.00  0.00    -0.130 NA
ENDBRANCH  11  14
ENDBRANCH   1   8
BRANCH   4  20
ATOM     20  N14 ZIN A   1      18.440   3.128  11.298  0.00  0.00    -0.291 N 
ATOM     21  C25 ZIN A   1      17.614   4.150  11.561  0.00  0.00     0.368 A 
ATOM     22  O24 ZIN A   1      17.966   4.868  12.634  0.00  0.00    -0.294 OA
ATOM     23  O26 ZIN A   1      16.632   4.398  10.890  0.00  0.00    -0.238 OA
ATOM     24  C16 ZIN A   1      19.184   4.315  13.210  0.00  0.00     0.176 A 
ATOM     25  C15 ZIN A   1      19.518   3.117  12.299  0.00  0.00     0.169 A 
BRANCH  24  26
ATOM     26  C18 ZIN A   1      18.936   3.845  14.645  0.00  0.00     0.216 C 
BRANCH  26  27
ATOM     27  O19 ZIN A   1      18.346   4.905  15.399  0.00  0.00    -0.280 OA
BRANCH  27  28
ATOM     28  P20 ZIN A   1      19.182   6.170  15.939  0.00  0.00     0.422 P 
ATOM     29  O21 ZIN A   1      18.648   6.585  17.353  0.00  0.00    -0.617 OA
ATOM     30  O22 ZIN A   1      20.697   5.787  16.045  0.00  0.00    -0.617 OA
ATOM     31  O23 ZIN A   1      19.015   7.370  14.945  0.00  0.00    -0.617 OA
ENDBRANCH  27  28
ENDBRANCH  26  27
ENDBRANCH  24  26
ENDBRANCH   4  20
TORSDOF 6
ENDMDL
MODEL 8
REMARK VINA RESULT:      -8.3      6.533     11.399
REMARK  6 active torsions:
REMARK  status: ('A' for Active; 'I' for Inactive)
REMARK    1  A    between atoms: C5_5  and  C6_6 
REMARK    2  A    between atoms: C9_9  and  C10_10 
REMARK    3  A    between atoms: C13_13  and  N14_14 
REMARK    4  A    between atoms: C16_16  and  C18_17 
REMARK    5  A    between atoms: C18_17  and  O19_18 
REMARK    6  A    between atoms: O19_18  and  P20_19 
ROOT
ATOM      1  C10 ZIN A   1      18.002   0.618   9.207  0.00  0.00     0.014 A 
ATOM      2  C11 ZIN A   1      17.243   0.317  10.336  0.00  0.00     0.017 A 
ATOM      3  C12 ZIN A   1      17.322   1.120  11.454  0.00  0.00     0.031 A 
ATOM      4  C13 ZIN A   1      18.159   2.229  11.458  0.00  0.00     0.042 A 
ATOM      5  C27 ZIN A   1      18.918   2.532  10.334  0.00  0.00     0.073 A 
ATOM      6  C28 ZIN A   1      18.847   1.729   9.214  0.00  0.00     0.129 A 
ATOM      7  F29 ZIN A   1      19.586   2.025   8.121  0.00  0.00    -0.205 F 
ENDROOT
BRANCH   1   8
ATOM      8  C9  ZIN A   1      17.919  -0.244   8.004  0.00  0.00    -0.005 A 
ATOM      9  C8  ZIN A   1      17.294   0.219   6.841  0.00  0.00     0.016 A 
ATOM     10  C7  ZIN A   1      17.241  -0.621   5.745  0.00  0.00     0.037 A 
ATOM     11  C6  ZIN A   1      17.806  -1.891   5.833  0.00  0.00     0.107 A 
ATOM     12  N31 ZIN A   1      18.386  -2.301   6.954  0.00  0.00    -0.256 NA
ATOM     13  C30 ZIN A   1      18.463  -1.529   8.017  0.00  0.00     0.129 A 
BRANCH  11  14
ATOM     14  C5  ZIN A   1      17.753  -2.800   4.661  0.00  0.00     0.222 A 
ATOM     15  N4  ZIN A   1      18.716  -3.637   4.253  0.00  0.00    -0.106 NA
ATOM     16  N3  ZIN A   1      18.277  -4.243   3.203  0.00  0.00    -0.046 NA
ATOM     17  N2  ZIN A   1      17.089  -3.822   2.942  0.00  0.00    -0.172 N 
ATOM     18  C1  ZIN A   1      16.256  -4.272   1.825  0.00  0.00     0.206 C 
ATOM     19  N32 ZIN A   1      16.749  -2.938   3.816  0.00  0.00    -0.130 NA
ENDBRANCH  11  14
ENDBRANCH   1   8
BRANCH   4  20
ATOM     20  N14 ZIN A   1      18.236   3.041  12.593  0.00  0.00    -0.291 N 
ATOM     21  C25 ZIN A   1      17.488   4.128  12.827  0.00  0.00     0.368 A 
ATOM     22  O24 ZIN A   1      17.755   4.728  13.993  0.00  0.00    -0.294 OA
ATOM     23  O26 ZIN A   1      16.640   4.528  12.054  0.00  0.00    -0.238 OA
ATOM     24  C16 ZIN A   1      18.818   4.006  14.678  0.00  0.00     0.176 A 
ATOM     25  C15 ZIN A   1      19.156   2.844  13.724  0.00  0.00     0.169 A 
BRANCH  24  26
ATOM     26  C18 ZIN A   1      18.324   3.469  16.024  0.00  0.00     0.216 C 
BRANCH  26  27
ATOM     27  O19 ZIN A   1      18.841   2.153  16.231  0.00  0.00    -0.280 OA
BRANCH  27  28
ATOM     28  P20 ZIN A   1      18.582   1.312  17.579  0.00  0.00     0.422 P 
ATOM     29  O21 ZIN A   1      17.954  -0.077  17.215  0.00  0.00    -0.617 OA
ATOM     30  O22 ZIN A   1      19.942   1.090  18.325  0.00  0.00    -0.617 OA
ATOM     31  O23 ZIN A   1      17.599   2.102  18.508  0.00  0.00    -0.617 OA
ENDBRANCH  27  28
ENDBRANCH  26  27
ENDBRANCH  24  26
ENDBRANCH   4  20
TORSDOF 6
ENDMDL
MODEL 9
REMARK VINA RESULT:      -8.2      1.507      1.843
REMARK  6 active torsions:
REMARK  status: ('A' for Active; 'I' for Inactive)
REMARK    1  A    between atoms: C5_5  and  C6_6 
REMARK    2  A    between atoms: C9_9  and  C10_10 
REMARK    3  A    between atoms: C13_13  and  N14_14 
REMARK    4  A    between atoms: C16_16  and  C18_17 
REMARK    5  A    between atoms: C18_17  and  O19_18 
REMARK    6  A    between atoms: O19_18  and  P20_19 
ROOT
ATOM      1  C10 ZIN A   1      18.834  -1.959  12.511  0.00  0.00     0.014 A 
ATOM      2  C11 ZIN A   1      19.885  -2.839  12.258  0.00  0.00     0.017 A 
ATOM      3  C12 ZIN A   1      19.864  -3.632  11.131  0.00  0.00     0.031 A 
ATOM      4  C13 ZIN A   1      18.795  -3.557  10.245  0.00  0.00     0.042 A 
ATOM      5  C27 ZIN A   1      17.745  -2.681  10.493  0.00  0.00     0.073 A 
ATOM      6  C28 ZIN A   1      17.758  -1.888  11.623  0.00  0.00     0.129 A 
ATOM      7  F29 ZIN A   1      16.737  -1.036  11.864  0.00  0.00    -0.205 F 
ENDROOT
BRANCH   1   8
ATOM      8  C9  ZIN A   1      18.854  -1.105  13.722  0.00  0.00    -0.005 A 
ATOM      9  C8  ZIN A   1      18.498  -1.633  14.968  0.00  0.00     0.016 A 
ATOM     10  C7  ZIN A   1      18.533  -0.798  16.069  0.00  0.00     0.037 A 
ATOM     11  C6  ZIN A   1      18.917   0.531  15.904  0.00  0.00     0.107 A 
ATOM     12  N31 ZIN A   1      19.244   1.000  14.707  0.00  0.00    -0.256 NA
ATOM     13  C30 ZIN A   1      19.229   0.236  13.635  0.00  0.00     0.129 A 
BRANCH  11  14
ATOM     14  C5  ZIN A   1      18.957   1.433  17.081  0.00  0.00     0.222 A 
ATOM     15  N4  ZIN A   1      19.648   1.243  18.213  0.00  0.00    -0.106 NA
ATOM     16  N3  ZIN A   1      19.413   2.253  18.979  0.00  0.00    -0.046 NA
ATOM     17  N2  ZIN A   1      18.611   3.059  18.376  0.00  0.00    -0.172 N 
ATOM     18  C1  ZIN A   1      18.107   4.321  18.922  0.00  0.00     0.206 C 
ATOM     19  N32 ZIN A   1      18.315   2.578  17.217  0.00  0.00    -0.130 NA
ENDBRANCH  11  14
ENDBRANCH   1   8
BRANCH   4  20
ATOM     20  N14 ZIN A   1      18.778  -4.363   9.103  0.00  0.00    -0.291 N 
ATOM     21  C25 ZIN A   1      18.320  -5.621   9.043  0.00  0.00     0.368 A 
ATOM     22  O24 ZIN A   1      18.411  -6.172   7.827  0.00  0.00    -0.294 OA
ATOM     23  O26 ZIN A   1      17.856  -6.204  10.003  0.00  0.00    -0.238 OA
ATOM     24  C16 ZIN A   1      19.009  -5.217   6.905  0.00  0.00     0.176 A 
ATOM     25  C15 ZIN A   1      19.264  -3.969   7.772  0.00  0.00     0.169 A 
BRANCH  24  26
ATOM     26  C18 ZIN A   1      18.040  -4.890   5.766  0.00  0.00     0.216 C 
BRANCH  26  27
ATOM     27  O19 ZIN A   1      17.799  -6.067   4.991  0.00  0.00    -0.280 OA
BRANCH  27  28
ATOM     28  P20 ZIN A   1      16.324  -6.648   4.715  0.00  0.00     0.422 P 
ATOM     29  O21 ZIN A   1      16.237  -8.122   5.242  0.00  0.00    -0.617 OA
ATOM     30  O22 ZIN A   1      15.267  -5.765   5.460  0.00  0.00    -0.617 OA
ATOM     31  O23 ZIN A   1      16.033  -6.626   3.176  0.00  0.00    -0.617 OA
ENDBRANCH  27  28
ENDBRANCH  26  27
ENDBRANCH  24  26
ENDBRANCH   4  20
TORSDOF 6
ENDMDL
