MODEL 1
REMARK VINA RESULT:      -8.3      0.000      0.000
REMARK  2 active torsions:
REMARK  status: ('A' for Active; 'I' for Inactive)
REMARK    1  A    between atoms: C3_3  and  O4_4 
REMARK    2  A    between atoms: C25_21  and  C26_22 
ROOT
ATOM      1  C1  ZIN A   1      20.383  -4.120  11.484  0.00  0.00     0.015 C 
ATOM      2  C2  ZIN A   1      19.464  -3.628  10.945  0.00  0.00    -0.078 C 
ATOM      3  C3  ZIN A   1      18.311  -3.013  10.267  0.00  0.00     0.128 C 
ATOM      4  C5  ZIN A   1      18.577  -2.908   8.747  0.00  0.00     0.052 C 
ATOM      5  C6  ZIN A   1      18.469  -1.405   8.385  0.00  0.00     0.010 C 
ATOM      6  C7  ZIN A   1      17.584  -0.834   9.502  0.00  0.00     0.002 C 
ATOM      7  C9  ZIN A   1      17.722   0.655   9.718  0.00  0.00    -0.005 C 
ATOM      8  C11 ZIN A   1      18.991   1.247   9.116  0.00  0.00     0.010 C 
ATOM      9  C12 ZIN A   1      18.933   2.772   9.279  0.00  0.00     0.035 C 
ATOM     10  C13 ZIN A   1      18.666   3.127  10.730  0.00  0.00    -0.072 C 
ATOM     11  C14 ZIN A   1      19.423   4.072  11.285  0.00  0.00     0.053 C 
ATOM     12  C15 ZIN A   1      19.206   4.470  12.679  0.00  0.00     0.149 C 
ATOM     13  O16 ZIN A   1      20.071   5.020  13.328  0.00  0.00    -0.293 OA
ATOM     14  C17 ZIN A   1      17.844   4.159  13.267  0.00  0.00     0.084 C 
ATOM     15  C18 ZIN A   1      17.539   2.694  12.958  0.00  0.00     0.017 C 
ATOM     16  C19 ZIN A   1      17.564   2.414  11.466  0.00  0.00     0.019 C 
ATOM     17  C21 ZIN A   1      17.766   0.911  11.234  0.00  0.00    -0.002 C 
ATOM     18  C23 ZIN A   1      16.690   0.062  11.903  0.00  0.00     0.006 C 
ATOM     19  C24 ZIN A   1      17.161  -1.407  11.888  0.00  0.00     0.014 C 
ATOM     20  C25 ZIN A   1      18.119  -1.575  10.751  0.00  0.00     0.006 C 
ENDROOT
BRANCH   3  21
ATOM     21  O4  ZIN A   1      17.129  -3.778  10.511  0.00  0.00    -0.377 OA
ATOM     22  H29 ZIN A   1      16.467  -3.319  11.046  0.00  0.00     0.211 HD
ENDBRANCH   3  21
BRANCH  20  23
ATOM     23  C26 ZIN A   1      19.471  -0.962  11.123  0.00  0.00     0.009 C 
ATOM     24  C27 ZIN A   1      19.634  -0.973  12.644  0.00  0.00     0.006 C 
ENDBRANCH  20  23
TORSDOF 2
ENDMDL
MODEL 2
REMARK VINA RESULT:      -8.2      2.091      6.558
REMARK  2 active torsions:
REMARK  status: ('A' for Active; 'I' for Inactive)
REMARK    1  A    between atoms: C3_3  and  O4_4 
REMARK    2  A    between atoms: C25_21  and  C26_22 
ROOT
ATOM      1  C1  ZIN A   1      20.336   2.710  11.519  0.00  0.00     0.015 C 
ATOM      2  C2  ZIN A   1      19.323   2.120  11.580  0.00  0.00    -0.078 C 
ATOM      3  C3  ZIN A   1      18.053   1.381  11.658  0.00  0.00     0.128 C 
ATOM      4  C5  ZIN A   1      17.786   0.924  13.111  0.00  0.00     0.052 C 
ATOM      5  C6  ZIN A   1      17.663  -0.620  13.072  0.00  0.00     0.010 C 
ATOM      6  C7  ZIN A   1      17.258  -0.906  11.618  0.00  0.00     0.002 C 
ATOM      7  C9  ZIN A   1      17.562  -2.307  11.142  0.00  0.00    -0.005 C 
ATOM      8  C11 ZIN A   1      18.585  -3.039  12.004  0.00  0.00     0.010 C 
ATOM      9  C12 ZIN A   1      18.690  -4.484  11.499  0.00  0.00     0.035 C 
ATOM     10  C13 ZIN A   1      18.963  -4.491  10.007  0.00  0.00    -0.072 C 
ATOM     11  C14 ZIN A   1      19.928  -5.294   9.558  0.00  0.00     0.053 C 
ATOM     12  C15 ZIN A   1      20.231  -5.357   8.125  0.00  0.00     0.149 C 
ATOM     13  O16 ZIN A   1      21.302  -5.754   7.716  0.00  0.00    -0.293 OA
ATOM     14  C17 ZIN A   1      19.136  -4.899   7.181  0.00  0.00     0.084 C 
ATOM     15  C18 ZIN A   1      18.644  -3.541   7.679  0.00  0.00     0.017 C 
ATOM     16  C19 ZIN A   1      18.135  -3.613   9.107  0.00  0.00     0.019 C 
ATOM     17  C21 ZIN A   1      18.143  -2.207   9.721  0.00  0.00    -0.002 C 
ATOM     18  C23 ZIN A   1      17.307  -1.212   8.923  0.00  0.00     0.006 C 
ATOM     19  C24 ZIN A   1      17.643   0.207   9.425  0.00  0.00     0.014 C 
ATOM     20  C25 ZIN A   1      18.138   0.096  10.832  0.00  0.00     0.006 C 
ENDROOT
BRANCH   3  21
ATOM     21  O4  ZIN A   1      16.978   2.198  11.190  0.00  0.00    -0.377 OA
ATOM     22  H29 ZIN A   1      16.429   2.567  11.895  0.00  0.00     0.211 HD
ENDBRANCH   3  21
BRANCH  20  23
ATOM     23  C26 ZIN A   1      19.574  -0.433  10.833  0.00  0.00     0.009 C 
ATOM     24  C27 ZIN A   1      20.226  -0.136   9.481  0.00  0.00     0.006 C 
ENDBRANCH  20  23
TORSDOF 2
ENDMDL
MODEL 3
REMARK VINA RESULT:      -8.1      1.327      6.118
REMARK  2 active torsions:
REMARK  status: ('A' for Active; 'I' for Inactive)
REMARK    1  A    between atoms: C3_3  and  O4_4 
REMARK    2  A    between atoms: C25_21  and  C26_22 
ROOT
ATOM      1  C1  ZIN A   1      17.836   3.662  14.165  0.00  0.00     0.015 C 
ATOM      2  C2  ZIN A   1      18.459   3.467  13.189  0.00  0.00    -0.078 C 
ATOM      3  C3  ZIN A   1      19.240   3.224  11.965  0.00  0.00     0.128 C 
ATOM      4  C5  ZIN A   1      18.502   3.803  10.735  0.00  0.00     0.052 C 
ATOM      5  C6  ZIN A   1      18.269   2.618   9.764  0.00  0.00     0.010 C 
ATOM      6  C7  ZIN A   1      19.363   1.615  10.160  0.00  0.00     0.002 C 
ATOM      7  C9  ZIN A   1      19.082   0.185   9.765  0.00  0.00    -0.005 C 
ATOM      8  C11 ZIN A   1      17.615  -0.087   9.448  0.00  0.00     0.010 C 
ATOM      9  C12 ZIN A   1      17.496  -1.524   8.926  0.00  0.00     0.035 C 
ATOM     10  C13 ZIN A   1      18.145  -2.485   9.905  0.00  0.00    -0.072 C 
ATOM     11  C14 ZIN A   1      17.466  -3.583  10.236  0.00  0.00     0.053 C 
ATOM     12  C15 ZIN A   1      18.045  -4.557  11.166  0.00  0.00     0.149 C 
ATOM     13  O16 ZIN A   1      17.354  -5.344  11.779  0.00  0.00    -0.293 OA
ATOM     14  C17 ZIN A   1      19.553  -4.531  11.322  0.00  0.00     0.084 C 
ATOM     15  C18 ZIN A   1      19.959  -3.079  11.571  0.00  0.00     0.017 C 
ATOM     16  C19 ZIN A   1      19.514  -2.166  10.443  0.00  0.00     0.019 C 
ATOM     17  C21 ZIN A   1      19.473  -0.718  10.947  0.00  0.00    -0.002 C 
ATOM     18  C23 ZIN A   1      20.816  -0.248  11.494  0.00  0.00     0.006 C 
ATOM     19  C24 ZIN A   1      20.586   1.072  12.259  0.00  0.00     0.014 C 
ATOM     20  C25 ZIN A   1      19.359   1.722  11.704  0.00  0.00     0.006 C 
ENDROOT
BRANCH   3  21
ATOM     21  O4  ZIN A   1      20.538   3.808  12.084  0.00  0.00    -0.377 OA
ATOM     22  H29 ZIN A   1      20.569   4.585  12.659  0.00  0.00     0.211 HD
ENDBRANCH   3  21
BRANCH  20  23
ATOM     23  C26 ZIN A   1      18.114   0.999  12.225  0.00  0.00     0.009 C 
ATOM     24  C27 ZIN A   1      18.426   0.360  13.580  0.00  0.00     0.006 C 
ENDBRANCH  20  23
TORSDOF 2
ENDMDL
MODEL 4
REMARK VINA RESULT:      -7.8      1.724      3.220
REMARK  2 active torsions:
REMARK  status: ('A' for Active; 'I' for Inactive)
REMARK    1  A    between atoms: C3_3  and  O4_4 
REMARK    2  A    between atoms: C25_21  and  C26_22 
ROOT
ATOM      1  C1  ZIN A   1      16.685  -4.619   9.289  0.00  0.00     0.015 C 
ATOM      2  C2  ZIN A   1      17.750  -4.210   9.563  0.00  0.00    -0.078 C 
ATOM      3  C3  ZIN A   1      19.086  -3.699   9.908  0.00  0.00     0.128 C 
ATOM      4  C5  ZIN A   1      19.495  -4.176  11.321  0.00  0.00     0.052 C 
ATOM      5  C6  ZIN A   1      19.759  -2.898  12.158  0.00  0.00     0.010 C 
ATOM      6  C7  ZIN A   1      20.087  -1.840  11.095  0.00  0.00     0.002 C 
ATOM      7  C9  ZIN A   1      19.883  -0.412  11.541  0.00  0.00    -0.005 C 
ATOM      8  C11 ZIN A   1      18.995  -0.276  12.774  0.00  0.00     0.010 C 
ATOM      9  C12 ZIN A   1      18.991   1.198  13.200  0.00  0.00     0.035 C 
ATOM     10  C13 ZIN A   1      18.617   2.077  12.021  0.00  0.00    -0.072 C 
ATOM     11  C14 ZIN A   1      17.702   3.025  12.221  0.00  0.00     0.053 C 
ATOM     12  C15 ZIN A   1      17.308   3.915  11.126  0.00  0.00     0.149 C 
ATOM     13  O16 ZIN A   1      16.253   4.515  11.138  0.00  0.00    -0.293 OA
ATOM     14  C17 ZIN A   1      18.287   4.048   9.975  0.00  0.00     0.084 C 
ATOM     15  C18 ZIN A   1      18.683   2.635   9.550  0.00  0.00     0.017 C 
ATOM     16  C19 ZIN A   1      19.294   1.849  10.696  0.00  0.00     0.019 C 
ATOM     17  C21 ZIN A   1      19.198   0.349  10.393  0.00  0.00    -0.002 C 
ATOM     18  C23 ZIN A   1      19.879  -0.031   9.083  0.00  0.00     0.006 C 
ATOM     19  C24 ZIN A   1      19.448  -1.467   8.718  0.00  0.00     0.014 C 
ATOM     20  C25 ZIN A   1      19.065  -2.171   9.980  0.00  0.00     0.006 C 
ENDROOT
BRANCH   3  21
ATOM     21  O4  ZIN A   1      20.045  -4.134   8.942  0.00  0.00    -0.377 OA
ATOM     22  H29 ZIN A   1      20.672  -4.789   9.277  0.00  0.00     0.211 HD
ENDBRANCH   3  21
BRANCH  20  23
ATOM     23  C26 ZIN A   1      17.688  -1.687  10.442  0.00  0.00     0.009 C 
ATOM     24  C27 ZIN A   1      16.968  -1.010   9.274  0.00  0.00     0.006 C 
ENDBRANCH  20  23
TORSDOF 2
ENDMDL
MODEL 5
REMARK VINA RESULT:      -7.6      1.811      6.499
REMARK  2 active torsions:
REMARK  status: ('A' for Active; 'I' for Inactive)
REMARK    1  A    between atoms: C3_3  and  O4_4 
REMARK    2  A    between atoms: C25_21  and  C26_22 
ROOT
ATOM      1  C1  ZIN A   1      18.556   2.860   8.860  0.00  0.00     0.015 C 
ATOM      2  C2  ZIN A   1      18.598   2.422   9.949  0.00  0.00    -0.078 C 
ATOM      3  C3  ZIN A   1      18.651   1.875  11.314  0.00  0.00     0.128 C 
ATOM      4  C5  ZIN A   1      20.080   2.012  11.891  0.00  0.00     0.052 C 
ATOM      5  C6  ZIN A   1      20.549   0.578  12.246  0.00  0.00     0.010 C 
ATOM      6  C7  ZIN A   1      19.233  -0.188  12.439  0.00  0.00     0.002 C 
ATOM      7  C9  ZIN A   1      19.345  -1.686  12.283  0.00  0.00    -0.005 C 
ATOM      8  C11 ZIN A   1      20.605  -2.133  11.548  0.00  0.00     0.010 C 
ATOM      9  C12 ZIN A   1      20.663  -3.665  11.587  0.00  0.00     0.035 C 
ATOM     10  C13 ZIN A   1      19.360  -4.246  11.070  0.00  0.00    -0.072 C 
ATOM     11  C14 ZIN A   1      19.434  -5.236  10.181  0.00  0.00     0.053 C 
ATOM     12  C15 ZIN A   1      18.211  -5.849   9.654  0.00  0.00     0.149 C 
ATOM     13  O16 ZIN A   1      18.203  -6.459   8.606  0.00  0.00    -0.293 OA
ATOM     14  C17 ZIN A   1      16.956  -5.681  10.488  0.00  0.00     0.084 C 
ATOM     15  C18 ZIN A   1      16.837  -4.198  10.838  0.00  0.00     0.017 C 
ATOM     16  C19 ZIN A   1      18.058  -3.694  11.586  0.00  0.00     0.019 C 
ATOM     17  C21 ZIN A   1      18.137  -2.167  11.462  0.00  0.00    -0.002 C 
ATOM     18  C23 ZIN A   1      16.885  -1.470  11.984  0.00  0.00     0.006 C 
ATOM     19  C24 ZIN A   1      16.927   0.000  11.519  0.00  0.00     0.014 C 
ATOM     20  C25 ZIN A   1      18.357   0.375  11.293  0.00  0.00     0.006 C 
ENDROOT
BRANCH   3  21
ATOM     21  O4  ZIN A   1      17.712   2.551  12.153  0.00  0.00    -0.377 OA
ATOM     22  H29 ZIN A   1      17.610   2.153  13.028  0.00  0.00     0.211 HD
ENDBRANCH   3  21
BRANCH  20  23
ATOM     23  C26 ZIN A   1      18.848  -0.237   9.979  0.00  0.00     0.009 C 
ATOM     24  C27 ZIN A   1      17.664  -0.411   9.025  0.00  0.00     0.006 C 
ENDBRANCH  20  23
TORSDOF 2
ENDMDL
MODEL 6
REMARK VINA RESULT:      -7.5      1.681      6.344
REMARK  2 active torsions:
REMARK  status: ('A' for Active; 'I' for Inactive)
REMARK    1  A    between atoms: C3_3  and  O4_4 
REMARK    2  A    between atoms: C25_21  and  C26_22 
ROOT
ATOM      1  C1  ZIN A   1      20.398   3.602  11.770  0.00  0.00     0.015 C 
ATOM      2  C2  ZIN A   1      19.367   3.077  11.967  0.00  0.00    -0.078 C 
ATOM      3  C3  ZIN A   1      18.074   2.419  12.217  0.00  0.00     0.128 C 
ATOM      4  C5  ZIN A   1      17.911   2.114  13.724  0.00  0.00     0.052 C 
ATOM      5  C6  ZIN A   1      17.712   0.581  13.843  0.00  0.00     0.010 C 
ATOM      6  C7  ZIN A   1      17.172   0.186  12.461  0.00  0.00     0.002 C 
ATOM      7  C9  ZIN A   1      17.367  -1.267  12.098  0.00  0.00    -0.005 C 
ATOM      8  C11 ZIN A   1      18.424  -1.973  12.942  0.00  0.00     0.010 C 
ATOM      9  C12 ZIN A   1      18.417  -3.461  12.570  0.00  0.00     0.035 C 
ATOM     10  C13 ZIN A   1      18.562  -3.621  11.069  0.00  0.00    -0.072 C 
ATOM     11  C14 ZIN A   1      19.446  -4.512  10.624  0.00  0.00     0.053 C 
ATOM     12  C15 ZIN A   1      19.623  -4.723   9.184  0.00  0.00     0.149 C 
ATOM     13  O16 ZIN A   1      20.635  -5.215   8.730  0.00  0.00    -0.293 OA
ATOM     14  C17 ZIN A   1      18.475  -4.294   8.291  0.00  0.00     0.084 C 
ATOM     15  C18 ZIN A   1      18.093  -2.871   8.694  0.00  0.00     0.017 C 
ATOM     16  C19 ZIN A   1      17.704  -2.783  10.158  0.00  0.00     0.019 C 
ATOM     17  C21 ZIN A   1      17.830  -1.330  10.632  0.00  0.00    -0.002 C 
ATOM     18  C23 ZIN A   1      16.978  -0.368   9.812  0.00  0.00     0.006 C 
ATOM     19  C24 ZIN A   1      17.422   1.070  10.147  0.00  0.00     0.014 C 
ATOM     20  C25 ZIN A   1      18.028   1.062  11.514  0.00  0.00     0.006 C 
ENDROOT
BRANCH   3  21
ATOM     21  O4  ZIN A   1      17.003   3.248  11.761  0.00  0.00    -0.377 OA
ATOM     22  H29 ZIN A   1      16.128   2.948  12.039  0.00  0.00     0.211 HD
ENDBRANCH   3  21
BRANCH  20  23
ATOM     23  C26 ZIN A   1      19.432   0.456  11.451  0.00  0.00     0.009 C 
ATOM     24  C27 ZIN A   1      19.996   0.625  10.038  0.00  0.00     0.006 C 
ENDBRANCH  20  23
TORSDOF 2
ENDMDL
MODEL 7
REMARK VINA RESULT:      -7.3      2.793      5.540
REMARK  2 active torsions:
REMARK  status: ('A' for Active; 'I' for Inactive)
REMARK    1  A    between atoms: C3_3  and  O4_4 
REMARK    2  A    between atoms: C25_21  and  C26_22 
ROOT
ATOM      1  C1  ZIN A   1      19.627   2.801  16.358  0.00  0.00     0.015 C 
ATOM      2  C2  ZIN A   1      19.031   1.805  16.184  0.00  0.00    -0.078 C 
ATOM      3  C3  ZIN A   1      18.283   0.556  15.967  0.00  0.00     0.128 C 
ATOM      4  C5  ZIN A   1      19.103  -0.654  16.475  0.00  0.00     0.052 C 
ATOM      5  C6  ZIN A   1      19.297  -1.595  15.258  0.00  0.00     0.010 C 
ATOM      6  C7  ZIN A   1      18.127  -1.225  14.334  0.00  0.00     0.002 C 
ATOM      7  C9  ZIN A   1      18.332  -1.585  12.882  0.00  0.00    -0.005 C 
ATOM      8  C11 ZIN A   1      19.790  -1.840  12.513  0.00  0.00     0.010 C 
ATOM      9  C12 ZIN A   1      19.837  -2.332  11.061  0.00  0.00     0.035 C 
ATOM     10  C13 ZIN A   1      19.091  -1.364  10.162  0.00  0.00    -0.072 C 
ATOM     11  C14 ZIN A   1      19.685  -0.988   9.030  0.00  0.00     0.053 C 
ATOM     12  C15 ZIN A   1      19.011  -0.065   8.112  0.00  0.00     0.149 C 
ATOM     13  O16 ZIN A   1      19.627   0.588   7.295  0.00  0.00    -0.293 OA
ATOM     14  C17 ZIN A   1      17.503   0.032   8.236  0.00  0.00     0.084 C 
ATOM     15  C18 ZIN A   1      17.180   0.240   9.715  0.00  0.00     0.017 C 
ATOM     16  C19 ZIN A   1      17.725  -0.885  10.576  0.00  0.00     0.019 C 
ATOM     17  C21 ZIN A   1      17.839  -0.404  12.028  0.00  0.00    -0.002 C 
ATOM     18  C23 ZIN A   1      16.509   0.082  12.593  0.00  0.00     0.006 C 
ATOM     19  C24 ZIN A   1      16.793   0.833  13.910  0.00  0.00     0.014 C 
ATOM     20  C25 ZIN A   1      18.079   0.316  14.470  0.00  0.00     0.006 C 
ENDROOT
BRANCH   3  21
ATOM     21  O4  ZIN A   1      17.021   0.614  16.634  0.00  0.00    -0.377 OA
ATOM     22  H29 ZIN A   1      16.429  -0.119  16.420  0.00  0.00     0.211 HD
ENDBRANCH   3  21
BRANCH  20  23
ATOM     23  C26 ZIN A   1      19.255   0.897  13.681  0.00  0.00     0.009 C 
ATOM     24  C27 ZIN A   1      18.845   2.239  13.071  0.00  0.00     0.006 C 
ENDBRANCH  20  23
TORSDOF 2
ENDMDL
MODEL 8
REMARK VINA RESULT:      -7.3      1.999      3.526
REMARK  2 active torsions:
REMARK  status: ('A' for Active; 'I' for Inactive)
REMARK    1  A    between atoms: C3_3  and  O4_4 
REMARK    2  A    between atoms: C25_21  and  C26_22 
ROOT
ATOM      1  C1  ZIN A   1      17.269  -3.785  11.490  0.00  0.00     0.015 C 
ATOM      2  C2  ZIN A   1      18.215  -3.165  11.805  0.00  0.00    -0.078 C 
ATOM      3  C3  ZIN A   1      19.402  -2.389  12.200  0.00  0.00     0.128 C 
ATOM      4  C5  ZIN A   1      19.559  -2.397  13.738  0.00  0.00     0.052 C 
ATOM      5  C6  ZIN A   1      19.530  -0.915  14.191  0.00  0.00     0.010 C 
ATOM      6  C7  ZIN A   1      19.967  -0.152  12.932  0.00  0.00     0.002 C 
ATOM      7  C9  ZIN A   1      19.546   1.298  12.896  0.00  0.00    -0.005 C 
ATOM      8  C11 ZIN A   1      18.420   1.635  13.867  0.00  0.00     0.010 C 
ATOM      9  C12 ZIN A   1      18.194   3.152  13.831  0.00  0.00     0.035 C 
ATOM     10  C13 ZIN A   1      17.986   3.610  12.400  0.00  0.00    -0.072 C 
ATOM     11  C14 ZIN A   1      16.966   4.432  12.155  0.00  0.00     0.053 C 
ATOM     12  C15 ZIN A   1      16.720   4.922  10.796  0.00  0.00     0.149 C 
ATOM     13  O16 ZIN A   1      15.634   5.341  10.455  0.00  0.00    -0.293 OA
ATOM     14  C17 ZIN A   1      17.895   4.877   9.837  0.00  0.00     0.084 C 
ATOM     15  C18 ZIN A   1      18.496   3.475   9.921  0.00  0.00     0.017 C 
ATOM     16  C19 ZIN A   1      18.934   3.131  11.333  0.00  0.00     0.019 C 
ATOM     17  C21 ZIN A   1      19.040   1.608  11.476  0.00  0.00    -0.002 C 
ATOM     18  C23 ZIN A   1      20.003   0.988  10.470  0.00  0.00     0.006 C 
ATOM     19  C24 ZIN A   1      19.788  -0.540  10.480  0.00  0.00     0.014 C 
ATOM     20  C25 ZIN A   1      19.225  -0.921  11.812  0.00  0.00     0.006 C 
ENDROOT
BRANCH   3  21
ATOM     21  O4  ZIN A   1      20.571  -2.927  11.579  0.00  0.00    -0.377 OA
ATOM     22  H29 ZIN A   1      21.388  -2.466  11.814  0.00  0.00     0.211 HD
ENDBRANCH   3  21
BRANCH  20  23
ATOM     23  C26 ZIN A   1      17.745  -0.536  11.874  0.00  0.00     0.009 C 
ATOM     24  C27 ZIN A   1      17.178  -0.465  10.455  0.00  0.00     0.006 C 
ENDBRANCH  20  23
TORSDOF 2
ENDMDL
MODEL 9
REMARK VINA RESULT:      -7.2      4.125      6.549
REMARK  2 active torsions:
REMARK  status: ('A' for Active; 'I' for Inactive)
REMARK    1  A    between atoms: C3_3  and  O4_4 
REMARK    2  A    between atoms: C25_21  and  C26_22 
ROOT
ATOM      1  C1  ZIN A   1      17.580  -3.903   4.178  0.00  0.00     0.015 C 
ATOM      2  C2  ZIN A   1      17.721  -4.818   4.900  0.00  0.00    -0.078 C 
ATOM      3  C3  ZIN A   1      17.896  -5.966   5.804  0.00  0.00     0.128 C 
ATOM      4  C5  ZIN A   1      16.543  -6.679   6.033  0.00  0.00     0.052 C 
ATOM      5  C6  ZIN A   1      16.280  -6.644   7.560  0.00  0.00     0.010 C 
ATOM      6  C7  ZIN A   1      17.686  -6.492   8.158  0.00  0.00     0.002 C 
ATOM      7  C9  ZIN A   1      17.719  -5.920   9.555  0.00  0.00    -0.005 C 
ATOM      8  C11 ZIN A   1      16.436  -5.199   9.954  0.00  0.00     0.010 C 
ATOM      9  C12 ZIN A   1      16.550  -4.799  11.430  0.00  0.00     0.035 C 
ATOM     10  C13 ZIN A   1      17.834  -4.024  11.658  0.00  0.00    -0.072 C 
ATOM     11  C14 ZIN A   1      17.760  -2.897  12.365  0.00  0.00     0.053 C 
ATOM     12  C15 ZIN A   1      18.969  -2.111  12.631  0.00  0.00     0.149 C 
ATOM     13  O16 ZIN A   1      18.914  -0.934  12.921  0.00  0.00    -0.293 OA
ATOM     14  C17 ZIN A   1      20.291  -2.846  12.526  0.00  0.00     0.084 C 
ATOM     15  C18 ZIN A   1      20.289  -3.597  11.196  0.00  0.00     0.017 C 
ATOM     16  C19 ZIN A   1      19.122  -4.562  11.093  0.00  0.00     0.019 C 
ATOM     17  C21 ZIN A   1      18.863  -4.892   9.618  0.00  0.00    -0.002 C 
ATOM     18  C23 ZIN A   1      20.086  -5.483   8.924  0.00  0.00     0.006 C 
ATOM     19  C24 ZIN A   1      19.826  -5.469   7.403  0.00  0.00     0.014 C 
ATOM     20  C25 ZIN A   1      18.347  -5.486   7.185  0.00  0.00     0.006 C 
ENDROOT
BRANCH   3  21
ATOM     21  O4  ZIN A   1      18.852  -6.879   5.262  0.00  0.00    -0.377 OA
ATOM     22  H29 ZIN A   1      18.554  -7.798   5.249  0.00  0.00     0.211 HD
ENDBRANCH   3  21
BRANCH  20  23
ATOM     23  C26 ZIN A   1      17.768  -4.099   7.473  0.00  0.00     0.009 C 
ATOM     24  C27 ZIN A   1      18.845  -3.039   7.235  0.00  0.00     0.006 C 
ENDBRANCH  20  23
TORSDOF 2
ENDMDL
