MODEL 1
REMARK VINA RESULT:      -6.2      0.000      0.000
REMARK  1 active torsions:
REMARK  status: ('A' for Active; 'I' for Inactive)
REMARK    1  A    between atoms: C4_3  and  C6_4 
ROOT
ATOM      1  C1  ZIN A   1      20.132   0.803  11.757  0.00  0.00     0.043 C 
ATOM      2  C2  ZIN A   1      19.468   2.175  11.621  0.00  0.00     0.217 C 
ATOM      3  C4  ZIN A   1      18.059   2.007  11.047  0.00  0.00     0.184 C 
ATOM      4  O12 ZIN A   1      17.424   3.286  10.975  0.00  0.00    -0.377 OA
ATOM      5  C13 ZIN A   1      17.339   3.957  12.235  0.00  0.00     0.196 C 
ATOM      6  C14 ZIN A   1      18.747   4.129  12.811  0.00  0.00     0.261 C 
ATOM      7  N15 ZIN A   1      19.384   2.812  12.943  0.00  0.00    -0.066 N 
ATOM      8  H16 ZIN A   1      20.312   2.924  13.323  0.00  0.00     0.280 HD
ATOM      9  C17 ZIN A   1      18.585   1.969  13.842  0.00  0.00     0.270 C 
ENDROOT
BRANCH   3  10
ATOM     10  C6  ZIN A   1      18.146   1.407   9.668  0.00  0.00    -0.027 A 
ATOM     11  C11 ZIN A   1      18.967   1.981   8.715  0.00  0.00     0.010 A 
ATOM     12  C10 ZIN A   1      19.050   1.428   7.451  0.00  0.00     0.001 A 
ATOM     13  C9  ZIN A   1      18.305   0.307   7.137  0.00  0.00     0.000 A 
ATOM     14  C8  ZIN A   1      17.480  -0.263   8.088  0.00  0.00     0.001 A 
ATOM     15  C7  ZIN A   1      17.400   0.286   9.353  0.00  0.00     0.010 A 
ENDBRANCH   3  10
TORSDOF 1
ENDMDL
MODEL 2
REMARK VINA RESULT:      -6.2      1.273      2.085
REMARK  1 active torsions:
REMARK  status: ('A' for Active; 'I' for Inactive)
REMARK    1  A    between atoms: C4_3  and  C6_4 
ROOT
ATOM      1  C1  ZIN A   1      17.764   3.933  10.146  0.00  0.00     0.043 C 
ATOM      2  C2  ZIN A   1      17.952   2.745  11.091  0.00  0.00     0.217 C 
ATOM      3  C4  ZIN A   1      19.064   1.838  10.557  0.00  0.00     0.184 C 
ATOM      4  O12 ZIN A   1      19.273   0.759  11.473  0.00  0.00    -0.377 OA
ATOM      5  C13 ZIN A   1      19.612   1.186  12.796  0.00  0.00     0.196 C 
ATOM      6  C14 ZIN A   1      18.500   2.091  13.333  0.00  0.00     0.261 C 
ATOM      7  N15 ZIN A   1      18.321   3.234  12.427  0.00  0.00    -0.066 N 
ATOM      8  H16 ZIN A   1      17.588   3.831  12.781  0.00  0.00     0.280 HD
ATOM      9  C17 ZIN A   1      19.575   3.993  12.342  0.00  0.00     0.270 C 
ENDROOT
BRANCH   3  10
ATOM     10  C6  ZIN A   1      18.664   1.289   9.213  0.00  0.00    -0.027 A 
ATOM     11  C11 ZIN A   1      19.321   1.707   8.071  0.00  0.00     0.010 A 
ATOM     12  C10 ZIN A   1      18.956   1.199   6.838  0.00  0.00     0.001 A 
ATOM     13  C9  ZIN A   1      17.928   0.280   6.747  0.00  0.00     0.000 A 
ATOM     14  C8  ZIN A   1      17.267  -0.134   7.888  0.00  0.00     0.001 A 
ATOM     15  C7  ZIN A   1      17.635   0.370   9.121  0.00  0.00     0.010 A 
ENDBRANCH   3  10
TORSDOF 1
ENDMDL
MODEL 3
REMARK VINA RESULT:      -5.9      2.207      4.811
REMARK  1 active torsions:
REMARK  status: ('A' for Active; 'I' for Inactive)
REMARK    1  A    between atoms: C4_3  and  C6_4 
ROOT
ATOM      1  C1  ZIN A   1      17.570   0.075  10.795  0.00  0.00     0.043 C 
ATOM      2  C2  ZIN A   1      17.660   0.674   9.390  0.00  0.00     0.217 C 
ATOM      3  C4  ZIN A   1      18.926   1.527   9.279  0.00  0.00     0.184 C 
ATOM      4  O12 ZIN A   1      19.033   2.039   7.947  0.00  0.00    -0.377 OA
ATOM      5  C13 ZIN A   1      19.064   1.022   6.942  0.00  0.00     0.196 C 
ATOM      6  C14 ZIN A   1      17.798   0.168   7.050  0.00  0.00     0.261 C 
ATOM      7  N15 ZIN A   1      17.712  -0.409   8.398  0.00  0.00    -0.066 N 
ATOM      8  H16 ZIN A   1      16.878  -0.972   8.469  0.00  0.00     0.280 HD
ATOM      9  C17 ZIN A   1      18.893  -1.246   8.649  0.00  0.00     0.270 C 
ENDROOT
BRANCH   3  10
ATOM     10  C6  ZIN A   1      18.849   2.672  10.255  0.00  0.00    -0.027 A 
ATOM     11  C11 ZIN A   1      19.800   2.798  11.249  0.00  0.00     0.010 A 
ATOM     12  C10 ZIN A   1      19.732   3.852  12.142  0.00  0.00     0.001 A 
ATOM     13  C9  ZIN A   1      18.706   4.773  12.046  0.00  0.00     0.000 A 
ATOM     14  C8  ZIN A   1      17.752   4.644  11.055  0.00  0.00     0.001 A 
ATOM     15  C7  ZIN A   1      17.822   3.593  10.159  0.00  0.00     0.010 A 
ENDBRANCH   3  10
TORSDOF 1
ENDMDL
MODEL 4
REMARK VINA RESULT:      -5.8      2.489      5.210
REMARK  1 active torsions:
REMARK  status: ('A' for Active; 'I' for Inactive)
REMARK    1  A    between atoms: C4_3  and  C6_4 
ROOT
ATOM      1  C1  ZIN A   1      16.996  -0.432  11.569  0.00  0.00     0.043 C 
ATOM      2  C2  ZIN A   1      17.438   0.996  11.894  0.00  0.00     0.217 C 
ATOM      3  C4  ZIN A   1      18.756   0.959  12.673  0.00  0.00     0.184 C 
ATOM      4  O12 ZIN A   1      19.193   2.297  12.925  0.00  0.00    -0.377 OA
ATOM      5  C13 ZIN A   1      19.372   3.076  11.740  0.00  0.00     0.196 C 
ATOM      6  C14 ZIN A   1      18.055   3.117  10.959  0.00  0.00     0.261 C 
ATOM      7  N15 ZIN A   1      17.631   1.747  10.645  0.00  0.00    -0.066 N 
ATOM      8  H16 ZIN A   1      16.763   1.773  10.131  0.00  0.00     0.280 HD
ATOM      9  C17 ZIN A   1      18.663   1.088   9.833  0.00  0.00     0.270 C 
ENDROOT
BRANCH   3  10
ATOM     10  C6  ZIN A   1      18.547   0.240  13.981  0.00  0.00    -0.027 A 
ATOM     11  C11 ZIN A   1      19.323  -0.858  14.298  0.00  0.00     0.010 A 
ATOM     12  C10 ZIN A   1      19.135  -1.514  15.500  0.00  0.00     0.001 A 
ATOM     13  C9  ZIN A   1      18.164  -1.077  16.380  0.00  0.00     0.000 A 
ATOM     14  C8  ZIN A   1      17.384   0.019  16.061  0.00  0.00     0.001 A 
ATOM     15  C7  ZIN A   1      17.575   0.678  14.862  0.00  0.00     0.010 A 
ENDBRANCH   3  10
TORSDOF 1
ENDMDL
MODEL 5
REMARK VINA RESULT:      -5.7      3.534      6.116
REMARK  1 active torsions:
REMARK  status: ('A' for Active; 'I' for Inactive)
REMARK    1  A    between atoms: C4_3  and  C6_4 
ROOT
ATOM      1  C1  ZIN A   1      20.354  -0.314  11.059  0.00  0.00     0.043 C 
ATOM      2  C2  ZIN A   1      19.691  -1.692  11.111  0.00  0.00     0.217 C 
ATOM      3  C4  ZIN A   1      18.246  -1.546  11.595  0.00  0.00     0.184 C 
ATOM      4  O12 ZIN A   1      17.614  -2.829  11.588  0.00  0.00    -0.377 OA
ATOM      5  C13 ZIN A   1      17.616  -3.463  10.306  0.00  0.00     0.196 C 
ATOM      6  C14 ZIN A   1      19.060  -3.613   9.820  0.00  0.00     0.261 C 
ATOM      7  N15 ZIN A   1      19.697  -2.290   9.768  0.00  0.00    -0.066 N 
ATOM      8  H16 ZIN A   1      20.649  -2.388   9.448  0.00  0.00     0.280 HD
ATOM      9  C17 ZIN A   1      18.954  -1.424   8.843  0.00  0.00     0.270 C 
ENDROOT
BRANCH   3  10
ATOM     10  C6  ZIN A   1      18.238  -0.987  12.994  0.00  0.00    -0.027 A 
ATOM     11  C11 ZIN A   1      18.904  -1.650  14.008  0.00  0.00     0.010 A 
ATOM     12  C10 ZIN A   1      18.900  -1.135  15.290  0.00  0.00     0.001 A 
ATOM     13  C9  ZIN A   1      18.223   0.039  15.561  0.00  0.00     0.000 A 
ATOM     14  C8  ZIN A   1      17.554   0.700  14.549  0.00  0.00     0.001 A 
ATOM     15  C7  ZIN A   1      17.561   0.188  13.265  0.00  0.00     0.010 A 
ENDBRANCH   3  10
TORSDOF 1
ENDMDL
MODEL 6
REMARK VINA RESULT:      -5.6      1.640      2.360
REMARK  1 active torsions:
REMARK  status: ('A' for Active; 'I' for Inactive)
REMARK    1  A    between atoms: C4_3  and  C6_4 
ROOT
ATOM      1  C1  ZIN A   1      19.802  -1.490  10.658  0.00  0.00     0.043 C 
ATOM      2  C2  ZIN A   1      19.481  -0.107  11.230  0.00  0.00     0.217 C 
ATOM      3  C4  ZIN A   1      18.121   0.359  10.705  0.00  0.00     0.184 C 
ATOM      4  O12 ZIN A   1      17.801   1.627  11.286  0.00  0.00    -0.377 OA
ATOM      5  C13 ZIN A   1      17.771   1.612  12.716  0.00  0.00     0.196 C 
ATOM      6  C14 ZIN A   1      19.131   1.148  13.244  0.00  0.00     0.261 C 
ATOM      7  N15 ZIN A   1      19.439  -0.181  12.697  0.00  0.00    -0.066 N 
ATOM      8  H16 ZIN A   1      20.336  -0.487  13.045  0.00  0.00     0.280 HD
ATOM      9  C17 ZIN A   1      18.400  -1.133  13.110  0.00  0.00     0.270 C 
ENDROOT
BRANCH   3  10
ATOM     10  C6  ZIN A   1      18.178   0.491   9.206  0.00  0.00    -0.027 A 
ATOM     11  C11 ZIN A   1      17.336  -0.265   8.412  0.00  0.00     0.010 A 
ATOM     12  C10 ZIN A   1      17.386  -0.140   7.036  0.00  0.00     0.001 A 
ATOM     13  C9  ZIN A   1      18.284   0.734   6.454  0.00  0.00     0.000 A 
ATOM     14  C8  ZIN A   1      19.129   1.486   7.247  0.00  0.00     0.001 A 
ATOM     15  C7  ZIN A   1      19.077   1.365   8.623  0.00  0.00     0.010 A 
ENDBRANCH   3  10
TORSDOF 1
ENDMDL
MODEL 7
REMARK VINA RESULT:      -5.6      2.135      4.734
REMARK  1 active torsions:
REMARK  status: ('A' for Active; 'I' for Inactive)
REMARK    1  A    between atoms: C4_3  and  C6_4 
ROOT
ATOM      1  C1  ZIN A   1      19.252   1.740   8.058  0.00  0.00     0.043 C 
ATOM      2  C2  ZIN A   1      19.245   0.674   9.156  0.00  0.00     0.217 C 
ATOM      3  C4  ZIN A   1      18.112   0.965  10.142  0.00  0.00     0.184 C 
ATOM      4  O12 ZIN A   1      18.075  -0.065  11.135  0.00  0.00    -0.377 OA
ATOM      5  C13 ZIN A   1      17.901  -1.378  10.594  0.00  0.00     0.196 C 
ATOM      6  C14 ZIN A   1      19.034  -1.672   9.608  0.00  0.00     0.261 C 
ATOM      7  N15 ZIN A   1      19.040  -0.650   8.552  0.00  0.00    -0.066 N 
ATOM      8  H16 ZIN A   1      19.787  -0.844   7.902  0.00  0.00     0.280 HD
ATOM      9  C17 ZIN A   1      17.754  -0.671   7.843  0.00  0.00     0.270 C 
ENDROOT
BRANCH   3  10
ATOM     10  C6  ZIN A   1      18.350   2.296  10.805  0.00  0.00    -0.027 A 
ATOM     11  C11 ZIN A   1      19.528   2.527  11.490  0.00  0.00     0.010 A 
ATOM     12  C10 ZIN A   1      19.749   3.751  12.094  0.00  0.00     0.001 A 
ATOM     13  C9  ZIN A   1      18.787   4.740  12.021  0.00  0.00     0.000 A 
ATOM     14  C8  ZIN A   1      17.607   4.508  11.341  0.00  0.00     0.001 A 
ATOM     15  C7  ZIN A   1      17.388   3.286  10.733  0.00  0.00     0.010 A 
ENDBRANCH   3  10
TORSDOF 1
ENDMDL
MODEL 8
REMARK VINA RESULT:      -5.5      2.728      4.199
REMARK  1 active torsions:
REMARK  status: ('A' for Active; 'I' for Inactive)
REMARK    1  A    between atoms: C4_3  and  C6_4 
ROOT
ATOM      1  C1  ZIN A   1      20.574   0.223  11.764  0.00  0.00     0.043 C 
ATOM      2  C2  ZIN A   1      19.872   0.319  13.120  0.00  0.00     0.217 C 
ATOM      3  C4  ZIN A   1      18.411   0.723  12.911  0.00  0.00     0.184 C 
ATOM      4  O12 ZIN A   1      17.745   0.756  14.178  0.00  0.00    -0.377 OA
ATOM      5  C13 ZIN A   1      17.791  -0.486  14.884  0.00  0.00     0.196 C 
ATOM      6  C14 ZIN A   1      19.252  -0.892  15.096  0.00  0.00     0.261 C 
ATOM      7  N15 ZIN A   1      19.926  -0.986  13.794  0.00  0.00    -0.066 N 
ATOM      8  H16 ZIN A   1      20.889  -1.254  13.933  0.00  0.00     0.280 HD
ATOM      9  C17 ZIN A   1      19.252  -1.993  12.964  0.00  0.00     0.270 C 
ENDROOT
BRANCH   3  10
ATOM     10  C6  ZIN A   1      18.351   2.087  12.274  0.00  0.00    -0.027 A 
ATOM     11  C11 ZIN A   1      17.810   2.237  11.011  0.00  0.00     0.010 A 
ATOM     12  C10 ZIN A   1      17.752   3.489  10.428  0.00  0.00     0.001 A 
ATOM     13  C9  ZIN A   1      18.243   4.589  11.104  0.00  0.00     0.000 A 
ATOM     14  C8  ZIN A   1      18.790   4.438  12.365  0.00  0.00     0.001 A 
ATOM     15  C7  ZIN A   1      18.844   3.187  12.950  0.00  0.00     0.010 A 
ENDBRANCH   3  10
TORSDOF 1
ENDMDL
MODEL 9
REMARK VINA RESULT:      -5.4      2.352      4.634
REMARK  1 active torsions:
REMARK  status: ('A' for Active; 'I' for Inactive)
REMARK    1  A    between atoms: C4_3  and  C6_4 
ROOT
ATOM      1  C1  ZIN A   1      17.195  -0.067  12.150  0.00  0.00     0.043 C 
ATOM      2  C2  ZIN A   1      17.600  -0.081  10.674  0.00  0.00     0.217 C 
ATOM      3  C4  ZIN A   1      18.930   0.658  10.503  0.00  0.00     0.184 C 
ATOM      4  O12 ZIN A   1      19.332   0.593   9.132  0.00  0.00    -0.377 OA
ATOM      5  C13 ZIN A   1      19.470  -0.742   8.636  0.00  0.00     0.196 C 
ATOM      6  C14 ZIN A   1      18.141  -1.483   8.805  0.00  0.00     0.261 C 
ATOM      7  N15 ZIN A   1      17.752  -1.471  10.221  0.00  0.00    -0.066 N 
ATOM      8  H16 ZIN A   1      16.876  -1.959  10.333  0.00  0.00     0.280 HD
ATOM      9  C17 ZIN A   1      18.790  -2.136  11.020  0.00  0.00     0.270 C 
ENDROOT
BRANCH   3  10
ATOM     10  C6  ZIN A   1      18.762   2.098  10.913  0.00  0.00    -0.027 A 
ATOM     11  C11 ZIN A   1      17.752   2.861  10.358  0.00  0.00     0.010 A 
ATOM     12  C10 ZIN A   1      17.595   4.181  10.737  0.00  0.00     0.001 A 
ATOM     13  C9  ZIN A   1      18.454   4.740  11.664  0.00  0.00     0.000 A 
ATOM     14  C8  ZIN A   1      19.467   3.978  12.215  0.00  0.00     0.001 A 
ATOM     15  C7  ZIN A   1      19.622   2.657  11.840  0.00  0.00     0.010 A 
ENDBRANCH   3  10
TORSDOF 1
ENDMDL
