MODEL 1
REMARK VINA RESULT:      -9.0      0.000      0.000
REMARK  5 active torsions:
REMARK  status: ('A' for Active; 'I' for Inactive)
REMARK       I    between atoms: N2_2  and  C3_3 
REMARK    1  A    between atoms: C3_3  and  C5_5 
REMARK    2  A    between atoms: C10_10  and  S11_11 
REMARK    3  A    between atoms: S11_11  and  C12_12 
REMARK    4  A    between atoms: C16_16  and  C17_17 
REMARK    5  A    between atoms: C18_18  and  C19_19 
ROOT
ATOM      1  C12 <0> d   1      18.665   0.100  13.133  0.00  0.00     0.007 A 
ATOM      2  C13 <0> d   1      17.391  -0.264  12.691  0.00  0.00     0.020 A 
ATOM      3  C14 <0> d   1      17.221  -1.365  11.903  0.00  0.00     0.017 A 
ATOM      4  C15 <0> d   1      18.326  -2.135  11.533  0.00  0.00     0.022 A 
ATOM      5  C16 <0> d   1      18.493  -3.346  10.719  0.00  0.00     0.089 A 
ATOM      6  N25 <0> d   1      19.775  -3.639  10.705  0.00  0.00    -0.174 NA
ATOM      7  N26 <0> d   1      20.486  -2.701  11.460  0.00  0.00    -0.277 N 
ATOM      8  C27 <0> d   1      19.613  -1.775  11.973  0.00  0.00     0.064 A 
ATOM      9  C28 <0> d   1      19.773  -0.646  12.771  0.00  0.00     0.051 A 
ATOM     10  H45 <0> d   1      21.446  -2.705  11.600  0.00  0.00     0.189 HD
ENDROOT
BRANCH   1  11
ATOM     11  S11 <0> d   1      18.863   1.525  14.150  0.00  0.00    -0.089 SA
BRANCH  11  12
ATOM     12  C10 <0> d   1      18.981   0.841  15.770  0.00  0.00     0.021 A 
ATOM     13  C5  <0> d   1      19.137   1.685  16.882  0.00  0.00     0.049 A 
ATOM     14  C6  <0> d   1      19.229   1.130  18.161  0.00  0.00     0.018 A 
ATOM     15  C7  <0> d   1      19.172  -0.237  18.323  0.00  0.00     0.001 A 
ATOM     16  C8  <0> d   1      19.025  -1.068  17.222  0.00  0.00     0.001 A 
ATOM     17  C9  <0> d   1      18.932  -0.535  15.953  0.00  0.00     0.020 A 
BRANCH  13  18
ATOM     18  C3  <0> d   1      19.196   3.147  16.703  0.00  0.00     0.252 C 
ATOM     19  N2  <0> d   1      18.059   3.855  16.558  0.00  0.00    -0.361 N 
ATOM     20  C1  <0> d   1      18.117   5.308  16.380  0.00  0.00     0.149 C 
ATOM     21  H32 <0> d   1      17.201   3.402  16.571  0.00  0.00     0.162 HD
ATOM     22  O4  <0> d   1      20.272   3.714  16.686  0.00  0.00    -0.268 OA
ENDBRANCH  13  18
ENDBRANCH  11  12
ENDBRANCH   1  11
BRANCH   5  23
ATOM     23  C17 <0> d   1      17.423  -4.094  10.042  0.00  0.00     0.036 C 
ATOM     24  C18 <0> d   1      17.665  -5.326   9.559  0.00  0.00     0.034 C 
BRANCH  24  25
ATOM     25  C19 <0> d   1      16.594  -6.075   8.881  0.00  0.00     0.056 A 
ATOM     26  N24 <0> d   1      15.377  -5.544   8.783  0.00  0.00    -0.261 NA
ATOM     27  C23 <0> d   1      14.395  -6.181   8.179  0.00  0.00     0.117 A 
ATOM     28  C22 <0> d   1      14.590  -7.436   7.634  0.00  0.00     0.019 A 
ATOM     29  C21 <0> d   1      15.843  -8.030   7.718  0.00  0.00     0.004 A 
ATOM     30  C20 <0> d   1      16.860  -7.340   8.352  0.00  0.00     0.031 A 
ENDBRANCH  24  25
ENDBRANCH   5  23
TORSDOF 5
ENDMDL
MODEL 2
REMARK VINA RESULT:      -8.9      4.322      9.957
REMARK  5 active torsions:
REMARK  status: ('A' for Active; 'I' for Inactive)
REMARK       I    between atoms: N2_2  and  C3_3 
REMARK    1  A    between atoms: C3_3  and  C5_5 
REMARK    2  A    between atoms: C10_10  and  S11_11 
REMARK    3  A    between atoms: S11_11  and  C12_12 
REMARK    4  A    between atoms: C16_16  and  C17_17 
REMARK    5  A    between atoms: C18_18  and  C19_19 
ROOT
ATOM      1  C12 <0> d   1      18.287  -1.542   9.864  0.00  0.00     0.007 A 
ATOM      2  C13 <0> d   1      17.406  -1.113  10.858  0.00  0.00     0.020 A 
ATOM      3  C14 <0> d   1      17.862  -0.391  11.922  0.00  0.00     0.017 A 
ATOM      4  C15 <0> d   1      19.219  -0.077  12.021  0.00  0.00     0.022 A 
ATOM      5  C16 <0> d   1      20.021   0.664  13.004  0.00  0.00     0.089 A 
ATOM      6  N25 <0> d   1      21.269   0.648  12.588  0.00  0.00    -0.174 NA
ATOM      7  N26 <0> d   1      21.360  -0.056  11.384  0.00  0.00    -0.277 N 
ATOM      8  C27 <0> d   1      20.114  -0.506  11.024  0.00  0.00     0.064 A 
ATOM      9  C28 <0> d   1      19.637  -1.248   9.948  0.00  0.00     0.051 A 
ATOM     10  H45 <0> d   1      22.176  -0.204  10.881  0.00  0.00     0.189 HD
ENDROOT
BRANCH   1  11
ATOM     11  S11 <0> d   1      17.678  -2.475   8.499  0.00  0.00    -0.089 SA
BRANCH  11  12
ATOM     12  C10 <0> d   1      18.217  -1.537   7.108  0.00  0.00     0.021 A 
ATOM     13  C5  <0> d   1      19.020  -2.134   6.122  0.00  0.00     0.049 A 
ATOM     14  C6  <0> d   1      19.439  -1.379   5.024  0.00  0.00     0.018 A 
ATOM     15  C7  <0> d   1      19.069  -0.056   4.917  0.00  0.00     0.001 A 
ATOM     16  C8  <0> d   1      18.282   0.533   5.896  0.00  0.00     0.001 A 
ATOM     17  C9  <0> d   1      17.859  -0.200   6.986  0.00  0.00     0.020 A 
BRANCH  13  18
ATOM     18  C3  <0> d   1      19.412  -3.550   6.241  0.00  0.00     0.252 C 
ATOM     19  N2  <0> d   1      20.402  -3.907   7.082  0.00  0.00    -0.361 N 
ATOM     20  C1  <0> d   1      20.792  -5.314   7.201  0.00  0.00     0.149 C 
ATOM     21  H32 <0> d   1      20.858  -3.231   7.609  0.00  0.00     0.162 HD
ATOM     22  O4  <0> d   1      18.840  -4.396   5.581  0.00  0.00    -0.268 OA
ENDBRANCH  13  18
ENDBRANCH  11  12
ENDBRANCH   1  11
BRANCH   5  23
ATOM     23  C17 <0> d   1      19.522   1.305  14.230  0.00  0.00     0.036 C 
ATOM     24  C18 <0> d   1      19.125   0.550  15.270  0.00  0.00     0.034 C 
BRANCH  24  25
ATOM     25  C19 <0> d   1      18.625   1.193  16.498  0.00  0.00     0.056 A 
ATOM     26  N24 <0> d   1      18.853   2.487  16.705  0.00  0.00    -0.261 NA
ATOM     27  C23 <0> d   1      18.417   3.098  17.788  0.00  0.00     0.117 A 
ATOM     28  C22 <0> d   1      17.712   2.410  18.757  0.00  0.00     0.019 A 
ATOM     29  C21 <0> d   1      17.456   1.056  18.584  0.00  0.00     0.004 A 
ATOM     30  C20 <0> d   1      17.919   0.437  17.438  0.00  0.00     0.031 A 
ENDBRANCH  24  25
ENDBRANCH   5  23
TORSDOF 5
ENDMDL
MODEL 3
REMARK VINA RESULT:      -8.9      3.059      3.401
REMARK  5 active torsions:
REMARK  status: ('A' for Active; 'I' for Inactive)
REMARK       I    between atoms: N2_2  and  C3_3 
REMARK    1  A    between atoms: C3_3  and  C5_5 
REMARK    2  A    between atoms: C10_10  and  S11_11 
REMARK    3  A    between atoms: S11_11  and  C12_12 
REMARK    4  A    between atoms: C16_16  and  C17_17 
REMARK    5  A    between atoms: C18_18  and  C19_19 
ROOT
ATOM      1  C12 <0> d   1      18.466   1.431  13.126  0.00  0.00     0.007 A 
ATOM      2  C13 <0> d   1      17.449   1.284  12.181  0.00  0.00     0.020 A 
ATOM      3  C14 <0> d   1      17.706   0.703  10.974  0.00  0.00     0.017 A 
ATOM      4  C15 <0> d   1      18.995   0.253  10.677  0.00  0.00     0.022 A 
ATOM      5  C16 <0> d   1      19.598  -0.400   9.508  0.00  0.00     0.089 A 
ATOM      6  N25 <0> d   1      20.869  -0.602   9.780  0.00  0.00    -0.174 NA
ATOM      7  N26 <0> d   1      21.162  -0.127  11.061  0.00  0.00    -0.277 N 
ATOM      8  C27 <0> d   1      20.025   0.398  11.623  0.00  0.00     0.064 A 
ATOM      9  C28 <0> d   1      19.751   0.998  12.849  0.00  0.00     0.051 A 
ATOM     10  H45 <0> d   1      22.032  -0.164  11.488  0.00  0.00     0.189 HD
ENDROOT
BRANCH   1  11
ATOM     11  S11 <0> d   1      18.114   2.184  14.680  0.00  0.00    -0.089 SA
BRANCH  11  12
ATOM     12  C10 <0> d   1      18.549   0.928  15.836  0.00  0.00     0.021 A 
ATOM     13  C5  <0> d   1      18.890   1.271  17.155  0.00  0.00     0.049 A 
ATOM     14  C6  <0> d   1      19.233   0.266  18.062  0.00  0.00     0.018 A 
ATOM     15  C7  <0> d   1      19.242  -1.052  17.658  0.00  0.00     0.001 A 
ATOM     16  C8  <0> d   1      18.911  -1.386  16.353  0.00  0.00     0.001 A 
ATOM     17  C9  <0> d   1      18.570  -0.405  15.445  0.00  0.00     0.020 A 
BRANCH  13  18
ATOM     18  C3  <0> d   1      18.878   2.682  17.582  0.00  0.00     0.252 C 
ATOM     19  N2  <0> d   1      17.760   3.218  18.108  0.00  0.00    -0.361 N 
ATOM     20  C1  <0> d   1      17.748   4.620  18.534  0.00  0.00     0.149 C 
ATOM     21  H32 <0> d   1      16.961   2.675  18.206  0.00  0.00     0.162 HD
ATOM     22  O4  <0> d   1      19.879   3.362  17.461  0.00  0.00    -0.268 OA
ENDBRANCH  13  18
ENDBRANCH  11  12
ENDBRANCH   1  11
BRANCH   5  23
ATOM     23  C17 <0> d   1      18.909  -0.761   8.260  0.00  0.00     0.036 C 
ATOM     24  C18 <0> d   1      19.285  -1.856   7.575  0.00  0.00     0.034 C 
BRANCH  24  25
ATOM     25  C19 <0> d   1      18.594  -2.217   6.326  0.00  0.00     0.056 A 
ATOM     26  N24 <0> d   1      18.527  -3.493   5.954  0.00  0.00    -0.261 NA
ATOM     27  C23 <0> d   1      17.913  -3.856   4.847  0.00  0.00     0.117 A 
ATOM     28  C22 <0> d   1      17.323  -2.918   4.021  0.00  0.00     0.019 A 
ATOM     29  C21 <0> d   1      17.373  -1.574   4.367  0.00  0.00     0.004 A 
ATOM     30  C20 <0> d   1      18.019  -1.218   5.537  0.00  0.00     0.031 A 
ENDBRANCH  24  25
ENDBRANCH   5  23
TORSDOF 5
ENDMDL
MODEL 4
REMARK VINA RESULT:      -8.7      5.527     10.525
REMARK  5 active torsions:
REMARK  status: ('A' for Active; 'I' for Inactive)
REMARK       I    between atoms: N2_2  and  C3_3 
REMARK    1  A    between atoms: C3_3  and  C5_5 
REMARK    2  A    between atoms: C10_10  and  S11_11 
REMARK    3  A    between atoms: S11_11  and  C12_12 
REMARK    4  A    between atoms: C16_16  and  C17_17 
REMARK    5  A    between atoms: C18_18  and  C19_19 
ROOT
ATOM      1  C12 <0> d   1      19.189  -3.176   7.489  0.00  0.00     0.007 A 
ATOM      2  C13 <0> d   1      19.203  -2.587   8.755  0.00  0.00     0.020 A 
ATOM      3  C14 <0> d   1      19.170  -1.229   8.887  0.00  0.00     0.017 A 
ATOM      4  C15 <0> d   1      19.122  -0.420   7.750  0.00  0.00     0.022 A 
ATOM      5  C16 <0> d   1      19.076   1.033   7.539  0.00  0.00     0.089 A 
ATOM      6  N25 <0> d   1      19.041   1.243   6.241  0.00  0.00    -0.174 NA
ATOM      7  N26 <0> d   1      19.059   0.022   5.561  0.00  0.00    -0.277 N 
ATOM      8  C27 <0> d   1      19.108  -1.004   6.471  0.00  0.00     0.064 A 
ATOM      9  C28 <0> d   1      19.149  -2.390   6.350  0.00  0.00     0.051 A 
ATOM     10  H45 <0> d   1      19.039  -0.083   4.597  0.00  0.00     0.189 HD
ENDROOT
BRANCH   1  11
ATOM     11  S11 <0> d   1      19.234  -4.931   7.340  0.00  0.00    -0.089 SA
BRANCH  11  12
ATOM     12  C10 <0> d   1      17.555  -5.393   7.608  0.00  0.00     0.021 A 
ATOM     13  C5  <0> d   1      16.776  -5.872   6.542  0.00  0.00     0.049 A 
ATOM     14  C6  <0> d   1      15.446  -6.236   6.768  0.00  0.00     0.018 A 
ATOM     15  C7  <0> d   1      14.906  -6.117   8.030  0.00  0.00     0.001 A 
ATOM     16  C8  <0> d   1      15.676  -5.637   9.079  0.00  0.00     0.001 A 
ATOM     17  C9  <0> d   1      16.991  -5.275   8.872  0.00  0.00     0.020 A 
BRANCH  13  18
ATOM     18  C3  <0> d   1      17.359  -5.997   5.194  0.00  0.00     0.252 C 
ATOM     19  N2  <0> d   1      17.206  -5.003   4.297  0.00  0.00    -0.361 N 
ATOM     20  C1  <0> d   1      17.786  -5.127   2.958  0.00  0.00     0.149 C 
ATOM     21  H32 <0> d   1      16.711  -4.204   4.539  0.00  0.00     0.162 HD
ATOM     22  O4  <0> d   1      17.980  -6.998   4.891  0.00  0.00    -0.268 OA
ENDBRANCH  13  18
ENDBRANCH  11  12
ENDBRANCH   1  11
BRANCH   5  23
ATOM     23  C17 <0> d   1      19.072   2.065   8.587  0.00  0.00     0.036 C 
ATOM     24  C18 <0> d   1      18.266   1.936   9.656  0.00  0.00     0.034 C 
BRANCH  24  25
ATOM     25  C19 <0> d   1      18.262   2.969  10.705  0.00  0.00     0.056 A 
ATOM     26  N24 <0> d   1      17.133   3.610  10.995  0.00  0.00    -0.261 NA
ATOM     27  C23 <0> d   1      17.088   4.536  11.931  0.00  0.00     0.117 A 
ATOM     28  C22 <0> d   1      18.222   4.885  12.641  0.00  0.00     0.019 A 
ATOM     29  C21 <0> d   1      19.423   4.245  12.367  0.00  0.00     0.004 A 
ATOM     30  C20 <0> d   1      19.444   3.273  11.384  0.00  0.00     0.031 A 
ENDBRANCH  24  25
ENDBRANCH   5  23
TORSDOF 5
ENDMDL
MODEL 5
REMARK VINA RESULT:      -8.6      2.294      3.450
REMARK  5 active torsions:
REMARK  status: ('A' for Active; 'I' for Inactive)
REMARK       I    between atoms: N2_2  and  C3_3 
REMARK    1  A    between atoms: C3_3  and  C5_5 
REMARK    2  A    between atoms: C10_10  and  S11_11 
REMARK    3  A    between atoms: S11_11  and  C12_12 
REMARK    4  A    between atoms: C16_16  and  C17_17 
REMARK    5  A    between atoms: C18_18  and  C19_19 
ROOT
ATOM      1  C12 <0> d   1      18.641  -0.556  12.705  0.00  0.00     0.007 A 
ATOM      2  C13 <0> d   1      17.402  -1.083  12.337  0.00  0.00     0.020 A 
ATOM      3  C14 <0> d   1      17.320  -2.309  11.744  0.00  0.00     0.017 A 
ATOM      4  C15 <0> d   1      18.483  -3.045  11.502  0.00  0.00     0.022 A 
ATOM      5  C16 <0> d   1      18.746  -4.359  10.901  0.00  0.00     0.089 A 
ATOM      6  N25 <0> d   1      20.046  -4.553  10.930  0.00  0.00    -0.174 NA
ATOM      7  N26 <0> d   1      20.679  -3.452  11.513  0.00  0.00    -0.277 N 
ATOM      8  C27 <0> d   1      19.735  -2.521  11.869  0.00  0.00     0.064 A 
ATOM      9  C28 <0> d   1      19.805  -1.266  12.467  0.00  0.00     0.051 A 
ATOM     10  H45 <0> d   1      21.635  -3.360  11.647  0.00  0.00     0.189 HD
ENDROOT
BRANCH   1  11
ATOM     11  S11 <0> d   1      18.725   1.030  13.469  0.00  0.00    -0.089 SA
BRANCH  11  12
ATOM     12  C10 <0> d   1      18.514   2.135  12.112  0.00  0.00     0.021 A 
ATOM     13  C5  <0> d   1      18.386   3.515  12.340  0.00  0.00     0.049 A 
ATOM     14  C6  <0> d   1      18.220   4.380  11.255  0.00  0.00     0.018 A 
ATOM     15  C7  <0> d   1      18.176   3.875   9.974  0.00  0.00     0.001 A 
ATOM     16  C8  <0> d   1      18.296   2.511   9.753  0.00  0.00     0.001 A 
ATOM     17  C9  <0> d   1      18.461   1.644  10.814  0.00  0.00     0.020 A 
BRANCH  13  18
ATOM     18  C3  <0> d   1      18.434   4.049  13.713  0.00  0.00     0.252 C 
ATOM     19  N2  <0> d   1      19.616   4.394  14.261  0.00  0.00    -0.361 N 
ATOM     20  C1  <0> d   1      19.664   4.926  15.625  0.00  0.00     0.149 C 
ATOM     21  H32 <0> d   1      20.435   4.291  13.751  0.00  0.00     0.162 HD
ATOM     22  O4  <0> d   1      17.407   4.178  14.351  0.00  0.00    -0.268 OA
ENDBRANCH  13  18
ENDBRANCH  11  12
ENDBRANCH   1  11
BRANCH   5  23
ATOM     23  C17 <0> d   1      17.740  -5.288  10.364  0.00  0.00     0.036 C 
ATOM     24  C18 <0> d   1      17.245  -5.104   9.127  0.00  0.00     0.034 C 
BRANCH  24  25
ATOM     25  C19 <0> d   1      16.238  -6.034   8.591  0.00  0.00     0.056 A 
ATOM     26  N24 <0> d   1      14.962  -5.661   8.528  0.00  0.00    -0.261 NA
ATOM     27  C23 <0> d   1      14.033  -6.463   8.048  0.00  0.00     0.117 A 
ATOM     28  C22 <0> d   1      14.351  -7.732   7.602  0.00  0.00     0.019 A 
ATOM     29  C21 <0> d   1      15.670  -8.165   7.654  0.00  0.00     0.004 A 
ATOM     30  C20 <0> d   1      16.628  -7.303   8.157  0.00  0.00     0.031 A 
ENDBRANCH  24  25
ENDBRANCH   5  23
TORSDOF 5
ENDMDL
MODEL 6
REMARK VINA RESULT:      -8.6      1.617      1.988
REMARK  5 active torsions:
REMARK  status: ('A' for Active; 'I' for Inactive)
REMARK       I    between atoms: N2_2  and  C3_3 
REMARK    1  A    between atoms: C3_3  and  C5_5 
REMARK    2  A    between atoms: C10_10  and  S11_11 
REMARK    3  A    between atoms: S11_11  and  C12_12 
REMARK    4  A    between atoms: C16_16  and  C17_17 
REMARK    5  A    between atoms: C18_18  and  C19_19 
ROOT
ATOM      1  C12 <0> d   1      19.269  -1.337  12.113  0.00  0.00     0.007 A 
ATOM      2  C13 <0> d   1      17.884  -1.409  11.948  0.00  0.00     0.020 A 
ATOM      3  C14 <0> d   1      17.326  -2.422  11.224  0.00  0.00     0.017 A 
ATOM      4  C15 <0> d   1      18.142  -3.394  10.642  0.00  0.00     0.022 A 
ATOM      5  C16 <0> d   1      17.877  -4.585   9.824  0.00  0.00     0.089 A 
ATOM      6  N25 <0> d   1      19.037  -5.141   9.549  0.00  0.00    -0.174 NA
ATOM      7  N26 <0> d   1      20.070  -4.401  10.131  0.00  0.00    -0.277 N 
ATOM      8  C27 <0> d   1      19.538  -3.329  10.803  0.00  0.00     0.064 A 
ATOM      9  C28 <0> d   1      20.095  -2.287  11.539  0.00  0.00     0.051 A 
ATOM     10  H45 <0> d   1      21.015  -4.611  10.070  0.00  0.00     0.189 HD
ENDROOT
BRANCH   1  11
ATOM     11  S11 <0> d   1      19.969  -0.021  13.052  0.00  0.00    -0.089 SA
BRANCH  11  12
ATOM     12  C10 <0> d   1      19.206  -0.210  14.629  0.00  0.00     0.021 A 
ATOM     13  C5  <0> d   1      18.552   0.878  15.231  0.00  0.00     0.049 A 
ATOM     14  C6  <0> d   1      17.950   0.715  16.481  0.00  0.00     0.018 A 
ATOM     15  C7  <0> d   1      18.007  -0.506  17.118  0.00  0.00     0.001 A 
ATOM     16  C8  <0> d   1      18.660  -1.576  16.524  0.00  0.00     0.001 A 
ATOM     17  C9  <0> d   1      19.259  -1.431  15.289  0.00  0.00     0.020 A 
BRANCH  13  18
ATOM     18  C3  <0> d   1      18.494   2.181  14.545  0.00  0.00     0.252 C 
ATOM     19  N2  <0> d   1      19.338   3.169  14.901  0.00  0.00    -0.361 N 
ATOM     20  C1  <0> d   1      19.281   4.465  14.219  0.00  0.00     0.149 C 
ATOM     21  H32 <0> d   1      19.985   3.022  15.610  0.00  0.00     0.162 HD
ATOM     22  O4  <0> d   1      17.683   2.365  13.657  0.00  0.00    -0.268 OA
ENDBRANCH  13  18
ENDBRANCH  11  12
ENDBRANCH   1  11
BRANCH   5  23
ATOM     23  C17 <0> d   1      16.558  -5.068   9.391  0.00  0.00     0.036 C 
ATOM     24  C18 <0> d   1      16.465  -6.133   8.574  0.00  0.00     0.034 C 
BRANCH  24  25
ATOM     25  C19 <0> d   1      15.143  -6.616   8.141  0.00  0.00     0.056 A 
ATOM     26  N24 <0> d   1      14.074  -5.837   8.288  0.00  0.00    -0.261 NA
ATOM     27  C23 <0> d   1      12.877  -6.231   7.907  0.00  0.00     0.117 A 
ATOM     28  C22 <0> d   1      12.684  -7.481   7.349  0.00  0.00     0.019 A 
ATOM     29  C21 <0> d   1      13.771  -8.329   7.182  0.00  0.00     0.004 A 
ATOM     30  C20 <0> d   1      15.019  -7.891   7.584  0.00  0.00     0.031 A 
ENDBRANCH  24  25
ENDBRANCH   5  23
TORSDOF 5
ENDMDL
MODEL 7
REMARK VINA RESULT:      -8.5      4.961      9.973
REMARK  5 active torsions:
REMARK  status: ('A' for Active; 'I' for Inactive)
REMARK       I    between atoms: N2_2  and  C3_3 
REMARK    1  A    between atoms: C3_3  and  C5_5 
REMARK    2  A    between atoms: C10_10  and  S11_11 
REMARK    3  A    between atoms: S11_11  and  C12_12 
REMARK    4  A    between atoms: C16_16  and  C17_17 
REMARK    5  A    between atoms: C18_18  and  C19_19 
ROOT
ATOM      1  C12 <0> d   1      19.044  -3.423   7.455  0.00  0.00     0.007 A 
ATOM      2  C13 <0> d   1      19.107  -2.805   8.705  0.00  0.00     0.020 A 
ATOM      3  C14 <0> d   1      19.105  -1.444   8.805  0.00  0.00     0.017 A 
ATOM      4  C15 <0> d   1      19.039  -0.661   7.651  0.00  0.00     0.022 A 
ATOM      5  C16 <0> d   1      19.017   0.787   7.406  0.00  0.00     0.089 A 
ATOM      6  N25 <0> d   1      18.946   0.967   6.105  0.00  0.00    -0.174 NA
ATOM      7  N26 <0> d   1      18.920  -0.269   5.455  0.00  0.00    -0.277 N 
ATOM      8  C27 <0> d   1      18.975  -1.275   6.387  0.00  0.00     0.064 A 
ATOM      9  C28 <0> d   1      18.985  -2.664   6.299  0.00  0.00     0.051 A 
ATOM     10  H45 <0> d   1      18.869  -0.398   4.494  0.00  0.00     0.189 HD
ENDROOT
BRANCH   1  11
ATOM     11  S11 <0> d   1      19.049  -5.182   7.348  0.00  0.00    -0.089 SA
BRANCH  11  12
ATOM     12  C10 <0> d   1      17.380  -5.557   6.923  0.00  0.00     0.021 A 
ATOM     13  C5  <0> d   1      16.443  -5.840   7.930  0.00  0.00     0.049 A 
ATOM     14  C6  <0> d   1      15.123  -6.136   7.580  0.00  0.00     0.018 A 
ATOM     15  C7  <0> d   1      14.751  -6.154   6.253  0.00  0.00     0.001 A 
ATOM     16  C8  <0> d   1      15.681  -5.880   5.261  0.00  0.00     0.001 A 
ATOM     17  C9  <0> d   1      16.988  -5.586   5.591  0.00  0.00     0.020 A 
BRANCH  13  18
ATOM     18  C3  <0> d   1      16.846  -5.820   9.348  0.00  0.00     0.252 C 
ATOM     19  N2  <0> d   1      16.623  -4.722  10.096  0.00  0.00    -0.361 N 
ATOM     20  C1  <0> d   1      17.023  -4.701  11.506  0.00  0.00     0.149 C 
ATOM     21  H32 <0> d   1      16.197  -3.944   9.702  0.00  0.00     0.162 HD
ATOM     22  O4  <0> d   1      17.380  -6.794   9.842  0.00  0.00    -0.268 OA
ENDBRANCH  13  18
ENDBRANCH  11  12
ENDBRANCH   1  11
BRANCH   5  23
ATOM     23  C17 <0> d   1      19.064   1.844   8.428  0.00  0.00     0.036 C 
ATOM     24  C18 <0> d   1      18.356   1.713   9.564  0.00  0.00     0.034 C 
BRANCH  24  25
ATOM     25  C19 <0> d   1      18.403   2.771  10.588  0.00  0.00     0.056 A 
ATOM     26  N24 <0> d   1      17.310   3.481  10.855  0.00  0.00    -0.261 NA
ATOM     27  C23 <0> d   1      17.312   4.431  11.767  0.00  0.00     0.117 A 
ATOM     28  C22 <0> d   1      18.459   4.734  12.476  0.00  0.00     0.019 A 
ATOM     29  C21 <0> d   1      19.625   4.022  12.226  0.00  0.00     0.004 A 
ATOM     30  C20 <0> d   1      19.597   3.026  11.267  0.00  0.00     0.031 A 
ENDBRANCH  24  25
ENDBRANCH   5  23
TORSDOF 5
ENDMDL
MODEL 8
REMARK VINA RESULT:      -8.5      4.581      9.913
REMARK  5 active torsions:
REMARK  status: ('A' for Active; 'I' for Inactive)
REMARK       I    between atoms: N2_2  and  C3_3 
REMARK    1  A    between atoms: C3_3  and  C5_5 
REMARK    2  A    between atoms: C10_10  and  S11_11 
REMARK    3  A    between atoms: S11_11  and  C12_12 
REMARK    4  A    between atoms: C16_16  and  C17_17 
REMARK    5  A    between atoms: C18_18  and  C19_19 
ROOT
ATOM      1  C12 <0> d   1      19.316   1.098  10.493  0.00  0.00     0.007 A 
ATOM      2  C13 <0> d   1      18.657   1.174  11.722  0.00  0.00     0.020 A 
ATOM      3  C14 <0> d   1      17.898   2.264  12.033  0.00  0.00     0.017 A 
ATOM      4  C15 <0> d   1      17.778   3.314  11.120  0.00  0.00     0.022 A 
ATOM      5  C16 <0> d   1      17.061   4.596  11.134  0.00  0.00     0.089 A 
ATOM      6  N25 <0> d   1      17.305   5.198   9.991  0.00  0.00    -0.174 NA
ATOM      7  N26 <0> d   1      18.141   4.402   9.203  0.00  0.00    -0.277 N 
ATOM      8  C27 <0> d   1      18.439   3.246   9.880  0.00  0.00     0.064 A 
ATOM      9  C28 <0> d   1      19.215   2.131   9.577  0.00  0.00     0.051 A 
ATOM     10  H45 <0> d   1      18.461   4.630   8.316  0.00  0.00     0.189 HD
ENDROOT
BRANCH   1  11
ATOM     11  S11 <0> d   1      20.291  -0.319  10.110  0.00  0.00    -0.089 SA
BRANCH  11  12
ATOM     12  C10 <0> d   1      19.236  -1.658  10.557  0.00  0.00     0.021 A 
ATOM     13  C5  <0> d   1      18.339  -2.193   9.617  0.00  0.00     0.049 A 
ATOM     14  C6  <0> d   1      17.509  -3.255   9.984  0.00  0.00     0.018 A 
ATOM     15  C7  <0> d   1      17.570  -3.765  11.263  0.00  0.00     0.001 A 
ATOM     16  C8  <0> d   1      18.451  -3.230  12.190  0.00  0.00     0.001 A 
ATOM     17  C9  <0> d   1      19.278  -2.181  11.843  0.00  0.00     0.020 A 
BRANCH  13  18
ATOM     18  C3  <0> d   1      18.279  -1.644   8.251  0.00  0.00     0.252 C 
ATOM     19  N2  <0> d   1      17.377  -0.690   7.947  0.00  0.00    -0.361 N 
ATOM     20  C1  <0> d   1      17.318  -0.143   6.589  0.00  0.00     0.149 C 
ATOM     21  H32 <0> d   1      16.766  -0.366   8.627  0.00  0.00     0.162 HD
ATOM     22  O4  <0> d   1      19.045  -2.051   7.398  0.00  0.00    -0.268 OA
ENDBRANCH  13  18
ENDBRANCH  11  12
ENDBRANCH   1  11
BRANCH   5  23
ATOM     23  C17 <0> d   1      16.225   5.113  12.228  0.00  0.00     0.036 C 
ATOM     24  C18 <0> d   1      16.774   5.869  13.196  0.00  0.00     0.034 C 
BRANCH  24  25
ATOM     25  C19 <0> d   1      15.936   6.387  14.291  0.00  0.00     0.056 A 
ATOM     26  N24 <0> d   1      14.728   5.869  14.499  0.00  0.00    -0.261 NA
ATOM     27  C23 <0> d   1      13.952   6.302  15.471  0.00  0.00     0.117 A 
ATOM     28  C22 <0> d   1      14.363   7.322  16.308  0.00  0.00     0.019 A 
ATOM     29  C21 <0> d   1      15.614   7.895  16.123  0.00  0.00     0.004 A 
ATOM     30  C20 <0> d   1      16.413   7.421  15.099  0.00  0.00     0.031 A 
ENDBRANCH  24  25
ENDBRANCH   5  23
TORSDOF 5
ENDMDL
MODEL 9
REMARK VINA RESULT:      -8.3      4.459     10.518
REMARK  5 active torsions:
REMARK  status: ('A' for Active; 'I' for Inactive)
REMARK       I    between atoms: N2_2  and  C3_3 
REMARK    1  A    between atoms: C3_3  and  C5_5 
REMARK    2  A    between atoms: C10_10  and  S11_11 
REMARK    3  A    between atoms: S11_11  and  C12_12 
REMARK    4  A    between atoms: C16_16  and  C17_17 
REMARK    5  A    between atoms: C18_18  and  C19_19 
ROOT
ATOM      1  C12 <0> d   1      18.301  -1.010  10.055  0.00  0.00     0.007 A 
ATOM      2  C13 <0> d   1      17.398   0.047  10.183  0.00  0.00     0.020 A 
ATOM      3  C14 <0> d   1      17.511   0.931  11.215  0.00  0.00     0.017 A 
ATOM      4  C15 <0> d   1      18.535   0.781  12.153  0.00  0.00     0.022 A 
ATOM      5  C16 <0> d   1      18.934   1.533  13.351  0.00  0.00     0.089 A 
ATOM      6  N25 <0> d   1      19.989   0.934  13.859  0.00  0.00    -0.174 NA
ATOM      7  N26 <0> d   1      20.328  -0.175  13.080  0.00  0.00    -0.277 N 
ATOM      8  C27 <0> d   1      19.449  -0.281  12.032  0.00  0.00     0.064 A 
ATOM      9  C28 <0> d   1      19.318  -1.181  10.977  0.00  0.00     0.051 A 
ATOM     10  H45 <0> d   1      21.071  -0.776  13.251  0.00  0.00     0.189 HD
ENDROOT
BRANCH   1  11
ATOM     11  S11 <0> d   1      18.137  -2.142   8.714  0.00  0.00    -0.089 SA
BRANCH  11  12
ATOM     12  C10 <0> d   1      18.564  -1.162   7.314  0.00  0.00     0.021 A 
ATOM     13  C5  <0> d   1      18.929  -1.778   6.106  0.00  0.00     0.049 A 
ATOM     14  C6  <0> d   1      19.265  -0.989   5.003  0.00  0.00     0.018 A 
ATOM     15  C7  <0> d   1      19.242   0.385   5.108  0.00  0.00     0.001 A 
ATOM     16  C8  <0> d   1      18.888   0.991   6.305  0.00  0.00     0.001 A 
ATOM     17  C9  <0> d   1      18.553   0.225   7.403  0.00  0.00     0.020 A 
BRANCH  13  18
ATOM     18  C3  <0> d   1      18.951  -3.248   5.999  0.00  0.00     0.252 C 
ATOM     19  N2  <0> d   1      17.833  -3.916   5.656  0.00  0.00    -0.361 N 
ATOM     20  C1  <0> d   1      17.854  -5.377   5.549  0.00  0.00     0.149 C 
ATOM     21  H32 <0> d   1      17.012  -3.429   5.479  0.00  0.00     0.162 HD
ATOM     22  O4  <0> d   1      19.980  -3.858   6.221  0.00  0.00    -0.268 OA
ENDBRANCH  13  18
ENDBRANCH  11  12
ENDBRANCH   1  11
BRANCH   5  23
ATOM     23  C17 <0> d   1      18.274   2.734  13.884  0.00  0.00     0.036 C 
ATOM     24  C18 <0> d   1      18.618   3.951  13.425  0.00  0.00     0.034 C 
BRANCH  24  25
ATOM     25  C19 <0> d   1      17.957   5.153  13.959  0.00  0.00     0.056 A 
ATOM     26  N24 <0> d   1      18.692   6.134  14.478  0.00  0.00    -0.261 NA
ATOM     27  C23 <0> d   1      18.138   7.228  14.960  0.00  0.00     0.117 A 
ATOM     28  C22 <0> d   1      16.765   7.391  14.955  0.00  0.00     0.019 A 
ATOM     29  C21 <0> d   1      15.960   6.390  14.428  0.00  0.00     0.004 A 
ATOM     30  C20 <0> d   1      16.565   5.254  13.923  0.00  0.00     0.031 A 
ENDBRANCH  24  25
ENDBRANCH   5  23
TORSDOF 5
ENDMDL
