MODEL 1
REMARK VINA RESULT:      -8.9      0.000      0.000
REMARK  8 active torsions:
REMARK  status: ('A' for Active; 'I' for Inactive)
REMARK    1  A    between atoms: C4_4  and  C5_5 
REMARK    2  A    between atoms: C16_15  and  C18_16 
REMARK    3  A    between atoms: C18_16  and  C21_18 
REMARK    4  A    between atoms: C22_19  and  C23_20 
REMARK    5  A    between atoms: C23_20  and  O25_21 
REMARK    6  A    between atoms: C23_20  and  C26_22 
REMARK    7  A    between atoms: C30_26  and  O32_27 
REMARK    8  A    between atoms: C34_29  and  O36_30 
ROOT
ATOM      1  C5  ZIN A   1      19.154  -2.215   9.168  0.00  0.00     0.004 C 
ATOM      2  C6  ZIN A   1      19.459  -0.940   8.928  0.00  0.00    -0.075 C 
ATOM      3  C7  ZIN A   1      19.122  -0.255   7.613  0.00  0.00     0.034 C 
ATOM      4  C8  ZIN A   1      18.407   1.072   7.861  0.00  0.00     0.005 C 
ATOM      5  C9  ZIN A   1      19.140   1.928   8.907  0.00  0.00     0.010 C 
ATOM      6  C10 ZIN A   1      19.206   1.126  10.186  0.00  0.00    -0.032 C 
ATOM      7  C11 ZIN A   1      17.813   0.589  10.519  0.00  0.00     0.016 C 
ATOM      8  C12 ZIN A   1      20.152  -0.077   9.940  0.00  0.00     0.023 C 
ATOM      9  C14 ZIN A   1      20.287  -0.644  11.354  0.00  0.00     0.010 C 
ATOM     10  C15 ZIN A   1      20.447   0.634  12.224  0.00  0.00     0.007 C 
ATOM     11  C16 ZIN A   1      19.797   1.787  11.423  0.00  0.00     0.002 C 
ENDROOT
BRANCH   1  12
ATOM     12  C4  ZIN A   1      18.476  -3.011   8.142  0.00  0.00     0.008 C 
ATOM     13  C3  ZIN A   1      18.168  -4.303   8.384  0.00  0.00    -0.048 C 
ATOM     14  C2  ZIN A   1      18.497  -4.949   9.672  0.00  0.00    -0.033 C 
ATOM     15  C29 ZIN A   1      17.467  -5.159   7.350  0.00  0.00     0.071 C 
ATOM     16  C1  ZIN A   1      19.676  -4.764  10.265  0.00  0.00     0.022 C 
ATOM     17  C34 ZIN A   1      17.431  -5.837  10.281  0.00  0.00     0.153 C 
ATOM     18  C33 ZIN A   1      16.876  -6.751   9.191  0.00  0.00     0.068 C 
ATOM     19  C30 ZIN A   1      16.324  -5.910   8.038  0.00  0.00     0.125 C 
BRANCH  17  20
ATOM     20  O36 ZIN A   1      16.380  -5.025  10.809  0.00  0.00    -0.391 OA
ATOM     21  H70 ZIN A   1      16.525  -4.737  11.721  0.00  0.00     0.210 HD
ENDBRANCH  17  20
BRANCH  19  22
ATOM     22  O32 ZIN A   1      15.680  -6.768   7.092  0.00  0.00    -0.395 OA
ATOM     23  H67 ZIN A   1      15.059  -6.312   6.509  0.00  0.00     0.210 HD
ENDBRANCH  19  22
ENDBRANCH   1  12
BRANCH  11  24
ATOM     24  C18 ZIN A   1      18.696   2.454  12.248  0.00  0.00     0.009 C 
ATOM     25  C20 ZIN A   1      18.814   3.975  12.122  0.00  0.00     0.014 C 
BRANCH  24  26
ATOM     26  C21 ZIN A   1      18.843   2.058  13.696  0.00  0.00    -0.024 C 
ATOM     27  C22 ZIN A   1      17.936   1.304  14.264  0.00  0.00     0.001 C 
BRANCH  27  28
ATOM     28  C23 ZIN A   1      18.083   0.908  15.711  0.00  0.00     0.144 C 
BRANCH  28  29
ATOM     29  O25 ZIN A   1      16.798   0.592  16.250  0.00  0.00    -0.391 OA
ATOM     30  H59 ZIN A   1      16.708   0.790  17.193  0.00  0.00     0.210 HD
ENDBRANCH  28  29
BRANCH  28  31
ATOM     31  C26 ZIN A   1      18.996  -0.316  15.814  0.00  0.00     0.018 A 
ATOM     32  C28 ZIN A   1      18.770  -1.451  14.814  0.00  0.00     0.008 A 
ATOM     33  C27 ZIN A   1      18.366  -1.630  16.279  0.00  0.00     0.008 A 
ENDBRANCH  28  31
ENDBRANCH  27  28
ENDBRANCH  24  26
ENDBRANCH  11  24
TORSDOF 8
ENDMDL
MODEL 2
REMARK VINA RESULT:      -8.8      2.188      2.907
REMARK  8 active torsions:
REMARK  status: ('A' for Active; 'I' for Inactive)
REMARK    1  A    between atoms: C4_4  and  C5_5 
REMARK    2  A    between atoms: C16_15  and  C18_16 
REMARK    3  A    between atoms: C18_16  and  C21_18 
REMARK    4  A    between atoms: C22_19  and  C23_20 
REMARK    5  A    between atoms: C23_20  and  O25_21 
REMARK    6  A    between atoms: C23_20  and  C26_22 
REMARK    7  A    between atoms: C30_26  and  O32_27 
REMARK    8  A    between atoms: C34_29  and  O36_30 
ROOT
ATOM      1  C5  ZIN A   1      19.277  -1.894   9.522  0.00  0.00     0.004 C 
ATOM      2  C6  ZIN A   1      19.479  -0.727   8.911  0.00  0.00    -0.075 C 
ATOM      3  C7  ZIN A   1      19.268  -0.541   7.415  0.00  0.00     0.034 C 
ATOM      4  C8  ZIN A   1      18.391   0.678   7.140  0.00  0.00     0.005 C 
ATOM      5  C9  ZIN A   1      18.870   1.914   7.918  0.00  0.00     0.010 C 
ATOM      6  C10 ZIN A   1      18.831   1.569   9.389  0.00  0.00    -0.032 C 
ATOM      7  C11 ZIN A   1      17.468   0.965   9.732  0.00  0.00     0.016 C 
ATOM      8  C12 ZIN A   1      19.923   0.500   9.650  0.00  0.00     0.023 C 
ATOM      9  C14 ZIN A   1      19.909   0.427  11.179  0.00  0.00     0.010 C 
ATOM     10  C15 ZIN A   1      19.806   1.922  11.594  0.00  0.00     0.007 C 
ATOM     11  C16 ZIN A   1      19.163   2.660  10.396  0.00  0.00     0.002 C 
ENDROOT
BRANCH   1  12
ATOM     12  C4  ZIN A   1      18.842  -3.059   8.747  0.00  0.00     0.008 C 
ATOM     13  C3  ZIN A   1      18.574  -4.224   9.374  0.00  0.00    -0.048 C 
ATOM     14  C2  ZIN A   1      18.707  -4.363  10.839  0.00  0.00    -0.033 C 
ATOM     15  C29 ZIN A   1      18.123  -5.452   8.610  0.00  0.00     0.071 C 
ATOM     16  C1  ZIN A   1      19.748  -3.854  11.499  0.00  0.00     0.022 C 
ATOM     17  C34 ZIN A   1      17.605  -5.118  11.555  0.00  0.00     0.153 C 
ATOM     18  C33 ZIN A   1      17.310  -6.401  10.780  0.00  0.00     0.068 C 
ATOM     19  C30 ZIN A   1      16.922  -6.061   9.340  0.00  0.00     0.125 C 
BRANCH  17  20
ATOM     20  O36 ZIN A   1      16.430  -4.306  11.608  0.00  0.00    -0.391 OA
ATOM     21  H70 ZIN A   1      15.607  -4.797  11.478  0.00  0.00     0.210 HD
ENDBRANCH  17  20
BRANCH  19  22
ATOM     22  O32 ZIN A   1      16.512  -7.253   8.667  0.00  0.00    -0.395 OA
ATOM     23  H67 ZIN A   1      16.738  -7.271   7.727  0.00  0.00     0.210 HD
ENDBRANCH  19  22
ENDBRANCH   1  12
BRANCH  11  24
ATOM     24  C18 ZIN A   1      17.890   3.383  10.838  0.00  0.00     0.009 C 
ATOM     25  C20 ZIN A   1      17.741   4.684  10.046  0.00  0.00     0.014 C 
BRANCH  24  26
ATOM     26  C21 ZIN A   1      17.977   3.699  12.309  0.00  0.00    -0.024 C 
ATOM     27  C22 ZIN A   1      17.847   4.935  12.723  0.00  0.00     0.001 C 
BRANCH  27  28
ATOM     28  C23 ZIN A   1      17.933   5.250  14.195  0.00  0.00     0.144 C 
BRANCH  28  29
ATOM     29  O25 ZIN A   1      17.085   4.360  14.922  0.00  0.00    -0.391 OA
ATOM     30  H59 ZIN A   1      17.459   3.477  15.050  0.00  0.00     0.210 HD
ENDBRANCH  28  29
BRANCH  28  31
ATOM     31  C26 ZIN A   1      19.379   5.081  14.669  0.00  0.00     0.018 A 
ATOM     32  C28 ZIN A   1      19.811   5.869  15.907  0.00  0.00     0.008 A 
ATOM     33  C27 ZIN A   1      20.315   6.283  14.522  0.00  0.00     0.008 A 
ENDBRANCH  28  31
ENDBRANCH  27  28
ENDBRANCH  24  26
ENDBRANCH  11  24
TORSDOF 8
ENDMDL
MODEL 3
REMARK VINA RESULT:      -8.7      2.240      3.067
REMARK  8 active torsions:
REMARK  status: ('A' for Active; 'I' for Inactive)
REMARK    1  A    between atoms: C4_4  and  C5_5 
REMARK    2  A    between atoms: C16_15  and  C18_16 
REMARK    3  A    between atoms: C18_16  and  C21_18 
REMARK    4  A    between atoms: C22_19  and  C23_20 
REMARK    5  A    between atoms: C23_20  and  O25_21 
REMARK    6  A    between atoms: C23_20  and  C26_22 
REMARK    7  A    between atoms: C30_26  and  O32_27 
REMARK    8  A    between atoms: C34_29  and  O36_30 
ROOT
ATOM      1  C5  ZIN A   1      18.572  -1.179   8.086  0.00  0.00     0.004 C 
ATOM      2  C6  ZIN A   1      19.136  -0.149   8.715  0.00  0.00    -0.075 C 
ATOM      3  C7  ZIN A   1      19.353   1.199   8.042  0.00  0.00     0.034 C 
ATOM      4  C8  ZIN A   1      18.817   2.331   8.915  0.00  0.00     0.005 C 
ATOM      5  C9  ZIN A   1      19.301   2.211  10.369  0.00  0.00     0.010 C 
ATOM      6  C10 ZIN A   1      18.824   0.878  10.898  0.00  0.00    -0.032 C 
ATOM      7  C11 ZIN A   1      17.331   0.721  10.603  0.00  0.00     0.016 C 
ATOM      8  C12 ZIN A   1      19.596  -0.233  10.140  0.00  0.00     0.023 C 
ATOM      9  C14 ZIN A   1      19.178  -1.477  10.927  0.00  0.00     0.010 C 
ATOM     10  C15 ZIN A   1      19.250  -0.991  12.403  0.00  0.00     0.007 C 
ATOM     11  C16 ZIN A   1      19.084   0.547  12.361  0.00  0.00     0.002 C 
ENDROOT
BRANCH   1  12
ATOM     12  C4  ZIN A   1      18.143  -1.039   6.692  0.00  0.00     0.008 C 
ATOM     13  C3  ZIN A   1      18.292  -2.069   5.833  0.00  0.00    -0.048 C 
ATOM     14  C2  ZIN A   1      18.885  -3.353   6.260  0.00  0.00    -0.033 C 
ATOM     15  C29 ZIN A   1      17.861  -1.964   4.384  0.00  0.00     0.071 C 
ATOM     16  C1  ZIN A   1      19.967  -3.400   7.038  0.00  0.00     0.022 C 
ATOM     17  C34 ZIN A   1      18.208  -4.615   5.765  0.00  0.00     0.153 C 
ATOM     18  C33 ZIN A   1      17.930  -4.465   4.270  0.00  0.00     0.068 C 
ATOM     19  C30 ZIN A   1      17.069  -3.225   4.024  0.00  0.00     0.125 C 
BRANCH  17  20
ATOM     20  O36 ZIN A   1      16.977  -4.801   6.468  0.00  0.00    -0.391 OA
ATOM     21  H70 ZIN A   1      16.992  -4.479   7.379  0.00  0.00     0.210 HD
ENDBRANCH  17  20
BRANCH  19  22
ATOM     22  O32 ZIN A   1      16.697  -3.173   2.645  0.00  0.00    -0.395 OA
ATOM     23  H67 ZIN A   1      16.253  -2.354   2.388  0.00  0.00     0.210 HD
ENDBRANCH  19  22
ENDBRANCH   1  12
BRANCH  11  24
ATOM     24  C18 ZIN A   1      17.897   0.977  13.223  0.00  0.00     0.009 C 
ATOM     25  C20 ZIN A   1      18.180   2.353  13.831  0.00  0.00     0.014 C 
BRANCH  24  26
ATOM     26  C21 ZIN A   1      17.689  -0.026  14.329  0.00  0.00    -0.024 C 
ATOM     27  C22 ZIN A   1      17.768   0.351  15.580  0.00  0.00     0.001 C 
BRANCH  27  28
ATOM     28  C23 ZIN A   1      17.561  -0.652  16.685  0.00  0.00     0.144 C 
BRANCH  28  29
ATOM     29  O25 ZIN A   1      18.152  -1.899  16.314  0.00  0.00    -0.391 OA
ATOM     30  H59 ZIN A   1      18.954  -1.809  15.780  0.00  0.00     0.210 HD
ENDBRANCH  28  29
BRANCH  28  31
ATOM     31  C26 ZIN A   1      18.215  -0.139  17.970  0.00  0.00     0.018 A 
ATOM     32  C28 ZIN A   1      17.781   1.237  18.481  0.00  0.00     0.008 A 
ATOM     33  C27 ZIN A   1      19.164   1.056  17.850  0.00  0.00     0.008 A 
ENDBRANCH  28  31
ENDBRANCH  27  28
ENDBRANCH  24  26
ENDBRANCH  11  24
TORSDOF 8
ENDMDL
MODEL 4
REMARK VINA RESULT:      -8.7      2.641      8.743
REMARK  8 active torsions:
REMARK  status: ('A' for Active; 'I' for Inactive)
REMARK    1  A    between atoms: C4_4  and  C5_5 
REMARK    2  A    between atoms: C16_15  and  C18_16 
REMARK    3  A    between atoms: C18_16  and  C21_18 
REMARK    4  A    between atoms: C22_19  and  C23_20 
REMARK    5  A    between atoms: C23_20  and  O25_21 
REMARK    6  A    between atoms: C23_20  and  C26_22 
REMARK    7  A    between atoms: C30_26  and  O32_27 
REMARK    8  A    between atoms: C34_29  and  O36_30 
ROOT
ATOM      1  C5  ZIN A   1      19.025   2.236  13.891  0.00  0.00     0.004 C 
ATOM      2  C6  ZIN A   1      19.329   0.972  14.186  0.00  0.00    -0.075 C 
ATOM      3  C7  ZIN A   1      18.953   0.331  15.513  0.00  0.00     0.034 C 
ATOM      4  C8  ZIN A   1      18.254  -1.008  15.287  0.00  0.00     0.005 C 
ATOM      5  C9  ZIN A   1      19.026  -1.895  14.297  0.00  0.00     0.010 C 
ATOM      6  C10 ZIN A   1      19.129  -1.138  12.993  0.00  0.00    -0.032 C 
ATOM      7  C11 ZIN A   1      17.745  -0.622  12.596  0.00  0.00     0.016 C 
ATOM      8  C12 ZIN A   1      20.060   0.078  13.228  0.00  0.00     0.023 C 
ATOM      9  C14 ZIN A   1      20.239   0.597  11.800  0.00  0.00     0.010 C 
ATOM     10  C15 ZIN A   1      20.434  -0.710  10.981  0.00  0.00     0.007 C 
ATOM     11  C16 ZIN A   1      19.765  -1.838  11.801  0.00  0.00     0.002 C 
ENDROOT
BRANCH   1  12
ATOM     12  C4  ZIN A   1      18.310   3.063  14.866  0.00  0.00     0.008 C 
ATOM     13  C3  ZIN A   1      17.962   4.328  14.551  0.00  0.00    -0.048 C 
ATOM     14  C2  ZIN A   1      18.284   4.915  13.234  0.00  0.00    -0.033 C 
ATOM     15  C29 ZIN A   1      17.221   5.215  15.531  0.00  0.00     0.071 C 
ATOM     16  C1  ZIN A   1      19.476   4.739  12.663  0.00  0.00     0.022 C 
ATOM     17  C34 ZIN A   1      17.197   5.733  12.567  0.00  0.00     0.153 C 
ATOM     18  C33 ZIN A   1      16.599   6.685  13.601  0.00  0.00     0.068 C 
ATOM     19  C30 ZIN A   1      16.061   5.889  14.791  0.00  0.00     0.125 C 
BRANCH  17  20
ATOM     20  O36 ZIN A   1      16.180   4.858  12.073  0.00  0.00    -0.391 OA
ATOM     21  H70 ZIN A   1      16.011   4.946  11.125  0.00  0.00     0.210 HD
ENDBRANCH  17  20
BRANCH  19  22
ATOM     22  O32 ZIN A   1      15.379   6.774  15.683  0.00  0.00    -0.395 OA
ATOM     23  H67 ZIN A   1      14.945   7.517  15.243  0.00  0.00     0.210 HD
ENDBRANCH  19  22
ENDBRANCH   1  12
BRANCH  11  24
ATOM     24  C18 ZIN A   1      18.695  -2.541  10.963  0.00  0.00     0.009 C 
ATOM     25  C20 ZIN A   1      18.874  -4.057  11.074  0.00  0.00     0.014 C 
BRANCH  24  26
ATOM     26  C21 ZIN A   1      18.832  -2.124   9.521  0.00  0.00    -0.024 C 
ATOM     27  C22 ZIN A   1      17.859  -1.476   8.932  0.00  0.00     0.001 C 
BRANCH  27  28
ATOM     28  C23 ZIN A   1      17.995  -1.059   7.490  0.00  0.00     0.144 C 
BRANCH  28  29
ATOM     29  O25 ZIN A   1      16.775  -0.458   7.051  0.00  0.00    -0.391 OA
ATOM     30  H59 ZIN A   1      16.683   0.472   7.301  0.00  0.00     0.210 HD
ENDBRANCH  28  29
BRANCH  28  31
ATOM     31  C26 ZIN A   1      19.138  -0.050   7.356  0.00  0.00     0.018 A 
ATOM     32  C28 ZIN A   1      18.963   1.309   8.037  0.00  0.00     0.008 A 
ATOM     33  C27 ZIN A   1      18.882   1.200   6.513  0.00  0.00     0.008 A 
ENDBRANCH  28  31
ENDBRANCH  27  28
ENDBRANCH  24  26
ENDBRANCH  11  24
TORSDOF 8
ENDMDL
MODEL 5
REMARK VINA RESULT:      -8.7      2.223      7.877
REMARK  8 active torsions:
REMARK  status: ('A' for Active; 'I' for Inactive)
REMARK    1  A    between atoms: C4_4  and  C5_5 
REMARK    2  A    between atoms: C16_15  and  C18_16 
REMARK    3  A    between atoms: C18_16  and  C21_18 
REMARK    4  A    between atoms: C22_19  and  C23_20 
REMARK    5  A    between atoms: C23_20  and  O25_21 
REMARK    6  A    between atoms: C23_20  and  C26_22 
REMARK    7  A    between atoms: C30_26  and  O32_27 
REMARK    8  A    between atoms: C34_29  and  O36_30 
ROOT
ATOM      1  C5  ZIN A   1      19.812  -3.512  11.657  0.00  0.00     0.004 C 
ATOM      2  C6  ZIN A   1      18.963  -4.454  11.248  0.00  0.00    -0.075 C 
ATOM      3  C7  ZIN A   1      17.690  -4.792  12.008  0.00  0.00     0.034 C 
ATOM      4  C8  ZIN A   1      16.485  -4.800  11.069  0.00  0.00     0.005 C 
ATOM      5  C9  ZIN A   1      16.757  -5.622   9.799  0.00  0.00     0.010 C 
ATOM      6  C10 ZIN A   1      17.951  -5.006   9.106  0.00  0.00    -0.032 C 
ATOM      7  C11 ZIN A   1      17.738  -3.497   8.976  0.00  0.00     0.016 C 
ATOM      8  C12 ZIN A   1      19.193  -5.254  10.000  0.00  0.00     0.023 C 
ATOM      9  C14 ZIN A   1      20.322  -4.785   9.078  0.00  0.00     0.010 C 
ATOM     10  C15 ZIN A   1      19.907  -5.373   7.700  0.00  0.00     0.007 C 
ATOM     11  C16 ZIN A   1      18.373  -5.571   7.757  0.00  0.00     0.002 C 
ENDROOT
BRANCH   1  12
ATOM     12  C4  ZIN A   1      19.536  -2.762  12.885  0.00  0.00     0.008 C 
ATOM     13  C3  ZIN A   1      19.157  -1.469  12.816  0.00  0.00    -0.048 C 
ATOM     14  C2  ZIN A   1      19.009  -0.774  11.520  0.00  0.00    -0.033 C 
ATOM     15  C29 ZIN A   1      18.862  -0.659  14.062  0.00  0.00     0.071 C 
ATOM     16  C1  ZIN A   1      19.904  -0.919  10.543  0.00  0.00     0.022 C 
ATOM     17  C34 ZIN A   1      17.793   0.116  11.358  0.00  0.00     0.153 C 
ATOM     18  C33 ZIN A   1      17.654   0.984  12.608  0.00  0.00     0.068 C 
ATOM     19  C30 ZIN A   1      17.547   0.095  13.848  0.00  0.00     0.125 C 
BRANCH  17  20
ATOM     20  O36 ZIN A   1      16.627  -0.696  11.203  0.00  0.00    -0.391 OA
ATOM     21  H70 ZIN A   1      16.334  -0.793  10.287  0.00  0.00     0.210 HD
ENDBRANCH  17  20
BRANCH  19  22
ATOM     22  O32 ZIN A   1      17.275   0.909  14.991  0.00  0.00    -0.395 OA
ATOM     23  H67 ZIN A   1      17.663   0.576  15.812  0.00  0.00     0.210 HD
ENDBRANCH  19  22
ENDBRANCH   1  12
BRANCH  11  24
ATOM     24  C18 ZIN A   1      17.695  -4.804   6.622  0.00  0.00     0.009 C 
ATOM     25  C20 ZIN A   1      17.224  -5.789   5.550  0.00  0.00     0.014 C 
BRANCH  24  26
ATOM     26  C21 ZIN A   1      18.675  -3.832   6.016  0.00  0.00    -0.024 C 
ATOM     27  C22 ZIN A   1      18.367  -2.564   5.921  0.00  0.00     0.001 C 
BRANCH  27  28
ATOM     28  C23 ZIN A   1      19.347  -1.592   5.314  0.00  0.00     0.144 C 
BRANCH  28  29
ATOM     29  O25 ZIN A   1      19.520  -1.894   3.928  0.00  0.00    -0.391 OA
ATOM     30  H59 ZIN A   1      18.698  -2.117   3.469  0.00  0.00     0.210 HD
ENDBRANCH  28  29
BRANCH  28  31
ATOM     31  C26 ZIN A   1      18.812  -0.167   5.464  0.00  0.00     0.018 A 
ATOM     32  C28 ZIN A   1      18.683   0.392   6.883  0.00  0.00     0.008 A 
ATOM     33  C27 ZIN A   1      17.429   0.005   6.096  0.00  0.00     0.008 A 
ENDBRANCH  28  31
ENDBRANCH  27  28
ENDBRANCH  24  26
ENDBRANCH  11  24
TORSDOF 8
ENDMDL
MODEL 6
REMARK VINA RESULT:      -8.5      3.075      5.106
REMARK  8 active torsions:
REMARK  status: ('A' for Active; 'I' for Inactive)
REMARK    1  A    between atoms: C4_4  and  C5_5 
REMARK    2  A    between atoms: C16_15  and  C18_16 
REMARK    3  A    between atoms: C18_16  and  C21_18 
REMARK    4  A    between atoms: C22_19  and  C23_20 
REMARK    5  A    between atoms: C23_20  and  O25_21 
REMARK    6  A    between atoms: C23_20  and  C26_22 
REMARK    7  A    between atoms: C30_26  and  O32_27 
REMARK    8  A    between atoms: C34_29  and  O36_30 
ROOT
ATOM      1  C5  ZIN A   1      19.550   3.449  10.740  0.00  0.00     0.004 C 
ATOM      2  C6  ZIN A   1      18.766   4.420  11.207  0.00  0.00    -0.075 C 
ATOM      3  C7  ZIN A   1      17.483   4.841  10.506  0.00  0.00     0.034 C 
ATOM      4  C8  ZIN A   1      16.317   4.881  11.491  0.00  0.00     0.005 C 
ATOM      5  C9  ZIN A   1      16.677   5.651  12.771  0.00  0.00     0.010 C 
ATOM      6  C10 ZIN A   1      17.863   4.958  13.401  0.00  0.00    -0.032 C 
ATOM      7  C11 ZIN A   1      17.580   3.458  13.498  0.00  0.00     0.016 C 
ATOM      8  C12 ZIN A   1      19.082   5.171  12.467  0.00  0.00     0.023 C 
ATOM      9  C14 ZIN A   1      20.219   4.621  13.331  0.00  0.00     0.010 C 
ATOM     10  C15 ZIN A   1      19.886   5.188  14.740  0.00  0.00     0.007 C 
ATOM     11  C16 ZIN A   1      18.364   5.463  14.747  0.00  0.00     0.002 C 
ENDROOT
BRANCH   1  12
ATOM     12  C4  ZIN A   1      19.191   2.750   9.504  0.00  0.00     0.008 C 
ATOM     13  C3  ZIN A   1      18.885   1.436   9.536  0.00  0.00    -0.048 C 
ATOM     14  C2  ZIN A   1      18.901   0.668  10.799  0.00  0.00    -0.033 C 
ATOM     15  C29 ZIN A   1      18.509   0.676   8.280  0.00  0.00     0.071 C 
ATOM     16  C1  ZIN A   1      19.881   0.811  11.692  0.00  0.00     0.022 C 
ATOM     17  C34 ZIN A   1      17.753  -0.295  11.026  0.00  0.00     0.153 C 
ATOM     18  C33 ZIN A   1      17.534  -1.103   9.749  0.00  0.00     0.068 C 
ATOM     19  C30 ZIN A   1      17.260  -0.159   8.577  0.00  0.00     0.125 C 
BRANCH  17  20
ATOM     20  O36 ZIN A   1      16.569   0.443  11.338  0.00  0.00    -0.391 OA
ATOM     21  H70 ZIN A   1      16.040   0.055  12.048  0.00  0.00     0.210 HD
ENDBRANCH  17  20
BRANCH  19  22
ATOM     22  O32 ZIN A   1      16.917  -0.927   7.421  0.00  0.00    -0.395 OA
ATOM     23  H67 ZIN A   1      17.637  -1.019   6.783  0.00  0.00     0.210 HD
ENDBRANCH  19  22
ENDBRANCH   1  12
BRANCH  11  24
ATOM     24  C18 ZIN A   1      17.690   4.697  15.887  0.00  0.00     0.009 C 
ATOM     25  C20 ZIN A   1      17.081   5.690  16.879  0.00  0.00     0.014 C 
BRANCH  24  26
ATOM     26  C21 ZIN A   1      18.714   3.845  16.593  0.00  0.00    -0.024 C 
ATOM     27  C22 ZIN A   1      18.377   2.671  17.063  0.00  0.00     0.001 C 
BRANCH  27  28
ATOM     28  C23 ZIN A   1      19.401   1.819  17.770  0.00  0.00     0.144 C 
BRANCH  28  29
ATOM     29  O25 ZIN A   1      19.563   2.286  19.111  0.00  0.00    -0.391 OA
ATOM     30  H59 ZIN A   1      18.914   1.930  19.733  0.00  0.00     0.210 HD
ENDBRANCH  28  29
BRANCH  28  31
ATOM     31  C26 ZIN A   1      18.928   0.364  17.789  0.00  0.00     0.018 A 
ATOM     32  C28 ZIN A   1      18.725  -0.329  16.441  0.00  0.00     0.008 A 
ATOM     33  C27 ZIN A   1      17.513   0.075  17.284  0.00  0.00     0.008 A 
ENDBRANCH  28  31
ENDBRANCH  27  28
ENDBRANCH  24  26
ENDBRANCH  11  24
TORSDOF 8
ENDMDL
MODEL 7
REMARK VINA RESULT:      -8.2      2.237      8.089
REMARK  8 active torsions:
REMARK  status: ('A' for Active; 'I' for Inactive)
REMARK    1  A    between atoms: C4_4  and  C5_5 
REMARK    2  A    between atoms: C16_15  and  C18_16 
REMARK    3  A    between atoms: C18_16  and  C21_18 
REMARK    4  A    between atoms: C22_19  and  C23_20 
REMARK    5  A    between atoms: C23_20  and  O25_21 
REMARK    6  A    between atoms: C23_20  and  C26_22 
REMARK    7  A    between atoms: C30_26  and  O32_27 
REMARK    8  A    between atoms: C34_29  and  O36_30 
ROOT
ATOM      1  C5  ZIN A   1      18.410   0.854  13.567  0.00  0.00     0.004 C 
ATOM      2  C6  ZIN A   1      17.880   1.323  12.438  0.00  0.00    -0.075 C 
ATOM      3  C7  ZIN A   1      17.684   2.811  12.185  0.00  0.00     0.034 C 
ATOM      4  C8  ZIN A   1      18.261   3.209  10.828  0.00  0.00     0.005 C 
ATOM      5  C9  ZIN A   1      17.798   2.262   9.710  0.00  0.00     0.010 C 
ATOM      6  C10 ZIN A   1      18.252   0.868  10.078  0.00  0.00    -0.032 C 
ATOM      7  C11 ZIN A   1      19.736   0.901  10.449  0.00  0.00     0.016 C 
ATOM      8  C12 ZIN A   1      17.442   0.422  11.322  0.00  0.00     0.023 C 
ATOM      9  C14 ZIN A   1      17.844  -1.051  11.427  0.00  0.00     0.010 C 
ATOM     10  C15 ZIN A   1      17.807  -1.524   9.946  0.00  0.00     0.007 C 
ATOM     11  C16 ZIN A   1      18.009  -0.256   9.082  0.00  0.00     0.002 C 
ENDROOT
BRANCH   1  12
ATOM     12  C4  ZIN A   1      18.819   1.782  14.624  0.00  0.00     0.008 C 
ATOM     13  C3  ZIN A   1      18.474   1.540  15.906  0.00  0.00    -0.048 C 
ATOM     14  C2  ZIN A   1      17.684   0.350  16.283  0.00  0.00    -0.033 C 
ATOM     15  C29 ZIN A   1      18.879   2.475  17.028  0.00  0.00     0.071 C 
ATOM     16  C1  ZIN A   1      16.631  -0.046  15.568  0.00  0.00     0.022 C 
ATOM     17  C34 ZIN A   1      18.124  -0.395  17.528  0.00  0.00     0.153 C 
ATOM     18  C33 ZIN A   1      18.384   0.622  18.638  0.00  0.00     0.068 C 
ATOM     19  C30 ZIN A   1      19.435   1.634  18.181  0.00  0.00     0.125 C 
BRANCH  17  20
ATOM     20  O36 ZIN A   1      19.324  -1.119  17.248  0.00  0.00    -0.391 OA
ATOM     21  H70 ZIN A   1      19.535  -1.183  16.307  0.00  0.00     0.210 HD
ENDBRANCH  17  20
BRANCH  19  22
ATOM     22  O32 ZIN A   1      19.774   2.492  19.273  0.00  0.00    -0.395 OA
ATOM     23  H67 ZIN A   1      19.264   3.312  19.301  0.00  0.00     0.210 HD
ENDBRANCH  19  22
ENDBRANCH   1  12
BRANCH  11  24
ATOM     24  C18 ZIN A   1      19.220  -0.426   8.163  0.00  0.00     0.009 C 
ATOM     25  C20 ZIN A   1      18.896   0.145   6.781  0.00  0.00     0.014 C 
BRANCH  24  26
ATOM     26  C21 ZIN A   1      19.552  -1.891   8.035  0.00  0.00    -0.024 C 
ATOM     27  C22 ZIN A   1      19.353  -2.511   6.899  0.00  0.00     0.001 C 
BRANCH  27  28
ATOM     28  C23 ZIN A   1      19.686  -3.976   6.772  0.00  0.00     0.144 C 
BRANCH  28  29
ATOM     29  O25 ZIN A   1      21.105  -4.143   6.773  0.00  0.00    -0.391 OA
ATOM     30  H59 ZIN A   1      21.515  -4.014   7.640  0.00  0.00     0.210 HD
ENDBRANCH  28  29
BRANCH  28  31
ATOM     31  C26 ZIN A   1      19.079  -4.741   7.950  0.00  0.00     0.018 A 
ATOM     32  C28 ZIN A   1      18.442  -6.100   7.655  0.00  0.00     0.008 A 
ATOM     33  C27 ZIN A   1      17.557  -4.895   7.983  0.00  0.00     0.008 A 
ENDBRANCH  28  31
ENDBRANCH  27  28
ENDBRANCH  24  26
ENDBRANCH  11  24
TORSDOF 8
ENDMDL
MODEL 8
REMARK VINA RESULT:      -7.8      3.416      9.597
REMARK  8 active torsions:
REMARK  status: ('A' for Active; 'I' for Inactive)
REMARK    1  A    between atoms: C4_4  and  C5_5 
REMARK    2  A    between atoms: C16_15  and  C18_16 
REMARK    3  A    between atoms: C18_16  and  C21_18 
REMARK    4  A    between atoms: C22_19  and  C23_20 
REMARK    5  A    between atoms: C23_20  and  O25_21 
REMARK    6  A    between atoms: C23_20  and  C26_22 
REMARK    7  A    between atoms: C30_26  and  O32_27 
REMARK    8  A    between atoms: C34_29  and  O36_30 
ROOT
ATOM      1  C5  ZIN A   1      18.568   3.104  13.288  0.00  0.00     0.004 C 
ATOM      2  C6  ZIN A   1      19.172   1.976  12.918  0.00  0.00    -0.075 C 
ATOM      3  C7  ZIN A   1      19.444   0.838  13.890  0.00  0.00     0.034 C 
ATOM      4  C8  ZIN A   1      18.953  -0.491  13.319  0.00  0.00     0.005 C 
ATOM      5  C9  ZIN A   1      19.431  -0.703  11.874  0.00  0.00     0.010 C 
ATOM      6  C10 ZIN A   1      18.900   0.446  11.046  0.00  0.00    -0.032 C 
ATOM      7  C11 ZIN A   1      17.402   0.610  11.311  0.00  0.00     0.016 C 
ATOM      8  C12 ZIN A   1      19.627   1.734  11.509  0.00  0.00     0.023 C 
ATOM      9  C14 ZIN A   1      19.158   2.736  10.452  0.00  0.00     0.010 C 
ATOM     10  C15 ZIN A   1      19.249   1.915   9.135  0.00  0.00     0.007 C 
ATOM     11  C16 ZIN A   1      19.145   0.427   9.545  0.00  0.00     0.002 C 
ENDROOT
BRANCH   1  12
ATOM     12  C4  ZIN A   1      18.145   3.285  14.679  0.00  0.00     0.008 C 
ATOM     13  C3  ZIN A   1      18.312   4.479  15.286  0.00  0.00    -0.048 C 
ATOM     14  C2  ZIN A   1      18.915   5.628  14.579  0.00  0.00    -0.033 C 
ATOM     15  C29 ZIN A   1      17.888   4.707  16.722  0.00  0.00     0.071 C 
ATOM     16  C1  ZIN A   1      19.993   5.486  13.807  0.00  0.00     0.022 C 
ATOM     17  C34 ZIN A   1      18.255   6.977  14.782  0.00  0.00     0.153 C 
ATOM     18  C33 ZIN A   1      17.984   7.169  16.273  0.00  0.00     0.068 C 
ATOM     19  C30 ZIN A   1      17.112   6.025  16.794  0.00  0.00     0.125 C 
BRANCH  17  20
ATOM     20  O36 ZIN A   1      17.022   7.015  14.060  0.00  0.00    -0.391 OA
ATOM     21  H70 ZIN A   1      16.330   6.453  14.433  0.00  0.00     0.210 HD
ENDBRANCH  17  20
BRANCH  19  22
ATOM     22  O32 ZIN A   1      16.748   6.288  18.151  0.00  0.00    -0.395 OA
ATOM     23  H67 ZIN A   1      16.271   5.564  18.578  0.00  0.00     0.210 HD
ENDBRANCH  19  22
ENDBRANCH   1  12
BRANCH  11  24
ATOM     24  C18 ZIN A   1      17.975  -0.243   8.822  0.00  0.00     0.009 C 
ATOM     25  C20 ZIN A   1      18.167  -1.761   8.839  0.00  0.00     0.014 C 
BRANCH  24  26
ATOM     26  C21 ZIN A   1      17.923   0.240   7.395  0.00  0.00    -0.024 C 
ATOM     27  C22 ZIN A   1      18.439  -0.489   6.438  0.00  0.00     0.001 C 
BRANCH  27  28
ATOM     28  C23 ZIN A   1      18.386  -0.006   5.011  0.00  0.00     0.144 C 
BRANCH  28  29
ATOM     29  O25 ZIN A   1      19.627   0.616   4.673  0.00  0.00    -0.391 OA
ATOM     30  H59 ZIN A   1      19.599   1.133   3.856  0.00  0.00     0.210 HD
ENDBRANCH  28  29
BRANCH  28  31
ATOM     31  C26 ZIN A   1      18.141  -1.195   4.079  0.00  0.00     0.018 A 
ATOM     32  C28 ZIN A   1      17.372  -2.390   4.647  0.00  0.00     0.008 A 
ATOM     33  C27 ZIN A   1      18.877  -2.500   4.389  0.00  0.00     0.008 A 
ENDBRANCH  28  31
ENDBRANCH  27  28
ENDBRANCH  24  26
ENDBRANCH  11  24
TORSDOF 8
ENDMDL
MODEL 9
REMARK VINA RESULT:      -7.7      2.780      9.022
REMARK  8 active torsions:
REMARK  status: ('A' for Active; 'I' for Inactive)
REMARK    1  A    between atoms: C4_4  and  C5_5 
REMARK    2  A    between atoms: C16_15  and  C18_16 
REMARK    3  A    between atoms: C18_16  and  C21_18 
REMARK    4  A    between atoms: C22_19  and  C23_20 
REMARK    5  A    between atoms: C23_20  and  O25_21 
REMARK    6  A    between atoms: C23_20  and  C26_22 
REMARK    7  A    between atoms: C30_26  and  O32_27 
REMARK    8  A    between atoms: C34_29  and  O36_30 
ROOT
ATOM      1  C5  ZIN A   1      18.157  -2.185   9.945  0.00  0.00     0.004 C 
ATOM      2  C6  ZIN A   1      18.209  -3.420  10.443  0.00  0.00    -0.075 C 
ATOM      3  C7  ZIN A   1      17.669  -3.768  11.822  0.00  0.00     0.034 C 
ATOM      4  C8  ZIN A   1      16.744  -4.981  11.750  0.00  0.00     0.005 C 
ATOM      5  C9  ZIN A   1      17.376  -6.135  10.956  0.00  0.00     0.010 C 
ATOM      6  C10 ZIN A   1      17.669  -5.623   9.565  0.00  0.00    -0.032 C 
ATOM      7  C11 ZIN A   1      16.421  -4.939   9.004  0.00  0.00     0.016 C 
ATOM      8  C12 ZIN A   1      18.799  -4.569   9.680  0.00  0.00     0.023 C 
ATOM      9  C14 ZIN A   1      19.127  -4.321   8.206  0.00  0.00     0.010 C 
ATOM     10  C15 ZIN A   1      19.109  -5.755   7.604  0.00  0.00     0.007 C 
ATOM     11  C16 ZIN A   1      18.210  -6.603   8.534  0.00  0.00     0.002 C 
ENDROOT
BRANCH   1  12
ATOM     12  C4  ZIN A   1      17.569  -1.102  10.737  0.00  0.00     0.008 C 
ATOM     13  C3  ZIN A   1      18.136   0.123  10.732  0.00  0.00    -0.048 C 
ATOM     14  C2  ZIN A   1      19.350   0.410   9.939  0.00  0.00    -0.033 C 
ATOM     15  C29 ZIN A   1      17.558   1.270  11.536  0.00  0.00     0.071 C 
ATOM     16  C1  ZIN A   1      20.376  -0.440   9.900  0.00  0.00     0.022 C 
ATOM     17  C34 ZIN A   1      19.375   1.721   9.180  0.00  0.00     0.153 C 
ATOM     18  C33 ZIN A   1      18.899   2.834  10.112  0.00  0.00     0.068 C 
ATOM     19  C30 ZIN A   1      17.500   2.509  10.638  0.00  0.00     0.125 C 
BRANCH  17  20
ATOM     20  O36 ZIN A   1      18.502   1.632   8.051  0.00  0.00    -0.391 OA
ATOM     21  H70 ZIN A   1      18.568   2.381   7.443  0.00  0.00     0.210 HD
ENDBRANCH  17  20
BRANCH  19  22
ATOM     22  O32 ZIN A   1      17.008   3.619  11.392  0.00  0.00    -0.395 OA
ATOM     23  H67 ZIN A   1      16.870   3.427  12.330  0.00  0.00     0.210 HD
ENDBRANCH  19  22
ENDBRANCH   1  12
BRANCH  11  24
ATOM     24  C18 ZIN A   1      17.063  -7.229   7.740  0.00  0.00     0.009 C 
ATOM     25  C20 ZIN A   1      17.242  -8.748   7.694  0.00  0.00     0.014 C 
BRANCH  24  26
ATOM     26  C21 ZIN A   1      17.067  -6.681   6.335  0.00  0.00    -0.024 C 
ATOM     27  C22 ZIN A   1      15.936  -6.406   5.736  0.00  0.00     0.001 C 
BRANCH  27  28
ATOM     28  C23 ZIN A   1      15.940  -5.858   4.332  0.00  0.00     0.144 C 
BRANCH  28  29
ATOM     29  O25 ZIN A   1      15.198  -4.637   4.295  0.00  0.00    -0.391 OA
ATOM     30  H59 ZIN A   1      15.352  -4.107   3.500  0.00  0.00     0.210 HD
ENDBRANCH  28  29
BRANCH  28  31
ATOM     31  C26 ZIN A   1      17.382  -5.593   3.891  0.00  0.00     0.018 A 
ATOM     32  C28 ZIN A   1      17.810  -4.135   3.719  0.00  0.00     0.008 A 
ATOM     33  C27 ZIN A   1      17.598  -5.021   2.489  0.00  0.00     0.008 A 
ENDBRANCH  28  31
ENDBRANCH  27  28
ENDBRANCH  24  26
ENDBRANCH  11  24
TORSDOF 8
ENDMDL
