MODEL 1
REMARK VINA RESULT:      -6.2      0.000      0.000
REMARK  7 active torsions:
REMARK  status: ('A' for Active; 'I' for Inactive)
REMARK    1  A    between atoms: C2_2  and  N4_4 
REMARK    2  A    between atoms: N4_4  and  C7_7 
REMARK    3  A    between atoms: C7_7  and  C8_8 
REMARK    4  A    between atoms: C8_8  and  O10_9 
REMARK    5  A    between atoms: C8_8  and  C11_10 
REMARK    6  A    between atoms: C14_13  and  N15_14 
REMARK    7  A    between atoms: N15_14  and  S16_15 
ROOT
ATOM      1  C11 <0> d   1      19.668  -0.579  12.213  0.00  0.00    -0.028 A 
ATOM      2  C12 <0> d   1      18.436  -1.098  12.565  0.00  0.00     0.012 A 
ATOM      3  C13 <0> d   1      17.782  -0.627  13.686  0.00  0.00     0.031 A 
ATOM      4  C14 <0> d   1      18.362   0.370  14.460  0.00  0.00     0.042 A 
ATOM      5  C20 <0> d   1      19.600   0.890  14.102  0.00  0.00     0.031 A 
ATOM      6  C21 <0> d   1      20.252   0.410  12.983  0.00  0.00     0.012 A 
ENDROOT
BRANCH   1   7
ATOM      7  C8  <0> d   1      20.380  -1.095  10.988  0.00  0.00     0.176 C 
BRANCH   7   8
ATOM      8  C7  <0> d   1      19.618  -0.657   9.736  0.00  0.00     0.269 C 
BRANCH   8   9
ATOM      9  N4  <0> d   1      20.093   0.667   9.312  0.00  0.00    -0.069 N 
ATOM     10  H5  <0> d   1      20.559   0.588   8.420  0.00  0.00     0.277 HD
ATOM     11  H6  <0> d   1      20.739   1.029   9.998  0.00  0.00     0.277 HD
BRANCH   9  12
ATOM     12  C2  <0> d   1      18.950   1.581   9.187  0.00  0.00     0.178 C 
ATOM     13  C1  <0> d   1      17.649   0.800   9.386  0.00  0.00     0.039 C 
ATOM     14  C3  <0> d   1      19.054   2.677  10.249  0.00  0.00     0.039 C 
ENDBRANCH   9  12
ENDBRANCH   8   9
ENDBRANCH   7   8
BRANCH   7  15
ATOM     15  O10 <0> d   1      21.706  -0.565  10.949  0.00  0.00    -0.389 OA
ATOM     16  H31 <0> d   1      21.783   0.332  11.302  0.00  0.00     0.210 HD
ENDBRANCH   7  15
ENDBRANCH   1   7
BRANCH   4  17
ATOM     17  N15 <0> d   1      17.703   0.849  15.594  0.00  0.00    -0.285 N 
ATOM     18  H34 <0> d   1      17.236   1.699  15.561  0.00  0.00     0.178 HD
BRANCH  17  19
ATOM     19  S16 <0> d   1      17.718  -0.034  16.994  0.00  0.00     0.227 S 
ATOM     20  C17 <0> d   1      17.637   1.207  18.314  0.00  0.00     0.186 C 
ATOM     21  O18 <0> d   1      16.515  -0.790  16.946  0.00  0.00    -0.206 OA
ATOM     22  O19 <0> d   1      18.986  -0.676  16.990  0.00  0.00    -0.206 OA
ENDBRANCH  17  19
ENDBRANCH   4  17
TORSDOF 7
ENDMDL
MODEL 2
REMARK VINA RESULT:      -6.2      4.392      7.554
REMARK  7 active torsions:
REMARK  status: ('A' for Active; 'I' for Inactive)
REMARK    1  A    between atoms: C2_2  and  N4_4 
REMARK    2  A    between atoms: N4_4  and  C7_7 
REMARK    3  A    between atoms: C7_7  and  C8_8 
REMARK    4  A    between atoms: C8_8  and  O10_9 
REMARK    5  A    between atoms: C8_8  and  C11_10 
REMARK    6  A    between atoms: C14_13  and  N15_14 
REMARK    7  A    between atoms: N15_14  and  S16_15 
ROOT
ATOM      1  C11 <0> d   1      18.414   1.465   9.267  0.00  0.00    -0.028 A 
ATOM      2  C12 <0> d   1      17.526   0.406   9.261  0.00  0.00     0.012 A 
ATOM      3  C13 <0> d   1      17.355  -0.349   8.117  0.00  0.00     0.031 A 
ATOM      4  C14 <0> d   1      18.078  -0.043   6.972  0.00  0.00     0.042 A 
ATOM      5  C20 <0> d   1      18.970   1.021   6.981  0.00  0.00     0.031 A 
ATOM      6  C21 <0> d   1      19.131   1.775   8.127  0.00  0.00     0.012 A 
ENDROOT
BRANCH   1   7
ATOM      7  C8  <0> d   1      18.598   2.286  10.517  0.00  0.00     0.176 C 
BRANCH   7   8
ATOM      8  C7  <0> d   1      18.165   1.464  11.734  0.00  0.00     0.269 C 
BRANCH   8   9
ATOM      9  N4  <0> d   1      19.355   0.948  12.424  0.00  0.00    -0.069 N 
ATOM     10  H5  <0> d   1      19.462   1.421  13.309  0.00  0.00     0.277 HD
ATOM     11  H6  <0> d   1      20.172   1.110  11.855  0.00  0.00     0.277 HD
BRANCH   9  12
ATOM     12  C2  <0> d   1      19.199  -0.495  12.656  0.00  0.00     0.178 C 
ATOM     13  C1  <0> d   1      17.710  -0.838  12.745  0.00  0.00     0.039 C 
ATOM     14  C3  <0> d   1      19.834  -1.269  11.500  0.00  0.00     0.039 C 
ENDBRANCH   9  12
ENDBRANCH   8   9
ENDBRANCH   7   8
BRANCH   7  15
ATOM     15  O10 <0> d   1      19.974   2.647  10.652  0.00  0.00    -0.389 OA
ATOM     16  H31 <0> d   1      20.298   2.631  11.563  0.00  0.00     0.210 HD
ENDBRANCH   7  15
ENDBRANCH   1   7
BRANCH   4  17
ATOM     17  N15 <0> d   1      17.908  -0.804   5.813  0.00  0.00    -0.285 N 
ATOM     18  H34 <0> d   1      17.078  -0.749   5.314  0.00  0.00     0.178 HD
BRANCH  17  19
ATOM     19  S16 <0> d   1      19.122  -1.802   5.292  0.00  0.00     0.227 S 
ATOM     20  C17 <0> d   1      18.270  -3.106   4.363  0.00  0.00     0.186 C 
ATOM     21  O18 <0> d   1      19.893  -0.989   4.418  0.00  0.00    -0.206 OA
ATOM     22  O19 <0> d   1      19.682  -2.326   6.488  0.00  0.00    -0.206 OA
ENDBRANCH  17  19
ENDBRANCH   4  17
TORSDOF 7
ENDMDL
MODEL 3
REMARK VINA RESULT:      -6.2      5.020      7.747
REMARK  7 active torsions:
REMARK  status: ('A' for Active; 'I' for Inactive)
REMARK    1  A    between atoms: C2_2  and  N4_4 
REMARK    2  A    between atoms: N4_4  and  C7_7 
REMARK    3  A    between atoms: C7_7  and  C8_8 
REMARK    4  A    between atoms: C8_8  and  O10_9 
REMARK    5  A    between atoms: C8_8  and  C11_10 
REMARK    6  A    between atoms: C14_13  and  N15_14 
REMARK    7  A    between atoms: N15_14  and  S16_15 
ROOT
ATOM      1  C11 <0> d   1      18.629   1.497   8.763  0.00  0.00    -0.028 A 
ATOM      2  C12 <0> d   1      17.827   0.415   9.073  0.00  0.00     0.012 A 
ATOM      3  C13 <0> d   1      17.558  -0.545   8.116  0.00  0.00     0.031 A 
ATOM      4  C14 <0> d   1      18.096  -0.422   6.841  0.00  0.00     0.042 A 
ATOM      5  C20 <0> d   1      18.902   0.667   6.534  0.00  0.00     0.031 A 
ATOM      6  C21 <0> d   1      19.161   1.625   7.493  0.00  0.00     0.012 A 
ENDROOT
BRANCH   1   7
ATOM      7  C8  <0> d   1      18.920   2.542   9.809  0.00  0.00     0.176 C 
BRANCH   7   8
ATOM      8  C7  <0> d   1      17.627   2.898  10.546  0.00  0.00     0.269 C 
BRANCH   8   9
ATOM      9  N4  <0> d   1      17.845   2.791  11.995  0.00  0.00    -0.069 N 
ATOM     10  H5  <0> d   1      18.788   2.476  12.171  0.00  0.00     0.277 HD
ATOM     11  H6  <0> d   1      17.192   2.130  12.387  0.00  0.00     0.277 HD
BRANCH   9  12
ATOM     12  C2  <0> d   1      17.645   4.106  12.619  0.00  0.00     0.178 C 
ATOM     13  C1  <0> d   1      19.002   4.775  12.845  0.00  0.00     0.039 C 
ATOM     14  C3  <0> d   1      16.791   4.981  11.700  0.00  0.00     0.039 C 
ENDBRANCH   9  12
ENDBRANCH   8   9
ENDBRANCH   7   8
BRANCH   7  15
ATOM     15  O10 <0> d   1      19.874   2.030  10.741  0.00  0.00    -0.389 OA
ATOM     16  H31 <0> d   1      20.746   2.442  10.679  0.00  0.00     0.210 HD
ENDBRANCH   7  15
ENDBRANCH   1   7
BRANCH   4  17
ATOM     17  N15 <0> d   1      17.826  -1.390   5.872  0.00  0.00    -0.285 N 
ATOM     18  H34 <0> d   1      16.922  -1.505   5.540  0.00  0.00     0.178 HD
BRANCH  17  19
ATOM     19  S16 <0> d   1      19.050  -2.342   5.289  0.00  0.00     0.227 S 
ATOM     20  C17 <0> d   1      18.205  -3.782   4.580  0.00  0.00     0.186 C 
ATOM     21  O18 <0> d   1      19.646  -1.558   4.265  0.00  0.00    -0.206 OA
ATOM     22  O19 <0> d   1      19.785  -2.715   6.447  0.00  0.00    -0.206 OA
ENDBRANCH  17  19
ENDBRANCH   4  17
TORSDOF 7
ENDMDL
MODEL 4
REMARK VINA RESULT:      -6.1      1.754      2.118
REMARK  7 active torsions:
REMARK  status: ('A' for Active; 'I' for Inactive)
REMARK    1  A    between atoms: C2_2  and  N4_4 
REMARK    2  A    between atoms: N4_4  and  C7_7 
REMARK    3  A    between atoms: C7_7  and  C8_8 
REMARK    4  A    between atoms: C8_8  and  O10_9 
REMARK    5  A    between atoms: C8_8  and  C11_10 
REMARK    6  A    between atoms: C14_13  and  N15_14 
REMARK    7  A    between atoms: N15_14  and  S16_15 
ROOT
ATOM      1  C11 <0> d   1      19.703   0.135  13.088  0.00  0.00    -0.028 A 
ATOM      2  C12 <0> d   1      19.347   1.471  13.106  0.00  0.00     0.012 A 
ATOM      3  C13 <0> d   1      18.833   2.034  14.257  0.00  0.00     0.031 A 
ATOM      4  C14 <0> d   1      18.673   1.257  15.398  0.00  0.00     0.042 A 
ATOM      5  C20 <0> d   1      19.032  -0.084  15.375  0.00  0.00     0.031 A 
ATOM      6  C21 <0> d   1      19.541  -0.643  14.219  0.00  0.00     0.012 A 
ENDROOT
BRANCH   1   7
ATOM      7  C8  <0> d   1      20.265  -0.477  11.830  0.00  0.00     0.176 C 
BRANCH   7   8
ATOM      8  C7  <0> d   1      19.339  -0.160  10.653  0.00  0.00     0.269 C 
BRANCH   8   9
ATOM      9  N4  <0> d   1      20.096   0.549   9.613  0.00  0.00    -0.069 N 
ATOM     10  H5  <0> d   1      20.605  -0.119   9.052  0.00  0.00     0.277 HD
ATOM     11  H6  <0> d   1      20.746   1.188  10.045  0.00  0.00     0.277 HD
BRANCH   9  12
ATOM     12  C2  <0> d   1      19.168   1.300   8.756  0.00  0.00     0.178 C 
ATOM     13  C1  <0> d   1      17.933   0.442   8.470  0.00  0.00     0.039 C 
ATOM     14  C3  <0> d   1      18.742   2.584   9.469  0.00  0.00     0.039 C 
ENDBRANCH   9  12
ENDBRANCH   8   9
ENDBRANCH   7   8
BRANCH   7  15
ATOM     15  O10 <0> d   1      21.562   0.065  11.575  0.00  0.00    -0.389 OA
ATOM     16  H31 <0> d   1      21.647   1.003  11.794  0.00  0.00     0.210 HD
ENDBRANCH   7  15
ENDBRANCH   1   7
BRANCH   4  17
ATOM     17  N15 <0> d   1      18.153   1.824  16.563  0.00  0.00    -0.285 N 
ATOM     18  H34 <0> d   1      17.194   1.840  16.708  0.00  0.00     0.178 HD
BRANCH  17  19
ATOM     19  S16 <0> d   1      19.173   2.468  17.697  0.00  0.00     0.227 S 
ATOM     20  C17 <0> d   1      18.090   3.436  18.784  0.00  0.00     0.186 C 
ATOM     21  O18 <0> d   1      19.690   1.338  18.386  0.00  0.00    -0.206 OA
ATOM     22  O19 <0> d   1      20.027   3.326  16.953  0.00  0.00    -0.206 OA
ENDBRANCH  17  19
ENDBRANCH   4  17
TORSDOF 7
ENDMDL
MODEL 5
REMARK VINA RESULT:      -5.9      2.408      3.426
REMARK  7 active torsions:
REMARK  status: ('A' for Active; 'I' for Inactive)
REMARK    1  A    between atoms: C2_2  and  N4_4 
REMARK    2  A    between atoms: N4_4  and  C7_7 
REMARK    3  A    between atoms: C7_7  and  C8_8 
REMARK    4  A    between atoms: C8_8  and  O10_9 
REMARK    5  A    between atoms: C8_8  and  C11_10 
REMARK    6  A    between atoms: C14_13  and  N15_14 
REMARK    7  A    between atoms: N15_14  and  S16_15 
ROOT
ATOM      1  C11 <0> d   1      19.717   0.676  13.001  0.00  0.00    -0.028 A 
ATOM      2  C12 <0> d   1      19.149   1.932  13.107  0.00  0.00     0.012 A 
ATOM      3  C13 <0> d   1      18.627   2.356  14.313  0.00  0.00     0.031 A 
ATOM      4  C14 <0> d   1      18.674   1.520  15.421  0.00  0.00     0.042 A 
ATOM      5  C20 <0> d   1      19.246   0.259  15.311  0.00  0.00     0.031 A 
ATOM      6  C21 <0> d   1      19.761  -0.161  14.101  0.00  0.00     0.012 A 
ENDROOT
BRANCH   1   7
ATOM      7  C8  <0> d   1      20.287   0.216  11.684  0.00  0.00     0.176 C 
BRANCH   7   8
ATOM      8  C7  <0> d   1      19.537  -1.033  11.214  0.00  0.00     0.269 C 
BRANCH   8   9
ATOM      9  N4  <0> d   1      20.458  -2.178  11.197  0.00  0.00    -0.069 N 
ATOM     10  H5  <0> d   1      21.292  -1.947  11.716  0.00  0.00     0.277 HD
ATOM     11  H6  <0> d   1      20.705  -2.397  10.244  0.00  0.00     0.277 HD
BRANCH   9  12
ATOM     12  C2  <0> d   1      19.805  -3.341  11.813  0.00  0.00     0.178 C 
ATOM     13  C1  <0> d   1      18.349  -2.995  12.137  0.00  0.00     0.039 C 
ATOM     14  C3  <0> d   1      19.846  -4.522  10.843  0.00  0.00     0.039 C 
ENDBRANCH   9  12
ENDBRANCH   8   9
ENDBRANCH   7   8
BRANCH   7  15
ATOM     15  O10 <0> d   1      20.139   1.254  10.712  0.00  0.00    -0.389 OA
ATOM     16  H31 <0> d   1      20.974   1.566  10.339  0.00  0.00     0.210 HD
ENDBRANCH   7  15
ENDBRANCH   1   7
BRANCH   4  17
ATOM     17  N15 <0> d   1      18.147   1.946  16.642  0.00  0.00    -0.285 N 
ATOM     18  H34 <0> d   1      17.197   1.854  16.819  0.00  0.00     0.178 HD
BRANCH  17  19
ATOM     19  S16 <0> d   1      19.142   2.608  17.788  0.00  0.00     0.227 S 
ATOM     20  C17 <0> d   1      18.045   3.637  18.802  0.00  0.00     0.186 C 
ATOM     21  O18 <0> d   1      19.609   1.492  18.534  0.00  0.00    -0.206 OA
ATOM     22  O19 <0> d   1      20.041   3.419  17.044  0.00  0.00    -0.206 OA
ENDBRANCH  17  19
ENDBRANCH   4  17
TORSDOF 7
ENDMDL
MODEL 6
REMARK VINA RESULT:      -5.7      4.380      7.617
REMARK  7 active torsions:
REMARK  status: ('A' for Active; 'I' for Inactive)
REMARK    1  A    between atoms: C2_2  and  N4_4 
REMARK    2  A    between atoms: N4_4  and  C7_7 
REMARK    3  A    between atoms: C7_7  and  C8_8 
REMARK    4  A    between atoms: C8_8  and  O10_9 
REMARK    5  A    between atoms: C8_8  and  C11_10 
REMARK    6  A    between atoms: C14_13  and  N15_14 
REMARK    7  A    between atoms: N15_14  and  S16_15 
ROOT
ATOM      1  C11 <0> d   1      19.760  -0.531   9.680  0.00  0.00    -0.028 A 
ATOM      2  C12 <0> d   1      19.641   0.303   8.584  0.00  0.00     0.012 A 
ATOM      3  C13 <0> d   1      19.067  -0.164   7.418  0.00  0.00     0.031 A 
ATOM      4  C14 <0> d   1      18.609  -1.474   7.347  0.00  0.00     0.042 A 
ATOM      5  C20 <0> d   1      18.730  -2.309   8.450  0.00  0.00     0.031 A 
ATOM      6  C21 <0> d   1      19.310  -1.837   9.611  0.00  0.00     0.012 A 
ENDROOT
BRANCH   1   7
ATOM      7  C8  <0> d   1      20.386  -0.018  10.952  0.00  0.00     0.176 C 
BRANCH   7   8
ATOM      8  C7  <0> d   1      19.536  -0.454  12.148  0.00  0.00     0.269 C 
BRANCH   8   9
ATOM      9  N4  <0> d   1      19.247   0.713  12.993  0.00  0.00    -0.069 N 
ATOM     10  H5  <0> d   1      19.414   1.558  12.467  0.00  0.00     0.277 HD
ATOM     11  H6  <0> d   1      19.847   0.698  13.805  0.00  0.00     0.277 HD
BRANCH   9  12
ATOM     12  C2  <0> d   1      17.842   0.672  13.421  0.00  0.00     0.178 C 
ATOM     13  C1  <0> d   1      17.003  -0.023  12.347  0.00  0.00     0.039 C 
ATOM     14  C3  <0> d   1      17.732  -0.103  14.735  0.00  0.00     0.039 C 
ENDBRANCH   9  12
ENDBRANCH   8   9
ENDBRANCH   7   8
BRANCH   7  15
ATOM     15  O10 <0> d   1      21.704  -0.553  11.084  0.00  0.00    -0.389 OA
ATOM     16  H31 <0> d   1      21.990  -1.087  10.331  0.00  0.00     0.210 HD
ENDBRANCH   7  15
ENDBRANCH   1   7
BRANCH   4  17
ATOM     17  N15 <0> d   1      18.029  -1.949   6.169  0.00  0.00    -0.285 N 
ATOM     18  H34 <0> d   1      17.075  -1.852   6.024  0.00  0.00     0.178 HD
BRANCH  17  19
ATOM     19  S16 <0> d   1      18.971  -2.679   5.019  0.00  0.00     0.227 S 
ATOM     20  C17 <0> d   1      17.795  -3.600   3.989  0.00  0.00     0.186 C 
ATOM     21  O18 <0> d   1      19.533  -1.598   4.288  0.00  0.00    -0.206 OA
ATOM     22  O19 <0> d   1      19.795  -3.572   5.755  0.00  0.00    -0.206 OA
ENDBRANCH  17  19
ENDBRANCH   4  17
TORSDOF 7
ENDMDL
MODEL 7
REMARK VINA RESULT:      -5.6      4.561      7.364
REMARK  7 active torsions:
REMARK  status: ('A' for Active; 'I' for Inactive)
REMARK    1  A    between atoms: C2_2  and  N4_4 
REMARK    2  A    between atoms: N4_4  and  C7_7 
REMARK    3  A    between atoms: C7_7  and  C8_8 
REMARK    4  A    between atoms: C8_8  and  O10_9 
REMARK    5  A    between atoms: C8_8  and  C11_10 
REMARK    6  A    between atoms: C14_13  and  N15_14 
REMARK    7  A    between atoms: N15_14  and  S16_15 
ROOT
ATOM      1  C11 <0> d   1      18.036   2.065  10.322  0.00  0.00    -0.028 A 
ATOM      2  C12 <0> d   1      17.541   0.774  10.293  0.00  0.00     0.012 A 
ATOM      3  C13 <0> d   1      17.902  -0.083   9.273  0.00  0.00     0.031 A 
ATOM      4  C14 <0> d   1      18.765   0.352   8.275  0.00  0.00     0.042 A 
ATOM      5  C20 <0> d   1      19.261   1.649   8.308  0.00  0.00     0.031 A 
ATOM      6  C21 <0> d   1      18.891   2.503   9.328  0.00  0.00     0.012 A 
ENDROOT
BRANCH   1   7
ATOM      7  C8  <0> d   1      17.640   2.998  11.438  0.00  0.00     0.176 C 
BRANCH   7   8
ATOM      8  C7  <0> d   1      18.891   3.674  12.003  0.00  0.00     0.269 C 
BRANCH   8   9
ATOM      9  N4  <0> d   1      19.622   2.721  12.850  0.00  0.00    -0.069 N 
ATOM     10  H5  <0> d   1      20.451   3.165  13.218  0.00  0.00     0.277 HD
ATOM     11  H6  <0> d   1      19.886   1.916  12.303  0.00  0.00     0.277 HD
BRANCH   9  12
ATOM     12  C2  <0> d   1      18.762   2.295  13.963  0.00  0.00     0.178 C 
ATOM     13  C1  <0> d   1      19.322   1.010  14.577  0.00  0.00     0.039 C 
ATOM     14  C3  <0> d   1      18.723   3.394  15.027  0.00  0.00     0.039 C 
ENDBRANCH   9  12
ENDBRANCH   8   9
ENDBRANCH   7   8
BRANCH   7  15
ATOM     15  O10 <0> d   1      16.748   3.993  10.933  0.00  0.00    -0.389 OA
ATOM     16  H31 <0> d   1      16.526   4.683  11.572  0.00  0.00     0.210 HD
ENDBRANCH   7  15
ENDBRANCH   1   7
BRANCH   4  17
ATOM     17  N15 <0> d   1      19.132  -0.513   7.242  0.00  0.00    -0.285 N 
ATOM     18  H34 <0> d   1      19.776  -1.219   7.406  0.00  0.00     0.178 HD
BRANCH  17  19
ATOM     19  S16 <0> d   1      18.468  -0.332   5.736  0.00  0.00     0.227 S 
ATOM     20  C17 <0> d   1      18.388  -2.018   5.070  0.00  0.00     0.186 C 
ATOM     21  O18 <0> d   1      17.161   0.167   5.987  0.00  0.00    -0.206 OA
ATOM     22  O19 <0> d   1      19.422   0.441   5.022  0.00  0.00    -0.206 OA
ENDBRANCH  17  19
ENDBRANCH   4  17
TORSDOF 7
ENDMDL
MODEL 8
REMARK VINA RESULT:      -5.6      1.753      2.184
REMARK  7 active torsions:
REMARK  status: ('A' for Active; 'I' for Inactive)
REMARK    1  A    between atoms: C2_2  and  N4_4 
REMARK    2  A    between atoms: N4_4  and  C7_7 
REMARK    3  A    between atoms: C7_7  and  C8_8 
REMARK    4  A    between atoms: C8_8  and  O10_9 
REMARK    5  A    between atoms: C8_8  and  C11_10 
REMARK    6  A    between atoms: C14_13  and  N15_14 
REMARK    7  A    between atoms: N15_14  and  S16_15 
ROOT
ATOM      1  C11 <0> d   1      19.120  -0.604  12.995  0.00  0.00    -0.028 A 
ATOM      2  C12 <0> d   1      18.636  -1.422  13.998  0.00  0.00     0.012 A 
ATOM      3  C13 <0> d   1      18.126  -0.869  15.157  0.00  0.00     0.031 A 
ATOM      4  C14 <0> d   1      18.100   0.511  15.312  0.00  0.00     0.042 A 
ATOM      5  C20 <0> d   1      18.586   1.330  14.302  0.00  0.00     0.031 A 
ATOM      6  C21 <0> d   1      19.100   0.770  13.149  0.00  0.00     0.012 A 
ENDROOT
BRANCH   1   7
ATOM      7  C8  <0> d   1      19.675  -1.210  11.732  0.00  0.00     0.176 C 
BRANCH   7   8
ATOM      8  C7  <0> d   1      20.727  -0.272  11.136  0.00  0.00     0.269 C 
BRANCH   8   9
ATOM      9  N4  <0> d   1      20.697  -0.371   9.671  0.00  0.00    -0.069 N 
ATOM     10  H5  <0> d   1      20.881  -1.324   9.394  0.00  0.00     0.277 HD
ATOM     11  H6  <0> d   1      21.401   0.235   9.277  0.00  0.00     0.277 HD
BRANCH   9  12
ATOM     12  C2  <0> d   1      19.373   0.034   9.179  0.00  0.00     0.178 C 
ATOM     13  C1  <0> d   1      19.435   1.479   8.678  0.00  0.00     0.039 C 
ATOM     14  C3  <0> d   1      18.952  -0.886   8.031  0.00  0.00     0.039 C 
ENDBRANCH   9  12
ENDBRANCH   8   9
ENDBRANCH   7   8
BRANCH   7  15
ATOM     15  O10 <0> d   1      20.277  -2.471  12.032  0.00  0.00    -0.389 OA
ATOM     16  H31 <0> d   1      20.583  -2.957  11.255  0.00  0.00     0.210 HD
ENDBRANCH   7  15
ENDBRANCH   1   7
BRANCH   4  17
ATOM     17  N15 <0> d   1      17.585   1.073  16.483  0.00  0.00    -0.285 N 
ATOM     18  H34 <0> d   1      16.632   1.235  16.565  0.00  0.00     0.178 HD
BRANCH  17  19
ATOM     19  S16 <0> d   1      18.602   1.464  17.730  0.00  0.00     0.227 S 
ATOM     20  C17 <0> d   1      19.337  -0.118  18.228  0.00  0.00     0.186 C 
ATOM     21  O18 <0> d   1      19.581   2.304  17.134  0.00  0.00    -0.206 OA
ATOM     22  O19 <0> d   1      17.738   1.954  18.746  0.00  0.00    -0.206 OA
ENDBRANCH  17  19
ENDBRANCH   4  17
TORSDOF 7
ENDMDL
MODEL 9
REMARK VINA RESULT:      -5.6      4.579      7.403
REMARK  7 active torsions:
REMARK  status: ('A' for Active; 'I' for Inactive)
REMARK    1  A    between atoms: C2_2  and  N4_4 
REMARK    2  A    between atoms: N4_4  and  C7_7 
REMARK    3  A    between atoms: C7_7  and  C8_8 
REMARK    4  A    between atoms: C8_8  and  O10_9 
REMARK    5  A    between atoms: C8_8  and  C11_10 
REMARK    6  A    between atoms: C14_13  and  N15_14 
REMARK    7  A    between atoms: N15_14  and  S16_15 
ROOT
ATOM      1  C11 <0> d   1      19.692  -0.349   9.397  0.00  0.00    -0.028 A 
ATOM      2  C12 <0> d   1      18.992  -1.530   9.230  0.00  0.00     0.012 A 
ATOM      3  C13 <0> d   1      18.177  -1.702   8.129  0.00  0.00     0.031 A 
ATOM      4  C14 <0> d   1      18.061  -0.687   7.188  0.00  0.00     0.042 A 
ATOM      5  C20 <0> d   1      18.766   0.497   7.358  0.00  0.00     0.031 A 
ATOM      6  C21 <0> d   1      19.575   0.665   8.464  0.00  0.00     0.012 A 
ENDROOT
BRANCH   1   7
ATOM      7  C8  <0> d   1      20.582  -0.165  10.599  0.00  0.00     0.176 C 
BRANCH   7   8
ATOM      8  C7  <0> d   1      19.852   0.675  11.649  0.00  0.00     0.269 C 
BRANCH   8   9
ATOM      9  N4  <0> d   1      20.514   1.980  11.778  0.00  0.00    -0.069 N 
ATOM     10  H5  <0> d   1      21.339   1.998  11.196  0.00  0.00     0.277 HD
ATOM     11  H6  <0> d   1      20.778   2.131  12.740  0.00  0.00     0.277 HD
BRANCH   9  12
ATOM     12  C2  <0> d   1      19.592   3.042  11.351  0.00  0.00     0.178 C 
ATOM     13  C1  <0> d   1      18.158   2.508  11.368  0.00  0.00     0.039 C 
ATOM     14  C3  <0> d   1      19.705   4.230  12.307  0.00  0.00     0.039 C 
ENDBRANCH   9  12
ENDBRANCH   8   9
ENDBRANCH   7   8
BRANCH   7  15
ATOM     15  O10 <0> d   1      20.906  -1.442  11.153  0.00  0.00    -0.389 OA
ATOM     16  H31 <0> d   1      21.651  -1.427  11.769  0.00  0.00     0.210 HD
ENDBRANCH   7  15
ENDBRANCH   1   7
BRANCH   4  17
ATOM     17  N15 <0> d   1      17.236  -0.858   6.074  0.00  0.00    -0.285 N 
ATOM     18  H34 <0> d   1      16.285  -0.681   6.143  0.00  0.00     0.178 HD
BRANCH  17  19
ATOM     19  S16 <0> d   1      17.883  -1.362   4.635  0.00  0.00     0.227 S 
ATOM     20  C17 <0> d   1      19.232  -2.477   5.111  0.00  0.00     0.186 C 
ATOM     21  O18 <0> d   1      16.831  -2.089   4.014  0.00  0.00    -0.206 OA
ATOM     22  O19 <0> d   1      18.400  -0.176   4.048  0.00  0.00    -0.206 OA
ENDBRANCH  17  19
ENDBRANCH   4  17
TORSDOF 7
ENDMDL
