MODEL 1
REMARK VINA RESULT:      -9.4      0.000      0.000
REMARK  9 active torsions:
REMARK  status: ('A' for Active; 'I' for Inactive)
REMARK    1  A    between atoms: C2_2  and  C3_3 
REMARK       I    between atoms: N7_7  and  C8_8 
REMARK       I    between atoms: C8_8  and  N10_10 
REMARK    2  A    between atoms: N10_10  and  C11_11 
REMARK    3  A    between atoms: C11_11  and  C12_12 
REMARK    4  A    between atoms: C12_12  and  C13_13 
REMARK    5  A    between atoms: C16_16  and  S17_17 
REMARK    6  A    between atoms: S17_17  and  N20_20 
REMARK    7  A    between atoms: C21_21  and  O22_22 
REMARK    8  A    between atoms: C21_21  and  N23_23 
REMARK    9  A    between atoms: N23_23  and  C24_24 
ROOT
ATOM      1  C13 ZIN A   1      18.269   0.401   6.742  0.00  0.00    -0.057 A 
ATOM      2  C14 ZIN A   1      19.123   1.462   6.980  0.00  0.00     0.009 A 
ATOM      3  C15 ZIN A   1      19.194   2.022   8.242  0.00  0.00     0.026 A 
ATOM      4  C16 ZIN A   1      18.411   1.521   9.265  0.00  0.00     0.081 A 
ATOM      5  C31 ZIN A   1      17.556   0.462   9.026  0.00  0.00     0.026 A 
ATOM      6  C32 ZIN A   1      17.483  -0.096   7.763  0.00  0.00     0.009 A 
ENDROOT
BRANCH   4   7
ATOM      7  S17 ZIN A   1      18.502   2.235  10.874  0.00  0.00     0.286 S 
ATOM      8  O18 ZIN A   1      19.701   2.997  10.907  0.00  0.00    -0.198 OA
ATOM      9  O19 ZIN A   1      17.221   2.788  11.141  0.00  0.00    -0.198 OA
BRANCH   7  10
ATOM     10  N20 ZIN A   1      18.708   0.992  11.949  0.00  0.00    -0.117 NA
ATOM     11  C21 ZIN A   1      19.091   1.243  13.167  0.00  0.00     0.251 C 
BRANCH  11  12
ATOM     12  O22 ZIN A   1      19.320   2.517  13.555  0.00  0.00    -0.331 OA
ATOM     13  H52 ZIN A   1      18.940   3.183  12.966  0.00  0.00     0.221 HD
ENDBRANCH  11  12
BRANCH  11  14
ATOM     14  N23 ZIN A   1      19.262   0.213  14.059  0.00  0.00    -0.350 N 
ATOM     15  H53 ZIN A   1      20.140   0.030  14.426  0.00  0.00     0.163 HD
BRANCH  14  16
ATOM     16  C24 ZIN A   1      18.116  -0.609  14.457  0.00  0.00     0.085 C 
ATOM     17  C30 ZIN A   1      17.163   0.224  15.316  0.00  0.00     0.025 C 
ATOM     18  C29 ZIN A   1      17.899   0.713  16.566  0.00  0.00     0.006 C 
ATOM     19  C27 ZIN A   1      18.390  -0.491  17.372  0.00  0.00    -0.019 C 
ATOM     20  C26 ZIN A   1      19.343  -1.325  16.512  0.00  0.00     0.006 C 
ATOM     21  C28 ZIN A   1      19.125  -0.003  18.621  0.00  0.00     0.010 C 
ATOM     22  C25 ZIN A   1      18.607  -1.813  15.262  0.00  0.00     0.025 C 
ENDBRANCH  14  16
ENDBRANCH  11  14
ENDBRANCH   7  10
ENDBRANCH   4   7
BRANCH   1  23
ATOM     23  C12 ZIN A   1      18.192  -0.209   5.366  0.00  0.00     0.058 C 
BRANCH  23  24
ATOM     24  C11 ZIN A   1      19.190  -1.365   5.266  0.00  0.00     0.129 C 
BRANCH  24  25
ATOM     25  N10 ZIN A   1      18.856  -2.386   6.263  0.00  0.00    -0.342 N 
ATOM     26  C8  ZIN A   1      18.326  -3.562   5.872  0.00  0.00     0.325 C 
ATOM     27  N7  ZIN A   1      18.018  -4.500   6.789  0.00  0.00    -0.262 N 
ATOM     28  O9  ZIN A   1      18.125  -3.775   4.692  0.00  0.00    -0.247 OA
ATOM     29  C6  ZIN A   1      17.437  -5.822   6.520  0.00  0.00     0.171 A 
ATOM     30  C33 ZIN A   1      18.179  -4.396   8.122  0.00  0.00     0.258 A 
ATOM     31  C4  ZIN A   1      17.285  -6.487   7.869  0.00  0.00    -0.054 A 
ATOM     32  C3  ZIN A   1      17.731  -5.626   8.779  0.00  0.00     0.013 A 
ATOM     33  C5  ZIN A   1      16.731  -7.864   8.132  0.00  0.00     0.046 C 
ATOM     34  O34 ZIN A   1      18.637  -3.427   8.695  0.00  0.00    -0.267 OA
ATOM     35  H45 ZIN A   1      19.015  -2.215   7.204  0.00  0.00     0.164 HD
BRANCH  32  36
ATOM     36  C2  ZIN A   1      17.765  -5.877  10.265  0.00  0.00     0.040 C 
ATOM     37  C1  ZIN A   1      16.628  -5.106  10.939  0.00  0.00     0.010 C 
ENDBRANCH  32  36
ENDBRANCH  24  25
ENDBRANCH  23  24
ENDBRANCH   1  23
TORSDOF 9
ENDMDL
MODEL 2
REMARK VINA RESULT:      -9.3      1.996      7.627
REMARK  9 active torsions:
REMARK  status: ('A' for Active; 'I' for Inactive)
REMARK    1  A    between atoms: C2_2  and  C3_3 
REMARK       I    between atoms: N7_7  and  C8_8 
REMARK       I    between atoms: C8_8  and  N10_10 
REMARK    2  A    between atoms: N10_10  and  C11_11 
REMARK    3  A    between atoms: C11_11  and  C12_12 
REMARK    4  A    between atoms: C12_12  and  C13_13 
REMARK    5  A    between atoms: C16_16  and  S17_17 
REMARK    6  A    between atoms: S17_17  and  N20_20 
REMARK    7  A    between atoms: C21_21  and  O22_22 
REMARK    8  A    between atoms: C21_21  and  N23_23 
REMARK    9  A    between atoms: N23_23  and  C24_24 
ROOT
ATOM      1  C13 ZIN A   1      18.286   1.465   8.680  0.00  0.00    -0.057 A 
ATOM      2  C14 ZIN A   1      17.477   0.344   8.687  0.00  0.00     0.009 A 
ATOM      3  C15 ZIN A   1      17.513  -0.541   7.626  0.00  0.00     0.026 A 
ATOM      4  C16 ZIN A   1      18.359  -0.305   6.557  0.00  0.00     0.081 A 
ATOM      5  C31 ZIN A   1      19.166   0.816   6.550  0.00  0.00     0.026 A 
ATOM      6  C32 ZIN A   1      19.127   1.703   7.610  0.00  0.00     0.009 A 
ENDROOT
BRANCH   4   7
ATOM      7  S17 ZIN A   1      18.406  -1.434   5.206  0.00  0.00     0.286 S 
ATOM      8  O18 ZIN A   1      17.186  -1.263   4.498  0.00  0.00    -0.198 OA
ATOM      9  O19 ZIN A   1      19.683  -1.284   4.601  0.00  0.00    -0.198 OA
BRANCH   7  10
ATOM     10  N20 ZIN A   1      18.367  -2.962   5.843  0.00  0.00    -0.117 NA
ATOM     11  C21 ZIN A   1      19.333  -3.370   6.614  0.00  0.00     0.251 C 
BRANCH  11  12
ATOM     12  O22 ZIN A   1      20.368  -2.547   6.894  0.00  0.00    -0.331 OA
ATOM     13  H52 ZIN A   1      20.260  -2.043   7.713  0.00  0.00     0.221 HD
ENDBRANCH  11  12
BRANCH  11  14
ATOM     14  N23 ZIN A   1      19.301  -4.637   7.143  0.00  0.00    -0.350 N 
ATOM     15  H53 ZIN A   1      20.036  -5.248   6.983  0.00  0.00     0.163 HD
BRANCH  14  16
ATOM     16  C24 ZIN A   1      18.156  -5.064   7.950  0.00  0.00     0.085 C 
ATOM     17  C30 ZIN A   1      17.647  -3.884   8.780  0.00  0.00     0.025 C 
ATOM     18  C29 ZIN A   1      18.764  -3.389   9.702  0.00  0.00     0.006 C 
ATOM     19  C27 ZIN A   1      19.193  -4.521  10.636  0.00  0.00    -0.019 C 
ATOM     20  C26 ZIN A   1      19.701  -5.702   9.806  0.00  0.00     0.006 C 
ATOM     21  C28 ZIN A   1      20.310  -4.027  11.558  0.00  0.00     0.010 C 
ATOM     22  C25 ZIN A   1      18.584  -6.197   8.885  0.00  0.00     0.025 C 
ENDBRANCH  14  16
ENDBRANCH  11  14
ENDBRANCH   7  10
ENDBRANCH   4   7
BRANCH   1  23
ATOM     23  C12 ZIN A   1      18.246   2.430   9.837  0.00  0.00     0.058 C 
BRANCH  23  24
ATOM     24  C11 ZIN A   1      19.559   2.343  10.618  0.00  0.00     0.129 C 
BRANCH  24  25
ATOM     25  N10 ZIN A   1      19.276   1.969  12.007  0.00  0.00    -0.342 N 
ATOM     26  C8  ZIN A   1      19.534   0.716  12.432  0.00  0.00     0.325 C 
ATOM     27  N7  ZIN A   1      19.274   0.373  13.709  0.00  0.00    -0.262 N 
ATOM     28  O9  ZIN A   1      20.001  -0.102  11.665  0.00  0.00    -0.247 OA
ATOM     29  C6  ZIN A   1      19.498  -0.945  14.318  0.00  0.00     0.171 A 
ATOM     30  C33 ZIN A   1      18.754   1.171  14.660  0.00  0.00     0.258 A 
ATOM     31  C4  ZIN A   1      19.050  -0.816  15.756  0.00  0.00    -0.054 A 
ATOM     32  C3  ZIN A   1      18.624   0.433  15.919  0.00  0.00     0.013 A 
ATOM     33  C5  ZIN A   1      19.077  -1.898  16.804  0.00  0.00     0.046 C 
ATOM     34  O34 ZIN A   1      18.445   2.336  14.500  0.00  0.00    -0.267 OA
ATOM     35  H45 ZIN A   1      18.904   2.623  12.618  0.00  0.00     0.164 HD
BRANCH  32  36
ATOM     36  C2  ZIN A   1      18.085   1.003  17.206  0.00  0.00     0.040 C 
ATOM     37  C1  ZIN A   1      19.198   1.757  17.937  0.00  0.00     0.010 C 
ENDBRANCH  32  36
ENDBRANCH  24  25
ENDBRANCH  23  24
ENDBRANCH   1  23
TORSDOF 9
ENDMDL
MODEL 3
REMARK VINA RESULT:      -9.2      1.941      8.345
REMARK  9 active torsions:
REMARK  status: ('A' for Active; 'I' for Inactive)
REMARK    1  A    between atoms: C2_2  and  C3_3 
REMARK       I    between atoms: N7_7  and  C8_8 
REMARK       I    between atoms: C8_8  and  N10_10 
REMARK    2  A    between atoms: N10_10  and  C11_11 
REMARK    3  A    between atoms: C11_11  and  C12_12 
REMARK    4  A    between atoms: C12_12  and  C13_13 
REMARK    5  A    between atoms: C16_16  and  S17_17 
REMARK    6  A    between atoms: S17_17  and  N20_20 
REMARK    7  A    between atoms: C21_21  and  O22_22 
REMARK    8  A    between atoms: C21_21  and  N23_23 
REMARK    9  A    between atoms: N23_23  and  C24_24 
ROOT
ATOM      1  C13 ZIN A   1      18.162   1.270   8.778  0.00  0.00    -0.057 A 
ATOM      2  C14 ZIN A   1      17.434   0.095   8.728  0.00  0.00     0.009 A 
ATOM      3  C15 ZIN A   1      17.551  -0.744   7.635  0.00  0.00     0.026 A 
ATOM      4  C16 ZIN A   1      18.395  -0.409   6.593  0.00  0.00     0.081 A 
ATOM      5  C31 ZIN A   1      19.122   0.765   6.643  0.00  0.00     0.026 A 
ATOM      6  C32 ZIN A   1      19.002   1.607   7.734  0.00  0.00     0.009 A 
ENDROOT
BRANCH   4   7
ATOM      7  S17 ZIN A   1      18.545  -1.479   5.201  0.00  0.00     0.286 S 
ATOM      8  O18 ZIN A   1      17.398  -1.249   4.394  0.00  0.00    -0.198 OA
ATOM      9  O19 ZIN A   1      19.874  -1.333   4.723  0.00  0.00    -0.198 OA
BRANCH   7  10
ATOM     10  N20 ZIN A   1      18.417  -3.032   5.763  0.00  0.00    -0.117 NA
ATOM     11  C21 ZIN A   1      19.355  -3.529   6.516  0.00  0.00     0.251 C 
BRANCH  11  12
ATOM     12  O22 ZIN A   1      20.432  -2.780   6.839  0.00  0.00    -0.331 OA
ATOM     13  H52 ZIN A   1      21.277  -3.239   6.733  0.00  0.00     0.221 HD
ENDBRANCH  11  12
BRANCH  11  14
ATOM     14  N23 ZIN A   1      19.250  -4.817   6.982  0.00  0.00    -0.350 N 
ATOM     15  H53 ZIN A   1      19.043  -5.540   6.369  0.00  0.00     0.163 HD
BRANCH  14  16
ATOM     16  C24 ZIN A   1      19.449  -5.099   8.406  0.00  0.00     0.085 C 
ATOM     17  C30 ZIN A   1      18.990  -6.526   8.712  0.00  0.00     0.025 C 
ATOM     18  C29 ZIN A   1      17.506  -6.670   8.367  0.00  0.00     0.006 C 
ATOM     19  C27 ZIN A   1      16.690  -5.682   9.202  0.00  0.00    -0.019 C 
ATOM     20  C26 ZIN A   1      17.150  -4.254   8.896  0.00  0.00     0.006 C 
ATOM     21  C28 ZIN A   1      15.207  -5.825   8.857  0.00  0.00     0.010 C 
ATOM     22  C25 ZIN A   1      18.634  -4.111   9.241  0.00  0.00     0.025 C 
ENDBRANCH  14  16
ENDBRANCH  11  14
ENDBRANCH   7  10
ENDBRANCH   4   7
BRANCH   1  23
ATOM     23  C12 ZIN A   1      18.035   2.184   9.969  0.00  0.00     0.058 C 
BRANCH  23  24
ATOM     24  C11 ZIN A   1      19.382   2.270  10.691  0.00  0.00     0.129 C 
BRANCH  24  25
ATOM     25  N10 ZIN A   1      19.260   1.669  12.022  0.00  0.00    -0.342 N 
ATOM     26  C8  ZIN A   1      19.217   2.458  13.115  0.00  0.00     0.325 C 
ATOM     27  N7  ZIN A   1      19.105   1.905  14.339  0.00  0.00    -0.262 N 
ATOM     28  O9  ZIN A   1      19.278   3.666  12.996  0.00  0.00    -0.247 OA
ATOM     29  C6  ZIN A   1      19.047   2.627  15.617  0.00  0.00     0.171 A 
ATOM     30  C33 ZIN A   1      19.035   0.590  14.618  0.00  0.00     0.258 A 
ATOM     31  C4  ZIN A   1      18.924   1.565  16.685  0.00  0.00    -0.054 A 
ATOM     32  C3  ZIN A   1      18.918   0.389  16.064  0.00  0.00     0.013 A 
ATOM     33  C5  ZIN A   1      18.829   1.794  18.171  0.00  0.00     0.046 C 
ATOM     34  O34 ZIN A   1      19.057  -0.300  13.790  0.00  0.00    -0.267 OA
ATOM     35  H45 ZIN A   1      19.212   0.706  12.117  0.00  0.00     0.164 HD
BRANCH  32  36
ATOM     36  C2  ZIN A   1      18.810  -0.951  16.747  0.00  0.00     0.040 C 
ATOM     37  C1  ZIN A   1      17.341  -1.374  16.812  0.00  0.00     0.010 C 
ENDBRANCH  32  36
ENDBRANCH  24  25
ENDBRANCH  23  24
ENDBRANCH   1  23
TORSDOF 9
ENDMDL
MODEL 4
REMARK VINA RESULT:      -9.2      1.857      8.385
REMARK  9 active torsions:
REMARK  status: ('A' for Active; 'I' for Inactive)
REMARK    1  A    between atoms: C2_2  and  C3_3 
REMARK       I    between atoms: N7_7  and  C8_8 
REMARK       I    between atoms: C8_8  and  N10_10 
REMARK    2  A    between atoms: N10_10  and  C11_11 
REMARK    3  A    between atoms: C11_11  and  C12_12 
REMARK    4  A    between atoms: C12_12  and  C13_13 
REMARK    5  A    between atoms: C16_16  and  S17_17 
REMARK    6  A    between atoms: S17_17  and  N20_20 
REMARK    7  A    between atoms: C21_21  and  O22_22 
REMARK    8  A    between atoms: C21_21  and  N23_23 
REMARK    9  A    between atoms: N23_23  and  C24_24 
ROOT
ATOM      1  C13 ZIN A   1      18.379   1.673   8.767  0.00  0.00    -0.057 A 
ATOM      2  C14 ZIN A   1      17.698   0.476   8.887  0.00  0.00     0.009 A 
ATOM      3  C15 ZIN A   1      17.745  -0.451   7.862  0.00  0.00     0.026 A 
ATOM      4  C16 ZIN A   1      18.473  -0.180   6.718  0.00  0.00     0.081 A 
ATOM      5  C31 ZIN A   1      19.152   1.017   6.599  0.00  0.00     0.026 A 
ATOM      6  C32 ZIN A   1      19.102   1.945   7.622  0.00  0.00     0.009 A 
ENDROOT
BRANCH   4   7
ATOM      7  S17 ZIN A   1      18.533  -1.362   5.412  0.00  0.00     0.286 S 
ATOM      8  O18 ZIN A   1      17.566  -0.952   4.456  0.00  0.00    -0.198 OA
ATOM      9  O19 ZIN A   1      19.907  -1.545   5.100  0.00  0.00    -0.198 OA
BRANCH   7  10
ATOM     10  N20 ZIN A   1      17.998  -2.802   6.031  0.00  0.00    -0.117 NA
ATOM     11  C21 ZIN A   1      18.092  -3.889   5.322  0.00  0.00     0.251 C 
BRANCH  11  12
ATOM     12  O22 ZIN A   1      18.624  -3.843   4.081  0.00  0.00    -0.331 OA
ATOM     13  H52 ZIN A   1      18.977  -4.689   3.772  0.00  0.00     0.221 HD
ENDBRANCH  11  12
BRANCH  11  14
ATOM     14  N23 ZIN A   1      17.648  -5.084   5.834  0.00  0.00    -0.350 N 
ATOM     15  H53 ZIN A   1      16.702  -5.223   5.992  0.00  0.00     0.163 HD
BRANCH  14  16
ATOM     16  C24 ZIN A   1      18.606  -6.149   6.143  0.00  0.00     0.085 C 
ATOM     17  C30 ZIN A   1      17.857  -7.365   6.691  0.00  0.00     0.025 C 
ATOM     18  C29 ZIN A   1      17.104  -6.971   7.963  0.00  0.00     0.006 C 
ATOM     19  C27 ZIN A   1      18.101  -6.473   9.011  0.00  0.00    -0.019 C 
ATOM     20  C26 ZIN A   1      18.851  -5.256   8.464  0.00  0.00     0.006 C 
ATOM     21  C28 ZIN A   1      17.349  -6.078  10.284  0.00  0.00     0.010 C 
ATOM     22  C25 ZIN A   1      19.603  -5.651   7.191  0.00  0.00     0.025 C 
ENDBRANCH  14  16
ENDBRANCH  11  14
ENDBRANCH   7  10
ENDBRANCH   4   7
BRANCH   1  23
ATOM     23  C12 ZIN A   1      18.328   2.683   9.885  0.00  0.00     0.058 C 
BRANCH  23  24
ATOM     24  C11 ZIN A   1      19.623   2.610  10.696  0.00  0.00     0.129 C 
BRANCH  24  25
ATOM     25  N10 ZIN A   1      19.318   2.180  12.064  0.00  0.00    -0.342 N 
ATOM     26  C8  ZIN A   1      19.587   0.916  12.448  0.00  0.00     0.325 C 
ATOM     27  N7  ZIN A   1      19.307   0.520  13.705  0.00  0.00    -0.262 N 
ATOM     28  O9  ZIN A   1      20.083   0.134  11.660  0.00  0.00    -0.247 OA
ATOM     29  C6  ZIN A   1      19.540  -0.816  14.268  0.00  0.00     0.171 A 
ATOM     30  C33 ZIN A   1      18.754   1.274  14.674  0.00  0.00     0.258 A 
ATOM     31  C4  ZIN A   1      19.060  -0.748  15.700  0.00  0.00    -0.054 A 
ATOM     32  C3  ZIN A   1      18.610   0.487  15.901  0.00  0.00     0.013 A 
ATOM     33  C5  ZIN A   1      19.083  -1.869  16.707  0.00  0.00     0.046 C 
ATOM     34  O34 ZIN A   1      18.429   2.439  14.551  0.00  0.00    -0.267 OA
ATOM     35  H45 ZIN A   1      18.922   2.804  12.691  0.00  0.00     0.164 HD
BRANCH  32  36
ATOM     36  C2  ZIN A   1      18.035   0.999  17.197  0.00  0.00     0.040 C 
ATOM     37  C1  ZIN A   1      19.174   1.350  18.157  0.00  0.00     0.010 C 
ENDBRANCH  32  36
ENDBRANCH  24  25
ENDBRANCH  23  24
ENDBRANCH   1  23
TORSDOF 9
ENDMDL
MODEL 5
REMARK VINA RESULT:      -9.1      2.366      9.186
REMARK  9 active torsions:
REMARK  status: ('A' for Active; 'I' for Inactive)
REMARK    1  A    between atoms: C2_2  and  C3_3 
REMARK       I    between atoms: N7_7  and  C8_8 
REMARK       I    between atoms: C8_8  and  N10_10 
REMARK    2  A    between atoms: N10_10  and  C11_11 
REMARK    3  A    between atoms: C11_11  and  C12_12 
REMARK    4  A    between atoms: C12_12  and  C13_13 
REMARK    5  A    between atoms: C16_16  and  S17_17 
REMARK    6  A    between atoms: S17_17  and  N20_20 
REMARK    7  A    between atoms: C21_21  and  O22_22 
REMARK    8  A    between atoms: C21_21  and  N23_23 
REMARK    9  A    between atoms: N23_23  and  C24_24 
ROOT
ATOM      1  C13 ZIN A   1      19.114   1.075   8.403  0.00  0.00    -0.057 A 
ATOM      2  C14 ZIN A   1      18.912   1.253   7.047  0.00  0.00     0.009 A 
ATOM      3  C15 ZIN A   1      18.960   0.167   6.192  0.00  0.00     0.026 A 
ATOM      4  C16 ZIN A   1      19.211  -1.097   6.694  0.00  0.00     0.081 A 
ATOM      5  C31 ZIN A   1      19.414  -1.274   8.049  0.00  0.00     0.026 A 
ATOM      6  C32 ZIN A   1      19.369  -0.187   8.903  0.00  0.00     0.009 A 
ENDROOT
BRANCH   4   7
ATOM      7  S17 ZIN A   1      19.272  -2.481   5.605  0.00  0.00     0.286 S 
ATOM      8  O18 ZIN A   1      19.436  -1.953   4.296  0.00  0.00    -0.198 OA
ATOM      9  O19 ZIN A   1      20.174  -3.411   6.187  0.00  0.00    -0.198 OA
BRANCH   7  10
ATOM     10  N20 ZIN A   1      17.778  -3.194   5.637  0.00  0.00    -0.117 NA
ATOM     11  C21 ZIN A   1      17.567  -4.292   4.970  0.00  0.00     0.251 C 
BRANCH  11  12
ATOM     12  O22 ZIN A   1      18.566  -4.848   4.251  0.00  0.00    -0.331 OA
ATOM     13  H52 ZIN A   1      19.265  -4.227   4.001  0.00  0.00     0.221 HD
ENDBRANCH  11  12
BRANCH  11  14
ATOM     14  N23 ZIN A   1      16.329  -4.884   4.997  0.00  0.00    -0.350 N 
ATOM     15  H53 ZIN A   1      15.530  -4.337   5.057  0.00  0.00     0.163 HD
BRANCH  14  16
ATOM     16  C24 ZIN A   1      16.213  -6.344   4.934  0.00  0.00     0.085 C 
ATOM     17  C30 ZIN A   1      14.804  -6.725   4.477  0.00  0.00     0.025 C 
ATOM     18  C29 ZIN A   1      13.779  -6.174   5.471  0.00  0.00     0.006 C 
ATOM     19  C27 ZIN A   1      14.042  -6.767   6.857  0.00  0.00    -0.019 C 
ATOM     20  C26 ZIN A   1      15.453  -6.386   7.314  0.00  0.00     0.006 C 
ATOM     21  C28 ZIN A   1      13.018  -6.216   7.851  0.00  0.00     0.010 C 
ATOM     22  C25 ZIN A   1      16.477  -6.936   6.320  0.00  0.00     0.025 C 
ENDBRANCH  14  16
ENDBRANCH  11  14
ENDBRANCH   7  10
ENDBRANCH   4   7
BRANCH   1  23
ATOM     23  C12 ZIN A   1      19.061   2.259   9.334  0.00  0.00     0.058 C 
BRANCH  23  24
ATOM     24  C11 ZIN A   1      17.746   2.231  10.118  0.00  0.00     0.129 C 
BRANCH  24  25
ATOM     25  N10 ZIN A   1      17.982   1.654  11.444  0.00  0.00    -0.342 N 
ATOM     26  C8  ZIN A   1      18.204   2.462  12.500  0.00  0.00     0.325 C 
ATOM     27  N7  ZIN A   1      18.421   1.931  13.720  0.00  0.00    -0.262 N 
ATOM     28  O9  ZIN A   1      18.208   3.669  12.352  0.00  0.00    -0.247 OA
ATOM     29  C6  ZIN A   1      18.676   2.677  14.960  0.00  0.00     0.171 A 
ATOM     30  C33 ZIN A   1      18.451   0.621  14.026  0.00  0.00     0.258 A 
ATOM     31  C4  ZIN A   1      18.852   1.633  16.039  0.00  0.00    -0.054 A 
ATOM     32  C3  ZIN A   1      18.712   0.446  15.457  0.00  0.00     0.013 A 
ATOM     33  C5  ZIN A   1      19.137   1.890  17.496  0.00  0.00     0.046 C 
ATOM     34  O34 ZIN A   1      18.279  -0.284  13.233  0.00  0.00    -0.267 OA
ATOM     35  H45 ZIN A   1      17.979   0.692  11.562  0.00  0.00     0.164 HD
BRANCH  32  36
ATOM     36  C2  ZIN A   1      18.810  -0.882  16.164  0.00  0.00     0.040 C 
ATOM     37  C1  ZIN A   1      17.445  -1.252  16.748  0.00  0.00     0.010 C 
ENDBRANCH  32  36
ENDBRANCH  24  25
ENDBRANCH  23  24
ENDBRANCH   1  23
TORSDOF 9
ENDMDL
MODEL 6
REMARK VINA RESULT:      -9.1      3.794      6.926
REMARK  9 active torsions:
REMARK  status: ('A' for Active; 'I' for Inactive)
REMARK    1  A    between atoms: C2_2  and  C3_3 
REMARK       I    between atoms: N7_7  and  C8_8 
REMARK       I    between atoms: C8_8  and  N10_10 
REMARK    2  A    between atoms: N10_10  and  C11_11 
REMARK    3  A    between atoms: C11_11  and  C12_12 
REMARK    4  A    between atoms: C12_12  and  C13_13 
REMARK    5  A    between atoms: C16_16  and  S17_17 
REMARK    6  A    between atoms: S17_17  and  N20_20 
REMARK    7  A    between atoms: C21_21  and  O22_22 
REMARK    8  A    between atoms: C21_21  and  N23_23 
REMARK    9  A    between atoms: N23_23  and  C24_24 
ROOT
ATOM      1  C13 ZIN A   1      19.096   0.835   8.958  0.00  0.00    -0.057 A 
ATOM      2  C14 ZIN A   1      17.834   0.282   9.079  0.00  0.00     0.009 A 
ATOM      3  C15 ZIN A   1      17.614  -0.751   9.971  0.00  0.00     0.026 A 
ATOM      4  C16 ZIN A   1      18.656  -1.231  10.743  0.00  0.00     0.081 A 
ATOM      5  C31 ZIN A   1      19.917  -0.679  10.621  0.00  0.00     0.026 A 
ATOM      6  C32 ZIN A   1      20.137   0.351   9.726  0.00  0.00     0.009 A 
ENDROOT
BRANCH   4   7
ATOM      7  S17 ZIN A   1      18.375  -2.547  11.881  0.00  0.00     0.286 S 
ATOM      8  O18 ZIN A   1      16.966  -2.683  11.995  0.00  0.00    -0.198 OA
ATOM      9  O19 ZIN A   1      19.230  -3.609  11.485  0.00  0.00    -0.198 OA
BRANCH   7  10
ATOM     10  N20 ZIN A   1      18.917  -2.037  13.361  0.00  0.00    -0.117 NA
ATOM     11  C21 ZIN A   1      18.371  -1.003  13.932  0.00  0.00     0.251 C 
BRANCH  11  12
ATOM     12  O22 ZIN A   1      17.363  -0.345  13.318  0.00  0.00    -0.331 OA
ATOM     13  H52 ZIN A   1      16.738   0.073  13.926  0.00  0.00     0.221 HD
ENDBRANCH  11  12
BRANCH  11  14
ATOM     14  N23 ZIN A   1      18.820  -0.580  15.159  0.00  0.00    -0.350 N 
ATOM     15  H53 ZIN A   1      19.242   0.288  15.249  0.00  0.00     0.163 HD
BRANCH  14  16
ATOM     16  C24 ZIN A   1      18.661  -1.442  16.334  0.00  0.00     0.085 C 
ATOM     17  C30 ZIN A   1      17.218  -1.359  16.836  0.00  0.00     0.025 C 
ATOM     18  C29 ZIN A   1      16.892   0.087  17.216  0.00  0.00     0.006 C 
ATOM     19  C27 ZIN A   1      17.843   0.550  18.321  0.00  0.00    -0.019 C 
ATOM     20  C26 ZIN A   1      19.287   0.467  17.819  0.00  0.00     0.006 C 
ATOM     21  C28 ZIN A   1      17.518   1.996  18.701  0.00  0.00     0.010 C 
ATOM     22  C25 ZIN A   1      19.612  -0.978  17.439  0.00  0.00     0.025 C 
ENDBRANCH  14  16
ENDBRANCH  11  14
ENDBRANCH   7  10
ENDBRANCH   4   7
BRANCH   1  23
ATOM     23  C12 ZIN A   1      19.335   1.960   7.986  0.00  0.00     0.058 C 
BRANCH  23  24
ATOM     24  C11 ZIN A   1      18.503   3.177   8.401  0.00  0.00     0.129 C 
BRANCH  24  25
ATOM     25  N10 ZIN A   1      18.399   3.220   9.862  0.00  0.00    -0.342 N 
ATOM     26  C8  ZIN A   1      17.771   4.252  10.462  0.00  0.00     0.325 C 
ATOM     27  N7  ZIN A   1      17.675   4.291  11.805  0.00  0.00    -0.262 N 
ATOM     28  O9  ZIN A   1      17.293   5.145   9.790  0.00  0.00    -0.247 OA
ATOM     29  C6  ZIN A   1      17.027   5.343  12.600  0.00  0.00     0.171 A 
ATOM     30  C33 ZIN A   1      18.163   3.380  12.667  0.00  0.00     0.258 A 
ATOM     31  C4  ZIN A   1      17.188   4.926  14.044  0.00  0.00    -0.054 A 
ATOM     32  C3  ZIN A   1      17.854   3.775  14.044  0.00  0.00     0.013 A 
ATOM     33  C5  ZIN A   1      16.692   5.675  15.254  0.00  0.00     0.046 C 
ATOM     34  O34 ZIN A   1      18.764   2.372  12.350  0.00  0.00    -0.267 OA
ATOM     35  H45 ZIN A   1      18.781   2.508  10.397  0.00  0.00     0.164 HD
BRANCH  32  36
ATOM     36  C2  ZIN A   1      18.236   2.996  15.276  0.00  0.00     0.040 C 
ATOM     37  C1  ZIN A   1      19.477   3.625  15.913  0.00  0.00     0.010 C 
ENDBRANCH  32  36
ENDBRANCH  24  25
ENDBRANCH  23  24
ENDBRANCH   1  23
TORSDOF 9
ENDMDL
MODEL 7
REMARK VINA RESULT:      -9.0      2.629      3.928
REMARK  9 active torsions:
REMARK  status: ('A' for Active; 'I' for Inactive)
REMARK    1  A    between atoms: C2_2  and  C3_3 
REMARK       I    between atoms: N7_7  and  C8_8 
REMARK       I    between atoms: C8_8  and  N10_10 
REMARK    2  A    between atoms: N10_10  and  C11_11 
REMARK    3  A    between atoms: C11_11  and  C12_12 
REMARK    4  A    between atoms: C12_12  and  C13_13 
REMARK    5  A    between atoms: C16_16  and  S17_17 
REMARK    6  A    between atoms: S17_17  and  N20_20 
REMARK    7  A    between atoms: C21_21  and  O22_22 
REMARK    8  A    between atoms: C21_21  and  N23_23 
REMARK    9  A    between atoms: N23_23  and  C24_24 
ROOT
ATOM      1  C13 ZIN A   1      19.006   2.579   9.792  0.00  0.00    -0.057 A 
ATOM      2  C14 ZIN A   1      19.594   2.245  10.998  0.00  0.00     0.009 A 
ATOM      3  C15 ZIN A   1      19.369   3.025  12.117  0.00  0.00     0.026 A 
ATOM      4  C16 ZIN A   1      18.554   4.140  12.030  0.00  0.00     0.081 A 
ATOM      5  C31 ZIN A   1      17.968   4.474  10.824  0.00  0.00     0.026 A 
ATOM      6  C32 ZIN A   1      18.196   3.695   9.705  0.00  0.00     0.009 A 
ENDROOT
BRANCH   4   7
ATOM      7  S17 ZIN A   1      18.266   5.134  13.456  0.00  0.00     0.286 S 
ATOM      8  O18 ZIN A   1      19.502   5.764  13.761  0.00  0.00    -0.198 OA
ATOM      9  O19 ZIN A   1      17.067   5.853  13.208  0.00  0.00    -0.198 OA
BRANCH   7  10
ATOM     10  N20 ZIN A   1      17.943   4.104  14.712  0.00  0.00    -0.117 NA
ATOM     11  C21 ZIN A   1      17.985   4.541  15.937  0.00  0.00     0.251 C 
BRANCH  11  12
ATOM     12  O22 ZIN A   1      18.293   5.833  16.184  0.00  0.00    -0.331 OA
ATOM     13  H52 ZIN A   1      19.219   6.056  16.019  0.00  0.00     0.221 HD
ENDBRANCH  11  12
BRANCH  11  14
ATOM     14  N23 ZIN A   1      17.717   3.688  16.980  0.00  0.00    -0.350 N 
ATOM     15  H53 ZIN A   1      16.800   3.518  17.244  0.00  0.00     0.163 HD
BRANCH  14  16
ATOM     16  C24 ZIN A   1      18.818   3.033  17.692  0.00  0.00     0.085 C 
ATOM     17  C30 ZIN A   1      19.542   2.077  16.743  0.00  0.00     0.025 C 
ATOM     18  C29 ZIN A   1      18.560   1.018  16.238  0.00  0.00     0.006 C 
ATOM     19  C27 ZIN A   1      18.003   0.231  17.426  0.00  0.00    -0.019 C 
ATOM     20  C26 ZIN A   1      17.278   1.188  18.376  0.00  0.00     0.006 C 
ATOM     21  C28 ZIN A   1      17.020  -0.828  16.922  0.00  0.00     0.010 C 
ATOM     22  C25 ZIN A   1      18.261   2.247  18.880  0.00  0.00     0.025 C 
ENDBRANCH  14  16
ENDBRANCH  11  14
ENDBRANCH   7  10
ENDBRANCH   4   7
BRANCH   1  23
ATOM     23  C12 ZIN A   1      19.252   1.728   8.573  0.00  0.00     0.058 C 
BRANCH  23  24
ATOM     24  C11 ZIN A   1      17.991   0.922   8.252  0.00  0.00     0.129 C 
BRANCH  24  25
ATOM     25  N10 ZIN A   1      18.216  -0.488   8.583  0.00  0.00    -0.342 N 
ATOM     26  C8  ZIN A   1      17.701  -1.003   9.718  0.00  0.00     0.325 C 
ATOM     27  N7  ZIN A   1      17.908  -2.300  10.022  0.00  0.00    -0.262 N 
ATOM     28  O9  ZIN A   1      17.051  -0.299  10.465  0.00  0.00    -0.247 OA
ATOM     29  C6  ZIN A   1      17.415  -3.002  11.215  0.00  0.00     0.171 A 
ATOM     30  C33 ZIN A   1      18.610  -3.188   9.294  0.00  0.00     0.258 A 
ATOM     31  C4  ZIN A   1      17.912  -4.424  11.090  0.00  0.00    -0.054 A 
ATOM     32  C3  ZIN A   1      18.603  -4.496   9.955  0.00  0.00     0.013 A 
ATOM     33  C5  ZIN A   1      17.673  -5.546  12.066  0.00  0.00     0.046 C 
ATOM     34  O34 ZIN A   1      19.161  -2.944   8.239  0.00  0.00    -0.267 OA
ATOM     35  H45 ZIN A   1      18.734  -1.049   7.987  0.00  0.00     0.164 HD
BRANCH  32  36
ATOM     36  C2  ZIN A   1      19.281  -5.735   9.431  0.00  0.00     0.040 C 
ATOM     37  C1  ZIN A   1      18.349  -6.451   8.452  0.00  0.00     0.010 C 
ENDBRANCH  32  36
ENDBRANCH  24  25
ENDBRANCH  23  24
ENDBRANCH   1  23
TORSDOF 9
ENDMDL
MODEL 8
REMARK VINA RESULT:      -8.7      3.026      7.880
REMARK  9 active torsions:
REMARK  status: ('A' for Active; 'I' for Inactive)
REMARK    1  A    between atoms: C2_2  and  C3_3 
REMARK       I    between atoms: N7_7  and  C8_8 
REMARK       I    between atoms: C8_8  and  N10_10 
REMARK    2  A    between atoms: N10_10  and  C11_11 
REMARK    3  A    between atoms: C11_11  and  C12_12 
REMARK    4  A    between atoms: C12_12  and  C13_13 
REMARK    5  A    between atoms: C16_16  and  S17_17 
REMARK    6  A    between atoms: S17_17  and  N20_20 
REMARK    7  A    between atoms: C21_21  and  O22_22 
REMARK    8  A    between atoms: C21_21  and  N23_23 
REMARK    9  A    between atoms: N23_23  and  C24_24 
ROOT
ATOM      1  C13 ZIN A   1      18.231   1.269   8.716  0.00  0.00    -0.057 A 
ATOM      2  C14 ZIN A   1      17.374   0.203   8.513  0.00  0.00     0.009 A 
ATOM      3  C15 ZIN A   1      17.490  -0.569   7.372  0.00  0.00     0.026 A 
ATOM      4  C16 ZIN A   1      18.463  -0.275   6.435  0.00  0.00     0.081 A 
ATOM      5  C31 ZIN A   1      19.318   0.791   6.638  0.00  0.00     0.026 A 
ATOM      6  C32 ZIN A   1      19.200   1.565   7.777  0.00  0.00     0.009 A 
ENDROOT
BRANCH   4   7
ATOM      7  S17 ZIN A   1      18.612  -1.260   4.981  0.00  0.00     0.286 S 
ATOM      8  O18 ZIN A   1      17.544  -0.875   4.126  0.00  0.00    -0.198 OA
ATOM      9  O19 ZIN A   1      19.978  -1.201   4.595  0.00  0.00    -0.198 OA
BRANCH   7  10
ATOM     10  N20 ZIN A   1      18.317  -2.829   5.421  0.00  0.00    -0.117 NA
ATOM     11  C21 ZIN A   1      18.332  -3.769   4.522  0.00  0.00     0.251 C 
BRANCH  11  12
ATOM     12  O22 ZIN A   1      18.587  -3.466   3.230  0.00  0.00    -0.331 OA
ATOM     13  H52 ZIN A   1      18.461  -2.533   3.012  0.00  0.00     0.221 HD
ENDBRANCH  11  12
BRANCH  11  14
ATOM     14  N23 ZIN A   1      18.087  -5.071   4.886  0.00  0.00    -0.350 N 
ATOM     15  H53 ZIN A   1      18.558  -5.461   5.638  0.00  0.00     0.163 HD
BRANCH  14  16
ATOM     16  C24 ZIN A   1      17.113  -5.870   4.138  0.00  0.00     0.085 C 
ATOM     17  C30 ZIN A   1      15.707  -5.596   4.676  0.00  0.00     0.025 C 
ATOM     18  C29 ZIN A   1      15.646  -5.972   6.158  0.00  0.00     0.006 C 
ATOM     19  C27 ZIN A   1      15.972  -7.458   6.321  0.00  0.00    -0.019 C 
ATOM     20  C26 ZIN A   1      17.378  -7.732   5.782  0.00  0.00     0.006 C 
ATOM     21  C28 ZIN A   1      15.911  -7.834   7.802  0.00  0.00     0.010 C 
ATOM     22  C25 ZIN A   1      17.439  -7.356   4.301  0.00  0.00     0.025 C 
ENDBRANCH  14  16
ENDBRANCH  11  14
ENDBRANCH   7  10
ENDBRANCH   4   7
BRANCH   1  23
ATOM     23  C12 ZIN A   1      18.104   2.110   9.960  0.00  0.00     0.058 C 
BRANCH  23  24
ATOM     24  C11 ZIN A   1      18.884   1.453  11.101  0.00  0.00     0.129 C 
BRANCH  24  25
ATOM     25  N10 ZIN A   1      18.950   0.006  10.876  0.00  0.00    -0.342 N 
ATOM     26  C8  ZIN A   1      18.264  -0.832  11.679  0.00  0.00     0.325 C 
ATOM     27  N7  ZIN A   1      18.325  -2.162  11.472  0.00  0.00    -0.262 N 
ATOM     28  O9  ZIN A   1      17.592  -0.388  12.588  0.00  0.00    -0.247 OA
ATOM     29  C6  ZIN A   1      17.639  -3.197  12.257  0.00  0.00     0.171 A 
ATOM     30  C33 ZIN A   1      19.032  -2.789  10.513  0.00  0.00     0.258 A 
ATOM     31  C4  ZIN A   1      18.028  -4.516  11.629  0.00  0.00    -0.054 A 
ATOM     32  C3  ZIN A   1      18.839  -4.238  10.613  0.00  0.00     0.013 A 
ATOM     33  C5  ZIN A   1      17.583  -5.885  12.073  0.00  0.00     0.046 C 
ATOM     34  O34 ZIN A   1      19.723  -2.234   9.680  0.00  0.00    -0.267 OA
ATOM     35  H45 ZIN A   1      19.488  -0.348  10.151  0.00  0.00     0.164 HD
BRANCH  32  36
ATOM     36  C2  ZIN A   1      19.469  -5.261   9.703  0.00  0.00     0.040 C 
ATOM     37  C1  ZIN A   1      18.618  -5.413   8.440  0.00  0.00     0.010 C 
ENDBRANCH  32  36
ENDBRANCH  24  25
ENDBRANCH  23  24
ENDBRANCH   1  23
TORSDOF 9
ENDMDL
MODEL 9
REMARK VINA RESULT:      -8.6      2.711      3.617
REMARK  9 active torsions:
REMARK  status: ('A' for Active; 'I' for Inactive)
REMARK    1  A    between atoms: C2_2  and  C3_3 
REMARK       I    between atoms: N7_7  and  C8_8 
REMARK       I    between atoms: C8_8  and  N10_10 
REMARK    2  A    between atoms: N10_10  and  C11_11 
REMARK    3  A    between atoms: C11_11  and  C12_12 
REMARK    4  A    between atoms: C12_12  and  C13_13 
REMARK    5  A    between atoms: C16_16  and  S17_17 
REMARK    6  A    between atoms: S17_17  and  N20_20 
REMARK    7  A    between atoms: C21_21  and  O22_22 
REMARK    8  A    between atoms: C21_21  and  N23_23 
REMARK    9  A    between atoms: N23_23  and  C24_24 
ROOT
ATOM      1  C13 ZIN A   1      18.353   0.562   6.899  0.00  0.00    -0.057 A 
ATOM      2  C14 ZIN A   1      19.236   1.178   7.767  0.00  0.00     0.009 A 
ATOM      3  C15 ZIN A   1      19.014   1.124   9.130  0.00  0.00     0.026 A 
ATOM      4  C16 ZIN A   1      17.910   0.455   9.626  0.00  0.00     0.081 A 
ATOM      5  C31 ZIN A   1      17.028  -0.159   8.757  0.00  0.00     0.026 A 
ATOM      6  C32 ZIN A   1      17.247  -0.102   7.393  0.00  0.00     0.009 A 
ENDROOT
BRANCH   4   7
ATOM      7  S17 ZIN A   1      17.628   0.385  11.364  0.00  0.00     0.286 S 
ATOM      8  O18 ZIN A   1      16.252   0.072  11.534  0.00  0.00    -0.198 OA
ATOM      9  O19 ZIN A   1      18.678  -0.400  11.910  0.00  0.00    -0.198 OA
BRANCH   7  10
ATOM     10  N20 ZIN A   1      17.835   1.919  11.954  0.00  0.00    -0.117 NA
ATOM     11  C21 ZIN A   1      17.746   2.140  13.233  0.00  0.00     0.251 C 
BRANCH  11  12
ATOM     12  O22 ZIN A   1      17.484   1.119  14.079  0.00  0.00    -0.331 OA
ATOM     13  H52 ZIN A   1      17.202   1.401  14.961  0.00  0.00     0.221 HD
ENDBRANCH  11  12
BRANCH  11  14
ATOM     14  N23 ZIN A   1      17.918   3.411  13.724  0.00  0.00    -0.350 N 
ATOM     15  H53 ZIN A   1      17.752   3.596  14.661  0.00  0.00     0.163 HD
BRANCH  14  16
ATOM     16  C24 ZIN A   1      18.351   4.488  12.830  0.00  0.00     0.085 C 
ATOM     17  C30 ZIN A   1      19.175   5.506  13.621  0.00  0.00     0.025 C 
ATOM     18  C29 ZIN A   1      18.319   6.091  14.747  0.00  0.00     0.006 C 
ATOM     19  C27 ZIN A   1      17.093   6.783  14.149  0.00  0.00    -0.019 C 
ATOM     20  C26 ZIN A   1      16.269   5.764  13.357  0.00  0.00     0.006 C 
ATOM     21  C28 ZIN A   1      16.236   7.367  15.274  0.00  0.00     0.010 C 
ATOM     22  C25 ZIN A   1      17.126   5.180  12.232  0.00  0.00     0.025 C 
ENDBRANCH  14  16
ENDBRANCH  11  14
ENDBRANCH   7  10
ENDBRANCH   4   7
BRANCH   1  23
ATOM     23  C12 ZIN A   1      18.595   0.621   5.412  0.00  0.00     0.058 C 
BRANCH  23  24
ATOM     24  C11 ZIN A   1      19.482  -0.555   4.994  0.00  0.00     0.129 C 
BRANCH  24  25
ATOM     25  N10 ZIN A   1      19.248  -1.686   5.896  0.00  0.00    -0.342 N 
ATOM     26  C8  ZIN A   1      18.876  -2.881   5.395  0.00  0.00     0.325 C 
ATOM     27  N7  ZIN A   1      18.661  -3.922   6.224  0.00  0.00    -0.262 N 
ATOM     28  O9  ZIN A   1      18.735  -3.020   4.195  0.00  0.00    -0.247 OA
ATOM     29  C6  ZIN A   1      18.254  -5.277   5.831  0.00  0.00     0.171 A 
ATOM     30  C33 ZIN A   1      18.773  -3.909   7.566  0.00  0.00     0.258 A 
ATOM     31  C4  ZIN A   1      18.148  -6.064   7.117  0.00  0.00    -0.054 A 
ATOM     32  C3  ZIN A   1      18.461  -5.234   8.108  0.00  0.00     0.013 A 
ATOM     33  C5  ZIN A   1      17.759  -7.514   7.252  0.00  0.00     0.046 C 
ATOM     34  O34 ZIN A   1      19.094  -2.942   8.229  0.00  0.00    -0.267 OA
ATOM     35  H45 ZIN A   1      19.361  -1.575   6.853  0.00  0.00     0.164 HD
BRANCH  32  36
ATOM     36  C2  ZIN A   1      18.486  -5.600   9.570  0.00  0.00     0.040 C 
ATOM     37  C1  ZIN A   1      17.166  -5.184  10.222  0.00  0.00     0.010 C 
ENDBRANCH  32  36
ENDBRANCH  24  25
ENDBRANCH  23  24
ENDBRANCH   1  23
TORSDOF 9
ENDMDL
