MODEL 1
REMARK VINA RESULT:      -9.3      0.000      0.000
REMARK  7 active torsions:
REMARK  status: ('A' for Active; 'I' for Inactive)
REMARK    1  A    between atoms: C3_3  and  C4_4 
REMARK    2  A    between atoms: C3_3  and  C22_22 
REMARK    3  A    between atoms: C3_3  and  C28_28 
REMARK    4  A    between atoms: C4_4  and  C5_5 
REMARK    5  A    between atoms: C5_5  and  N6_6 
REMARK    6  A    between atoms: C10_10  and  C11_11 
REMARK    7  A    between atoms: C10_10  and  C14_14 
ROOT
ATOM      1  N1  ZIN A   1      21.296   0.252  11.873  0.00  0.00    -0.196 NA
ATOM      2  C2  ZIN A   1      20.240  -0.145  12.012  0.00  0.00     0.079 C 
ATOM      3  C3  ZIN A   1      18.873  -0.658  12.191  0.00  0.00     0.104 C 
ENDROOT
BRANCH   3   4
ATOM      4  C4  ZIN A   1      17.904   0.158  11.333  0.00  0.00     0.062 C 
BRANCH   4   5
ATOM      5  C5  ZIN A   1      18.600   0.575  10.036  0.00  0.00     0.237 C 
BRANCH   5   6
ATOM      6  N6  ZIN A   1      18.264  -0.382   8.972  0.00  0.00    -0.071 N 
ATOM      7  H7  ZIN A   1      17.675  -1.110   9.348  0.00  0.00     0.279 HD
ATOM      8  C21 ZIN A   1      17.548   0.316   7.897  0.00  0.00     0.236 C 
ATOM      9  C20 ZIN A   1      17.123  -0.689   6.825  0.00  0.00     0.053 C 
ATOM     10  C10 ZIN A   1      18.369  -1.370   6.251  0.00  0.00     0.078 C 
ATOM     11  C9  ZIN A   1      19.148  -2.031   7.391  0.00  0.00     0.053 C 
ATOM     12  C8  ZIN A   1      19.497  -0.976   8.443  0.00  0.00     0.236 C 
BRANCH  10  13
ATOM     13  C11 ZIN A   1      19.239  -0.341   5.575  0.00  0.00     0.186 C 
ATOM     14  O12 ZIN A   1      20.047  -0.687   4.730  0.00  0.00    -0.647 OA
ATOM     15  O13 ZIN A   1      19.136   0.836   5.875  0.00  0.00    -0.647 OA
ENDBRANCH  10  13
BRANCH  10  16
ATOM     16  C14 ZIN A   1      17.957  -2.417   5.249  0.00  0.00    -0.039 A 
ATOM     17  C19 ZIN A   1      17.066  -2.097   4.242  0.00  0.00     0.008 A 
ATOM     18  C18 ZIN A   1      16.690  -3.056   3.320  0.00  0.00     0.001 A 
ATOM     19  C17 ZIN A   1      17.200  -4.338   3.411  0.00  0.00     0.000 A 
ATOM     20  C16 ZIN A   1      18.087  -4.660   4.421  0.00  0.00     0.001 A 
ATOM     21  C15 ZIN A   1      18.465  -3.699   5.339  0.00  0.00     0.008 A 
ENDBRANCH  10  16
ENDBRANCH   5   6
ENDBRANCH   4   5
ENDBRANCH   3   4
BRANCH   3  22
ATOM     22  C22 ZIN A   1      18.820  -2.104  11.770  0.00  0.00    -0.031 A 
ATOM     23  C27 ZIN A   1      19.991  -2.806  11.552  0.00  0.00     0.009 A 
ATOM     24  C26 ZIN A   1      19.941  -4.133  11.171  0.00  0.00     0.001 A 
ATOM     25  C25 ZIN A   1      18.720  -4.757  10.999  0.00  0.00     0.000 A 
ATOM     26  C24 ZIN A   1      17.548  -4.055  11.211  0.00  0.00     0.001 A 
ATOM     27  C23 ZIN A   1      17.599  -2.728  11.597  0.00  0.00     0.009 A 
ENDBRANCH   3  22
BRANCH   3  28
ATOM     28  C28 ZIN A   1      18.479  -0.543  13.642  0.00  0.00    -0.031 A 
ATOM     29  C33 ZIN A   1      17.538   0.392  14.030  0.00  0.00     0.009 A 
ATOM     30  C32 ZIN A   1      17.173   0.494  15.360  0.00  0.00     0.001 A 
ATOM     31  C31 ZIN A   1      17.756  -0.334  16.301  0.00  0.00     0.000 A 
ATOM     32  C30 ZIN A   1      18.701  -1.265  15.914  0.00  0.00     0.001 A 
ATOM     33  C29 ZIN A   1      19.062  -1.371  14.584  0.00  0.00     0.009 A 
ENDBRANCH   3  28
TORSDOF 7
ENDMDL
MODEL 2
REMARK VINA RESULT:      -9.3      0.936      3.340
REMARK  7 active torsions:
REMARK  status: ('A' for Active; 'I' for Inactive)
REMARK    1  A    between atoms: C3_3  and  C4_4 
REMARK    2  A    between atoms: C3_3  and  C22_22 
REMARK    3  A    between atoms: C3_3  and  C28_28 
REMARK    4  A    between atoms: C4_4  and  C5_5 
REMARK    5  A    between atoms: C5_5  and  N6_6 
REMARK    6  A    between atoms: C10_10  and  C11_11 
REMARK    7  A    between atoms: C10_10  and  C14_14 
ROOT
ATOM      1  N1  ZIN A   1      16.059   0.197  11.405  0.00  0.00    -0.196 NA
ATOM      2  C2  ZIN A   1      17.091  -0.167  11.710  0.00  0.00     0.079 C 
ATOM      3  C3  ZIN A   1      18.428  -0.637  12.106  0.00  0.00     0.104 C 
ENDROOT
BRANCH   3   4
ATOM      4  C4  ZIN A   1      19.493   0.133  11.321  0.00  0.00     0.062 C 
BRANCH   4   5
ATOM      5  C5  ZIN A   1      18.837   0.846  10.138  0.00  0.00     0.237 C 
BRANCH   5   6
ATOM      6  N6  ZIN A   1      18.465  -0.143   9.116  0.00  0.00    -0.071 N 
ATOM      7  H7  ZIN A   1      17.903  -0.867   9.538  0.00  0.00     0.279 HD
ATOM      8  C21 ZIN A   1      17.694   0.517   8.055  0.00  0.00     0.236 C 
ATOM      9  C20 ZIN A   1      17.235  -0.523   7.031  0.00  0.00     0.053 C 
ATOM     10  C10 ZIN A   1      18.463  -1.206   6.421  0.00  0.00     0.078 C 
ATOM     11  C9  ZIN A   1      19.300  -1.826   7.543  0.00  0.00     0.053 C 
ATOM     12  C8  ZIN A   1      19.681  -0.738   8.549  0.00  0.00     0.236 C 
BRANCH  10  13
ATOM     13  C11 ZIN A   1      19.290  -0.187   5.680  0.00  0.00     0.186 C 
ATOM     14  O12 ZIN A   1      20.057  -0.546   4.802  0.00  0.00    -0.647 OA
ATOM     15  O13 ZIN A   1      19.192   0.996   5.957  0.00  0.00    -0.647 OA
ENDBRANCH  10  13
BRANCH  10  16
ATOM     16  C14 ZIN A   1      18.020  -2.285   5.467  0.00  0.00    -0.039 A 
ATOM     17  C19 ZIN A   1      17.123  -1.989   4.458  0.00  0.00     0.008 A 
ATOM     18  C18 ZIN A   1      16.719  -2.978   3.580  0.00  0.00     0.001 A 
ATOM     19  C17 ZIN A   1      17.205  -4.264   3.718  0.00  0.00     0.000 A 
ATOM     20  C16 ZIN A   1      18.098  -4.561   4.730  0.00  0.00     0.001 A 
ATOM     21  C15 ZIN A   1      18.505  -3.572   5.605  0.00  0.00     0.008 A 
ENDBRANCH  10  16
ENDBRANCH   5   6
ENDBRANCH   4   5
ENDBRANCH   3   4
BRANCH   3  22
ATOM     22  C22 ZIN A   1      18.627  -0.405  13.581  0.00  0.00    -0.031 A 
ATOM     23  C27 ZIN A   1      18.466  -1.449  14.474  0.00  0.00     0.009 A 
ATOM     24  C26 ZIN A   1      18.653  -1.237  15.826  0.00  0.00     0.001 A 
ATOM     25  C25 ZIN A   1      18.991   0.021  16.288  0.00  0.00     0.000 A 
ATOM     26  C24 ZIN A   1      19.147   1.067  15.398  0.00  0.00     0.001 A 
ATOM     27  C23 ZIN A   1      18.964   0.853  14.044  0.00  0.00     0.009 A 
ENDBRANCH   3  22
BRANCH   3  28
ATOM     28  C28 ZIN A   1      18.552  -2.110  11.808  0.00  0.00    -0.031 A 
ATOM     29  C33 ZIN A   1      17.417  -2.866  11.579  0.00  0.00     0.009 A 
ATOM     30  C32 ZIN A   1      17.531  -4.215  11.302  0.00  0.00     0.001 A 
ATOM     31  C31 ZIN A   1      18.778  -4.809  11.261  0.00  0.00     0.000 A 
ATOM     32  C30 ZIN A   1      19.912  -4.055  11.495  0.00  0.00     0.001 A 
ATOM     33  C29 ZIN A   1      19.799  -2.704  11.767  0.00  0.00     0.009 A 
ENDBRANCH   3  28
TORSDOF 7
ENDMDL
MODEL 3
REMARK VINA RESULT:      -9.0      2.466      4.578
REMARK  7 active torsions:
REMARK  status: ('A' for Active; 'I' for Inactive)
REMARK    1  A    between atoms: C3_3  and  C4_4 
REMARK    2  A    between atoms: C3_3  and  C22_22 
REMARK    3  A    between atoms: C3_3  and  C28_28 
REMARK    4  A    between atoms: C4_4  and  C5_5 
REMARK    5  A    between atoms: C5_5  and  N6_6 
REMARK    6  A    between atoms: C10_10  and  C11_11 
REMARK    7  A    between atoms: C10_10  and  C14_14 
ROOT
ATOM      1  N1  ZIN A   1      16.382   0.286  12.007  0.00  0.00    -0.196 NA
ATOM      2  C2  ZIN A   1      17.241   0.548  12.703  0.00  0.00     0.079 C 
ATOM      3  C3  ZIN A   1      18.355   0.886  13.602  0.00  0.00     0.104 C 
ENDROOT
BRANCH   3   4
ATOM      4  C4  ZIN A   1      19.683   0.538  12.926  0.00  0.00     0.062 C 
BRANCH   4   5
ATOM      5  C5  ZIN A   1      20.098   1.684  12.001  0.00  0.00     0.237 C 
BRANCH   5   6
ATOM      6  N6  ZIN A   1      20.089   1.216  10.608  0.00  0.00    -0.071 N 
ATOM      7  H7  ZIN A   1      20.915   1.552  10.135  0.00  0.00     0.279 HD
ATOM      8  C21 ZIN A   1      20.078  -0.252  10.586  0.00  0.00     0.236 C 
ATOM      9  C20 ZIN A   1      20.151  -0.745   9.139  0.00  0.00     0.053 C 
ATOM     10  C10 ZIN A   1      18.942  -0.213   8.364  0.00  0.00     0.078 C 
ATOM     11  C9  ZIN A   1      18.921   1.315   8.457  0.00  0.00     0.053 C 
ATOM     12  C8  ZIN A   1      18.895   1.732   9.929  0.00  0.00     0.236 C 
BRANCH  10  13
ATOM     13  C11 ZIN A   1      17.676  -0.772   8.961  0.00  0.00     0.186 C 
ATOM     14  O12 ZIN A   1      16.600  -0.262   8.694  0.00  0.00    -0.647 OA
ATOM     15  O13 ZIN A   1      17.726  -1.731   9.711  0.00  0.00    -0.647 OA
ENDBRANCH  10  13
BRANCH  10  16
ATOM     16  C14 ZIN A   1      19.045  -0.629   6.920  0.00  0.00    -0.039 A 
ATOM     17  C19 ZIN A   1      19.189  -1.965   6.595  0.00  0.00     0.008 A 
ATOM     18  C18 ZIN A   1      19.279  -2.348   5.269  0.00  0.00     0.001 A 
ATOM     19  C17 ZIN A   1      19.234  -1.394   4.270  0.00  0.00     0.000 A 
ATOM     20  C16 ZIN A   1      19.094  -0.057   4.596  0.00  0.00     0.001 A 
ATOM     21  C15 ZIN A   1      19.000   0.324   5.920  0.00  0.00     0.008 A 
ENDBRANCH  10  16
ENDBRANCH   5   6
ENDBRANCH   4   5
ENDBRANCH   3   4
BRANCH   3  22
ATOM     22  C22 ZIN A   1      18.321   2.360  13.912  0.00  0.00    -0.031 A 
ATOM     23  C27 ZIN A   1      17.607   3.222  13.101  0.00  0.00     0.009 A 
ATOM     24  C26 ZIN A   1      17.573   4.574  13.388  0.00  0.00     0.001 A 
ATOM     25  C25 ZIN A   1      18.260   5.065  14.482  0.00  0.00     0.000 A 
ATOM     26  C24 ZIN A   1      18.979   4.205  15.291  0.00  0.00     0.001 A 
ATOM     27  C23 ZIN A   1      19.010   2.852  15.005  0.00  0.00     0.009 A 
ENDBRANCH   3  22
BRANCH   3  28
ATOM     28  C28 ZIN A   1      18.223   0.102  14.883  0.00  0.00    -0.031 A 
ATOM     29  C33 ZIN A   1      17.141   0.317  15.716  0.00  0.00     0.009 A 
ATOM     30  C32 ZIN A   1      17.018  -0.406  16.888  0.00  0.00     0.001 A 
ATOM     31  C31 ZIN A   1      17.980  -1.337  17.230  0.00  0.00     0.000 A 
ATOM     32  C30 ZIN A   1      19.065  -1.548  16.400  0.00  0.00     0.001 A 
ATOM     33  C29 ZIN A   1      19.186  -0.829  15.225  0.00  0.00     0.009 A 
ENDBRANCH   3  28
TORSDOF 7
ENDMDL
MODEL 4
REMARK VINA RESULT:      -8.9      2.129      3.860
REMARK  7 active torsions:
REMARK  status: ('A' for Active; 'I' for Inactive)
REMARK    1  A    between atoms: C3_3  and  C4_4 
REMARK    2  A    between atoms: C3_3  and  C22_22 
REMARK    3  A    between atoms: C3_3  and  C28_28 
REMARK    4  A    between atoms: C4_4  and  C5_5 
REMARK    5  A    between atoms: C5_5  and  N6_6 
REMARK    6  A    between atoms: C10_10  and  C11_11 
REMARK    7  A    between atoms: C10_10  and  C14_14 
ROOT
ATOM      1  N1  ZIN A   1      20.743   0.533  12.583  0.00  0.00    -0.196 NA
ATOM      2  C2  ZIN A   1      19.743   0.769  13.068  0.00  0.00     0.079 C 
ATOM      3  C3  ZIN A   1      18.448   1.076  13.695  0.00  0.00     0.104 C 
ENDROOT
BRANCH   3   4
ATOM      4  C4  ZIN A   1      17.321   0.825  12.690  0.00  0.00     0.062 C 
BRANCH   4   5
ATOM      5  C5  ZIN A   1      17.148  -0.682  12.486  0.00  0.00     0.237 C 
BRANCH   5   6
ATOM      6  N6  ZIN A   1      17.264  -0.997  11.055  0.00  0.00    -0.071 N 
ATOM      7  H7  ZIN A   1      16.505  -1.604  10.783  0.00  0.00     0.279 HD
ATOM      8  C21 ZIN A   1      17.199   0.244  10.274  0.00  0.00     0.236 C 
ATOM      9  C20 ZIN A   1      17.236  -0.085   8.780  0.00  0.00     0.053 C 
ATOM     10  C10 ZIN A   1      18.539  -0.823   8.460  0.00  0.00     0.078 C 
ATOM     11  C9  ZIN A   1      18.633  -2.077   9.334  0.00  0.00     0.053 C 
ATOM     12  C8  ZIN A   1      18.543  -1.674  10.807  0.00  0.00     0.236 C 
BRANCH  10  13
ATOM     13  C11 ZIN A   1      19.712   0.079   8.746  0.00  0.00     0.186 C 
ATOM     14  O12 ZIN A   1      20.673  -0.347   9.365  0.00  0.00    -0.647 OA
ATOM     15  O13 ZIN A   1      19.701   1.236   8.359  0.00  0.00    -0.647 OA
ENDBRANCH  10  13
BRANCH  10  16
ATOM     16  C14 ZIN A   1      18.551  -1.220   7.007  0.00  0.00    -0.039 A 
ATOM     17  C19 ZIN A   1      17.895  -0.440   6.072  0.00  0.00     0.008 A 
ATOM     18  C18 ZIN A   1      17.909  -0.802   4.738  0.00  0.00     0.001 A 
ATOM     19  C17 ZIN A   1      18.572  -1.947   4.340  0.00  0.00     0.000 A 
ATOM     20  C16 ZIN A   1      19.224  -2.729   5.274  0.00  0.00     0.001 A 
ATOM     21  C15 ZIN A   1      19.213  -2.365   6.607  0.00  0.00     0.008 A 
ENDBRANCH  10  16
ENDBRANCH   5   6
ENDBRANCH   4   5
ENDBRANCH   3   4
BRANCH   3  22
ATOM     22  C22 ZIN A   1      18.252   0.193  14.900  0.00  0.00    -0.031 A 
ATOM     23  C27 ZIN A   1      17.164   0.387  15.731  0.00  0.00     0.009 A 
ATOM     24  C26 ZIN A   1      16.982  -0.426  16.834  0.00  0.00     0.001 A 
ATOM     25  C25 ZIN A   1      17.893  -1.428  17.110  0.00  0.00     0.000 A 
ATOM     26  C24 ZIN A   1      18.984  -1.620  16.284  0.00  0.00     0.001 A 
ATOM     27  C23 ZIN A   1      19.163  -0.808  15.178  0.00  0.00     0.009 A 
ENDBRANCH   3  22
BRANCH   3  28
ATOM     28  C28 ZIN A   1      18.426   2.521  14.123  0.00  0.00    -0.031 A 
ATOM     29  C33 ZIN A   1      19.109   2.916  15.258  0.00  0.00     0.009 A 
ATOM     30  C32 ZIN A   1      19.093   4.242  15.648  0.00  0.00     0.001 A 
ATOM     31  C31 ZIN A   1      18.387   5.171  14.908  0.00  0.00     0.000 A 
ATOM     32  C30 ZIN A   1      17.699   4.776  13.776  0.00  0.00     0.001 A 
ATOM     33  C29 ZIN A   1      17.720   3.450  13.383  0.00  0.00     0.009 A 
ENDBRANCH   3  28
TORSDOF 7
ENDMDL
MODEL 5
REMARK VINA RESULT:      -8.9      3.794      9.310
REMARK  7 active torsions:
REMARK  status: ('A' for Active; 'I' for Inactive)
REMARK    1  A    between atoms: C3_3  and  C4_4 
REMARK    2  A    between atoms: C3_3  and  C22_22 
REMARK    3  A    between atoms: C3_3  and  C28_28 
REMARK    4  A    between atoms: C4_4  and  C5_5 
REMARK    5  A    between atoms: C5_5  and  N6_6 
REMARK    6  A    between atoms: C10_10  and  C11_11 
REMARK    7  A    between atoms: C10_10  and  C14_14 
ROOT
ATOM      1  N1  ZIN A   1      21.134  -0.577  10.373  0.00  0.00    -0.196 NA
ATOM      2  C2  ZIN A   1      20.099  -0.143  10.200  0.00  0.00     0.079 C 
ATOM      3  C3  ZIN A   1      18.757   0.418   9.977  0.00  0.00     0.104 C 
ENDROOT
BRANCH   3   4
ATOM      4  C4  ZIN A   1      17.713  -0.465  10.665  0.00  0.00     0.062 C 
BRANCH   4   5
ATOM      5  C5  ZIN A   1      18.350  -1.162  11.868  0.00  0.00     0.237 C 
BRANCH   5   6
ATOM      6  N6  ZIN A   1      18.372  -0.240  13.013  0.00  0.00    -0.071 N 
ATOM      7  H7  ZIN A   1      18.394   0.711  12.677  0.00  0.00     0.279 HD
ATOM      8  C21 ZIN A   1      17.166  -0.442  13.825  0.00  0.00     0.236 C 
ATOM      9  C20 ZIN A   1      17.143   0.571  14.972  0.00  0.00     0.053 C 
ATOM     10  C10 ZIN A   1      18.386   0.373  15.844  0.00  0.00     0.078 C 
ATOM     11  C9  ZIN A   1      19.637   0.511  14.971  0.00  0.00     0.053 C 
ATOM     12  C8  ZIN A   1      19.567  -0.499  13.824  0.00  0.00     0.236 C 
BRANCH  10  13
ATOM     13  C11 ZIN A   1      18.353  -1.001  16.464  0.00  0.00     0.186 C 
ATOM     14  O12 ZIN A   1      17.285  -1.561  16.647  0.00  0.00    -0.647 OA
ATOM     15  O13 ZIN A   1      19.393  -1.551  16.782  0.00  0.00    -0.647 OA
ENDBRANCH  10  13
BRANCH  10  16
ATOM     16  C14 ZIN A   1      18.413   1.416  16.931  0.00  0.00    -0.039 A 
ATOM     17  C19 ZIN A   1      19.167   2.563  16.769  0.00  0.00     0.008 A 
ATOM     18  C18 ZIN A   1      19.189   3.522  17.765  0.00  0.00     0.001 A 
ATOM     19  C17 ZIN A   1      18.463   3.330  18.925  0.00  0.00     0.000 A 
ATOM     20  C16 ZIN A   1      17.712   2.180  19.089  0.00  0.00     0.001 A 
ATOM     21  C15 ZIN A   1      17.688   1.224  18.092  0.00  0.00     0.008 A 
ENDBRANCH  10  16
ENDBRANCH   5   6
ENDBRANCH   4   5
ENDBRANCH   3   4
BRANCH   3  22
ATOM     22  C22 ZIN A   1      18.692   1.810  10.549  0.00  0.00    -0.031 A 
ATOM     23  C27 ZIN A   1      17.549   2.571  10.392  0.00  0.00     0.009 A 
ATOM     24  C26 ZIN A   1      17.489   3.847  10.921  0.00  0.00     0.001 A 
ATOM     25  C25 ZIN A   1      18.575   4.365  11.599  0.00  0.00     0.000 A 
ATOM     26  C24 ZIN A   1      19.722   3.607  11.753  0.00  0.00     0.001 A 
ATOM     27  C23 ZIN A   1      19.780   2.330  11.226  0.00  0.00     0.009 A 
ENDBRANCH   3  22
BRANCH   3  28
ATOM     28  C28 ZIN A   1      18.474   0.470   8.497  0.00  0.00    -0.031 A 
ATOM     29  C33 ZIN A   1      17.402  -0.228   7.974  0.00  0.00     0.009 A 
ATOM     30  C32 ZIN A   1      17.140  -0.176   6.617  0.00  0.00     0.001 A 
ATOM     31  C31 ZIN A   1      17.954   0.567   5.784  0.00  0.00     0.000 A 
ATOM     32  C30 ZIN A   1      19.029   1.262   6.306  0.00  0.00     0.001 A 
ATOM     33  C29 ZIN A   1      19.288   1.214   7.664  0.00  0.00     0.009 A 
ENDBRANCH   3  28
TORSDOF 7
ENDMDL
MODEL 6
REMARK VINA RESULT:      -8.7      2.789      8.059
REMARK  7 active torsions:
REMARK  status: ('A' for Active; 'I' for Inactive)
REMARK    1  A    between atoms: C3_3  and  C4_4 
REMARK    2  A    between atoms: C3_3  and  C22_22 
REMARK    3  A    between atoms: C3_3  and  C28_28 
REMARK    4  A    between atoms: C4_4  and  C5_5 
REMARK    5  A    between atoms: C5_5  and  N6_6 
REMARK    6  A    between atoms: C10_10  and  C11_11 
REMARK    7  A    between atoms: C10_10  and  C14_14 
ROOT
ATOM      1  N1  ZIN A   1      20.699  -5.428   7.501  0.00  0.00    -0.196 NA
ATOM      2  C2  ZIN A   1      19.796  -4.903   7.949  0.00  0.00     0.079 C 
ATOM      3  C3  ZIN A   1      18.628  -4.224   8.529  0.00  0.00     0.104 C 
ENDROOT
BRANCH   3   4
ATOM      4  C4  ZIN A   1      18.762  -4.188  10.053  0.00  0.00     0.062 C 
BRANCH   4   5
ATOM      5  C5  ZIN A   1      20.094  -3.537  10.432  0.00  0.00     0.237 C 
BRANCH   5   6
ATOM      6  N6  ZIN A   1      19.913  -2.722  11.642  0.00  0.00    -0.071 N 
ATOM      7  H7  ZIN A   1      20.597  -2.991  12.333  0.00  0.00     0.279 HD
ATOM      8  C21 ZIN A   1      20.090  -1.304  11.306  0.00  0.00     0.236 C 
ATOM      9  C20 ZIN A   1      19.984  -0.458  12.577  0.00  0.00     0.053 C 
ATOM     10  C10 ZIN A   1      18.604  -0.666  13.207  0.00  0.00     0.078 C 
ATOM     11  C9  ZIN A   1      18.399  -2.158  13.483  0.00  0.00     0.053 C 
ATOM     12  C8  ZIN A   1      18.565  -2.941  12.179  0.00  0.00     0.236 C 
BRANCH  10  13
ATOM     13  C11 ZIN A   1      17.539  -0.178  12.258  0.00  0.00     0.186 C 
ATOM     14  O12 ZIN A   1      16.614  -0.912  11.951  0.00  0.00    -0.647 OA
ATOM     15  O13 ZIN A   1      17.602   0.949  11.797  0.00  0.00    -0.647 OA
ENDBRANCH  10  13
BRANCH  10  16
ATOM     16  C14 ZIN A   1      18.517   0.103  14.500  0.00  0.00    -0.039 A 
ATOM     17  C19 ZIN A   1      17.710  -0.357  15.523  0.00  0.00     0.008 A 
ATOM     18  C18 ZIN A   1      17.633   0.346  16.712  0.00  0.00     0.001 A 
ATOM     19  C17 ZIN A   1      18.357   1.512  16.872  0.00  0.00     0.000 A 
ATOM     20  C16 ZIN A   1      19.161   1.974  15.847  0.00  0.00     0.001 A 
ATOM     21  C15 ZIN A   1      19.240   1.269  14.661  0.00  0.00     0.008 A 
ENDBRANCH  10  16
ENDBRANCH   5   6
ENDBRANCH   4   5
ENDBRANCH   3   4
BRANCH   3  22
ATOM     22  C22 ZIN A   1      18.550  -2.815   8.000  0.00  0.00    -0.031 A 
ATOM     23  C27 ZIN A   1      17.751  -1.881   8.631  0.00  0.00     0.009 A 
ATOM     24  C26 ZIN A   1      17.685  -0.588   8.147  0.00  0.00     0.001 A 
ATOM     25  C25 ZIN A   1      18.410  -0.232   7.026  0.00  0.00     0.000 A 
ATOM     26  C24 ZIN A   1      19.205  -1.166   6.390  0.00  0.00     0.001 A 
ATOM     27  C23 ZIN A   1      19.275  -2.459   6.877  0.00  0.00     0.009 A 
ENDBRANCH   3  22
BRANCH   3  28
ATOM     28  C28 ZIN A   1      17.373  -4.970   8.152  0.00  0.00    -0.031 A 
ATOM     29  C33 ZIN A   1      17.222  -5.465   6.870  0.00  0.00     0.009 A 
ATOM     30  C32 ZIN A   1      16.074  -6.154   6.526  0.00  0.00     0.001 A 
ATOM     31  C31 ZIN A   1      15.074  -6.341   7.462  0.00  0.00     0.000 A 
ATOM     32  C30 ZIN A   1      15.223  -5.842   8.743  0.00  0.00     0.001 A 
ATOM     33  C29 ZIN A   1      16.373  -5.157   9.088  0.00  0.00     0.009 A 
ENDBRANCH   3  28
TORSDOF 7
ENDMDL
MODEL 7
REMARK VINA RESULT:      -8.7      3.922      6.074
REMARK  7 active torsions:
REMARK  status: ('A' for Active; 'I' for Inactive)
REMARK    1  A    between atoms: C3_3  and  C4_4 
REMARK    2  A    between atoms: C3_3  and  C22_22 
REMARK    3  A    between atoms: C3_3  and  C28_28 
REMARK    4  A    between atoms: C4_4  and  C5_5 
REMARK    5  A    between atoms: C5_5  and  N6_6 
REMARK    6  A    between atoms: C10_10  and  C11_11 
REMARK    7  A    between atoms: C10_10  and  C14_14 
ROOT
ATOM      1  N1  ZIN A   1      20.375   6.280  15.228  0.00  0.00    -0.196 NA
ATOM      2  C2  ZIN A   1      19.500   5.627  14.916  0.00  0.00     0.079 C 
ATOM      3  C3  ZIN A   1      18.366   4.782  14.510  0.00  0.00     0.104 C 
ENDROOT
BRANCH   3   4
ATOM      4  C4  ZIN A   1      18.335   4.666  12.984  0.00  0.00     0.062 C 
BRANCH   4   5
ATOM      5  C5  ZIN A   1      19.727   4.287  12.474  0.00  0.00     0.237 C 
BRANCH   5   6
ATOM      6  N6  ZIN A   1      19.598   3.328  11.368  0.00  0.00    -0.071 N 
ATOM      7  H7  ZIN A   1      20.176   3.627  10.596  0.00  0.00     0.279 HD
ATOM      8  C21 ZIN A   1      20.035   2.001  11.819  0.00  0.00     0.236 C 
ATOM      9  C20 ZIN A   1      19.981   1.017  10.648  0.00  0.00     0.053 C 
ATOM     10  C10 ZIN A   1      18.543   0.932  10.128  0.00  0.00     0.078 C 
ATOM     11  C9  ZIN A   1      18.071   2.334   9.731  0.00  0.00     0.053 C 
ATOM     12  C8  ZIN A   1      18.197   3.270  10.935  0.00  0.00     0.236 C 
BRANCH  10  13
ATOM     13  C11 ZIN A   1      17.647   0.386  11.210  0.00  0.00     0.186 C 
ATOM     14  O12 ZIN A   1      16.475   0.723  11.259  0.00  0.00    -0.647 OA
ATOM     15  O13 ZIN A   1      18.093  -0.390  12.037  0.00  0.00    -0.647 OA
ENDBRANCH  10  13
BRANCH  10  16
ATOM     16  C14 ZIN A   1      18.493   0.025   8.927  0.00  0.00    -0.039 A 
ATOM     17  C19 ZIN A   1      17.623   0.301   7.888  0.00  0.00     0.008 A 
ATOM     18  C18 ZIN A   1      17.579  -0.529   6.783  0.00  0.00     0.001 A 
ATOM     19  C17 ZIN A   1      18.400  -1.640   6.722  0.00  0.00     0.000 A 
ATOM     20  C16 ZIN A   1      19.266  -1.919   7.762  0.00  0.00     0.001 A 
ATOM     21  C15 ZIN A   1      19.312  -1.087   8.864  0.00  0.00     0.008 A 
ENDBRANCH  10  16
ENDBRANCH   5   6
ENDBRANCH   4   5
ENDBRANCH   3   4
BRANCH   3  22
ATOM     22  C22 ZIN A   1      18.519   3.410  15.114  0.00  0.00    -0.031 A 
ATOM     23  C27 ZIN A   1      17.864   2.330  14.554  0.00  0.00     0.009 A 
ATOM     24  C26 ZIN A   1      18.009   1.071  15.106  0.00  0.00     0.001 A 
ATOM     25  C25 ZIN A   1      18.802   0.894  16.223  0.00  0.00     0.000 A 
ATOM     26  C24 ZIN A   1      19.453   1.975  16.788  0.00  0.00     0.001 A 
ATOM     27  C23 ZIN A   1      19.311   3.233  16.233  0.00  0.00     0.009 A 
ENDBRANCH   3  22
BRANCH   3  28
ATOM     28  C28 ZIN A   1      17.079   5.401  14.992  0.00  0.00    -0.031 A 
ATOM     29  C33 ZIN A   1      16.950   5.786  16.314  0.00  0.00     0.009 A 
ATOM     30  C32 ZIN A   1      15.772   6.359  16.755  0.00  0.00     0.001 A 
ATOM     31  C31 ZIN A   1      14.720   6.538  15.877  0.00  0.00     0.000 A 
ATOM     32  C30 ZIN A   1      14.846   6.148  14.557  0.00  0.00     0.001 A 
ATOM     33  C29 ZIN A   1      16.026   5.581  14.114  0.00  0.00     0.009 A 
ENDBRANCH   3  28
TORSDOF 7
ENDMDL
MODEL 8
REMARK VINA RESULT:      -8.5      3.077      6.468
REMARK  7 active torsions:
REMARK  status: ('A' for Active; 'I' for Inactive)
REMARK    1  A    between atoms: C3_3  and  C4_4 
REMARK    2  A    between atoms: C3_3  and  C22_22 
REMARK    3  A    between atoms: C3_3  and  C28_28 
REMARK    4  A    between atoms: C4_4  and  C5_5 
REMARK    5  A    between atoms: C5_5  and  N6_6 
REMARK    6  A    between atoms: C10_10  and  C11_11 
REMARK    7  A    between atoms: C10_10  and  C14_14 
ROOT
ATOM      1  N1  ZIN A   1      20.982  -5.516   7.358  0.00  0.00    -0.196 NA
ATOM      2  C2  ZIN A   1      19.893  -5.266   7.563  0.00  0.00     0.079 C 
ATOM      3  C3  ZIN A   1      18.483  -4.940   7.827  0.00  0.00     0.104 C 
ENDROOT
BRANCH   3   4
ATOM      4  C4  ZIN A   1      18.126  -3.619   7.144  0.00  0.00     0.062 C 
BRANCH   4   5
ATOM      5  C5  ZIN A   1      19.380  -2.749   7.033  0.00  0.00     0.237 C 
BRANCH   5   6
ATOM      6  N6  ZIN A   1      19.129  -1.447   7.667  0.00  0.00    -0.071 N 
ATOM      7  H7  ZIN A   1      19.308  -0.709   7.001  0.00  0.00     0.279 HD
ATOM      8  C21 ZIN A   1      17.730  -1.378   8.104  0.00  0.00     0.236 C 
ATOM      9  C20 ZIN A   1      17.441   0.005   8.691  0.00  0.00     0.053 C 
ATOM     10  C10 ZIN A   1      18.364   0.246   9.889  0.00  0.00     0.078 C 
ATOM     11  C9  ZIN A   1      19.820   0.099   9.438  0.00  0.00     0.053 C 
ATOM     12  C8  ZIN A   1      20.019  -1.288   8.822  0.00  0.00     0.236 C 
BRANCH  10  13
ATOM     13  C11 ZIN A   1      18.065  -0.764  10.967  0.00  0.00     0.186 C 
ATOM     14  O12 ZIN A   1      18.963  -1.174  11.684  0.00  0.00    -0.647 OA
ATOM     15  O13 ZIN A   1      16.927  -1.174  11.120  0.00  0.00    -0.647 OA
ENDBRANCH  10  13
BRANCH  10  16
ATOM     16  C14 ZIN A   1      18.142   1.636  10.427  0.00  0.00    -0.039 A 
ATOM     17  C19 ZIN A   1      18.334   2.733   9.607  0.00  0.00     0.008 A 
ATOM     18  C18 ZIN A   1      18.127   4.008  10.098  0.00  0.00     0.001 A 
ATOM     19  C17 ZIN A   1      17.736   4.187  11.412  0.00  0.00     0.000 A 
ATOM     20  C16 ZIN A   1      17.549   3.091  12.233  0.00  0.00     0.001 A 
ATOM     21  C15 ZIN A   1      17.752   1.816  11.740  0.00  0.00     0.008 A 
ENDBRANCH  10  16
ENDBRANCH   5   6
ENDBRANCH   4   5
ENDBRANCH   3   4
BRANCH   3  22
ATOM     22  C22 ZIN A   1      17.603  -6.038   7.286  0.00  0.00    -0.031 A 
ATOM     23  C27 ZIN A   1      16.646  -5.751   6.331  0.00  0.00     0.009 A 
ATOM     24  C26 ZIN A   1      15.843  -6.759   5.833  0.00  0.00     0.001 A 
ATOM     25  C25 ZIN A   1      15.991  -8.053   6.295  0.00  0.00     0.000 A 
ATOM     26  C24 ZIN A   1      16.945  -8.341   7.254  0.00  0.00     0.001 A 
ATOM     27  C23 ZIN A   1      17.750  -7.332   7.750  0.00  0.00     0.009 A 
ENDBRANCH   3  22
BRANCH   3  28
ATOM     28  C28 ZIN A   1      18.266  -4.812   9.314  0.00  0.00    -0.031 A 
ATOM     29  C33 ZIN A   1      16.983  -4.748   9.822  0.00  0.00     0.009 A 
ATOM     30  C32 ZIN A   1      16.784  -4.635  11.186  0.00  0.00     0.001 A 
ATOM     31  C31 ZIN A   1      17.870  -4.577  12.039  0.00  0.00     0.000 A 
ATOM     32  C30 ZIN A   1      19.154  -4.635  11.530  0.00  0.00     0.001 A 
ATOM     33  C29 ZIN A   1      19.352  -4.753  10.167  0.00  0.00     0.009 A 
ENDBRANCH   3  28
TORSDOF 7
ENDMDL
MODEL 9
REMARK VINA RESULT:      -8.5      3.107      5.122
REMARK  7 active torsions:
REMARK  status: ('A' for Active; 'I' for Inactive)
REMARK    1  A    between atoms: C3_3  and  C4_4 
REMARK    2  A    between atoms: C3_3  and  C22_22 
REMARK    3  A    between atoms: C3_3  and  C28_28 
REMARK    4  A    between atoms: C4_4  and  C5_5 
REMARK    5  A    between atoms: C5_5  and  N6_6 
REMARK    6  A    between atoms: C10_10  and  C11_11 
REMARK    7  A    between atoms: C10_10  and  C14_14 
ROOT
ATOM      1  N1  ZIN A   1      16.197  -0.148  11.478  0.00  0.00    -0.196 NA
ATOM      2  C2  ZIN A   1      17.146   0.236  10.986  0.00  0.00     0.079 C 
ATOM      3  C3  ZIN A   1      18.376   0.734  10.349  0.00  0.00     0.104 C 
ENDROOT
BRANCH   3   4
ATOM      4  C4  ZIN A   1      19.558  -0.146  10.764  0.00  0.00     0.062 C 
BRANCH   4   5
ATOM      5  C5  ZIN A   1      19.047  -1.327  11.591  0.00  0.00     0.237 C 
BRANCH   5   6
ATOM      6  N6  ZIN A   1      18.402  -2.304  10.703  0.00  0.00    -0.071 N 
ATOM      7  H7  ZIN A   1      17.513  -1.940  10.393  0.00  0.00     0.279 HD
ATOM      8  C21 ZIN A   1      19.261  -2.547   9.538  0.00  0.00     0.236 C 
ATOM      9  C20 ZIN A   1      18.558  -3.500   8.570  0.00  0.00     0.053 C 
ATOM     10  C10 ZIN A   1      18.278  -4.826   9.283  0.00  0.00     0.078 C 
ATOM     11  C9  ZIN A   1      17.444  -4.553  10.538  0.00  0.00     0.053 C 
ATOM     12  C8  ZIN A   1      18.188  -3.559  11.432  0.00  0.00     0.236 C 
BRANCH  10  13
ATOM     13  C11 ZIN A   1      19.581  -5.473   9.675  0.00  0.00     0.186 C 
ATOM     14  O12 ZIN A   1      20.208  -6.125   8.857  0.00  0.00    -0.647 OA
ATOM     15  O13 ZIN A   1      20.009  -5.344  10.809  0.00  0.00    -0.647 OA
ENDBRANCH  10  13
BRANCH  10  16
ATOM     16  C14 ZIN A   1      17.516  -5.744   8.363  0.00  0.00    -0.039 A 
ATOM     17  C19 ZIN A   1      17.388  -5.428   7.023  0.00  0.00     0.008 A 
ATOM     18  C18 ZIN A   1      16.693  -6.273   6.177  0.00  0.00     0.001 A 
ATOM     19  C17 ZIN A   1      16.120  -7.428   6.673  0.00  0.00     0.000 A 
ATOM     20  C16 ZIN A   1      16.244  -7.742   8.013  0.00  0.00     0.001 A 
ATOM     21  C15 ZIN A   1      16.942  -6.900   8.857  0.00  0.00     0.008 A 
ENDBRANCH  10  16
ENDBRANCH   5   6
ENDBRANCH   4   5
ENDBRANCH   3   4
BRANCH   3  22
ATOM     22  C22 ZIN A   1      18.220   0.691   8.851  0.00  0.00    -0.031 A 
ATOM     23  C27 ZIN A   1      17.211  -0.063   8.282  0.00  0.00     0.009 A 
ATOM     24  C26 ZIN A   1      17.066  -0.098   6.908  0.00  0.00     0.001 A 
ATOM     25  C25 ZIN A   1      17.934   0.614   6.103  0.00  0.00     0.000 A 
ATOM     26  C24 ZIN A   1      18.947   1.364   6.671  0.00  0.00     0.001 A 
ATOM     27  C23 ZIN A   1      19.090   1.402   8.046  0.00  0.00     0.009 A 
ENDBRANCH   3  22
BRANCH   3  28
ATOM     28  C28 ZIN A   1      18.630   2.154  10.787  0.00  0.00    -0.031 A 
ATOM     29  C33 ZIN A   1      17.715   3.144  10.482  0.00  0.00     0.009 A 
ATOM     30  C32 ZIN A   1      17.945   4.446  10.887  0.00  0.00     0.001 A 
ATOM     31  C31 ZIN A   1      19.094   4.758  11.590  0.00  0.00     0.000 A 
ATOM     32  C30 ZIN A   1      20.011   3.769  11.890  0.00  0.00     0.001 A 
ATOM     33  C29 ZIN A   1      19.779   2.466  11.489  0.00  0.00     0.009 A 
ENDBRANCH   3  28
TORSDOF 7
ENDMDL
