MODEL 1
REMARK VINA RESULT:      -7.2      0.000      0.000
REMARK  3 active torsions:
REMARK  status: ('A' for Active; 'I' for Inactive)
REMARK    1  A    between atoms: C7_7  and  N8_8 
REMARK    2  A    between atoms: N8_8  and  C9_9 
REMARK    3  A    between atoms: C14_14  and  C15_15 
ROOT
ATOM      1  N8  <0> d   1      19.553   2.330  14.320  0.00  0.00    -0.353 N 
ATOM      2  H25 <0> d   1      20.354   2.774  14.641  0.00  0.00     0.166 HD
ENDROOT
BRANCH   1   3
ATOM      3  C7  <0> d   1      19.086   2.576  13.027  0.00  0.00     0.077 A 
ATOM      4  C5  <0> d   1      19.600   1.861  11.951  0.00  0.00     0.062 A 
ATOM      5  C4  <0> d   1      19.136   2.109  10.672  0.00  0.00     0.027 A 
ATOM      6 Cl6  <0> d   1      20.825   0.659  12.213  0.00  0.00    -0.082 Cl
ATOM      7  C3  <0> d   1      18.159   3.067  10.463  0.00  0.00     0.010 A 
ATOM      8  C2  <0> d   1      17.646   3.779  11.530  0.00  0.00    -0.038 A 
ATOM      9  C1  <0> d   1      16.582   4.822  11.296  0.00  0.00     0.050 C 
ATOM     10  C18 <0> d   1      18.109   3.542  12.811  0.00  0.00     0.068 A 
ATOM     11 Cl19 <0> d   1      17.465   4.439  14.149  0.00  0.00    -0.081 Cl
ENDBRANCH   1   3
BRANCH   1  12
ATOM     12  C9  <0> d   1      18.873   1.447  15.147  0.00  0.00     0.049 A 
ATOM     13  C14 <0> d   1      18.614   1.787  16.486  0.00  0.00     0.067 A 
ATOM     14  C13 <0> d   1      17.922   0.889  17.305  0.00  0.00     0.021 A 
ATOM     15  C12 <0> d   1      17.510  -0.323  16.800  0.00  0.00     0.001 A 
ATOM     16  C11 <0> d   1      17.771  -0.659  15.480  0.00  0.00     0.002 A 
ATOM     17  C10 <0> d   1      18.448   0.217  14.657  0.00  0.00     0.030 A 
BRANCH  13  18
ATOM     18  C15 <0> d   1      19.059   3.084  17.019  0.00  0.00     0.211 C 
ATOM     19  O16 <0> d   1      18.259   3.820  17.580  0.00  0.00    -0.644 OA
ATOM     20  O17 <0> d   1      20.227   3.427  16.900  0.00  0.00    -0.644 OA
ENDBRANCH  13  18
ENDBRANCH   1  12
TORSDOF 3
ENDMDL
MODEL 2
REMARK VINA RESULT:      -7.2      0.699      2.349
REMARK  3 active torsions:
REMARK  status: ('A' for Active; 'I' for Inactive)
REMARK    1  A    between atoms: C7_7  and  N8_8 
REMARK    2  A    between atoms: N8_8  and  C9_9 
REMARK    3  A    between atoms: C14_14  and  C15_15 
ROOT
ATOM      1  N8  <0> d   1      19.280   2.867  14.293  0.00  0.00    -0.353 N 
ATOM      2  H25 <0> d   1      20.128   3.267  14.542  0.00  0.00     0.166 HD
ENDROOT
BRANCH   1   3
ATOM      3  C7  <0> d   1      18.641   3.258  13.113  0.00  0.00     0.077 A 
ATOM      4  C5  <0> d   1      17.628   4.209  13.151  0.00  0.00     0.062 A 
ATOM      5  C4  <0> d   1      16.997   4.593  11.983  0.00  0.00     0.027 A 
ATOM      6 Cl6  <0> d   1      17.154   4.914  14.666  0.00  0.00    -0.082 Cl
ATOM      7  C3  <0> d   1      17.375   4.032  10.775  0.00  0.00     0.010 A 
ATOM      8  C2  <0> d   1      18.382   3.086  10.734  0.00  0.00    -0.038 A 
ATOM      9  C1  <0> d   1      18.789   2.478   9.415  0.00  0.00     0.050 C 
ATOM     10  C18 <0> d   1      19.013   2.693  11.899  0.00  0.00     0.068 A 
ATOM     11 Cl19 <0> d   1      20.276   1.504  11.845  0.00  0.00    -0.081 Cl
ENDBRANCH   1   3
BRANCH   1  12
ATOM     12  C9  <0> d   1      18.702   1.905  15.109  0.00  0.00     0.049 A 
ATOM     13  C14 <0> d   1      18.663   2.089  16.503  0.00  0.00     0.067 A 
ATOM     14  C13 <0> d   1      18.072   1.113  17.311  0.00  0.00     0.021 A 
ATOM     15  C12 <0> d   1      17.543  -0.023  16.741  0.00  0.00     0.001 A 
ATOM     16  C11 <0> d   1      17.588  -0.205  15.367  0.00  0.00     0.002 A 
ATOM     17  C10 <0> d   1      18.163   0.750  14.554  0.00  0.00     0.030 A 
BRANCH  13  18
ATOM     18  C15 <0> d   1      19.230   3.305  17.104  0.00  0.00     0.211 C 
ATOM     19  O16 <0> d   1      18.571   3.955  17.905  0.00  0.00    -0.644 OA
ATOM     20  O17 <0> d   1      20.360   3.668  16.803  0.00  0.00    -0.644 OA
ENDBRANCH  13  18
ENDBRANCH   1  12
TORSDOF 3
ENDMDL
MODEL 3
REMARK VINA RESULT:      -7.1      6.970      8.250
REMARK  3 active torsions:
REMARK  status: ('A' for Active; 'I' for Inactive)
REMARK    1  A    between atoms: C7_7  and  N8_8 
REMARK    2  A    between atoms: N8_8  and  C9_9 
REMARK    3  A    between atoms: C14_14  and  C15_15 
ROOT
ATOM      1  N8  <0> d   1      19.628  -3.037   8.577  0.00  0.00    -0.353 N 
ATOM      2  H25 <0> d   1      20.537  -3.346   8.436  0.00  0.00     0.166 HD
ENDROOT
BRANCH   1   3
ATOM      3  C7  <0> d   1      19.168  -1.893   7.917  0.00  0.00     0.077 A 
ATOM      4  C5  <0> d   1      18.468  -2.011   6.722  0.00  0.00     0.062 A 
ATOM      5  C4  <0> d   1      18.015  -0.879   6.072  0.00  0.00     0.027 A 
ATOM      6 Cl6  <0> d   1      18.164  -3.581   6.046  0.00  0.00    -0.082 Cl
ATOM      7  C3  <0> d   1      18.257   0.373   6.612  0.00  0.00     0.010 A 
ATOM      8  C2  <0> d   1      18.953   0.494   7.800  0.00  0.00    -0.038 A 
ATOM      9  C1  <0> d   1      19.213   1.860   8.383  0.00  0.00     0.050 C 
ATOM     10  C18 <0> d   1      19.414  -0.634   8.452  0.00  0.00     0.068 A 
ATOM     11 Cl19 <0> d   1      20.289  -0.480   9.943  0.00  0.00    -0.081 Cl
ENDBRANCH   1   3
BRANCH   1  12
ATOM     12  C9  <0> d   1      18.785  -3.730   9.432  0.00  0.00     0.049 A 
ATOM     13  C14 <0> d   1      18.706  -5.133   9.366  0.00  0.00     0.067 A 
ATOM     14  C13 <0> d   1      17.855  -5.818  10.239  0.00  0.00     0.021 A 
ATOM     15  C12 <0> d   1      17.095  -5.118  11.148  0.00  0.00     0.001 A 
ATOM     16  C11 <0> d   1      17.170  -3.734  11.207  0.00  0.00     0.002 A 
ATOM     17  C10 <0> d   1      18.007  -3.042  10.357  0.00  0.00     0.030 A 
BRANCH  13  18
ATOM     18  C15 <0> d   1      19.522  -5.874   8.392  0.00  0.00     0.211 C 
ATOM     19  O16 <0> d   1      18.979  -6.544   7.524  0.00  0.00    -0.644 OA
ATOM     20  O17 <0> d   1      20.743  -5.820   8.450  0.00  0.00    -0.644 OA
ENDBRANCH  13  18
ENDBRANCH   1  12
TORSDOF 3
ENDMDL
MODEL 4
REMARK VINA RESULT:      -6.9      5.986      7.051
REMARK  3 active torsions:
REMARK  status: ('A' for Active; 'I' for Inactive)
REMARK    1  A    between atoms: C7_7  and  N8_8 
REMARK    2  A    between atoms: N8_8  and  C9_9 
REMARK    3  A    between atoms: C14_14  and  C15_15 
ROOT
ATOM      1  N8  <0> d   1      17.621  -1.748   9.330  0.00  0.00    -0.353 N 
ATOM      2  H25 <0> d   1      16.756  -2.028   8.993  0.00  0.00     0.166 HD
ENDROOT
BRANCH   1   3
ATOM      3  C7  <0> d   1      18.050  -0.430   9.149  0.00  0.00     0.077 A 
ATOM      4  C5  <0> d   1      18.863  -0.103   8.070  0.00  0.00     0.062 A 
ATOM      5  C4  <0> d   1      19.286   1.201   7.895  0.00  0.00     0.027 A 
ATOM      6 Cl6  <0> d   1      19.348  -1.332   6.944  0.00  0.00    -0.082 Cl
ATOM      7  C3  <0> d   1      18.899   2.181   8.792  0.00  0.00     0.010 A 
ATOM      8  C2  <0> d   1      18.090   1.860   9.866  0.00  0.00    -0.038 A 
ATOM      9  C1  <0> d   1      17.673   2.932  10.840  0.00  0.00     0.050 C 
ATOM     10  C18 <0> d   1      17.669   0.556  10.051  0.00  0.00     0.068 A 
ATOM     11 Cl19 <0> d   1      16.655   0.154  11.401  0.00  0.00    -0.081 Cl
ENDBRANCH   1   3
BRANCH   1  12
ATOM     12  C9  <0> d   1      18.434  -2.657   9.993  0.00  0.00     0.049 A 
ATOM     13  C14 <0> d   1      18.409  -4.018   9.639  0.00  0.00     0.067 A 
ATOM     14  C13 <0> d   1      19.238  -4.920  10.314  0.00  0.00     0.021 A 
ATOM     15  C12 <0> d   1      20.062  -4.475  11.322  0.00  0.00     0.001 A 
ATOM     16  C11 <0> d   1      20.079  -3.133  11.673  0.00  0.00     0.002 A 
ATOM     17  C10 <0> d   1      19.273  -2.228  11.015  0.00  0.00     0.030 A 
BRANCH  13  18
ATOM     18  C15 <0> d   1      17.526  -4.486   8.561  0.00  0.00     0.211 C 
ATOM     19  O16 <0> d   1      16.411  -4.914   8.826  0.00  0.00    -0.644 OA
ATOM     20  O17 <0> d   1      17.906  -4.447   7.398  0.00  0.00    -0.644 OA
ENDBRANCH  13  18
ENDBRANCH   1  12
TORSDOF 3
ENDMDL
MODEL 5
REMARK VINA RESULT:      -6.9      6.388      8.868
REMARK  3 active torsions:
REMARK  status: ('A' for Active; 'I' for Inactive)
REMARK    1  A    between atoms: C7_7  and  N8_8 
REMARK    2  A    between atoms: N8_8  and  C9_9 
REMARK    3  A    between atoms: C14_14  and  C15_15 
ROOT
ATOM      1  N8  <0> d   1      19.677  -2.280   8.672  0.00  0.00    -0.353 N 
ATOM      2  H25 <0> d   1      20.485  -2.786   8.489  0.00  0.00     0.166 HD
ENDROOT
BRANCH   1   3
ATOM      3  C7  <0> d   1      19.061  -2.375   9.923  0.00  0.00     0.077 A 
ATOM      4  C5  <0> d   1      17.963  -3.209  10.098  0.00  0.00     0.062 A 
ATOM      5  C4  <0> d   1      17.356  -3.299  11.336  0.00  0.00     0.027 A 
ATOM      6 Cl6  <0> d   1      17.355  -4.136   8.762  0.00  0.00    -0.082 Cl
ATOM      7  C3  <0> d   1      17.841  -2.561  12.401  0.00  0.00     0.010 A 
ATOM      8  C2  <0> d   1      18.933  -1.730  12.231  0.00  0.00    -0.038 A 
ATOM      9  C1  <0> d   1      19.456  -0.928  13.395  0.00  0.00     0.050 C 
ATOM     10  C18 <0> d   1      19.541  -1.630  10.994  0.00  0.00     0.068 A 
ATOM     11 Cl19 <0> d   1      20.911  -0.586  10.781  0.00  0.00    -0.081 Cl
ENDBRANCH   1   3
BRANCH   1  12
ATOM     12  C9  <0> d   1      19.134  -1.463   7.691  0.00  0.00     0.049 A 
ATOM     13  C14 <0> d   1      18.983  -1.939   6.376  0.00  0.00     0.067 A 
ATOM     14  C13 <0> d   1      18.428  -1.105   5.401  0.00  0.00     0.021 A 
ATOM     15  C12 <0> d   1      18.045   0.176   5.728  0.00  0.00     0.001 A 
ATOM     16  C11 <0> d   1      18.200   0.644   7.024  0.00  0.00     0.002 A 
ATOM     17  C10 <0> d   1      18.741  -0.166   8.001  0.00  0.00     0.030 A 
BRANCH  13  18
ATOM     18  C15 <0> d   1      19.395  -3.308   6.034  0.00  0.00     0.211 C 
ATOM     19  O16 <0> d   1      18.660  -4.017   5.360  0.00  0.00    -0.644 OA
ATOM     20  O17 <0> d   1      20.473  -3.739   6.422  0.00  0.00    -0.644 OA
ENDBRANCH  13  18
ENDBRANCH   1  12
TORSDOF 3
ENDMDL
MODEL 6
REMARK VINA RESULT:      -6.9      6.006      7.462
REMARK  3 active torsions:
REMARK  status: ('A' for Active; 'I' for Inactive)
REMARK    1  A    between atoms: C7_7  and  N8_8 
REMARK    2  A    between atoms: N8_8  and  C9_9 
REMARK    3  A    between atoms: C14_14  and  C15_15 
ROOT
ATOM      1  N8  <0> d   1      19.460  -2.709   9.113  0.00  0.00    -0.353 N 
ATOM      2  H25 <0> d   1      20.395  -2.815   9.349  0.00  0.00     0.166 HD
ENDROOT
BRANCH   1   3
ATOM      3  C7  <0> d   1      19.074  -1.712   8.213  0.00  0.00     0.077 A 
ATOM      4  C5  <0> d   1      18.553  -0.512   8.682  0.00  0.00     0.062 A 
ATOM      5  C4  <0> d   1      18.171   0.471   7.789  0.00  0.00     0.027 A 
ATOM      6 Cl6  <0> d   1      18.379  -0.249  10.390  0.00  0.00    -0.082 Cl
ATOM      7  C3  <0> d   1      18.309   0.262   6.428  0.00  0.00     0.010 A 
ATOM      8  C2  <0> d   1      18.828  -0.929   5.957  0.00  0.00    -0.038 A 
ATOM      9  C1  <0> d   1      18.976  -1.151   4.473  0.00  0.00     0.050 C 
ATOM     10  C18 <0> d   1      19.205  -1.920   6.845  0.00  0.00     0.068 A 
ATOM     11 Cl19 <0> d   1      19.854  -3.416   6.252  0.00  0.00    -0.081 Cl
ENDBRANCH   1   3
BRANCH   1  12
ATOM     12  C9  <0> d   1      18.505  -3.548   9.670  0.00  0.00     0.049 A 
ATOM     13  C14 <0> d   1      18.561  -3.876  11.036  0.00  0.00     0.067 A 
ATOM     14  C13 <0> d   1      17.588  -4.718  11.583  0.00  0.00     0.021 A 
ATOM     15  C12 <0> d   1      16.592  -5.229  10.782  0.00  0.00     0.001 A 
ATOM     16  C11 <0> d   1      16.543  -4.908   9.434  0.00  0.00     0.002 A 
ATOM     17  C10 <0> d   1      17.491  -4.075   8.878  0.00  0.00     0.030 A 
BRANCH  13  18
ATOM     18  C15 <0> d   1      19.629  -3.327  11.885  0.00  0.00     0.211 C 
ATOM     19  O16 <0> d   1      19.364  -2.481  12.728  0.00  0.00    -0.644 OA
ATOM     20  O17 <0> d   1      20.781  -3.716  11.748  0.00  0.00    -0.644 OA
ENDBRANCH  13  18
ENDBRANCH   1  12
TORSDOF 3
ENDMDL
MODEL 7
REMARK VINA RESULT:      -6.8      6.609      9.135
REMARK  3 active torsions:
REMARK  status: ('A' for Active; 'I' for Inactive)
REMARK    1  A    between atoms: C7_7  and  N8_8 
REMARK    2  A    between atoms: N8_8  and  C9_9 
REMARK    3  A    between atoms: C14_14  and  C15_15 
ROOT
ATOM      1  N8  <0> d   1      19.666  -2.307   8.571  0.00  0.00    -0.353 N 
ATOM      2  H25 <0> d   1      20.516  -2.701   8.319  0.00  0.00     0.166 HD
ENDROOT
BRANCH   1   3
ATOM      3  C7  <0> d   1      19.131  -2.547   9.840  0.00  0.00     0.077 A 
ATOM      4  C5  <0> d   1      19.581  -1.818  10.935  0.00  0.00     0.062 A 
ATOM      5  C4  <0> d   1      19.051  -2.059  12.189  0.00  0.00     0.027 A 
ATOM      6 Cl6  <0> d   1      20.809  -0.608  10.728  0.00  0.00    -0.082 Cl
ATOM      7  C3  <0> d   1      18.072  -3.023  12.353  0.00  0.00     0.010 A 
ATOM      8  C2  <0> d   1      17.622  -3.749  11.267  0.00  0.00    -0.038 A 
ATOM      9  C1  <0> d   1      16.556  -4.798  11.453  0.00  0.00     0.050 C 
ATOM     10  C18 <0> d   1      18.152  -3.519  10.011  0.00  0.00     0.068 A 
ATOM     11 Cl19 <0> d   1      17.588  -4.433   8.648  0.00  0.00    -0.081 Cl
ENDBRANCH   1   3
BRANCH   1  12
ATOM     12  C9  <0> d   1      18.980  -1.505   7.670  0.00  0.00     0.049 A 
ATOM     13  C14 <0> d   1      18.787  -1.935   6.345  0.00  0.00     0.067 A 
ATOM     14  C13 <0> d   1      18.088  -1.117   5.451  0.00  0.00     0.021 A 
ATOM     15  C12 <0> d   1      17.607   0.103   5.867  0.00  0.00     0.001 A 
ATOM     16  C11 <0> d   1      17.805   0.527   7.173  0.00  0.00     0.002 A 
ATOM     17  C10 <0> d   1      18.486  -0.269   8.070  0.00  0.00     0.030 A 
BRANCH  13  18
ATOM     18  C15 <0> d   1      19.304  -3.239   5.907  0.00  0.00     0.211 C 
ATOM     19  O16 <0> d   1      18.605  -3.976   5.225  0.00  0.00    -0.644 OA
ATOM     20  O17 <0> d   1      20.433  -3.588   6.225  0.00  0.00    -0.644 OA
ENDBRANCH  13  18
ENDBRANCH   1  12
TORSDOF 3
ENDMDL
MODEL 8
REMARK VINA RESULT:      -6.8      6.909      8.268
REMARK  3 active torsions:
REMARK  status: ('A' for Active; 'I' for Inactive)
REMARK    1  A    between atoms: C7_7  and  N8_8 
REMARK    2  A    between atoms: N8_8  and  C9_9 
REMARK    3  A    between atoms: C14_14  and  C15_15 
ROOT
ATOM      1  N8  <0> d   1      19.655  -3.058   9.011  0.00  0.00    -0.353 N 
ATOM      2  H25 <0> d   1      20.554  -3.382   8.845  0.00  0.00     0.166 HD
ENDROOT
BRANCH   1   3
ATOM      3  C7  <0> d   1      19.288  -1.773   8.605  0.00  0.00     0.077 A 
ATOM      4  C5  <0> d   1      19.603  -0.674   9.396  0.00  0.00     0.062 A 
ATOM      5  C4  <0> d   1      19.237   0.596   8.992  0.00  0.00     0.027 A 
ATOM      6 Cl6  <0> d   1      20.455  -0.899  10.893  0.00  0.00    -0.082 Cl
ATOM      7  C3  <0> d   1      18.559   0.775   7.799  0.00  0.00     0.010 A 
ATOM      8  C2  <0> d   1      18.244  -0.315   7.009  0.00  0.00    -0.038 A 
ATOM      9  C1  <0> d   1      17.505  -0.114   5.711  0.00  0.00     0.050 C 
ATOM     10  C18 <0> d   1      18.601  -1.589   7.410  0.00  0.00     0.068 A 
ATOM     11 Cl19 <0> d   1      18.203  -2.956   6.418  0.00  0.00    -0.081 Cl
ENDBRANCH   1   3
BRANCH   1  12
ATOM     12  C9  <0> d   1      18.732  -3.874   9.651  0.00  0.00     0.049 A 
ATOM     13  C14 <0> d   1      18.646  -5.238   9.323  0.00  0.00     0.067 A 
ATOM     14  C13 <0> d   1      17.715  -6.047   9.982  0.00  0.00     0.021 A 
ATOM     15  C12 <0> d   1      16.884  -5.504  10.936  0.00  0.00     0.001 A 
ATOM     16  C11 <0> d   1      16.968  -4.156  11.253  0.00  0.00     0.002 A 
ATOM     17  C10 <0> d   1      17.884  -3.344  10.617  0.00  0.00     0.030 A 
BRANCH  13  18
ATOM     18  C15 <0> d   1      19.536  -5.812   8.304  0.00  0.00     0.211 C 
ATOM     19  O16 <0> d   1      19.070  -6.232   7.253  0.00  0.00    -0.644 OA
ATOM     20  O17 <0> d   1      20.741  -5.869   8.505  0.00  0.00    -0.644 OA
ENDBRANCH  13  18
ENDBRANCH   1  12
TORSDOF 3
ENDMDL
MODEL 9
REMARK VINA RESULT:      -6.8      2.574      5.648
REMARK  3 active torsions:
REMARK  status: ('A' for Active; 'I' for Inactive)
REMARK    1  A    between atoms: C7_7  and  N8_8 
REMARK    2  A    between atoms: N8_8  and  C9_9 
REMARK    3  A    between atoms: C14_14  and  C15_15 
ROOT
ATOM      1  N8  <0> d   1      19.136   2.894  14.070  0.00  0.00    -0.353 N 
ATOM      2  H25 <0> d   1      19.958   2.695  13.594  0.00  0.00     0.166 HD
ENDROOT
BRANCH   1   3
ATOM      3  C7  <0> d   1      18.890   2.311  15.316  0.00  0.00     0.077 A 
ATOM      4  C5  <0> d   1      19.392   2.898  16.472  0.00  0.00     0.062 A 
ATOM      5  C4  <0> d   1      19.148   2.319  17.703  0.00  0.00     0.027 A 
ATOM      6 Cl6  <0> d   1      20.329   4.357  16.368  0.00  0.00    -0.082 Cl
ATOM      7  C3  <0> d   1      18.402   1.156  17.785  0.00  0.00     0.010 A 
ATOM      8  C2  <0> d   1      17.900   0.570  16.638  0.00  0.00    -0.038 A 
ATOM      9  C1  <0> d   1      17.088  -0.696  16.735  0.00  0.00     0.050 C 
ATOM     10  C18 <0> d   1      18.146   1.140  15.403  0.00  0.00     0.068 A 
ATOM     11 Cl19 <0> d   1      17.517   0.402  13.964  0.00  0.00    -0.081 Cl
ENDBRANCH   1   3
BRANCH   1  12
ATOM     12  C9  <0> d   1      18.204   3.758  13.512  0.00  0.00     0.049 A 
ATOM     13  C14 <0> d   1      17.965   3.742  12.126  0.00  0.00     0.067 A 
ATOM     14  C13 <0> d   1      17.019   4.615  11.580  0.00  0.00     0.021 A 
ATOM     15  C12 <0> d   1      16.337   5.488  12.397  0.00  0.00     0.001 A 
ATOM     16  C11 <0> d   1      16.580   5.505  13.763  0.00  0.00     0.002 A 
ATOM     17  C10 <0> d   1      17.506   4.648  14.319  0.00  0.00     0.030 A 
BRANCH  13  18
ATOM     18  C15 <0> d   1      18.697   2.806  11.260  0.00  0.00     0.211 C 
ATOM     19  O16 <0> d   1      18.082   2.020  10.552  0.00  0.00    -0.644 OA
ATOM     20  O17 <0> d   1      19.921   2.813  11.247  0.00  0.00    -0.644 OA
ENDBRANCH  13  18
ENDBRANCH   1  12
TORSDOF 3
ENDMDL
