MODEL 1
REMARK VINA RESULT:      -6.6      0.000      0.000
REMARK  5 active torsions:
REMARK  status: ('A' for Active; 'I' for Inactive)
REMARK    1  A    between atoms: C2_2  and  C3_3 
REMARK    2  A    between atoms: C3_3  and  C4_4 
REMARK    3  A    between atoms: C4_4  and  C5_5 
REMARK    4  A    between atoms: C5_5  and  C8_7 
REMARK    5  A    between atoms: C9_8  and  C10_9 
ROOT
ATOM      1  C4  ZIN A   1      18.783   0.311  11.188  0.00  0.00     0.141 A 
ATOM      2  C12 ZIN A   1      17.344  -0.000  11.552  0.00  0.00     0.267 A 
ATOM      3  O13 ZIN A   1      16.515   0.880  11.647  0.00  0.00    -0.270 OA
ATOM      4  N14 ZIN A   1      17.019  -1.293  11.765  0.00  0.00    -0.157 NA
ATOM      5  C15 ZIN A   1      17.921  -2.276  11.663  0.00  0.00     0.353 A 
ATOM      6  O16 ZIN A   1      17.541  -3.411  11.871  0.00  0.00    -0.244 OA
ATOM      7  N17 ZIN A   1      19.208  -2.100  11.348  0.00  0.00    -0.272 N 
ATOM      8  C18 ZIN A   1      20.088  -3.270  11.272  0.00  0.00     0.164 C 
ATOM      9  C19 ZIN A   1      19.723  -0.877  11.100  0.00  0.00     0.247 A 
ATOM     10  O20 ZIN A   1      20.893  -0.733  10.816  0.00  0.00    -0.271 OA
ENDROOT
BRANCH   1  11
ATOM     11  C3  ZIN A   1      19.340   1.281  12.232  0.00  0.00     0.057 C 
BRANCH  11  12
ATOM     12  C2  ZIN A   1      19.474   0.573  13.555  0.00  0.00    -0.035 C 
ATOM     13  C1  ZIN A   1      19.062   1.155  14.654  0.00  0.00     0.007 C 
ENDBRANCH  11  12
ENDBRANCH   1  11
BRANCH   1  14
ATOM     14  C5  ZIN A   1      18.785   1.020   9.833  0.00  0.00     0.088 C 
ATOM     15  C7  ZIN A   1      17.818   0.311   8.884  0.00  0.00     0.025 C 
BRANCH  14  16
ATOM     16  C8  ZIN A   1      18.361   2.419  10.012  0.00  0.00    -0.100 C 
ATOM     17  C9  ZIN A   1      18.023   3.534  10.154  0.00  0.00    -0.106 C 
BRANCH  17  18
ATOM     18  C10 ZIN A   1      17.599   4.933  10.333  0.00  0.00     0.089 C 
ATOM     19  C11 ZIN A   1      16.649   5.029  11.529  0.00  0.00     0.018 C 
ENDBRANCH  17  18
ENDBRANCH  14  16
ENDBRANCH   1  14
TORSDOF 5
ENDMDL
MODEL 2
REMARK VINA RESULT:      -6.4      1.969      4.508
REMARK  5 active torsions:
REMARK  status: ('A' for Active; 'I' for Inactive)
REMARK    1  A    between atoms: C2_2  and  C3_3 
REMARK    2  A    between atoms: C3_3  and  C4_4 
REMARK    3  A    between atoms: C4_4  and  C5_5 
REMARK    4  A    between atoms: C5_5  and  C8_7 
REMARK    5  A    between atoms: C9_8  and  C10_9 
ROOT
ATOM      1  C4  ZIN A   1      18.186  -0.187  10.349  0.00  0.00     0.141 A 
ATOM      2  C12 ZIN A   1      19.703  -0.171  10.380  0.00  0.00     0.267 A 
ATOM      3  O13 ZIN A   1      20.354  -0.343   9.372  0.00  0.00    -0.270 OA
ATOM      4  N14 ZIN A   1      20.300   0.042  11.572  0.00  0.00    -0.157 NA
ATOM      5  C15 ZIN A   1      19.596   0.235  12.693  0.00  0.00     0.353 A 
ATOM      6  O16 ZIN A   1      20.215   0.420  13.721  0.00  0.00    -0.244 OA
ATOM      7  N17 ZIN A   1      18.261   0.239  12.764  0.00  0.00    -0.272 N 
ATOM      8  C18 ZIN A   1      17.618   0.462  14.062  0.00  0.00     0.164 C 
ATOM      9  C19 ZIN A   1      17.487   0.042  11.676  0.00  0.00     0.247 A 
ATOM     10  O20 ZIN A   1      16.276   0.047  11.755  0.00  0.00    -0.271 OA
ENDROOT
BRANCH   1  11
ATOM     11  C3  ZIN A   1      17.735  -1.542   9.800  0.00  0.00     0.057 C 
BRANCH  11  12
ATOM     12  C2  ZIN A   1      18.190  -2.637  10.730  0.00  0.00    -0.035 C 
ATOM     13  C1  ZIN A   1      17.336  -3.541  11.143  0.00  0.00     0.007 C 
ENDBRANCH  11  12
ENDBRANCH   1  11
BRANCH   1  14
ATOM     14  C5  ZIN A   1      17.723   0.897   9.374  0.00  0.00     0.088 C 
ATOM     15  C7  ZIN A   1      18.626   2.124   9.508  0.00  0.00     0.025 C 
BRANCH  14  16
ATOM     16  C8  ZIN A   1      17.796   0.382   7.997  0.00  0.00    -0.100 C 
ATOM     17  C9  ZIN A   1      17.855  -0.030   6.899  0.00  0.00    -0.106 C 
BRANCH  17  18
ATOM     18  C10 ZIN A   1      17.927  -0.545   5.522  0.00  0.00     0.089 C 
ATOM     19  C11 ZIN A   1      19.329  -0.302   4.959  0.00  0.00     0.018 C 
ENDBRANCH  17  18
ENDBRANCH  14  16
ENDBRANCH   1  14
TORSDOF 5
ENDMDL
MODEL 3
REMARK VINA RESULT:      -6.3      2.113      4.817
REMARK  5 active torsions:
REMARK  status: ('A' for Active; 'I' for Inactive)
REMARK    1  A    between atoms: C2_2  and  C3_3 
REMARK    2  A    between atoms: C3_3  and  C4_4 
REMARK    3  A    between atoms: C4_4  and  C5_5 
REMARK    4  A    between atoms: C5_5  and  C8_7 
REMARK    5  A    between atoms: C9_8  and  C10_9 
ROOT
ATOM      1  C4  ZIN A   1      18.242   0.129  12.758  0.00  0.00     0.141 A 
ATOM      2  C12 ZIN A   1      19.743   0.242  12.572  0.00  0.00     0.267 A 
ATOM      3  O13 ZIN A   1      20.494   0.273  13.523  0.00  0.00    -0.270 OA
ATOM      4  N14 ZIN A   1      20.212   0.308  11.308  0.00  0.00    -0.157 NA
ATOM      5  C15 ZIN A   1      19.397   0.275  10.247  0.00  0.00     0.353 A 
ATOM      6  O16 ZIN A   1      19.905   0.338   9.146  0.00  0.00    -0.244 OA
ATOM      7  N17 ZIN A   1      18.065   0.177  10.312  0.00  0.00    -0.272 N 
ATOM      8  C18 ZIN A   1      17.292   0.152   9.067  0.00  0.00     0.164 C 
ATOM      9  C19 ZIN A   1      17.410   0.100  11.490  0.00  0.00     0.247 A 
ATOM     10  O20 ZIN A   1      16.201   0.012  11.533  0.00  0.00    -0.271 OA
ENDROOT
BRANCH   1  11
ATOM     11  C3  ZIN A   1      17.776   1.314  13.606  0.00  0.00     0.057 C 
BRANCH  11  12
ATOM     12  C2  ZIN A   1      18.016   2.597  12.851  0.00  0.00    -0.035 C 
ATOM     13  C1  ZIN A   1      18.583   3.614  13.452  0.00  0.00     0.007 C 
ENDBRANCH  11  12
ENDBRANCH   1  11
BRANCH   1  14
ATOM     14  C5  ZIN A   1      17.959  -1.154  13.542  0.00  0.00     0.088 C 
ATOM     15  C7  ZIN A   1      18.759  -2.309  12.937  0.00  0.00     0.025 C 
BRANCH  14  16
ATOM     16  C8  ZIN A   1      18.354  -0.967  14.947  0.00  0.00    -0.100 C 
ATOM     17  C9  ZIN A   1      18.668  -0.817  16.069  0.00  0.00    -0.106 C 
BRANCH  17  18
ATOM     18  C10 ZIN A   1      19.063  -0.630  17.475  0.00  0.00     0.089 C 
ATOM     19  C11 ZIN A   1      19.254   0.862  17.757  0.00  0.00     0.018 C 
ENDBRANCH  17  18
ENDBRANCH  14  16
ENDBRANCH   1  14
TORSDOF 5
ENDMDL
MODEL 4
REMARK VINA RESULT:      -6.0      1.509      3.466
REMARK  5 active torsions:
REMARK  status: ('A' for Active; 'I' for Inactive)
REMARK    1  A    between atoms: C2_2  and  C3_3 
REMARK    2  A    between atoms: C3_3  and  C4_4 
REMARK    3  A    between atoms: C4_4  and  C5_5 
REMARK    4  A    between atoms: C5_5  and  C8_7 
REMARK    5  A    between atoms: C9_8  and  C10_9 
ROOT
ATOM      1  C4  ZIN A   1      18.636  -0.326  10.765  0.00  0.00     0.141 A 
ATOM      2  C12 ZIN A   1      20.096  -0.255  11.169  0.00  0.00     0.267 A 
ATOM      3  O13 ZIN A   1      20.974  -0.625  10.420  0.00  0.00    -0.270 OA
ATOM      4  N14 ZIN A   1      20.380   0.235  12.395  0.00  0.00    -0.157 NA
ATOM      5  C15 ZIN A   1      19.423   0.647  13.233  0.00  0.00     0.353 A 
ATOM      6  O16 ZIN A   1      19.769   1.075  14.316  0.00  0.00    -0.244 OA
ATOM      7  N17 ZIN A   1      18.113   0.624  12.966  0.00  0.00    -0.272 N 
ATOM      8  C18 ZIN A   1      17.171   1.107  13.979  0.00  0.00     0.164 C 
ATOM      9  C19 ZIN A   1      17.632   0.167  11.790  0.00  0.00     0.247 A 
ATOM     10  O20 ZIN A   1      16.441   0.150  11.561  0.00  0.00    -0.271 OA
ENDROOT
BRANCH   1  11
ATOM     11  C3  ZIN A   1      18.303  -1.783  10.435  0.00  0.00     0.057 C 
BRANCH  11  12
ATOM     12  C2  ZIN A   1      18.447  -2.625  11.676  0.00  0.00    -0.035 C 
ATOM     13  C1  ZIN A   1      19.038  -3.792  11.611  0.00  0.00     0.007 C 
ENDBRANCH  11  12
ENDBRANCH   1  11
BRANCH   1  14
ATOM     14  C5  ZIN A   1      18.458   0.500   9.490  0.00  0.00     0.088 C 
ATOM     15  C7  ZIN A   1      17.257  -0.025   8.703  0.00  0.00     0.025 C 
BRANCH  14  16
ATOM     16  C8  ZIN A   1      18.233   1.910   9.848  0.00  0.00    -0.100 C 
ATOM     17  C9  ZIN A   1      18.053   3.035  10.133  0.00  0.00    -0.106 C 
BRANCH  17  18
ATOM     18  C10 ZIN A   1      17.828   4.445  10.490  0.00  0.00     0.089 C 
ATOM     19  C11 ZIN A   1      17.015   4.520  11.785  0.00  0.00     0.018 C 
ENDBRANCH  17  18
ENDBRANCH  14  16
ENDBRANCH   1  14
TORSDOF 5
ENDMDL
MODEL 5
REMARK VINA RESULT:      -5.9      1.544      3.254
REMARK  5 active torsions:
REMARK  status: ('A' for Active; 'I' for Inactive)
REMARK    1  A    between atoms: C2_2  and  C3_3 
REMARK    2  A    between atoms: C3_3  and  C4_4 
REMARK    3  A    between atoms: C4_4  and  C5_5 
REMARK    4  A    between atoms: C5_5  and  C8_7 
REMARK    5  A    between atoms: C9_8  and  C10_9 
ROOT
ATOM      1  C4  ZIN A   1      18.397   0.006  11.090  0.00  0.00     0.141 A 
ATOM      2  C12 ZIN A   1      17.030  -0.557  11.425  0.00  0.00     0.267 A 
ATOM      3  O13 ZIN A   1      16.044   0.149  11.434  0.00  0.00    -0.270 OA
ATOM      4  N14 ZIN A   1      16.951  -1.874  11.713  0.00  0.00    -0.157 NA
ATOM      5  C15 ZIN A   1      18.028  -2.667  11.706  0.00  0.00     0.353 A 
ATOM      6  O16 ZIN A   1      17.866  -3.839  11.977  0.00  0.00    -0.244 OA
ATOM      7  N17 ZIN A   1      19.271  -2.262  11.424  0.00  0.00    -0.272 N 
ATOM      8  C18 ZIN A   1      20.362  -3.240  11.454  0.00  0.00     0.164 C 
ATOM      9  C19 ZIN A   1      19.551  -0.979  11.112  0.00  0.00     0.247 A 
ATOM     10  O20 ZIN A   1      20.683  -0.626  10.858  0.00  0.00    -0.271 OA
ENDROOT
BRANCH   1  11
ATOM     11  C3  ZIN A   1      18.709   1.126  12.084  0.00  0.00     0.057 C 
BRANCH  11  12
ATOM     12  C2  ZIN A   1      18.606   0.592  13.490  0.00  0.00    -0.035 C 
ATOM     13  C1  ZIN A   1      19.569   0.821  14.349  0.00  0.00     0.007 C 
ENDBRANCH  11  12
ENDBRANCH   1  11
BRANCH   1  14
ATOM     14  C5  ZIN A   1      18.324   0.622   9.692  0.00  0.00     0.088 C 
ATOM     15  C7  ZIN A   1      19.315   1.782   9.591  0.00  0.00     0.025 C 
BRANCH  14  16
ATOM     16  C8  ZIN A   1      18.662  -0.401   8.688  0.00  0.00    -0.100 C 
ATOM     17  C9  ZIN A   1      18.932  -1.216   7.887  0.00  0.00    -0.106 C 
BRANCH  17  18
ATOM     18  C10 ZIN A   1      19.270  -2.238   6.883  0.00  0.00     0.089 C 
ATOM     19  C11 ZIN A   1      19.197  -1.623   5.484  0.00  0.00     0.018 C 
ENDBRANCH  17  18
ENDBRANCH  14  16
ENDBRANCH   1  14
TORSDOF 5
ENDMDL
MODEL 6
REMARK VINA RESULT:      -5.9      1.792      4.969
REMARK  5 active torsions:
REMARK  status: ('A' for Active; 'I' for Inactive)
REMARK    1  A    between atoms: C2_2  and  C3_3 
REMARK    2  A    between atoms: C3_3  and  C4_4 
REMARK    3  A    between atoms: C4_4  and  C5_5 
REMARK    4  A    between atoms: C5_5  and  C8_7 
REMARK    5  A    between atoms: C9_8  and  C10_9 
ROOT
ATOM      1  C4  ZIN A   1      18.889   0.555  11.755  0.00  0.00     0.141 A 
ATOM      2  C12 ZIN A   1      20.308   0.252  11.311  0.00  0.00     0.267 A 
ATOM      3  O13 ZIN A   1      21.250   0.427  12.054  0.00  0.00    -0.270 OA
ATOM      4  N14 ZIN A   1      20.482  -0.219  10.058  0.00  0.00    -0.157 NA
ATOM      5  C15 ZIN A   1      19.453  -0.419   9.227  0.00  0.00     0.353 A 
ATOM      6  O16 ZIN A   1      19.701  -0.846   8.117  0.00  0.00    -0.244 OA
ATOM      7  N17 ZIN A   1      18.172  -0.181   9.527  0.00  0.00    -0.272 N 
ATOM      8  C18 ZIN A   1      17.143  -0.445   8.518  0.00  0.00     0.164 C 
ATOM      9  C19 ZIN A   1      17.797   0.294  10.734  0.00  0.00     0.247 A 
ATOM     10  O20 ZIN A   1      16.631   0.505  10.993  0.00  0.00    -0.271 OA
ENDROOT
BRANCH   1  11
ATOM     11  C3  ZIN A   1      18.821   2.029  12.158  0.00  0.00     0.057 C 
BRANCH  11  12
ATOM     12  C2  ZIN A   1      19.087   2.893  10.952  0.00  0.00    -0.035 C 
ATOM     13  C1  ZIN A   1      18.200   3.782  10.575  0.00  0.00     0.007 C 
ENDBRANCH  11  12
ENDBRANCH   1  11
BRANCH   1  14
ATOM     14  C5  ZIN A   1      18.592  -0.289  12.995  0.00  0.00     0.088 C 
ATOM     15  C7  ZIN A   1      17.366   0.274  13.716  0.00  0.00     0.025 C 
BRANCH  14  16
ATOM     16  C8  ZIN A   1      18.328  -1.679  12.590  0.00  0.00    -0.100 C 
ATOM     17  C9  ZIN A   1      18.118  -2.789  12.266  0.00  0.00    -0.106 C 
BRANCH  17  18
ATOM     18  C10 ZIN A   1      17.854  -4.179  11.861  0.00  0.00     0.089 C 
ATOM     19  C11 ZIN A   1      19.028  -4.700  11.031  0.00  0.00     0.018 C 
ENDBRANCH  17  18
ENDBRANCH  14  16
ENDBRANCH   1  14
TORSDOF 5
ENDMDL
MODEL 7
REMARK VINA RESULT:      -5.9      2.016      3.931
REMARK  5 active torsions:
REMARK  status: ('A' for Active; 'I' for Inactive)
REMARK    1  A    between atoms: C2_2  and  C3_3 
REMARK    2  A    between atoms: C3_3  and  C4_4 
REMARK    3  A    between atoms: C4_4  and  C5_5 
REMARK    4  A    between atoms: C5_5  and  C8_7 
REMARK    5  A    between atoms: C9_8  and  C10_9 
ROOT
ATOM      1  C4  ZIN A   1      19.055   0.729  10.487  0.00  0.00     0.141 A 
ATOM      2  C12 ZIN A   1      17.579   0.384  10.562  0.00  0.00     0.267 A 
ATOM      3  O13 ZIN A   1      16.895   0.329   9.562  0.00  0.00    -0.270 OA
ATOM      4  N14 ZIN A   1      17.056   0.140  11.782  0.00  0.00    -0.157 NA
ATOM      5  C15 ZIN A   1      17.798   0.196  12.894  0.00  0.00     0.353 A 
ATOM      6  O16 ZIN A   1      17.245  -0.039  13.951  0.00  0.00    -0.244 OA
ATOM      7  N17 ZIN A   1      19.102   0.490  12.928  0.00  0.00    -0.272 N 
ATOM      8  C18 ZIN A   1      19.792   0.515  14.221  0.00  0.00     0.164 C 
ATOM      9  C19 ZIN A   1      19.802   0.764  11.807  0.00  0.00     0.247 A 
ATOM     10  O20 ZIN A   1      20.984   1.030  11.852  0.00  0.00    -0.271 OA
ENDROOT
BRANCH   1  11
ATOM     11  C3  ZIN A   1      19.191   2.102   9.826  0.00  0.00     0.057 C 
BRANCH  11  12
ATOM     12  C2  ZIN A   1      18.567   3.150  10.711  0.00  0.00    -0.035 C 
ATOM     13  C1  ZIN A   1      17.923   4.158  10.178  0.00  0.00     0.007 C 
ENDBRANCH  11  12
ENDBRANCH   1  11
BRANCH   1  14
ATOM     14  C5  ZIN A   1      19.734  -0.301   9.583  0.00  0.00     0.088 C 
ATOM     15  C7  ZIN A   1      19.242  -1.703   9.946  0.00  0.00     0.025 C 
BRANCH  14  16
ATOM     16  C8  ZIN A   1      19.405  -0.014   8.178  0.00  0.00    -0.100 C 
ATOM     17  C9  ZIN A   1      19.143   0.215   7.056  0.00  0.00    -0.106 C 
BRANCH  17  18
ATOM     18  C10 ZIN A   1      18.813   0.502   5.650  0.00  0.00     0.089 C 
ATOM     19  C11 ZIN A   1      18.976  -0.771   4.818  0.00  0.00     0.018 C 
ENDBRANCH  17  18
ENDBRANCH  14  16
ENDBRANCH   1  14
TORSDOF 5
ENDMDL
MODEL 8
REMARK VINA RESULT:      -5.9      2.114      5.353
REMARK  5 active torsions:
REMARK  status: ('A' for Active; 'I' for Inactive)
REMARK    1  A    between atoms: C2_2  and  C3_3 
REMARK    2  A    between atoms: C3_3  and  C4_4 
REMARK    3  A    between atoms: C4_4  and  C5_5 
REMARK    4  A    between atoms: C5_5  and  C8_7 
REMARK    5  A    between atoms: C9_8  and  C10_9 
ROOT
ATOM      1  C4  ZIN A   1      18.612   0.052  11.569  0.00  0.00     0.141 A 
ATOM      2  C12 ZIN A   1      17.185   0.565  11.535  0.00  0.00     0.267 A 
ATOM      3  O13 ZIN A   1      16.245  -0.198  11.460  0.00  0.00    -0.270 OA
ATOM      4  N14 ZIN A   1      17.000   1.901  11.592  0.00  0.00    -0.157 NA
ATOM      5  C15 ZIN A   1      18.026   2.755  11.676  0.00  0.00     0.353 A 
ATOM      6  O16 ZIN A   1      17.768   3.941  11.723  0.00  0.00    -0.244 OA
ATOM      7  N17 ZIN A   1      19.315   2.399  11.711  0.00  0.00    -0.272 N 
ATOM      8  C18 ZIN A   1      20.339   3.443  11.804  0.00  0.00     0.164 C 
ATOM      9  C19 ZIN A   1      19.700   1.106  11.664  0.00  0.00     0.247 A 
ATOM     10  O20 ZIN A   1      20.872   0.797  11.696  0.00  0.00    -0.271 OA
ENDROOT
BRANCH   1  11
ATOM     11  C3  ZIN A   1      18.854  -0.768  10.300  0.00  0.00     0.057 C 
BRANCH  11  12
ATOM     12  C2  ZIN A   1      18.739   0.128   9.093  0.00  0.00    -0.035 C 
ATOM     13  C1  ZIN A   1      17.866  -0.146   8.155  0.00  0.00     0.007 C 
ENDBRANCH  11  12
ENDBRANCH   1  11
BRANCH   1  14
ATOM     14  C5  ZIN A   1      18.750  -0.883  12.770  0.00  0.00     0.088 C 
ATOM     15  C7  ZIN A   1      17.889  -0.365  13.923  0.00  0.00     0.025 C 
BRANCH  14  16
ATOM     16  C8  ZIN A   1      18.303  -2.234  12.394  0.00  0.00    -0.100 C 
ATOM     17  C9  ZIN A   1      17.947  -3.312  12.092  0.00  0.00    -0.106 C 
BRANCH  17  18
ATOM     18  C10 ZIN A   1      17.500  -4.663  11.716  0.00  0.00     0.089 C 
ATOM     19  C11 ZIN A   1      17.004  -4.652  10.268  0.00  0.00     0.018 C 
ENDBRANCH  17  18
ENDBRANCH  14  16
ENDBRANCH   1  14
TORSDOF 5
ENDMDL
MODEL 9
REMARK VINA RESULT:      -5.7      2.104      4.819
REMARK  5 active torsions:
REMARK  status: ('A' for Active; 'I' for Inactive)
REMARK    1  A    between atoms: C2_2  and  C3_3 
REMARK    2  A    between atoms: C3_3  and  C4_4 
REMARK    3  A    between atoms: C4_4  and  C5_5 
REMARK    4  A    between atoms: C5_5  and  C8_7 
REMARK    5  A    between atoms: C9_8  and  C10_9 
ROOT
ATOM      1  C4  ZIN A   1      18.247  -0.314  11.248  0.00  0.00     0.141 A 
ATOM      2  C12 ZIN A   1      16.949   0.416  11.536  0.00  0.00     0.267 A 
ATOM      3  O13 ZIN A   1      15.880  -0.152  11.468  0.00  0.00    -0.270 OA
ATOM      4  N14 ZIN A   1      17.028   1.722  11.871  0.00  0.00    -0.157 NA
ATOM      5  C15 ZIN A   1      18.200   2.362  11.951  0.00  0.00     0.353 A 
ATOM      6  O16 ZIN A   1      18.179   3.537  12.261  0.00  0.00    -0.244 OA
ATOM      7  N17 ZIN A   1      19.393   1.804  11.716  0.00  0.00    -0.272 N 
ATOM      8  C18 ZIN A   1      20.600   2.626  11.841  0.00  0.00     0.164 C 
ATOM      9  C19 ZIN A   1      19.518   0.507  11.367  0.00  0.00     0.247 A 
ATOM     10  O20 ZIN A   1      20.606   0.014  11.156  0.00  0.00    -0.271 OA
ENDROOT
BRANCH   1  11
ATOM     11  C3  ZIN A   1      18.173  -0.873   9.825  0.00  0.00     0.057 C 
BRANCH  11  12
ATOM     12  C2  ZIN A   1      17.834   0.238   8.865  0.00  0.00    -0.035 C 
ATOM     13  C1  ZIN A   1      17.950   0.046   7.575  0.00  0.00     0.007 C 
ENDBRANCH  11  12
ENDBRANCH   1  11
BRANCH   1  14
ATOM     14  C5  ZIN A   1      18.350  -1.494  12.216  0.00  0.00     0.088 C 
ATOM     15  C7  ZIN A   1      19.576  -2.337  11.865  0.00  0.00     0.025 C 
BRANCH  14  16
ATOM     16  C8  ZIN A   1      18.479  -0.988  13.592  0.00  0.00    -0.100 C 
ATOM     17  C9  ZIN A   1      18.582  -0.586  14.691  0.00  0.00    -0.106 C 
BRANCH  17  18
ATOM     18  C10 ZIN A   1      18.711  -0.080  16.067  0.00  0.00     0.089 C 
ATOM     19  C11 ZIN A   1      17.652  -0.740  16.954  0.00  0.00     0.018 C 
ENDBRANCH  17  18
ENDBRANCH  14  16
ENDBRANCH   1  14
TORSDOF 5
ENDMDL
