MODEL 1
REMARK VINA RESULT:      -5.2      0.000      0.000
REMARK  8 active torsions:
REMARK  status: ('A' for Active; 'I' for Inactive)
REMARK    1  A    between atoms: C2_2  and  C4_4 
REMARK    2  A    between atoms: C4_4  and  C5_5 
REMARK    3  A    between atoms: C5_5  and  C6_6 
REMARK    4  A    between atoms: C6_6  and  C7_7 
REMARK    5  A    between atoms: C7_7  and  C8_8 
REMARK    6  A    between atoms: C8_8  and  C9_9 
REMARK    7  A    between atoms: C9_9  and  C10_10 
REMARK    8  A    between atoms: C10_10  and  C11_11 
ROOT
ATOM      1  C7  <0> d   1      19.228   2.021   9.049  0.00  0.00     0.000 C 
ENDROOT
BRANCH   1   2
ATOM      2  C6  <0> d   1      17.941   1.595   9.758  0.00  0.00     0.001 C 
BRANCH   2   3
ATOM      3  C5  <0> d   1      17.858   2.286  11.120  0.00  0.00     0.010 C 
BRANCH   3   4
ATOM      4  C4  <0> d   1      18.410   3.708  11.005  0.00  0.00     0.113 C 
BRANCH   4   5
ATOM      5  C2  <0> d   1      17.314   4.635  10.546  0.00  0.00     0.172 C 
ATOM      6  O1  <0> d   1      17.486   5.348   9.572  0.00  0.00    -0.648 OA
ATOM      7  O3  <0> d   1      16.253   4.669  11.146  0.00  0.00    -0.648 OA
ENDBRANCH   4   5
ENDBRANCH   3   4
ENDBRANCH   2   3
ENDBRANCH   1   2
BRANCH   1   8
ATOM      8  C8  <0> d   1      19.157   1.614   7.575  0.00  0.00     0.001 C 
BRANCH   8   9
ATOM      9  C9  <0> d   1      18.789   0.133   7.472  0.00  0.00     0.010 C 
BRANCH   9  10
ATOM     10  C10 <0> d   1      18.422  -0.202   6.025  0.00  0.00     0.113 C 
BRANCH  10  11
ATOM     11  C11 <0> d   1      19.352  -1.269   5.505  0.00  0.00     0.172 C 
ATOM     12  O12 <0> d   1      19.621  -2.234   6.200  0.00  0.00    -0.648 OA
ATOM     13  O13 <0> d   1      19.835  -1.166   4.391  0.00  0.00    -0.648 OA
ENDBRANCH  10  11
ENDBRANCH   9  10
ENDBRANCH   8   9
ENDBRANCH   1   8
TORSDOF 8
ENDMDL
MODEL 2
REMARK VINA RESULT:      -5.2      0.705      6.825
REMARK  8 active torsions:
REMARK  status: ('A' for Active; 'I' for Inactive)
REMARK    1  A    between atoms: C2_2  and  C4_4 
REMARK    2  A    between atoms: C4_4  and  C5_5 
REMARK    3  A    between atoms: C5_5  and  C6_6 
REMARK    4  A    between atoms: C6_6  and  C7_7 
REMARK    5  A    between atoms: C7_7  and  C8_8 
REMARK    6  A    between atoms: C8_8  and  C9_9 
REMARK    7  A    between atoms: C9_9  and  C10_10 
REMARK    8  A    between atoms: C10_10  and  C11_11 
ROOT
ATOM      1  C7  <0> d   1      18.252   0.647   8.468  0.00  0.00     0.000 C 
ENDROOT
BRANCH   1   2
ATOM      2  C6  <0> d   1      18.856   1.428   7.300  0.00  0.00     0.001 C 
BRANCH   2   3
ATOM      3  C5  <0> d   1      18.525   0.718   5.986  0.00  0.00     0.010 C 
BRANCH   3   4
ATOM      4  C4  <0> d   1      18.375  -0.783   6.241  0.00  0.00     0.113 C 
BRANCH   4   5
ATOM      5  C2  <0> d   1      19.364  -1.537   5.390  0.00  0.00     0.172 C 
ATOM      6  O1  <0> d   1      19.586  -2.715   5.612  0.00  0.00    -0.648 OA
ATOM      7  O3  <0> d   1      19.937  -0.971   4.474  0.00  0.00    -0.648 OA
ENDBRANCH   4   5
ENDBRANCH   3   4
ENDBRANCH   2   3
ENDBRANCH   1   2
BRANCH   1   8
ATOM      8  C8  <0> d   1      18.663   1.303   9.788  0.00  0.00     0.001 C 
BRANCH   8   9
ATOM      9  C9  <0> d   1      18.682   2.823   9.617  0.00  0.00     0.010 C 
BRANCH   9  10
ATOM     10  C10 <0> d   1      18.166   3.486  10.896  0.00  0.00     0.113 C 
BRANCH  10  11
ATOM     11  C11 <0> d   1      17.225   4.607  10.535  0.00  0.00     0.172 C 
ATOM     12  O12 <0> d   1      16.208   4.783  11.185  0.00  0.00    -0.648 OA
ATOM     13  O13 <0> d   1      17.481   5.339   9.594  0.00  0.00    -0.648 OA
ENDBRANCH  10  11
ENDBRANCH   9  10
ENDBRANCH   8   9
ENDBRANCH   1   8
TORSDOF 8
ENDMDL
MODEL 3
REMARK VINA RESULT:      -5.1      2.365      6.163
REMARK  8 active torsions:
REMARK  status: ('A' for Active; 'I' for Inactive)
REMARK    1  A    between atoms: C2_2  and  C4_4 
REMARK    2  A    between atoms: C4_4  and  C5_5 
REMARK    3  A    between atoms: C5_5  and  C6_6 
REMARK    4  A    between atoms: C6_6  and  C7_7 
REMARK    5  A    between atoms: C7_7  and  C8_8 
REMARK    6  A    between atoms: C8_8  and  C9_9 
REMARK    7  A    between atoms: C9_9  and  C10_10 
REMARK    8  A    between atoms: C10_10  and  C11_11 
ROOT
ATOM      1  C7  <0> d   1      19.078   1.846   8.419  0.00  0.00     0.000 C 
ENDROOT
BRANCH   1   2
ATOM      2  C6  <0> d   1      18.542   0.431   8.191  0.00  0.00     0.001 C 
BRANCH   2   3
ATOM      3  C5  <0> d   1      17.906   0.346   6.802  0.00  0.00     0.010 C 
BRANCH   3   4
ATOM      4  C4  <0> d   1      18.962   0.652   5.738  0.00  0.00     0.113 C 
BRANCH   4   5
ATOM      5  C2  <0> d   1      19.018  -0.480   4.745  0.00  0.00     0.172 C 
ATOM      6  O1  <0> d   1      18.029  -0.770   4.094  0.00  0.00    -0.648 OA
ATOM      7  O3  <0> d   1      20.054  -1.103   4.589  0.00  0.00    -0.648 OA
ENDBRANCH   4   5
ENDBRANCH   3   4
ENDBRANCH   2   3
ENDBRANCH   1   2
BRANCH   1   8
ATOM      8  C8  <0> d   1      19.159   2.124   9.922  0.00  0.00     0.001 C 
BRANCH   8   9
ATOM      9  C9  <0> d   1      17.752   2.361  10.474  0.00  0.00     0.010 C 
BRANCH   9  10
ATOM     10  C10 <0> d   1      17.631   1.715  11.855  0.00  0.00     0.113 C 
BRANCH  10  11
ATOM     11  C11 <0> d   1      17.149   0.295  11.705  0.00  0.00     0.172 C 
ATOM     12  O12 <0> d   1      17.924  -0.633  11.865  0.00  0.00    -0.648 OA
ATOM     13  O13 <0> d   1      15.983   0.074  11.423  0.00  0.00    -0.648 OA
ENDBRANCH  10  11
ENDBRANCH   9  10
ENDBRANCH   8   9
ENDBRANCH   1   8
TORSDOF 8
ENDMDL
MODEL 4
REMARK VINA RESULT:      -5.0      1.320      1.978
REMARK  8 active torsions:
REMARK  status: ('A' for Active; 'I' for Inactive)
REMARK    1  A    between atoms: C2_2  and  C4_4 
REMARK    2  A    between atoms: C4_4  and  C5_5 
REMARK    3  A    between atoms: C5_5  and  C6_6 
REMARK    4  A    between atoms: C6_6  and  C7_7 
REMARK    5  A    between atoms: C7_7  and  C8_8 
REMARK    6  A    between atoms: C8_8  and  C9_9 
REMARK    7  A    between atoms: C9_9  and  C10_10 
REMARK    8  A    between atoms: C10_10  and  C11_11 
ROOT
ATOM      1  C7  <0> d   1      18.426   0.083   8.713  0.00  0.00     0.000 C 
ENDROOT
BRANCH   1   2
ATOM      2  C6  <0> d   1      19.217   1.235   8.090  0.00  0.00     0.001 C 
BRANCH   2   3
ATOM      3  C5  <0> d   1      18.740   2.561   8.684  0.00  0.00     0.010 C 
BRANCH   3   4
ATOM      4  C4  <0> d   1      18.920   2.533  10.203  0.00  0.00     0.113 C 
BRANCH   4   5
ATOM      5  C2  <0> d   1      17.583   2.731  10.870  0.00  0.00     0.172 C 
ATOM      6  O1  <0> d   1      17.004   3.800  10.771  0.00  0.00    -0.648 OA
ATOM      7  O3  <0> d   1      17.077   1.821  11.506  0.00  0.00    -0.648 OA
ENDBRANCH   4   5
ENDBRANCH   3   4
ENDBRANCH   2   3
ENDBRANCH   1   2
BRANCH   1   8
ATOM      8  C8  <0> d   1      17.785  -0.755   7.603  0.00  0.00     0.001 C 
BRANCH   8   9
ATOM      9  C9  <0> d   1      17.825   0.026   6.288  0.00  0.00     0.010 C 
BRANCH   9  10
ATOM     10  C10 <0> d   1      17.741  -0.951   5.114  0.00  0.00     0.113 C 
BRANCH  10  11
ATOM     11  C11 <0> d   1      19.130  -1.393   4.728  0.00  0.00     0.172 C 
ATOM     12  O12 <0> d   1      19.351  -2.568   4.487  0.00  0.00    -0.648 OA
ATOM     13  O13 <0> d   1      20.032  -0.575   4.657  0.00  0.00    -0.648 OA
ENDBRANCH  10  11
ENDBRANCH   9  10
ENDBRANCH   8   9
ENDBRANCH   1   8
TORSDOF 8
ENDMDL
MODEL 5
REMARK VINA RESULT:      -4.8      1.203      6.768
REMARK  8 active torsions:
REMARK  status: ('A' for Active; 'I' for Inactive)
REMARK    1  A    between atoms: C2_2  and  C4_4 
REMARK    2  A    between atoms: C4_4  and  C5_5 
REMARK    3  A    between atoms: C5_5  and  C6_6 
REMARK    4  A    between atoms: C6_6  and  C7_7 
REMARK    5  A    between atoms: C7_7  and  C8_8 
REMARK    6  A    between atoms: C8_8  and  C9_9 
REMARK    7  A    between atoms: C9_9  and  C10_10 
REMARK    8  A    between atoms: C10_10  and  C11_11 
ROOT
ATOM      1  C7  <0> d   1      19.021   2.050   8.731  0.00  0.00     0.000 C 
ENDROOT
BRANCH   1   2
ATOM      2  C6  <0> d   1      19.187   1.436   7.340  0.00  0.00     0.001 C 
BRANCH   2   3
ATOM      3  C5  <0> d   1      18.215   0.265   7.181  0.00  0.00     0.010 C 
BRANCH   3   4
ATOM      4  C4  <0> d   1      18.183  -0.175   5.716  0.00  0.00     0.113 C 
BRANCH   4   5
ATOM      5  C2  <0> d   1      19.300  -1.156   5.462  0.00  0.00     0.172 C 
ATOM      6  O1  <0> d   1      19.648  -1.925   6.342  0.00  0.00    -0.648 OA
ATOM      7  O3  <0> d   1      19.851  -1.184   4.375  0.00  0.00    -0.648 OA
ENDBRANCH   4   5
ENDBRANCH   3   4
ENDBRANCH   2   3
ENDBRANCH   1   2
BRANCH   1   8
ATOM      8  C8  <0> d   1      17.983   1.250   9.522  0.00  0.00     0.001 C 
BRANCH   8   9
ATOM      9  C9  <0> d   1      17.674   1.972  10.834  0.00  0.00     0.010 C 
BRANCH   9  10
ATOM     10  C10 <0> d   1      17.656   3.483  10.592  0.00  0.00     0.113 C 
BRANCH  10  11
ATOM     11  C11 <0> d   1      18.433   4.175  11.683  0.00  0.00     0.172 C 
ATOM     12  O12 <0> d   1      19.619   3.935  11.833  0.00  0.00    -0.648 OA
ATOM     13  O13 <0> d   1      17.875   4.976  12.414  0.00  0.00    -0.648 OA
ENDBRANCH  10  11
ENDBRANCH   9  10
ENDBRANCH   8   9
ENDBRANCH   1   8
TORSDOF 8
ENDMDL
MODEL 6
REMARK VINA RESULT:      -4.7      2.905      3.345
REMARK  8 active torsions:
REMARK  status: ('A' for Active; 'I' for Inactive)
REMARK    1  A    between atoms: C2_2  and  C4_4 
REMARK    2  A    between atoms: C4_4  and  C5_5 
REMARK    3  A    between atoms: C5_5  and  C6_6 
REMARK    4  A    between atoms: C6_6  and  C7_7 
REMARK    5  A    between atoms: C7_7  and  C8_8 
REMARK    6  A    between atoms: C8_8  and  C9_9 
REMARK    7  A    between atoms: C9_9  and  C10_10 
REMARK    8  A    between atoms: C10_10  and  C11_11 
ROOT
ATOM      1  C7  <0> d   1      19.390   1.694   8.269  0.00  0.00     0.000 C 
ENDROOT
BRANCH   1   2
ATOM      2  C6  <0> d   1      18.639   2.461   9.359  0.00  0.00     0.001 C 
BRANCH   2   3
ATOM      3  C5  <0> d   1      19.383   2.317  10.688  0.00  0.00     0.010 C 
BRANCH   3   4
ATOM      4  C4  <0> d   1      19.039   0.967  11.321  0.00  0.00     0.113 C 
BRANCH   4   5
ATOM      5  C2  <0> d   1      20.310   0.256  11.709  0.00  0.00     0.172 C 
ATOM      6  O1  <0> d   1      20.866  -0.479  10.911  0.00  0.00    -0.648 OA
ATOM      7  O3  <0> d   1      20.786   0.422  12.820  0.00  0.00    -0.648 OA
ENDBRANCH   4   5
ENDBRANCH   3   4
ENDBRANCH   2   3
ENDBRANCH   1   2
BRANCH   1   8
ATOM      8  C8  <0> d   1      18.501   0.570   7.731  0.00  0.00     0.001 C 
BRANCH   8   9
ATOM      9  C9  <0> d   1      18.167   0.844   6.263  0.00  0.00     0.010 C 
BRANCH   9  10
ATOM     10  C10 <0> d   1      19.313   0.348   5.379  0.00  0.00     0.113 C 
BRANCH  10  11
ATOM     11  C11 <0> d   1      18.893  -0.917   4.676  0.00  0.00     0.172 C 
ATOM     12  O12 <0> d   1      17.714  -1.123   4.442  0.00  0.00    -0.648 OA
ATOM     13  O13 <0> d   1      19.733  -1.735   4.340  0.00  0.00    -0.648 OA
ENDBRANCH  10  11
ENDBRANCH   9  10
ENDBRANCH   8   9
ENDBRANCH   1   8
TORSDOF 8
ENDMDL
MODEL 7
REMARK VINA RESULT:      -4.7      1.754      2.130
REMARK  8 active torsions:
REMARK  status: ('A' for Active; 'I' for Inactive)
REMARK    1  A    between atoms: C2_2  and  C4_4 
REMARK    2  A    between atoms: C4_4  and  C5_5 
REMARK    3  A    between atoms: C5_5  and  C6_6 
REMARK    4  A    between atoms: C6_6  and  C7_7 
REMARK    5  A    between atoms: C7_7  and  C8_8 
REMARK    6  A    between atoms: C8_8  and  C9_9 
REMARK    7  A    between atoms: C9_9  and  C10_10 
REMARK    8  A    between atoms: C10_10  and  C11_11 
ROOT
ATOM      1  C7  <0> d   1      18.538   0.410   8.675  0.00  0.00     0.000 C 
ENDROOT
BRANCH   1   2
ATOM      2  C6  <0> d   1      17.913   1.322   9.733  0.00  0.00     0.001 C 
BRANCH   2   3
ATOM      3  C5  <0> d   1      18.593   2.692   9.690  0.00  0.00     0.010 C 
BRANCH   3   4
ATOM      4  C4  <0> d   1      18.019   3.580  10.796  0.00  0.00     0.113 C 
BRANCH   4   5
ATOM      5  C2  <0> d   1      18.935   3.545  11.993  0.00  0.00     0.172 C 
ATOM      6  O1  <0> d   1      18.837   2.646  12.810  0.00  0.00    -0.648 OA
ATOM      7  O3  <0> d   1      19.778   4.414  12.141  0.00  0.00    -0.648 OA
ENDBRANCH   4   5
ENDBRANCH   3   4
ENDBRANCH   2   3
ENDBRANCH   1   2
BRANCH   1   8
ATOM      8  C8  <0> d   1      19.092   1.262   7.530  0.00  0.00     0.001 C 
BRANCH   8   9
ATOM      9  C9  <0> d   1      18.332   0.941   6.242  0.00  0.00     0.010 C 
BRANCH   9  10
ATOM     10  C10 <0> d   1      19.311   0.412   5.192  0.00  0.00     0.113 C 
BRANCH  10  11
ATOM     11  C11 <0> d   1      18.887  -0.968   4.760  0.00  0.00     0.172 C 
ATOM     12  O12 <0> d   1      19.712  -1.749   4.316  0.00  0.00    -0.648 OA
ATOM     13  O13 <0> d   1      17.718  -1.304   4.854  0.00  0.00    -0.648 OA
ENDBRANCH  10  11
ENDBRANCH   9  10
ENDBRANCH   8   9
ENDBRANCH   1   8
TORSDOF 8
ENDMDL
MODEL 8
REMARK VINA RESULT:      -4.6      5.980      6.911
REMARK  8 active torsions:
REMARK  status: ('A' for Active; 'I' for Inactive)
REMARK    1  A    between atoms: C2_2  and  C4_4 
REMARK    2  A    between atoms: C4_4  and  C5_5 
REMARK    3  A    between atoms: C5_5  and  C6_6 
REMARK    4  A    between atoms: C6_6  and  C7_7 
REMARK    5  A    between atoms: C7_7  and  C8_8 
REMARK    6  A    between atoms: C8_8  and  C9_9 
REMARK    7  A    between atoms: C9_9  and  C10_10 
REMARK    8  A    between atoms: C10_10  and  C11_11 
ROOT
ATOM      1  C7  <0> d   1      18.219  -0.907  14.734  0.00  0.00     0.000 C 
ENDROOT
BRANCH   1   2
ATOM      2  C6  <0> d   1      18.371  -1.533  16.121  0.00  0.00     0.001 C 
BRANCH   2   3
ATOM      3  C5  <0> d   1      17.866  -0.552  17.181  0.00  0.00     0.010 C 
BRANCH   3   4
ATOM      4  C4  <0> d   1      19.028  -0.134  18.084  0.00  0.00     0.113 C 
BRANCH   4   5
ATOM      5  C2  <0> d   1      19.331   1.326  17.868  0.00  0.00     0.172 C 
ATOM      6  O1  <0> d   1      19.168   1.827  16.769  0.00  0.00    -0.648 OA
ATOM      7  O3  <0> d   1      19.734   2.009  18.795  0.00  0.00    -0.648 OA
ENDBRANCH   4   5
ENDBRANCH   3   4
ENDBRANCH   2   3
ENDBRANCH   1   2
BRANCH   1   8
ATOM      8  C8  <0> d   1      19.228  -1.542  13.774  0.00  0.00     0.001 C 
BRANCH   8   9
ATOM      9  C9  <0> d   1      18.481  -2.271  12.656  0.00  0.00     0.010 C 
BRANCH   9  10
ATOM     10  C10 <0> d   1      19.438  -3.226  11.941  0.00  0.00     0.113 C 
BRANCH  10  11
ATOM     11  C11 <0> d   1      19.319  -3.034  10.451  0.00  0.00     0.172 C 
ATOM     12  O12 <0> d   1      19.244  -1.910   9.984  0.00  0.00    -0.648 OA
ATOM     13  O13 <0> d   1      19.298  -4.004   9.712  0.00  0.00    -0.648 OA
ENDBRANCH  10  11
ENDBRANCH   9  10
ENDBRANCH   8   9
ENDBRANCH   1   8
TORSDOF 8
ENDMDL
MODEL 9
REMARK VINA RESULT:      -4.6      3.153      4.142
REMARK  8 active torsions:
REMARK  status: ('A' for Active; 'I' for Inactive)
REMARK    1  A    between atoms: C2_2  and  C4_4 
REMARK    2  A    between atoms: C4_4  and  C5_5 
REMARK    3  A    between atoms: C5_5  and  C6_6 
REMARK    4  A    between atoms: C6_6  and  C7_7 
REMARK    5  A    between atoms: C7_7  and  C8_8 
REMARK    6  A    between atoms: C8_8  and  C9_9 
REMARK    7  A    between atoms: C9_9  and  C10_10 
REMARK    8  A    between atoms: C10_10  and  C11_11 
ROOT
ATOM      1  C7  <0> d   1      18.343   0.626   8.903  0.00  0.00     0.000 C 
ENDROOT
BRANCH   1   2
ATOM      2  C6  <0> d   1      19.192   0.598  10.176  0.00  0.00     0.001 C 
BRANCH   2   3
ATOM      3  C5  <0> d   1      19.703  -0.824  10.416  0.00  0.00     0.010 C 
BRANCH   3   4
ATOM      4  C4  <0> d   1      18.569  -1.821  10.168  0.00  0.00     0.113 C 
BRANCH   4   5
ATOM      5  C2  <0> d   1      17.856  -2.103  11.465  0.00  0.00     0.172 C 
ATOM      6  O1  <0> d   1      18.251  -2.994  12.197  0.00  0.00    -0.648 OA
ATOM      7  O3  <0> d   1      16.887  -1.436  11.786  0.00  0.00    -0.648 OA
ENDBRANCH   4   5
ENDBRANCH   3   4
ENDBRANCH   2   3
ENDBRANCH   1   2
BRANCH   1   8
ATOM      8  C8  <0> d   1      18.893   1.686   7.946  0.00  0.00     0.001 C 
BRANCH   8   9
ATOM      9  C9  <0> d   1      19.132   1.058   6.572  0.00  0.00     0.010 C 
BRANCH   9  10
ATOM     10  C10 <0> d   1      18.615  -0.382   6.573  0.00  0.00     0.113 C 
BRANCH  10  11
ATOM     11  C11 <0> d   1      19.425  -1.207   5.606  0.00  0.00     0.172 C 
ATOM     12  O12 <0> d   1      19.881  -0.692   4.598  0.00  0.00    -0.648 OA
ATOM     13  O13 <0> d   1      19.624  -2.389   5.830  0.00  0.00    -0.648 OA
ENDBRANCH  10  11
ENDBRANCH   9  10
ENDBRANCH   8   9
ENDBRANCH   1   8
TORSDOF 8
ENDMDL
