MODEL 1
REMARK VINA RESULT:      -4.7      0.000      0.000
REMARK WARNING: 32 MAX_TORS EXCEEDED!!!
REMARK  36 active torsions:
REMARK  status: ('A' for Active; 'I' for Inactive)
REMARK    1  A    between atoms: C2_2  and  C3_3 
REMARK    2  A    between atoms: C3_3  and  C4_4 
REMARK    3  A    between atoms: C4_4  and  C5_5 
REMARK    4  A    between atoms: C5_5  and  C6_6 
REMARK    5  A    between atoms: C6_6  and  C7_7 
REMARK    6  A    between atoms: C7_7  and  C8_8 
REMARK    7  A    between atoms: C8_8  and  C9_9 
REMARK    8  A    between atoms: C9_9  and  C10_10 
REMARK    9  A    between atoms: C13_13  and  O14_14 
REMARK   10  A    between atoms: O14_14  and  C15_15 
REMARK   11  A    between atoms: C15_15  and  C16_16 
REMARK   12  A    between atoms: C16_16  and  O17_17 
REMARK   13  A    between atoms: O17_17  and  C18_18 
REMARK   14  A    between atoms: C18_18  and  C19_19 
REMARK   15  A    between atoms: C19_19  and  O20_20 
REMARK   16  A    between atoms: O20_20  and  C21_21 
REMARK   17  A    between atoms: C21_21  and  C22_22 
REMARK   18  A    between atoms: C22_22  and  O23_23 
REMARK   19  A    between atoms: O23_23  and  C24_24 
REMARK   20  A    between atoms: C24_24  and  C25_25 
REMARK   21  A    between atoms: C25_25  and  O26_26 
REMARK   22  A    between atoms: O26_26  and  C27_27 
REMARK   23  A    between atoms: C27_27  and  C28_28 
REMARK   24  A    between atoms: C28_28  and  O29_29 
REMARK   25  A    between atoms: O29_29  and  C30_30 
REMARK   26  A    between atoms: C30_30  and  C31_31 
REMARK   27  A    between atoms: C31_31  and  O32_32 
REMARK   28  A    between atoms: O32_32  and  C33_33 
REMARK   29  A    between atoms: C33_33  and  C34_34 
REMARK   30  A    between atoms: C34_34  and  O35_35 
REMARK   31  A    between atoms: O35_35  and  C36_36 
REMARK   32  A    between atoms: C36_36  and  C37_37 
REMARK   33  A    between atoms: C37_37  and  O38_38 
REMARK   34  A    between atoms: O38_38  and  C39_39 
REMARK   35  A    between atoms: C39_39  and  C40_40 
REMARK   36  A    between atoms: C40_40  and  O41_41 
ROOT
ATOM      1  O20 ZIN A   1      17.667   0.676  16.211  0.00  0.00    -0.387 OA
ENDROOT
BRANCH   1   2
ATOM      2  C19 ZIN A   1      18.308   1.192  15.043  0.00  0.00     0.193 C 
BRANCH   2   3
ATOM      3  C18 ZIN A   1      19.112   0.079  14.369  0.00  0.00     0.193 C 
BRANCH   3   4
ATOM      4  O17 ZIN A   1      18.219  -0.922  13.876  0.00  0.00    -0.387 OA
BRANCH   4   5
ATOM      5  C16 ZIN A   1      18.338  -1.169  12.473  0.00  0.00     0.194 C 
BRANCH   5   6
ATOM      6  C15 ZIN A   1      19.303  -2.334  12.241  0.00  0.00     0.201 C 
BRANCH   6   7
ATOM      7  O14 ZIN A   1      18.611  -3.570  12.427  0.00  0.00    -0.349 OA
BRANCH   7   8
ATOM      8  C13 ZIN A   1      18.297  -4.276  11.309  0.00  0.00     0.068 A 
ATOM      9  C12 ZIN A   1      16.969  -4.457  10.952  0.00  0.00     0.037 A 
ATOM     10  C11 ZIN A   1      16.652  -5.176   9.815  0.00  0.00     0.010 A 
ATOM     11  C10 ZIN A   1      17.658  -5.713   9.033  0.00  0.00    -0.058 A 
ATOM     12  C43 ZIN A   1      18.983  -5.539   9.390  0.00  0.00     0.010 A 
ATOM     13  C42 ZIN A   1      19.304  -4.817  10.523  0.00  0.00     0.037 A 
BRANCH  11  14
ATOM     14  C9  ZIN A   1      17.309  -6.496   7.794  0.00  0.00     0.038 C 
BRANCH  14  15
ATOM     15  C8  ZIN A   1      16.867  -5.535   6.690  0.00  0.00     0.005 C 
BRANCH  15  16
ATOM     16  C7  ZIN A   1      17.873  -5.582   5.538  0.00  0.00     0.000 C 
BRANCH  16  17
ATOM     17  C6  ZIN A   1      18.563  -4.222   5.408  0.00  0.00     0.000 C 
BRANCH  17  18
ATOM     18  C5  ZIN A   1      18.381  -3.694   3.983  0.00  0.00     0.000 C 
BRANCH  18  19
ATOM     19  C4  ZIN A   1      17.229  -2.686   3.956  0.00  0.00     0.000 C 
BRANCH  19  20
ATOM     20  C3  ZIN A   1      17.348  -1.743   5.155  0.00  0.00    -0.000 C 
BRANCH  20  21
ATOM     21  C2  ZIN A   1      18.007  -0.435   4.712  0.00  0.00    -0.005 C 
ATOM     22  C1  ZIN A   1      19.529  -0.585   4.773  0.00  0.00     0.005 C 
ENDBRANCH  20  21
ENDBRANCH  19  20
ENDBRANCH  18  19
ENDBRANCH  17  18
ENDBRANCH  16  17
ENDBRANCH  15  16
ENDBRANCH  14  15
ENDBRANCH  11  14
ENDBRANCH   7   8
ENDBRANCH   6   7
ENDBRANCH   5   6
ENDBRANCH   4   5
ENDBRANCH   3   4
ENDBRANCH   2   3
ENDBRANCH   1   2
BRANCH   1  23
ATOM     23  C21 ZIN A   1      18.566   0.372  17.280  0.00  0.00     0.193 C 
BRANCH  23  24
ATOM     24  C22 ZIN A   1      18.924   1.658  18.028  0.00  0.00     0.193 C 
BRANCH  24  25
ATOM     25  O23 ZIN A   1      17.745   2.213  18.613  0.00  0.00    -0.387 OA
BRANCH  25  26
ATOM     26  C24 ZIN A   1      17.707   3.642  18.602  0.00  0.00     0.193 C 
BRANCH  26  27
ATOM     27  C25 ZIN A   1      16.428   4.124  19.289  0.00  0.00     0.193 C 
BRANCH  27  28
ATOM     28  O26 ZIN A   1      16.487   5.540  19.468  0.00  0.00    -0.387 OA
BRANCH  28  29
ATOM     29  C27 ZIN A   1      17.473   6.187  18.660  0.00  0.00     0.193 C 
BRANCH  29  30
ATOM     30  C28 ZIN A   1      16.784   7.119  17.662  0.00  0.00     0.193 C 
BRANCH  30  31
ATOM     31  O29 ZIN A   1      16.390   6.374  16.508  0.00  0.00    -0.387 OA
BRANCH  31  32
ATOM     32  C30 ZIN A   1      17.458   5.656  15.887  0.00  0.00     0.193 C 
BRANCH  32  33
ATOM     33  C31 ZIN A   1      17.412   5.881  14.374  0.00  0.00     0.193 C 
BRANCH  33  34
ATOM     34  O32 ZIN A   1      18.205   4.888  13.720  0.00  0.00    -0.387 OA
BRANCH  34  35
ATOM     35  C33 ZIN A   1      17.974   4.793  12.314  0.00  0.00     0.193 C 
BRANCH  35  36
ATOM     36  C34 ZIN A   1      18.035   3.325  11.885  0.00  0.00     0.193 C 
BRANCH  36  37
ATOM     37  O35 ZIN A   1      18.412   3.245  10.510  0.00  0.00    -0.387 OA
BRANCH  37  38
ATOM     38  C36 ZIN A   1      18.064   2.010   9.882  0.00  0.00     0.193 C 
BRANCH  38  39
ATOM     39  C37 ZIN A   1      18.931   1.807   8.637  0.00  0.00     0.193 C 
BRANCH  39  40
ATOM     40  O38 ZIN A   1      19.148   0.410   8.431  0.00  0.00    -0.387 OA
BRANCH  40  41
ATOM     41  C39 ZIN A   1      17.961  -0.382   8.524  0.00  0.00     0.193 C 
BRANCH  41  42
ATOM     42  C40 ZIN A   1      18.339  -1.864   8.560  0.00  0.00     0.190 C 
BRANCH  42  43
ATOM     43  O41 ZIN A   1      19.691  -2.022   8.123  0.00  0.00    -0.399 OA
ATOM     44 1H10 ZIN A   1      19.873  -2.878   7.711  0.00  0.00     0.209 HD
ENDBRANCH  42  43
ENDBRANCH  41  42
ENDBRANCH  40  41
ENDBRANCH  39  40
ENDBRANCH  38  39
ENDBRANCH  37  38
ENDBRANCH  36  37
ENDBRANCH  35  36
ENDBRANCH  34  35
ENDBRANCH  33  34
ENDBRANCH  32  33
ENDBRANCH  31  32
ENDBRANCH  30  31
ENDBRANCH  29  30
ENDBRANCH  28  29
ENDBRANCH  27  28
ENDBRANCH  26  27
ENDBRANCH  25  26
ENDBRANCH  24  25
ENDBRANCH  23  24
ENDBRANCH   1  23
TORSDOF 36
ENDMDL
MODEL 2
REMARK VINA RESULT:      -4.6      2.119      3.641
REMARK WARNING: 32 MAX_TORS EXCEEDED!!!
REMARK  36 active torsions:
REMARK  status: ('A' for Active; 'I' for Inactive)
REMARK    1  A    between atoms: C2_2  and  C3_3 
REMARK    2  A    between atoms: C3_3  and  C4_4 
REMARK    3  A    between atoms: C4_4  and  C5_5 
REMARK    4  A    between atoms: C5_5  and  C6_6 
REMARK    5  A    between atoms: C6_6  and  C7_7 
REMARK    6  A    between atoms: C7_7  and  C8_8 
REMARK    7  A    between atoms: C8_8  and  C9_9 
REMARK    8  A    between atoms: C9_9  and  C10_10 
REMARK    9  A    between atoms: C13_13  and  O14_14 
REMARK   10  A    between atoms: O14_14  and  C15_15 
REMARK   11  A    between atoms: C15_15  and  C16_16 
REMARK   12  A    between atoms: C16_16  and  O17_17 
REMARK   13  A    between atoms: O17_17  and  C18_18 
REMARK   14  A    between atoms: C18_18  and  C19_19 
REMARK   15  A    between atoms: C19_19  and  O20_20 
REMARK   16  A    between atoms: O20_20  and  C21_21 
REMARK   17  A    between atoms: C21_21  and  C22_22 
REMARK   18  A    between atoms: C22_22  and  O23_23 
REMARK   19  A    between atoms: O23_23  and  C24_24 
REMARK   20  A    between atoms: C24_24  and  C25_25 
REMARK   21  A    between atoms: C25_25  and  O26_26 
REMARK   22  A    between atoms: O26_26  and  C27_27 
REMARK   23  A    between atoms: C27_27  and  C28_28 
REMARK   24  A    between atoms: C28_28  and  O29_29 
REMARK   25  A    between atoms: O29_29  and  C30_30 
REMARK   26  A    between atoms: C30_30  and  C31_31 
REMARK   27  A    between atoms: C31_31  and  O32_32 
REMARK   28  A    between atoms: O32_32  and  C33_33 
REMARK   29  A    between atoms: C33_33  and  C34_34 
REMARK   30  A    between atoms: C34_34  and  O35_35 
REMARK   31  A    between atoms: O35_35  and  C36_36 
REMARK   32  A    between atoms: C36_36  and  C37_37 
REMARK   33  A    between atoms: C37_37  and  O38_38 
REMARK   34  A    between atoms: O38_38  and  C39_39 
REMARK   35  A    between atoms: C39_39  and  C40_40 
REMARK   36  A    between atoms: C40_40  and  O41_41 
ROOT
ATOM      1  O20 ZIN A   1      18.060   1.130  16.678  0.00  0.00    -0.387 OA
ENDROOT
BRANCH   1   2
ATOM      2  C19 ZIN A   1      18.320   1.393  15.298  0.00  0.00     0.193 C 
BRANCH   2   3
ATOM      3  C18 ZIN A   1      19.495   0.534  14.828  0.00  0.00     0.193 C 
BRANCH   3   4
ATOM      4  O17 ZIN A   1      19.055  -0.812  14.634  0.00  0.00    -0.387 OA
BRANCH   4   5
ATOM      5  C16 ZIN A   1      18.009  -0.949  13.671  0.00  0.00     0.194 C 
BRANCH   5   6
ATOM      6  C15 ZIN A   1      18.408  -1.997  12.630  0.00  0.00     0.201 C 
BRANCH   6   7
ATOM      7  O14 ZIN A   1      17.301  -2.257  11.765  0.00  0.00    -0.349 OA
BRANCH   7   8
ATOM      8  C13 ZIN A   1      17.361  -3.383  11.007  0.00  0.00     0.068 A 
ATOM      9  C12 ZIN A   1      17.722  -3.302   9.671  0.00  0.00     0.037 A 
ATOM     10  C11 ZIN A   1      17.781  -4.449   8.901  0.00  0.00     0.010 A 
ATOM     11  C10 ZIN A   1      17.481  -5.676   9.465  0.00  0.00    -0.058 A 
ATOM     12  C43 ZIN A   1      17.115  -5.759  10.796  0.00  0.00     0.010 A 
ATOM     13  C42 ZIN A   1      17.059  -4.616  11.569  0.00  0.00     0.037 A 
BRANCH  11  14
ATOM     14  C9  ZIN A   1      17.546  -6.925   8.623  0.00  0.00     0.038 C 
BRANCH  14  15
ATOM     15  C8  ZIN A   1      16.605  -6.784   7.426  0.00  0.00     0.005 C 
BRANCH  15  16
ATOM     16  C7  ZIN A   1      15.343  -7.615   7.668  0.00  0.00     0.000 C 
BRANCH  16  17
ATOM     17  C6  ZIN A   1      14.107  -6.737   7.463  0.00  0.00     0.000 C 
BRANCH  17  18
ATOM     18  C5  ZIN A   1      13.935  -6.438   5.973  0.00  0.00     0.000 C 
BRANCH  18  19
ATOM     19  C4  ZIN A   1      13.498  -7.712   5.245  0.00  0.00     0.000 C 
BRANCH  19  20
ATOM     20  C3  ZIN A   1      14.035  -7.691   3.812  0.00  0.00    -0.000 C 
BRANCH  20  21
ATOM     21  C2  ZIN A   1      13.007  -7.030   2.892  0.00  0.00    -0.005 C 
ATOM     22  C1  ZIN A   1      13.547  -7.002   1.461  0.00  0.00     0.005 C 
ENDBRANCH  20  21
ENDBRANCH  19  20
ENDBRANCH  18  19
ENDBRANCH  17  18
ENDBRANCH  16  17
ENDBRANCH  15  16
ENDBRANCH  14  15
ENDBRANCH  11  14
ENDBRANCH   7   8
ENDBRANCH   6   7
ENDBRANCH   5   6
ENDBRANCH   4   5
ENDBRANCH   3   4
ENDBRANCH   2   3
ENDBRANCH   1   2
BRANCH   1  23
ATOM     23  C21 ZIN A   1      19.080   1.600  17.562  0.00  0.00     0.193 C 
BRANCH  23  24
ATOM     24  C22 ZIN A   1      19.531   2.996  17.124  0.00  0.00     0.193 C 
BRANCH  24  25
ATOM     25  O23 ZIN A   1      18.557   3.959  17.530  0.00  0.00    -0.387 OA
BRANCH  25  26
ATOM     26  C24 ZIN A   1      18.368   5.024  16.595  0.00  0.00     0.193 C 
BRANCH  26  27
ATOM     27  C25 ZIN A   1      16.911   5.489  16.638  0.00  0.00     0.193 C 
BRANCH  27  28
ATOM     28  O26 ZIN A   1      16.687   6.452  15.608  0.00  0.00    -0.387 OA
BRANCH  28  29
ATOM     29  C27 ZIN A   1      17.632   6.390  14.538  0.00  0.00     0.193 C 
BRANCH  29  30
ATOM     30  C28 ZIN A   1      16.984   5.724  13.323  0.00  0.00     0.193 C 
BRANCH  30  31
ATOM     31  O29 ZIN A   1      17.752   4.582  12.939  0.00  0.00    -0.387 OA
BRANCH  31  32
ATOM     32  C30 ZIN A   1      19.151   4.841  12.804  0.00  0.00     0.193 C 
BRANCH  32  33
ATOM     33  C31 ZIN A   1      19.821   3.663  12.094  0.00  0.00     0.193 C 
BRANCH  33  34
ATOM     34  O32 ZIN A   1      18.905   3.082  11.164  0.00  0.00    -0.387 OA
BRANCH  34  35
ATOM     35  C33 ZIN A   1      19.084   1.678  10.971  0.00  0.00     0.193 C 
BRANCH  35  36
ATOM     36  C34 ZIN A   1      17.822   1.085  10.340  0.00  0.00     0.193 C 
BRANCH  36  37
ATOM     37  O35 ZIN A   1      18.188   0.054   9.421  0.00  0.00    -0.387 OA
BRANCH  37  38
ATOM     38  C36 ZIN A   1      17.934   0.379   8.053  0.00  0.00     0.193 C 
BRANCH  38  39
ATOM     39  C37 ZIN A   1      19.031   1.313   7.537  0.00  0.00     0.193 C 
BRANCH  39  40
ATOM     40  O38 ZIN A   1      19.221   1.096   6.137  0.00  0.00    -0.387 OA
BRANCH  40  41
ATOM     41  C39 ZIN A   1      18.245   0.235   5.545  0.00  0.00     0.193 C 
BRANCH  41  42
ATOM     42  C40 ZIN A   1      18.950  -0.848   4.726  0.00  0.00     0.190 C 
BRANCH  42  43
ATOM     43  O41 ZIN A   1      19.689  -1.702   5.602  0.00  0.00    -0.399 OA
ATOM     44 1H10 ZIN A   1      20.169  -1.231   6.298  0.00  0.00     0.209 HD
ENDBRANCH  42  43
ENDBRANCH  41  42
ENDBRANCH  40  41
ENDBRANCH  39  40
ENDBRANCH  38  39
ENDBRANCH  37  38
ENDBRANCH  36  37
ENDBRANCH  35  36
ENDBRANCH  34  35
ENDBRANCH  33  34
ENDBRANCH  32  33
ENDBRANCH  31  32
ENDBRANCH  30  31
ENDBRANCH  29  30
ENDBRANCH  28  29
ENDBRANCH  27  28
ENDBRANCH  26  27
ENDBRANCH  25  26
ENDBRANCH  24  25
ENDBRANCH  23  24
ENDBRANCH   1  23
TORSDOF 36
ENDMDL
MODEL 3
REMARK VINA RESULT:      -4.6      1.885      5.974
REMARK WARNING: 32 MAX_TORS EXCEEDED!!!
REMARK  36 active torsions:
REMARK  status: ('A' for Active; 'I' for Inactive)
REMARK    1  A    between atoms: C2_2  and  C3_3 
REMARK    2  A    between atoms: C3_3  and  C4_4 
REMARK    3  A    between atoms: C4_4  and  C5_5 
REMARK    4  A    between atoms: C5_5  and  C6_6 
REMARK    5  A    between atoms: C6_6  and  C7_7 
REMARK    6  A    between atoms: C7_7  and  C8_8 
REMARK    7  A    between atoms: C8_8  and  C9_9 
REMARK    8  A    between atoms: C9_9  and  C10_10 
REMARK    9  A    between atoms: C13_13  and  O14_14 
REMARK   10  A    between atoms: O14_14  and  C15_15 
REMARK   11  A    between atoms: C15_15  and  C16_16 
REMARK   12  A    between atoms: C16_16  and  O17_17 
REMARK   13  A    between atoms: O17_17  and  C18_18 
REMARK   14  A    between atoms: C18_18  and  C19_19 
REMARK   15  A    between atoms: C19_19  and  O20_20 
REMARK   16  A    between atoms: O20_20  and  C21_21 
REMARK   17  A    between atoms: C21_21  and  C22_22 
REMARK   18  A    between atoms: C22_22  and  O23_23 
REMARK   19  A    between atoms: O23_23  and  C24_24 
REMARK   20  A    between atoms: C24_24  and  C25_25 
REMARK   21  A    between atoms: C25_25  and  O26_26 
REMARK   22  A    between atoms: O26_26  and  C27_27 
REMARK   23  A    between atoms: C27_27  and  C28_28 
REMARK   24  A    between atoms: C28_28  and  O29_29 
REMARK   25  A    between atoms: O29_29  and  C30_30 
REMARK   26  A    between atoms: C30_30  and  C31_31 
REMARK   27  A    between atoms: C31_31  and  O32_32 
REMARK   28  A    between atoms: O32_32  and  C33_33 
REMARK   29  A    between atoms: C33_33  and  C34_34 
REMARK   30  A    between atoms: C34_34  and  O35_35 
REMARK   31  A    between atoms: O35_35  and  C36_36 
REMARK   32  A    between atoms: C36_36  and  C37_37 
REMARK   33  A    between atoms: C37_37  and  O38_38 
REMARK   34  A    between atoms: O38_38  and  C39_39 
REMARK   35  A    between atoms: C39_39  and  C40_40 
REMARK   36  A    between atoms: C40_40  and  O41_41 
ROOT
ATOM      1  O20 ZIN A   1      18.075   5.041  15.720  0.00  0.00    -0.387 OA
ENDROOT
BRANCH   1   2
ATOM      2  C19 ZIN A   1      18.459   6.216  15.004  0.00  0.00     0.193 C 
BRANCH   2   3
ATOM      3  C18 ZIN A   1      19.483   5.847  13.930  0.00  0.00     0.193 C 
BRANCH   3   4
ATOM      4  O17 ZIN A   1      18.858   5.034  12.934  0.00  0.00    -0.387 OA
BRANCH   4   5
ATOM      5  C16 ZIN A   1      19.443   3.738  12.790  0.00  0.00     0.194 C 
BRANCH   5   6
ATOM      6  C15 ZIN A   1      18.588   2.896  11.841  0.00  0.00     0.201 C 
BRANCH   6   7
ATOM      7  O14 ZIN A   1      19.044   3.078  10.500  0.00  0.00    -0.349 OA
BRANCH   7   8
ATOM      8  C13 ZIN A   1      18.645   2.159   9.582  0.00  0.00     0.068 A 
ATOM      9  C12 ZIN A   1      19.205   2.155   8.313  0.00  0.00     0.037 A 
ATOM     10  C11 ZIN A   1      18.797   1.220   7.381  0.00  0.00     0.010 A 
ATOM     11  C10 ZIN A   1      17.831   0.288   7.713  0.00  0.00    -0.058 A 
ATOM     12  C43 ZIN A   1      17.266   0.293   8.976  0.00  0.00     0.010 A 
ATOM     13  C42 ZIN A   1      17.674   1.223   9.912  0.00  0.00     0.037 A 
BRANCH  11  14
ATOM     14  C9  ZIN A   1      17.388  -0.731   6.695  0.00  0.00     0.038 C 
BRANCH  14  15
ATOM     15  C8  ZIN A   1      18.611  -1.288   5.966  0.00  0.00     0.005 C 
BRANCH  15  16
ATOM     16  C7  ZIN A   1      18.179  -1.880   4.622  0.00  0.00     0.000 C 
BRANCH  16  17
ATOM     17  C6  ZIN A   1      18.828  -3.253   4.438  0.00  0.00     0.000 C 
BRANCH  17  18
ATOM     18  C5  ZIN A   1      18.111  -4.009   3.317  0.00  0.00     0.000 C 
BRANCH  18  19
ATOM     19  C4  ZIN A   1      16.732  -4.457   3.804  0.00  0.00     0.000 C 
BRANCH  19  20
ATOM     20  C3  ZIN A   1      15.693  -4.187   2.713  0.00  0.00    -0.000 C 
BRANCH  20  21
ATOM     21  C2  ZIN A   1      14.570  -5.221   2.813  0.00  0.00    -0.005 C 
ATOM     22  C1  ZIN A   1      14.631  -6.157   1.604  0.00  0.00     0.005 C 
ENDBRANCH  20  21
ENDBRANCH  19  20
ENDBRANCH  18  19
ENDBRANCH  17  18
ENDBRANCH  16  17
ENDBRANCH  15  16
ENDBRANCH  14  15
ENDBRANCH  11  14
ENDBRANCH   7   8
ENDBRANCH   6   7
ENDBRANCH   5   6
ENDBRANCH   4   5
ENDBRANCH   3   4
ENDBRANCH   2   3
ENDBRANCH   1   2
BRANCH   1  23
ATOM     23  C21 ZIN A   1      19.173   4.212  16.109  0.00  0.00     0.193 C 
BRANCH  23  24
ATOM     24  C22 ZIN A   1      18.916   3.651  17.510  0.00  0.00     0.193 C 
BRANCH  24  25
ATOM     25  O23 ZIN A   1      19.471   2.338  17.605  0.00  0.00    -0.387 OA
BRANCH  25  26
ATOM     26  C24 ZIN A   1      19.048   1.610  18.761  0.00  0.00     0.193 C 
BRANCH  26  27
ATOM     27  C25 ZIN A   1      17.955   0.615  18.366  0.00  0.00     0.193 C 
BRANCH  27  28
ATOM     28  O26 ZIN A   1      18.458  -0.272  17.365  0.00  0.00    -0.387 OA
BRANCH  28  29
ATOM     29  C27 ZIN A   1      17.700  -0.271  16.153  0.00  0.00     0.193 C 
BRANCH  29  30
ATOM     30  C28 ZIN A   1      18.629  -0.550  14.970  0.00  0.00     0.193 C 
BRANCH  30  31
ATOM     31  O29 ZIN A   1      18.031  -0.058  13.769  0.00  0.00    -0.387 OA
BRANCH  31  32
ATOM     32  C30 ZIN A   1      18.284  -0.869  12.620  0.00  0.00     0.193 C 
BRANCH  32  33
ATOM     33  C31 ZIN A   1      19.149  -2.066  13.021  0.00  0.00     0.193 C 
BRANCH  33  34
ATOM     34  O32 ZIN A   1      19.210  -2.994  11.936  0.00  0.00    -0.387 OA
BRANCH  34  35
ATOM     35  C33 ZIN A   1      17.932  -3.406  11.450  0.00  0.00     0.193 C 
BRANCH  35  36
ATOM     36  C34 ZIN A   1      17.949  -3.423   9.920  0.00  0.00     0.193 C 
BRANCH  36  37
ATOM     37  O35 ZIN A   1      16.811  -4.139   9.438  0.00  0.00    -0.387 OA
BRANCH  37  38
ATOM     38  C36 ZIN A   1      16.622  -5.414  10.056  0.00  0.00     0.193 C 
BRANCH  38  39
ATOM     39  C37 ZIN A   1      16.759  -6.517   9.004  0.00  0.00     0.193 C 
BRANCH  39  40
ATOM     40  O38 ZIN A   1      17.566  -6.045   7.923  0.00  0.00    -0.387 OA
BRANCH  40  41
ATOM     41  C39 ZIN A   1      18.949  -6.387   8.039  0.00  0.00     0.193 C 
BRANCH  41  42
ATOM     42  C40 ZIN A   1      19.774  -5.497   7.106  0.00  0.00     0.190 C 
BRANCH  42  43
ATOM     43  O41 ZIN A   1      20.188  -4.324   7.810  0.00  0.00    -0.399 OA
ATOM     44 1H10 ZIN A   1      20.704  -4.505   8.608  0.00  0.00     0.209 HD
ENDBRANCH  42  43
ENDBRANCH  41  42
ENDBRANCH  40  41
ENDBRANCH  39  40
ENDBRANCH  38  39
ENDBRANCH  37  38
ENDBRANCH  36  37
ENDBRANCH  35  36
ENDBRANCH  34  35
ENDBRANCH  33  34
ENDBRANCH  32  33
ENDBRANCH  31  32
ENDBRANCH  30  31
ENDBRANCH  29  30
ENDBRANCH  28  29
ENDBRANCH  27  28
ENDBRANCH  26  27
ENDBRANCH  25  26
ENDBRANCH  24  25
ENDBRANCH  23  24
ENDBRANCH   1  23
TORSDOF 36
ENDMDL
MODEL 4
REMARK VINA RESULT:      -4.4      2.219      4.580
REMARK WARNING: 32 MAX_TORS EXCEEDED!!!
REMARK  36 active torsions:
REMARK  status: ('A' for Active; 'I' for Inactive)
REMARK    1  A    between atoms: C2_2  and  C3_3 
REMARK    2  A    between atoms: C3_3  and  C4_4 
REMARK    3  A    between atoms: C4_4  and  C5_5 
REMARK    4  A    between atoms: C5_5  and  C6_6 
REMARK    5  A    between atoms: C6_6  and  C7_7 
REMARK    6  A    between atoms: C7_7  and  C8_8 
REMARK    7  A    between atoms: C8_8  and  C9_9 
REMARK    8  A    between atoms: C9_9  and  C10_10 
REMARK    9  A    between atoms: C13_13  and  O14_14 
REMARK   10  A    between atoms: O14_14  and  C15_15 
REMARK   11  A    between atoms: C15_15  and  C16_16 
REMARK   12  A    between atoms: C16_16  and  O17_17 
REMARK   13  A    between atoms: O17_17  and  C18_18 
REMARK   14  A    between atoms: C18_18  and  C19_19 
REMARK   15  A    between atoms: C19_19  and  O20_20 
REMARK   16  A    between atoms: O20_20  and  C21_21 
REMARK   17  A    between atoms: C21_21  and  C22_22 
REMARK   18  A    between atoms: C22_22  and  O23_23 
REMARK   19  A    between atoms: O23_23  and  C24_24 
REMARK   20  A    between atoms: C24_24  and  C25_25 
REMARK   21  A    between atoms: C25_25  and  O26_26 
REMARK   22  A    between atoms: O26_26  and  C27_27 
REMARK   23  A    between atoms: C27_27  and  C28_28 
REMARK   24  A    between atoms: C28_28  and  O29_29 
REMARK   25  A    between atoms: O29_29  and  C30_30 
REMARK   26  A    between atoms: C30_30  and  C31_31 
REMARK   27  A    between atoms: C31_31  and  O32_32 
REMARK   28  A    between atoms: O32_32  and  C33_33 
REMARK   29  A    between atoms: C33_33  and  C34_34 
REMARK   30  A    between atoms: C34_34  and  O35_35 
REMARK   31  A    between atoms: O35_35  and  C36_36 
REMARK   32  A    between atoms: C36_36  and  C37_37 
REMARK   33  A    between atoms: C37_37  and  O38_38 
REMARK   34  A    between atoms: O38_38  and  C39_39 
REMARK   35  A    between atoms: C39_39  and  C40_40 
REMARK   36  A    between atoms: C40_40  and  O41_41 
ROOT
ATOM      1  O20 ZIN A   1      18.086  -0.857  14.973  0.00  0.00    -0.387 OA
ENDROOT
BRANCH   1   2
ATOM      2  C19 ZIN A   1      18.394   0.412  14.393  0.00  0.00     0.193 C 
BRANCH   2   3
ATOM      3  C18 ZIN A   1      19.857   0.427  13.948  0.00  0.00     0.193 C 
BRANCH   3   4
ATOM      4  O17 ZIN A   1      20.028  -0.459  12.840  0.00  0.00    -0.387 OA
BRANCH   4   5
ATOM      5  C16 ZIN A   1      19.088  -0.257  11.783  0.00  0.00     0.194 C 
BRANCH   5   6
ATOM      6  C15 ZIN A   1      19.682  -0.768  10.468  0.00  0.00     0.201 C 
BRANCH   6   7
ATOM      7  O14 ZIN A   1      19.650   0.276   9.493  0.00  0.00    -0.349 OA
BRANCH   7   8
ATOM      8  C13 ZIN A   1      19.283  -0.069   8.231  0.00  0.00     0.068 A 
ATOM      9  C12 ZIN A   1      19.097   0.913   7.269  0.00  0.00     0.037 A 
ATOM     10  C11 ZIN A   1      18.723   0.559   5.986  0.00  0.00     0.010 A 
ATOM     11  C10 ZIN A   1      18.537  -0.772   5.662  0.00  0.00    -0.058 A 
ATOM     12  C43 ZIN A   1      18.716  -1.752   6.621  0.00  0.00     0.010 A 
ATOM     13  C42 ZIN A   1      19.094  -1.404   7.903  0.00  0.00     0.037 A 
BRANCH  11  14
ATOM     14  C9  ZIN A   1      18.129  -1.155   4.262  0.00  0.00     0.038 C 
BRANCH  14  15
ATOM     15  C8  ZIN A   1      16.992  -2.175   4.322  0.00  0.00     0.005 C 
BRANCH  15  16
ATOM     16  C7  ZIN A   1      17.434  -3.472   3.641  0.00  0.00     0.000 C 
BRANCH  16  17
ATOM     17  C6  ZIN A   1      17.665  -4.552   4.700  0.00  0.00     0.000 C 
BRANCH  17  18
ATOM     18  C5  ZIN A   1      16.366  -5.326   4.931  0.00  0.00     0.000 C 
BRANCH  18  19
ATOM     19  C4  ZIN A   1      16.693  -6.737   5.425  0.00  0.00     0.000 C 
BRANCH  19  20
ATOM     20  C3  ZIN A   1      15.586  -7.218   6.366  0.00  0.00    -0.000 C 
BRANCH  20  21
ATOM     21  C2  ZIN A   1      14.402  -6.251   6.296  0.00  0.00    -0.005 C 
ATOM     22  C1  ZIN A   1      13.374  -6.626   7.366  0.00  0.00     0.005 C 
ENDBRANCH  20  21
ENDBRANCH  19  20
ENDBRANCH  18  19
ENDBRANCH  17  18
ENDBRANCH  16  17
ENDBRANCH  15  16
ENDBRANCH  14  15
ENDBRANCH  11  14
ENDBRANCH   7   8
ENDBRANCH   6   7
ENDBRANCH   5   6
ENDBRANCH   4   5
ENDBRANCH   3   4
ENDBRANCH   2   3
ENDBRANCH   1   2
BRANCH   1  23
ATOM     23  C21 ZIN A   1      19.213  -1.520  15.552  0.00  0.00     0.193 C 
BRANCH  23  24
ATOM     24  C22 ZIN A   1      19.303  -1.169  17.039  0.00  0.00     0.193 C 
BRANCH  24  25
ATOM     25  O23 ZIN A   1      18.182  -0.363  17.406  0.00  0.00    -0.387 OA
BRANCH  25  26
ATOM     26  C24 ZIN A   1      18.432   0.510  18.511  0.00  0.00     0.193 C 
BRANCH  26  27
ATOM     27  C25 ZIN A   1      17.355   1.596  18.556  0.00  0.00     0.193 C 
BRANCH  27  28
ATOM     28  O26 ZIN A   1      17.950   2.842  18.924  0.00  0.00    -0.387 OA
BRANCH  28  29
ATOM     29  C27 ZIN A   1      18.972   3.285  18.029  0.00  0.00     0.193 C 
BRANCH  29  30
ATOM     30  C28 ZIN A   1      18.330   3.907  16.788  0.00  0.00     0.193 C 
BRANCH  30  31
ATOM     31  O29 ZIN A   1      19.324   4.606  16.036  0.00  0.00    -0.387 OA
BRANCH  31  32
ATOM     32  C30 ZIN A   1      19.635   5.903  16.549  0.00  0.00     0.193 C 
BRANCH  32  33
ATOM     33  C31 ZIN A   1      18.366   6.546  17.112  0.00  0.00     0.193 C 
BRANCH  33  34
ATOM     34  O32 ZIN A   1      18.191   7.842  16.534  0.00  0.00    -0.387 OA
BRANCH  34  35
ATOM     35  C33 ZIN A   1      16.905   8.047  15.947  0.00  0.00     0.193 C 
BRANCH  35  36
ATOM     36  C34 ZIN A   1      17.017   7.940  14.424  0.00  0.00     0.193 C 
BRANCH  36  37
ATOM     37  O35 ZIN A   1      17.233   6.576  14.057  0.00  0.00    -0.387 OA
BRANCH  37  38
ATOM     38  C36 ZIN A   1      16.246   6.050  13.168  0.00  0.00     0.193 C 
BRANCH  38  39
ATOM     39  C37 ZIN A   1      16.875   4.967  12.289  0.00  0.00     0.193 C 
BRANCH  39  40
ATOM     40  O38 ZIN A   1      17.842   4.240  13.050  0.00  0.00    -0.387 OA
BRANCH  40  41
ATOM     41  C39 ZIN A   1      19.126   4.154  12.427  0.00  0.00     0.193 C 
BRANCH  41  42
ATOM     42  C40 ZIN A   1      19.076   3.123  11.297  0.00  0.00     0.190 C 
BRANCH  42  43
ATOM     43  O41 ZIN A   1      20.407   2.798  10.891  0.00  0.00    -0.399 OA
ATOM     44 1H10 ZIN A   1      20.788   2.042  11.359  0.00  0.00     0.209 HD
ENDBRANCH  42  43
ENDBRANCH  41  42
ENDBRANCH  40  41
ENDBRANCH  39  40
ENDBRANCH  38  39
ENDBRANCH  37  38
ENDBRANCH  36  37
ENDBRANCH  35  36
ENDBRANCH  34  35
ENDBRANCH  33  34
ENDBRANCH  32  33
ENDBRANCH  31  32
ENDBRANCH  30  31
ENDBRANCH  29  30
ENDBRANCH  28  29
ENDBRANCH  27  28
ENDBRANCH  26  27
ENDBRANCH  25  26
ENDBRANCH  24  25
ENDBRANCH  23  24
ENDBRANCH   1  23
TORSDOF 36
ENDMDL
MODEL 5
REMARK VINA RESULT:      -4.4      2.327      4.581
REMARK WARNING: 32 MAX_TORS EXCEEDED!!!
REMARK  36 active torsions:
REMARK  status: ('A' for Active; 'I' for Inactive)
REMARK    1  A    between atoms: C2_2  and  C3_3 
REMARK    2  A    between atoms: C3_3  and  C4_4 
REMARK    3  A    between atoms: C4_4  and  C5_5 
REMARK    4  A    between atoms: C5_5  and  C6_6 
REMARK    5  A    between atoms: C6_6  and  C7_7 
REMARK    6  A    between atoms: C7_7  and  C8_8 
REMARK    7  A    between atoms: C8_8  and  C9_9 
REMARK    8  A    between atoms: C9_9  and  C10_10 
REMARK    9  A    between atoms: C13_13  and  O14_14 
REMARK   10  A    between atoms: O14_14  and  C15_15 
REMARK   11  A    between atoms: C15_15  and  C16_16 
REMARK   12  A    between atoms: C16_16  and  O17_17 
REMARK   13  A    between atoms: O17_17  and  C18_18 
REMARK   14  A    between atoms: C18_18  and  C19_19 
REMARK   15  A    between atoms: C19_19  and  O20_20 
REMARK   16  A    between atoms: O20_20  and  C21_21 
REMARK   17  A    between atoms: C21_21  and  C22_22 
REMARK   18  A    between atoms: C22_22  and  O23_23 
REMARK   19  A    between atoms: O23_23  and  C24_24 
REMARK   20  A    between atoms: C24_24  and  C25_25 
REMARK   21  A    between atoms: C25_25  and  O26_26 
REMARK   22  A    between atoms: O26_26  and  C27_27 
REMARK   23  A    between atoms: C27_27  and  C28_28 
REMARK   24  A    between atoms: C28_28  and  O29_29 
REMARK   25  A    between atoms: O29_29  and  C30_30 
REMARK   26  A    between atoms: C30_30  and  C31_31 
REMARK   27  A    between atoms: C31_31  and  O32_32 
REMARK   28  A    between atoms: O32_32  and  C33_33 
REMARK   29  A    between atoms: C33_33  and  C34_34 
REMARK   30  A    between atoms: C34_34  and  O35_35 
REMARK   31  A    between atoms: O35_35  and  C36_36 
REMARK   32  A    between atoms: C36_36  and  C37_37 
REMARK   33  A    between atoms: C37_37  and  O38_38 
REMARK   34  A    between atoms: O38_38  and  C39_39 
REMARK   35  A    between atoms: C39_39  and  C40_40 
REMARK   36  A    between atoms: C40_40  and  O41_41 
ROOT
ATOM      1  O20 ZIN A   1      17.831   0.145  15.693  0.00  0.00    -0.387 OA
ENDROOT
BRANCH   1   2
ATOM      2  C19 ZIN A   1      18.468   0.102  14.414  0.00  0.00     0.193 C 
BRANCH   2   3
ATOM      3  C18 ZIN A   1      19.565  -0.964  14.427  0.00  0.00     0.193 C 
BRANCH   3   4
ATOM      4  O17 ZIN A   1      19.139  -2.095  13.665  0.00  0.00    -0.387 OA
BRANCH   4   5
ATOM      5  C16 ZIN A   1      18.374  -1.761  12.505  0.00  0.00     0.194 C 
BRANCH   5   6
ATOM      6  C15 ZIN A   1      17.728  -3.027  11.938  0.00  0.00     0.201 C 
BRANCH   6   7
ATOM      7  O14 ZIN A   1      18.057  -3.152  10.554  0.00  0.00    -0.349 OA
BRANCH   7   8
ATOM      8  C13 ZIN A   1      17.773  -4.339   9.956  0.00  0.00     0.068 A 
ATOM      9  C12 ZIN A   1      16.457  -4.678   9.678  0.00  0.00     0.037 A 
ATOM     10  C11 ZIN A   1      16.170  -5.887   9.072  0.00  0.00     0.010 A 
ATOM     11  C10 ZIN A   1      17.194  -6.756   8.742  0.00  0.00    -0.058 A 
ATOM     12  C43 ZIN A   1      18.506  -6.422   9.023  0.00  0.00     0.010 A 
ATOM     13  C42 ZIN A   1      18.798  -5.213   9.625  0.00  0.00     0.037 A 
BRANCH  11  14
ATOM     14  C9  ZIN A   1      16.877  -8.072   8.080  0.00  0.00     0.038 C 
BRANCH  14  15
ATOM     15  C8  ZIN A   1      17.541  -8.124   6.704  0.00  0.00     0.005 C 
BRANCH  15  16
ATOM     16  C7  ZIN A   1      16.532  -8.625   5.668  0.00  0.00     0.000 C 
BRANCH  16  17
ATOM     17  C6  ZIN A   1      15.529  -9.561   6.345  0.00  0.00     0.000 C 
BRANCH  17  18
ATOM     18  C5  ZIN A   1      14.374  -9.850   5.384  0.00  0.00     0.000 C 
BRANCH  18  19
ATOM     19  C4  ZIN A   1      13.338  -8.727   5.479  0.00  0.00     0.000 C 
BRANCH  19  20
ATOM     20  C3  ZIN A   1      13.608  -7.691   4.386  0.00  0.00    -0.000 C 
BRANCH  20  21
ATOM     21  C2  ZIN A   1      13.580  -6.288   4.996  0.00  0.00    -0.005 C 
ATOM     22  C1  ZIN A   1      13.405  -6.396   6.513  0.00  0.00     0.005 C 
ENDBRANCH  20  21
ENDBRANCH  19  20
ENDBRANCH  18  19
ENDBRANCH  17  18
ENDBRANCH  16  17
ENDBRANCH  15  16
ENDBRANCH  14  15
ENDBRANCH  11  14
ENDBRANCH   7   8
ENDBRANCH   6   7
ENDBRANCH   5   6
ENDBRANCH   4   5
ENDBRANCH   3   4
ENDBRANCH   2   3
ENDBRANCH   1   2
BRANCH   1  23
ATOM     23  C21 ZIN A   1      18.584   0.832  16.695  0.00  0.00     0.193 C 
BRANCH  23  24
ATOM     24  C22 ZIN A   1      19.144   2.131  16.111  0.00  0.00     0.193 C 
BRANCH  24  25
ATOM     25  O23 ZIN A   1      18.078   3.060  15.909  0.00  0.00    -0.387 OA
BRANCH  25  26
ATOM     26  C24 ZIN A   1      18.496   4.316  15.368  0.00  0.00     0.193 C 
BRANCH  26  27
ATOM     27  C25 ZIN A   1      17.283   5.055  14.799  0.00  0.00     0.193 C 
BRANCH  27  28
ATOM     28  O26 ZIN A   1      17.679   5.806  13.649  0.00  0.00    -0.387 OA
BRANCH  28  29
ATOM     29  C27 ZIN A   1      18.480   5.071  12.722  0.00  0.00     0.193 C 
BRANCH  29  30
ATOM     30  C28 ZIN A   1      17.573   4.288  11.772  0.00  0.00     0.193 C 
BRANCH  30  31
ATOM     31  O29 ZIN A   1      17.733   2.888  12.004  0.00  0.00    -0.387 OA
BRANCH  31  32
ATOM     32  C30 ZIN A   1      19.095   2.460  12.062  0.00  0.00     0.193 C 
BRANCH  32  33
ATOM     33  C31 ZIN A   1      19.388   1.530  10.883  0.00  0.00     0.193 C 
BRANCH  33  34
ATOM     34  O32 ZIN A   1      18.157   1.096  10.300  0.00  0.00    -0.387 OA
BRANCH  34  35
ATOM     35  C33 ZIN A   1      18.203   0.960   8.879  0.00  0.00     0.193 C 
BRANCH  35  36
ATOM     36  C34 ZIN A   1      17.711  -0.434   8.484  0.00  0.00     0.193 C 
BRANCH  36  37
ATOM     37  O35 ZIN A   1      18.788  -1.174   7.906  0.00  0.00    -0.387 OA
BRANCH  37  38
ATOM     38  C36 ZIN A   1      18.373  -2.167   6.967  0.00  0.00     0.193 C 
BRANCH  38  39
ATOM     39  C37 ZIN A   1      18.935  -1.829   5.584  0.00  0.00     0.193 C 
BRANCH  39  40
ATOM     40  O38 ZIN A   1      18.041  -2.308   4.577  0.00  0.00    -0.387 OA
BRANCH  40  41
ATOM     41  C39 ZIN A   1      18.307  -3.647   4.154  0.00  0.00     0.193 C 
BRANCH  41  42
ATOM     42  C40 ZIN A   1      17.061  -4.227   3.481  0.00  0.00     0.190 C 
BRANCH  42  43
ATOM     43  O41 ZIN A   1      15.899  -3.551   3.969  0.00  0.00    -0.399 OA
ATOM     44 1H10 ZIN A   1      15.752  -2.683   3.569  0.00  0.00     0.209 HD
ENDBRANCH  42  43
ENDBRANCH  41  42
ENDBRANCH  40  41
ENDBRANCH  39  40
ENDBRANCH  38  39
ENDBRANCH  37  38
ENDBRANCH  36  37
ENDBRANCH  35  36
ENDBRANCH  34  35
ENDBRANCH  33  34
ENDBRANCH  32  33
ENDBRANCH  31  32
ENDBRANCH  30  31
ENDBRANCH  29  30
ENDBRANCH  28  29
ENDBRANCH  27  28
ENDBRANCH  26  27
ENDBRANCH  25  26
ENDBRANCH  24  25
ENDBRANCH  23  24
ENDBRANCH   1  23
TORSDOF 36
ENDMDL
MODEL 6
REMARK VINA RESULT:      -4.4      1.632      5.136
REMARK WARNING: 32 MAX_TORS EXCEEDED!!!
REMARK  36 active torsions:
REMARK  status: ('A' for Active; 'I' for Inactive)
REMARK    1  A    between atoms: C2_2  and  C3_3 
REMARK    2  A    between atoms: C3_3  and  C4_4 
REMARK    3  A    between atoms: C4_4  and  C5_5 
REMARK    4  A    between atoms: C5_5  and  C6_6 
REMARK    5  A    between atoms: C6_6  and  C7_7 
REMARK    6  A    between atoms: C7_7  and  C8_8 
REMARK    7  A    between atoms: C8_8  and  C9_9 
REMARK    8  A    between atoms: C9_9  and  C10_10 
REMARK    9  A    between atoms: C13_13  and  O14_14 
REMARK   10  A    between atoms: O14_14  and  C15_15 
REMARK   11  A    between atoms: C15_15  and  C16_16 
REMARK   12  A    between atoms: C16_16  and  O17_17 
REMARK   13  A    between atoms: O17_17  and  C18_18 
REMARK   14  A    between atoms: C18_18  and  C19_19 
REMARK   15  A    between atoms: C19_19  and  O20_20 
REMARK   16  A    between atoms: O20_20  and  C21_21 
REMARK   17  A    between atoms: C21_21  and  C22_22 
REMARK   18  A    between atoms: C22_22  and  O23_23 
REMARK   19  A    between atoms: O23_23  and  C24_24 
REMARK   20  A    between atoms: C24_24  and  C25_25 
REMARK   21  A    between atoms: C25_25  and  O26_26 
REMARK   22  A    between atoms: O26_26  and  C27_27 
REMARK   23  A    between atoms: C27_27  and  C28_28 
REMARK   24  A    between atoms: C28_28  and  O29_29 
REMARK   25  A    between atoms: O29_29  and  C30_30 
REMARK   26  A    between atoms: C30_30  and  C31_31 
REMARK   27  A    between atoms: C31_31  and  O32_32 
REMARK   28  A    between atoms: O32_32  and  C33_33 
REMARK   29  A    between atoms: C33_33  and  C34_34 
REMARK   30  A    between atoms: C34_34  and  O35_35 
REMARK   31  A    between atoms: O35_35  and  C36_36 
REMARK   32  A    between atoms: C36_36  and  C37_37 
REMARK   33  A    between atoms: C37_37  and  O38_38 
REMARK   34  A    between atoms: O38_38  and  C39_39 
REMARK   35  A    between atoms: C39_39  and  C40_40 
REMARK   36  A    between atoms: C40_40  and  O41_41 
ROOT
ATOM      1  O20 ZIN A   1      19.895  -0.476  13.256  0.00  0.00    -0.387 OA
ENDROOT
BRANCH   1   2
ATOM      2  C19 ZIN A   1      19.730  -1.098  11.980  0.00  0.00     0.193 C 
BRANCH   2   3
ATOM      3  C18 ZIN A   1      20.308  -0.190  10.893  0.00  0.00     0.193 C 
BRANCH   3   4
ATOM      4  O17 ZIN A   1      19.421   0.907  10.666  0.00  0.00    -0.387 OA
BRANCH   4   5
ATOM      5  C16 ZIN A   1      19.302   1.285   9.293  0.00  0.00     0.194 C 
BRANCH   5   6
ATOM      6  C15 ZIN A   1      18.015   0.696   8.712  0.00  0.00     0.201 C 
BRANCH   6   7
ATOM      7  O14 ZIN A   1      18.268   0.207   7.394  0.00  0.00    -0.349 OA
BRANCH   7   8
ATOM      8  C13 ZIN A   1      18.578  -1.111   7.274  0.00  0.00     0.068 A 
ATOM      9  C12 ZIN A   1      19.177  -1.581   6.115  0.00  0.00     0.037 A 
ATOM     10  C11 ZIN A   1      19.491  -2.921   5.995  0.00  0.00     0.010 A 
ATOM     11  C10 ZIN A   1      19.209  -3.793   7.030  0.00  0.00    -0.058 A 
ATOM     12  C43 ZIN A   1      18.606  -3.328   8.185  0.00  0.00     0.010 A 
ATOM     13  C42 ZIN A   1      18.295  -1.989   8.311  0.00  0.00     0.037 A 
BRANCH  11  14
ATOM     14  C9  ZIN A   1      19.552  -5.255   6.896  0.00  0.00     0.038 C 
BRANCH  14  15
ATOM     15  C8  ZIN A   1      18.576  -5.921   5.926  0.00  0.00     0.005 C 
BRANCH  15  16
ATOM     16  C7  ZIN A   1      17.173  -5.349   6.139  0.00  0.00     0.000 C 
BRANCH  16  17
ATOM     17  C6  ZIN A   1      16.254  -6.441   6.689  0.00  0.00     0.000 C 
BRANCH  17  18
ATOM     18  C5  ZIN A   1      15.968  -6.170   8.168  0.00  0.00     0.000 C 
BRANCH  18  19
ATOM     19  C4  ZIN A   1      16.922  -6.997   9.033  0.00  0.00     0.000 C 
BRANCH  19  20
ATOM     20  C3  ZIN A   1      17.508  -6.112  10.136  0.00  0.00    -0.000 C 
BRANCH  20  21
ATOM     21  C2  ZIN A   1      16.460  -5.090  10.579  0.00  0.00    -0.005 C 
ATOM     22  C1  ZIN A   1      17.124  -4.028  11.458  0.00  0.00     0.005 C 
ENDBRANCH  20  21
ENDBRANCH  19  20
ENDBRANCH  18  19
ENDBRANCH  17  18
ENDBRANCH  16  17
ENDBRANCH  15  16
ENDBRANCH  14  15
ENDBRANCH  11  14
ENDBRANCH   7   8
ENDBRANCH   6   7
ENDBRANCH   5   6
ENDBRANCH   4   5
ENDBRANCH   3   4
ENDBRANCH   2   3
ENDBRANCH   1   2
BRANCH   1  23
ATOM     23  C21 ZIN A   1      18.972  -0.931  14.248  0.00  0.00     0.193 C 
BRANCH  23  24
ATOM     24  C22 ZIN A   1      17.846   0.093  14.404  0.00  0.00     0.193 C 
BRANCH  24  25
ATOM     25  O23 ZIN A   1      18.398   1.353  14.791  0.00  0.00    -0.387 OA
BRANCH  25  26
ATOM     26  C24 ZIN A   1      18.395   1.580  16.203  0.00  0.00     0.193 C 
BRANCH  26  27
ATOM     27  C25 ZIN A   1      19.564   2.494  16.575  0.00  0.00     0.193 C 
BRANCH  27  28
ATOM     28  O26 ZIN A   1      19.512   2.789  17.972  0.00  0.00    -0.387 OA
BRANCH  28  29
ATOM     29  C27 ZIN A   1      18.193   3.018  18.469  0.00  0.00     0.193 C 
BRANCH  29  30
ATOM     30  C28 ZIN A   1      18.197   4.245  19.383  0.00  0.00     0.193 C 
BRANCH  30  31
ATOM     31  O29 ZIN A   1      17.155   4.121  20.353  0.00  0.00    -0.387 OA
BRANCH  31  32
ATOM     32  C30 ZIN A   1      15.843   4.060  19.792  0.00  0.00     0.193 C 
BRANCH  32  33
ATOM     33  C31 ZIN A   1      15.380   5.471  19.422  0.00  0.00     0.193 C 
BRANCH  33  34
ATOM     34  O32 ZIN A   1      16.133   5.942  18.303  0.00  0.00    -0.387 OA
BRANCH  34  35
ATOM     35  C33 ZIN A   1      15.605   7.127  17.705  0.00  0.00     0.193 C 
BRANCH  35  36
ATOM     36  C34 ZIN A   1      15.642   6.988  16.181  0.00  0.00     0.193 C 
BRANCH  36  37
ATOM     37  O35 ZIN A   1      16.991   7.096  15.725  0.00  0.00    -0.387 OA
BRANCH  37  38
ATOM     38  C36 ZIN A   1      17.552   5.861  15.273  0.00  0.00     0.193 C 
BRANCH  38  39
ATOM     39  C37 ZIN A   1      17.655   5.875  13.747  0.00  0.00     0.193 C 
BRANCH  39  40
ATOM     40  O38 ZIN A   1      16.946   4.756  13.212  0.00  0.00    -0.387 OA
BRANCH  40  41
ATOM     41  C39 ZIN A   1      17.758   3.868  12.440  0.00  0.00     0.193 C 
BRANCH  41  42
ATOM     42  C40 ZIN A   1      17.454   4.062  10.953  0.00  0.00     0.190 C 
BRANCH  42  43
ATOM     43  O41 ZIN A   1      16.178   4.690  10.806  0.00  0.00    -0.399 OA
ATOM     44 1H10 ZIN A   1      16.183   5.639  10.994  0.00  0.00     0.209 HD
ENDBRANCH  42  43
ENDBRANCH  41  42
ENDBRANCH  40  41
ENDBRANCH  39  40
ENDBRANCH  38  39
ENDBRANCH  37  38
ENDBRANCH  36  37
ENDBRANCH  35  36
ENDBRANCH  34  35
ENDBRANCH  33  34
ENDBRANCH  32  33
ENDBRANCH  31  32
ENDBRANCH  30  31
ENDBRANCH  29  30
ENDBRANCH  28  29
ENDBRANCH  27  28
ENDBRANCH  26  27
ENDBRANCH  25  26
ENDBRANCH  24  25
ENDBRANCH  23  24
ENDBRANCH   1  23
TORSDOF 36
ENDMDL
MODEL 7
REMARK VINA RESULT:      -4.3      2.260      5.067
REMARK WARNING: 32 MAX_TORS EXCEEDED!!!
REMARK  36 active torsions:
REMARK  status: ('A' for Active; 'I' for Inactive)
REMARK    1  A    between atoms: C2_2  and  C3_3 
REMARK    2  A    between atoms: C3_3  and  C4_4 
REMARK    3  A    between atoms: C4_4  and  C5_5 
REMARK    4  A    between atoms: C5_5  and  C6_6 
REMARK    5  A    between atoms: C6_6  and  C7_7 
REMARK    6  A    between atoms: C7_7  and  C8_8 
REMARK    7  A    between atoms: C8_8  and  C9_9 
REMARK    8  A    between atoms: C9_9  and  C10_10 
REMARK    9  A    between atoms: C13_13  and  O14_14 
REMARK   10  A    between atoms: O14_14  and  C15_15 
REMARK   11  A    between atoms: C15_15  and  C16_16 
REMARK   12  A    between atoms: C16_16  and  O17_17 
REMARK   13  A    between atoms: O17_17  and  C18_18 
REMARK   14  A    between atoms: C18_18  and  C19_19 
REMARK   15  A    between atoms: C19_19  and  O20_20 
REMARK   16  A    between atoms: O20_20  and  C21_21 
REMARK   17  A    between atoms: C21_21  and  C22_22 
REMARK   18  A    between atoms: C22_22  and  O23_23 
REMARK   19  A    between atoms: O23_23  and  C24_24 
REMARK   20  A    between atoms: C24_24  and  C25_25 
REMARK   21  A    between atoms: C25_25  and  O26_26 
REMARK   22  A    between atoms: O26_26  and  C27_27 
REMARK   23  A    between atoms: C27_27  and  C28_28 
REMARK   24  A    between atoms: C28_28  and  O29_29 
REMARK   25  A    between atoms: O29_29  and  C30_30 
REMARK   26  A    between atoms: C30_30  and  C31_31 
REMARK   27  A    between atoms: C31_31  and  O32_32 
REMARK   28  A    between atoms: O32_32  and  C33_33 
REMARK   29  A    between atoms: C33_33  and  C34_34 
REMARK   30  A    between atoms: C34_34  and  O35_35 
REMARK   31  A    between atoms: O35_35  and  C36_36 
REMARK   32  A    between atoms: C36_36  and  C37_37 
REMARK   33  A    between atoms: C37_37  and  O38_38 
REMARK   34  A    between atoms: O38_38  and  C39_39 
REMARK   35  A    between atoms: C39_39  and  C40_40 
REMARK   36  A    between atoms: C40_40  and  O41_41 
ROOT
ATOM      1  O20 ZIN A   1      18.050   4.227  10.039  0.00  0.00    -0.387 OA
ENDROOT
BRANCH   1   2
ATOM      2  C19 ZIN A   1      18.573   2.997  10.547  0.00  0.00     0.193 C 
BRANCH   2   3
ATOM      3  C18 ZIN A   1      17.804   1.826   9.935  0.00  0.00     0.193 C 
BRANCH   3   4
ATOM      4  O17 ZIN A   1      17.101   1.126  10.964  0.00  0.00    -0.387 OA
BRANCH   4   5
ATOM      5  C16 ZIN A   1      17.352  -0.280  10.988  0.00  0.00     0.194 C 
BRANCH   5   6
ATOM      6  C15 ZIN A   1      17.529  -0.791   9.556  0.00  0.00     0.201 C 
BRANCH   6   7
ATOM      7  O14 ZIN A   1      18.666  -1.654   9.496  0.00  0.00    -0.349 OA
BRANCH   7   8
ATOM      8  C13 ZIN A   1      18.452  -2.928   9.073  0.00  0.00     0.068 A 
ATOM      9  C12 ZIN A   1      17.720  -3.806   9.858  0.00  0.00     0.037 A 
ATOM     10  C11 ZIN A   1      17.505  -5.101   9.427  0.00  0.00     0.010 A 
ATOM     11  C10 ZIN A   1      18.019  -5.521   8.214  0.00  0.00    -0.058 A 
ATOM     12  C43 ZIN A   1      18.754  -4.649   7.432  0.00  0.00     0.010 A 
ATOM     13  C42 ZIN A   1      18.968  -3.352   7.857  0.00  0.00     0.037 A 
BRANCH  11  14
ATOM     14  C9  ZIN A   1      17.782  -6.934   7.746  0.00  0.00     0.038 C 
BRANCH  14  15
ATOM     15  C8  ZIN A   1      16.434  -7.427   8.274  0.00  0.00     0.005 C 
BRANCH  15  16
ATOM     16  C7  ZIN A   1      15.630  -8.042   7.127  0.00  0.00     0.000 C 
BRANCH  16  17
ATOM     17  C6  ZIN A   1      14.169  -8.197   7.553  0.00  0.00     0.000 C 
BRANCH  17  18
ATOM     18  C5  ZIN A   1      13.266  -7.490   6.540  0.00  0.00     0.000 C 
BRANCH  18  19
ATOM     19  C4  ZIN A   1      14.025  -6.323   5.906  0.00  0.00     0.000 C 
BRANCH  19  20
ATOM     20  C3  ZIN A   1      13.793  -6.324   4.393  0.00  0.00    -0.000 C 
BRANCH  20  21
ATOM     21  C2  ZIN A   1      14.988  -5.673   3.694  0.00  0.00    -0.005 C 
ATOM     22  C1  ZIN A   1      16.079  -5.372   4.724  0.00  0.00     0.005 C 
ENDBRANCH  20  21
ENDBRANCH  19  20
ENDBRANCH  18  19
ENDBRANCH  17  18
ENDBRANCH  16  17
ENDBRANCH  15  16
ENDBRANCH  14  15
ENDBRANCH  11  14
ENDBRANCH   7   8
ENDBRANCH   6   7
ENDBRANCH   5   6
ENDBRANCH   4   5
ENDBRANCH   3   4
ENDBRANCH   2   3
ENDBRANCH   1   2
BRANCH   1  23
ATOM     23  C21 ZIN A   1      16.803   4.612  10.621  0.00  0.00     0.193 C 
BRANCH  23  24
ATOM     24  C22 ZIN A   1      16.956   4.707  12.141  0.00  0.00     0.193 C 
BRANCH  24  25
ATOM     25  O23 ZIN A   1      16.170   5.794  12.632  0.00  0.00    -0.387 OA
BRANCH  25  26
ATOM     26  C24 ZIN A   1      16.439   6.138  13.993  0.00  0.00     0.193 C 
BRANCH  26  27
ATOM     27  C25 ZIN A   1      15.158   5.999  14.817  0.00  0.00     0.193 C 
BRANCH  27  28
ATOM     28  O26 ZIN A   1      14.555   7.284  14.980  0.00  0.00    -0.387 OA
BRANCH  28  29
ATOM     29  C27 ZIN A   1      14.890   7.932  16.209  0.00  0.00     0.193 C 
BRANCH  29  30
ATOM     30  C28 ZIN A   1      15.796   9.130  15.924  0.00  0.00     0.193 C 
BRANCH  30  31
ATOM     31  O29 ZIN A   1      17.085   8.900  16.497  0.00  0.00    -0.387 OA
BRANCH  31  32
ATOM     32  C30 ZIN A   1      17.058   8.121  17.695  0.00  0.00     0.193 C 
BRANCH  32  33
ATOM     33  C31 ZIN A   1      17.853   6.831  17.482  0.00  0.00     0.193 C 
BRANCH  33  34
ATOM     34  O32 ZIN A   1      18.969   7.094  16.628  0.00  0.00    -0.387 OA
BRANCH  34  35
ATOM     35  C33 ZIN A   1      19.623   5.918  16.148  0.00  0.00     0.193 C 
BRANCH  35  36
ATOM     36  C34 ZIN A   1      19.008   4.685  16.815  0.00  0.00     0.193 C 
BRANCH  36  37
ATOM     37  O35 ZIN A   1      19.987   3.647  16.892  0.00  0.00    -0.387 OA
BRANCH  37  38
ATOM     38  C36 ZIN A   1      19.442   2.328  16.821  0.00  0.00     0.193 C 
BRANCH  38  39
ATOM     39  C37 ZIN A   1      18.924   2.066  15.405  0.00  0.00     0.193 C 
BRANCH  39  40
ATOM     40  O38 ZIN A   1      17.930   1.040  15.445  0.00  0.00    -0.387 OA
BRANCH  40  41
ATOM     41  C39 ZIN A   1      18.095   0.031  14.445  0.00  0.00     0.193 C 
BRANCH  41  42
ATOM     42  C40 ZIN A   1      18.284  -1.329  15.119  0.00  0.00     0.190 C 
BRANCH  42  43
ATOM     43  O41 ZIN A   1      18.731  -1.137  16.463  0.00  0.00    -0.399 OA
ATOM     44 1H10 ZIN A   1      19.686  -1.234  16.578  0.00  0.00     0.209 HD
ENDBRANCH  42  43
ENDBRANCH  41  42
ENDBRANCH  40  41
ENDBRANCH  39  40
ENDBRANCH  38  39
ENDBRANCH  37  38
ENDBRANCH  36  37
ENDBRANCH  35  36
ENDBRANCH  34  35
ENDBRANCH  33  34
ENDBRANCH  32  33
ENDBRANCH  31  32
ENDBRANCH  30  31
ENDBRANCH  29  30
ENDBRANCH  28  29
ENDBRANCH  27  28
ENDBRANCH  26  27
ENDBRANCH  25  26
ENDBRANCH  24  25
ENDBRANCH  23  24
ENDBRANCH   1  23
TORSDOF 36
ENDMDL
MODEL 8
REMARK VINA RESULT:      -4.3      1.948      5.424
REMARK WARNING: 32 MAX_TORS EXCEEDED!!!
REMARK  36 active torsions:
REMARK  status: ('A' for Active; 'I' for Inactive)
REMARK    1  A    between atoms: C2_2  and  C3_3 
REMARK    2  A    between atoms: C3_3  and  C4_4 
REMARK    3  A    between atoms: C4_4  and  C5_5 
REMARK    4  A    between atoms: C5_5  and  C6_6 
REMARK    5  A    between atoms: C6_6  and  C7_7 
REMARK    6  A    between atoms: C7_7  and  C8_8 
REMARK    7  A    between atoms: C8_8  and  C9_9 
REMARK    8  A    between atoms: C9_9  and  C10_10 
REMARK    9  A    between atoms: C13_13  and  O14_14 
REMARK   10  A    between atoms: O14_14  and  C15_15 
REMARK   11  A    between atoms: C15_15  and  C16_16 
REMARK   12  A    between atoms: C16_16  and  O17_17 
REMARK   13  A    between atoms: O17_17  and  C18_18 
REMARK   14  A    between atoms: C18_18  and  C19_19 
REMARK   15  A    between atoms: C19_19  and  O20_20 
REMARK   16  A    between atoms: O20_20  and  C21_21 
REMARK   17  A    between atoms: C21_21  and  C22_22 
REMARK   18  A    between atoms: C22_22  and  O23_23 
REMARK   19  A    between atoms: O23_23  and  C24_24 
REMARK   20  A    between atoms: C24_24  and  C25_25 
REMARK   21  A    between atoms: C25_25  and  O26_26 
REMARK   22  A    between atoms: O26_26  and  C27_27 
REMARK   23  A    between atoms: C27_27  and  C28_28 
REMARK   24  A    between atoms: C28_28  and  O29_29 
REMARK   25  A    between atoms: O29_29  and  C30_30 
REMARK   26  A    between atoms: C30_30  and  C31_31 
REMARK   27  A    between atoms: C31_31  and  O32_32 
REMARK   28  A    between atoms: O32_32  and  C33_33 
REMARK   29  A    between atoms: C33_33  and  C34_34 
REMARK   30  A    between atoms: C34_34  and  O35_35 
REMARK   31  A    between atoms: O35_35  and  C36_36 
REMARK   32  A    between atoms: C36_36  and  C37_37 
REMARK   33  A    between atoms: C37_37  and  O38_38 
REMARK   34  A    between atoms: O38_38  and  C39_39 
REMARK   35  A    between atoms: C39_39  and  C40_40 
REMARK   36  A    between atoms: C40_40  and  O41_41 
ROOT
ATOM      1  O20 ZIN A   1      19.476  -0.886  12.852  0.00  0.00    -0.387 OA
ENDROOT
BRANCH   1   2
ATOM      2  C19 ZIN A   1      20.047  -1.587  11.746  0.00  0.00     0.193 C 
BRANCH   2   3
ATOM      3  C18 ZIN A   1      20.638  -0.582  10.756  0.00  0.00     0.193 C 
BRANCH   3   4
ATOM      4  O17 ZIN A   1      19.580   0.137  10.118  0.00  0.00    -0.387 OA
BRANCH   4   5
ATOM      5  C16 ZIN A   1      19.756   0.303   8.709  0.00  0.00     0.194 C 
BRANCH   5   6
ATOM      6  C15 ZIN A   1      18.410   0.129   8.003  0.00  0.00     0.201 C 
BRANCH   6   7
ATOM      7  O14 ZIN A   1      18.629  -0.323   6.665  0.00  0.00    -0.349 OA
BRANCH   7   8
ATOM      8  C13 ZIN A   1      18.596  -1.666   6.455  0.00  0.00     0.068 A 
ATOM      9  C12 ZIN A   1      18.530  -2.536   7.533  0.00  0.00     0.037 A 
ATOM     10  C11 ZIN A   1      18.498  -3.901   7.316  0.00  0.00     0.010 A 
ATOM     11  C10 ZIN A   1      18.531  -4.398   6.026  0.00  0.00    -0.058 A 
ATOM     12  C43 ZIN A   1      18.604  -3.532   4.950  0.00  0.00     0.010 A 
ATOM     13  C42 ZIN A   1      18.631  -2.167   5.162  0.00  0.00     0.037 A 
BRANCH  11  14
ATOM     14  C9  ZIN A   1      18.496  -5.886   5.793  0.00  0.00     0.038 C 
BRANCH  14  15
ATOM     15  C8  ZIN A   1      18.308  -6.607   7.129  0.00  0.00     0.005 C 
BRANCH  15  16
ATOM     16  C7  ZIN A   1      17.436  -7.847   6.922  0.00  0.00     0.000 C 
BRANCH  16  17
ATOM     17  C6  ZIN A   1      16.368  -7.907   8.016  0.00  0.00     0.000 C 
BRANCH  17  18
ATOM     18  C5  ZIN A   1      16.341  -6.579   8.776  0.00  0.00     0.000 C 
BRANCH  18  19
ATOM     19  C4  ZIN A   1      15.025  -5.853   8.487  0.00  0.00     0.000 C 
BRANCH  19  20
ATOM     20  C3  ZIN A   1      14.498  -6.278   7.115  0.00  0.00    -0.000 C 
BRANCH  20  21
ATOM     21  C2  ZIN A   1      12.977  -6.433   7.180  0.00  0.00    -0.005 C 
ATOM     22  C1  ZIN A   1      12.629  -7.826   7.709  0.00  0.00     0.005 C 
ENDBRANCH  20  21
ENDBRANCH  19  20
ENDBRANCH  18  19
ENDBRANCH  17  18
ENDBRANCH  16  17
ENDBRANCH  15  16
ENDBRANCH  14  15
ENDBRANCH  11  14
ENDBRANCH   7   8
ENDBRANCH   6   7
ENDBRANCH   5   6
ENDBRANCH   4   5
ENDBRANCH   3   4
ENDBRANCH   2   3
ENDBRANCH   1   2
BRANCH   1  23
ATOM     23  C21 ZIN A   1      18.048  -0.934  12.896  0.00  0.00     0.193 C 
BRANCH  23  24
ATOM     24  C22 ZIN A   1      17.480   0.444  12.548  0.00  0.00     0.193 C 
BRANCH  24  25
ATOM     25  O23 ZIN A   1      17.718   1.344  13.632  0.00  0.00    -0.387 OA
BRANCH  25  26
ATOM     26  C24 ZIN A   1      17.622   0.738  14.923  0.00  0.00     0.193 C 
BRANCH  26  27
ATOM     27  C25 ZIN A   1      19.001   0.725  15.585  0.00  0.00     0.193 C 
BRANCH  27  28
ATOM     28  O26 ZIN A   1      19.054  -0.323  16.555  0.00  0.00    -0.387 OA
BRANCH  28  29
ATOM     29  C27 ZIN A   1      18.009  -0.268  17.529  0.00  0.00     0.193 C 
BRANCH  29  30
ATOM     30  C28 ZIN A   1      18.505   0.479  18.768  0.00  0.00     0.193 C 
BRANCH  30  31
ATOM     31  O29 ZIN A   1      17.451   1.291  19.289  0.00  0.00    -0.387 OA
BRANCH  31  32
ATOM     32  C30 ZIN A   1      17.376   2.592  18.704  0.00  0.00     0.193 C 
BRANCH  32  33
ATOM     33  C31 ZIN A   1      18.769   3.225  18.689  0.00  0.00     0.193 C 
BRANCH  33  34
ATOM     34  O32 ZIN A   1      19.229   3.334  17.340  0.00  0.00    -0.387 OA
BRANCH  34  35
ATOM     35  C33 ZIN A   1      19.140   4.653  16.801  0.00  0.00     0.193 C 
BRANCH  35  36
ATOM     36  C34 ZIN A   1      17.864   4.776  15.963  0.00  0.00     0.193 C 
BRANCH  36  37
ATOM     37  O35 ZIN A   1      18.125   5.583  14.814  0.00  0.00    -0.387 OA
BRANCH  37  38
ATOM     38  C36 ZIN A   1      16.964   5.872  14.031  0.00  0.00     0.193 C 
BRANCH  38  39
ATOM     39  C37 ZIN A   1      17.185   5.394  12.595  0.00  0.00     0.193 C 
BRANCH  39  40
ATOM     40  O38 ZIN A   1      18.098   4.295  12.595  0.00  0.00    -0.387 OA
BRANCH  40  41
ATOM     41  C39 ZIN A   1      18.549   3.914  11.293  0.00  0.00     0.193 C 
BRANCH  41  42
ATOM     42  C40 ZIN A   1      19.965   3.342  11.391  0.00  0.00     0.190 C 
BRANCH  42  43
ATOM     43  O41 ZIN A   1      20.662   3.978  12.465  0.00  0.00    -0.399 OA
ATOM     44 1H10 ZIN A   1      20.773   4.932  12.352  0.00  0.00     0.209 HD
ENDBRANCH  42  43
ENDBRANCH  41  42
ENDBRANCH  40  41
ENDBRANCH  39  40
ENDBRANCH  38  39
ENDBRANCH  37  38
ENDBRANCH  36  37
ENDBRANCH  35  36
ENDBRANCH  34  35
ENDBRANCH  33  34
ENDBRANCH  32  33
ENDBRANCH  31  32
ENDBRANCH  30  31
ENDBRANCH  29  30
ENDBRANCH  28  29
ENDBRANCH  27  28
ENDBRANCH  26  27
ENDBRANCH  25  26
ENDBRANCH  24  25
ENDBRANCH  23  24
ENDBRANCH   1  23
TORSDOF 36
ENDMDL
MODEL 9
REMARK VINA RESULT:      -4.2      2.671      6.973
REMARK WARNING: 32 MAX_TORS EXCEEDED!!!
REMARK  36 active torsions:
REMARK  status: ('A' for Active; 'I' for Inactive)
REMARK    1  A    between atoms: C2_2  and  C3_3 
REMARK    2  A    between atoms: C3_3  and  C4_4 
REMARK    3  A    between atoms: C4_4  and  C5_5 
REMARK    4  A    between atoms: C5_5  and  C6_6 
REMARK    5  A    between atoms: C6_6  and  C7_7 
REMARK    6  A    between atoms: C7_7  and  C8_8 
REMARK    7  A    between atoms: C8_8  and  C9_9 
REMARK    8  A    between atoms: C9_9  and  C10_10 
REMARK    9  A    between atoms: C13_13  and  O14_14 
REMARK   10  A    between atoms: O14_14  and  C15_15 
REMARK   11  A    between atoms: C15_15  and  C16_16 
REMARK   12  A    between atoms: C16_16  and  O17_17 
REMARK   13  A    between atoms: O17_17  and  C18_18 
REMARK   14  A    between atoms: C18_18  and  C19_19 
REMARK   15  A    between atoms: C19_19  and  O20_20 
REMARK   16  A    between atoms: O20_20  and  C21_21 
REMARK   17  A    between atoms: C21_21  and  C22_22 
REMARK   18  A    between atoms: C22_22  and  O23_23 
REMARK   19  A    between atoms: O23_23  and  C24_24 
REMARK   20  A    between atoms: C24_24  and  C25_25 
REMARK   21  A    between atoms: C25_25  and  O26_26 
REMARK   22  A    between atoms: O26_26  and  C27_27 
REMARK   23  A    between atoms: C27_27  and  C28_28 
REMARK   24  A    between atoms: C28_28  and  O29_29 
REMARK   25  A    between atoms: O29_29  and  C30_30 
REMARK   26  A    between atoms: C30_30  and  C31_31 
REMARK   27  A    between atoms: C31_31  and  O32_32 
REMARK   28  A    between atoms: O32_32  and  C33_33 
REMARK   29  A    between atoms: C33_33  and  C34_34 
REMARK   30  A    between atoms: C34_34  and  O35_35 
REMARK   31  A    between atoms: O35_35  and  C36_36 
REMARK   32  A    between atoms: C36_36  and  C37_37 
REMARK   33  A    between atoms: C37_37  and  O38_38 
REMARK   34  A    between atoms: O38_38  and  C39_39 
REMARK   35  A    between atoms: C39_39  and  C40_40 
REMARK   36  A    between atoms: C40_40  and  O41_41 
ROOT
ATOM      1  O20 ZIN A   1      19.444  -1.370  10.282  0.00  0.00    -0.387 OA
ENDROOT
BRANCH   1   2
ATOM      2  C19 ZIN A   1      19.305  -2.792  10.261  0.00  0.00     0.193 C 
BRANCH   2   3
ATOM      3  C18 ZIN A   1      18.441  -3.202   9.067  0.00  0.00     0.193 C 
BRANCH   3   4
ATOM      4  O17 ZIN A   1      19.200  -3.076   7.863  0.00  0.00    -0.387 OA
BRANCH   4   5
ATOM      5  C16 ZIN A   1      18.404  -2.962   6.682  0.00  0.00     0.194 C 
BRANCH   5   6
ATOM      6  C15 ZIN A   1      19.037  -3.787   5.559  0.00  0.00     0.201 C 
BRANCH   6   7
ATOM      7  O14 ZIN A   1      18.684  -3.221   4.295  0.00  0.00    -0.349 OA
BRANCH   7   8
ATOM      8  C13 ZIN A   1      17.804  -3.920   3.531  0.00  0.00     0.068 A 
ATOM      9  C12 ZIN A   1      18.260  -4.921   2.686  0.00  0.00     0.037 A 
ATOM     10  C11 ZIN A   1      17.364  -5.629   1.908  0.00  0.00     0.010 A 
ATOM     11  C10 ZIN A   1      16.013  -5.341   1.974  0.00  0.00    -0.058 A 
ATOM     12  C43 ZIN A   1      15.556  -4.340   2.812  0.00  0.00     0.010 A 
ATOM     13  C42 ZIN A   1      16.448  -3.632   3.593  0.00  0.00     0.037 A 
BRANCH  11  14
ATOM     14  C9  ZIN A   1      15.037  -6.116   1.125  0.00  0.00     0.038 C 
BRANCH  14  15
ATOM     15  C8  ZIN A   1      15.363  -7.607   1.206  0.00  0.00     0.005 C 
BRANCH  15  16
ATOM     16  C7  ZIN A   1      14.874  -8.165   2.544  0.00  0.00     0.000 C 
BRANCH  16  17
ATOM     17  C6  ZIN A   1      13.572  -7.467   2.942  0.00  0.00     0.000 C 
BRANCH  17  18
ATOM     18  C5  ZIN A   1      13.324  -7.666   4.439  0.00  0.00     0.000 C 
BRANCH  18  19
ATOM     19  C4  ZIN A   1      13.602  -6.356   5.180  0.00  0.00     0.000 C 
BRANCH  19  20
ATOM     20  C3  ZIN A   1      14.556  -6.623   6.347  0.00  0.00    -0.000 C 
BRANCH  20  21
ATOM     21  C2  ZIN A   1      15.959  -6.138   5.979  0.00  0.00    -0.005 C 
ATOM     22  C1  ZIN A   1      16.812  -7.331   5.542  0.00  0.00     0.005 C 
ENDBRANCH  20  21
ENDBRANCH  19  20
ENDBRANCH  18  19
ENDBRANCH  17  18
ENDBRANCH  16  17
ENDBRANCH  15  16
ENDBRANCH  14  15
ENDBRANCH  11  14
ENDBRANCH   7   8
ENDBRANCH   6   7
ENDBRANCH   5   6
ENDBRANCH   4   5
ENDBRANCH   3   4
ENDBRANCH   2   3
ENDBRANCH   1   2
BRANCH   1  23
ATOM     23  C21 ZIN A   1      19.143  -0.776  11.546  0.00  0.00     0.193 C 
BRANCH  23  24
ATOM     24  C22 ZIN A   1      20.125   0.366  11.820  0.00  0.00     0.193 C 
BRANCH  24  25
ATOM     25  O23 ZIN A   1      20.638   0.244  13.148  0.00  0.00    -0.387 OA
BRANCH  25  26
ATOM     26  C24 ZIN A   1      19.773  -0.459  14.043  0.00  0.00     0.193 C 
BRANCH  26  27
ATOM     27  C25 ZIN A   1      19.144   0.531  15.026  0.00  0.00     0.193 C 
BRANCH  27  28
ATOM     28  O26 ZIN A   1      17.723   0.518  14.872  0.00  0.00    -0.387 OA
BRANCH  28  29
ATOM     29  C27 ZIN A   1      17.247   1.327  13.795  0.00  0.00     0.193 C 
BRANCH  29  30
ATOM     30  C28 ZIN A   1      17.964   2.678  13.815  0.00  0.00     0.193 C 
BRANCH  30  31
ATOM     31  O29 ZIN A   1      18.105   3.164  12.479  0.00  0.00    -0.387 OA
BRANCH  31  32
ATOM     32  C30 ZIN A   1      17.426   4.397  12.235  0.00  0.00     0.193 C 
BRANCH  32  33
ATOM     33  C31 ZIN A   1      17.036   5.037  13.568  0.00  0.00     0.193 C 
BRANCH  33  34
ATOM     34  O32 ZIN A   1      16.708   6.413  13.359  0.00  0.00    -0.387 OA
BRANCH  34  35
ATOM     35  C33 ZIN A   1      15.942   6.994  14.415  0.00  0.00     0.193 C 
BRANCH  35  36
ATOM     36  C34 ZIN A   1      15.480   5.895  15.375  0.00  0.00     0.193 C 
BRANCH  36  37
ATOM     37  O35 ZIN A   1      15.718   6.308  16.722  0.00  0.00    -0.387 OA
BRANCH  37  38
ATOM     38  C36 ZIN A   1      16.844   7.175  16.874  0.00  0.00     0.193 C 
BRANCH  38  39
ATOM     39  C37 ZIN A   1      18.040   6.372  17.390  0.00  0.00     0.193 C 
BRANCH  39  40
ATOM     40  O38 ZIN A   1      19.232   6.831  16.750  0.00  0.00    -0.387 OA
BRANCH  40  41
ATOM     41  C39 ZIN A   1      19.662   6.006  15.664  0.00  0.00     0.193 C 
BRANCH  41  42
ATOM     42  C40 ZIN A   1      19.863   4.573  16.161  0.00  0.00     0.190 C 
BRANCH  42  43
ATOM     43  O41 ZIN A   1      21.238   4.375  16.500  0.00  0.00    -0.399 OA
ATOM     44 1H10 ZIN A   1      21.428   4.476  17.443  0.00  0.00     0.209 HD
ENDBRANCH  42  43
ENDBRANCH  41  42
ENDBRANCH  40  41
ENDBRANCH  39  40
ENDBRANCH  38  39
ENDBRANCH  37  38
ENDBRANCH  36  37
ENDBRANCH  35  36
ENDBRANCH  34  35
ENDBRANCH  33  34
ENDBRANCH  32  33
ENDBRANCH  31  32
ENDBRANCH  30  31
ENDBRANCH  29  30
ENDBRANCH  28  29
ENDBRANCH  27  28
ENDBRANCH  26  27
ENDBRANCH  25  26
ENDBRANCH  24  25
ENDBRANCH  23  24
ENDBRANCH   1  23
TORSDOF 36
ENDMDL
