MODEL 1
REMARK VINA RESULT:      -7.7      0.000      0.000
REMARK  23 active torsions:
REMARK  status: ('A' for Active; 'I' for Inactive)
REMARK    1  A    between atoms: C2_2  and  C4_4 
REMARK    2  A    between atoms: C4_4  and  N5_5 
REMARK    3  A    between atoms: N5_5  and  C6_6 
REMARK    4  A    between atoms: N5_5  and  C50_49 
REMARK    5  A    between atoms: C6_6  and  C7_7 
REMARK    6  A    between atoms: C7_7  and  N8_8 
REMARK    7  A    between atoms: N8_8  and  C10_10 
REMARK    8  A    between atoms: N8_8  and  C14_14 
REMARK    9  A    between atoms: C10_10  and  C11_11 
REMARK   10  A    between atoms: C14_14  and  C15_15 
REMARK   11  A    between atoms: C15_15  and  C17_16 
REMARK   12  A    between atoms: C15_15  and  N41_40 
REMARK   13  A    between atoms: C17_16  and  O18_17 
REMARK   14  A    between atoms: O18_17  and  P19_18 
REMARK   15  A    between atoms: P19_18  and  O22_21 
REMARK   16  A    between atoms: O22_21  and  C23_22 
REMARK   17  A    between atoms: C26_25  and  C27_26 
REMARK   18  A    between atoms: C26_25  and  C33_32 
REMARK   19  A    between atoms: N41_40  and  C42_41 
REMARK   20  A    between atoms: N41_40  and  C46_45 
REMARK   21  A    between atoms: C42_41  and  C43_42 
REMARK   22  A    between atoms: C46_45  and  C47_46 
REMARK   23  A    between atoms: C50_49  and  C51_50 
ROOT
ATOM      1  C15 ZIN A   1      19.078   2.497  15.339  0.00  0.00     0.274 C 
ENDROOT
BRANCH   1   2
ATOM      2  C14 ZIN A   1      18.047   3.552  15.742  0.00  0.00     0.273 C 
BRANCH   2   3
ATOM      3  N8  ZIN A   1      18.738   4.734  16.273  0.00  0.00    -0.058 N 
ATOM      4  H9  ZIN A   1      19.636   4.461  16.641  0.00  0.00     0.280 HD
BRANCH   3   5
ATOM      5  C7  ZIN A   1      17.931   5.332  17.346  0.00  0.00     0.265 C 
BRANCH   5   6
ATOM      6  C6  ZIN A   1      17.420   6.703  16.897  0.00  0.00     0.301 C 
BRANCH   6   7
ATOM      7  N5  ZIN A   1      15.951   6.707  16.914  0.00  0.00     0.110 N 
BRANCH   7   8
ATOM      8  C4  ZIN A   1      15.412   7.273  15.671  0.00  0.00     0.385 C 
BRANCH   8   9
ATOM      9  C2  ZIN A   1      14.886   6.161  14.800  0.00  0.00     0.202 C 
ATOM     10  O1  ZIN A   1      13.721   5.814  14.890  0.00  0.00    -0.647 OA
ATOM     11  O3  ZIN A   1      15.625   5.611  14.001  0.00  0.00    -0.647 OA
ENDBRANCH   8   9
ENDBRANCH   7   8
BRANCH   7  12
ATOM     12  C50 ZIN A   1      15.441   7.429  18.088  0.00  0.00     0.385 C 
BRANCH  12  13
ATOM     13  C51 ZIN A   1      15.050   6.439  19.155  0.00  0.00     0.202 C 
ATOM     14  O52 ZIN A   1      15.601   6.466  20.243  0.00  0.00    -0.647 OA
ATOM     15  O53 ZIN A   1      14.183   5.612  18.931  0.00  0.00    -0.647 OA
ENDBRANCH  12  13
ENDBRANCH   7  12
ENDBRANCH   6   7
ENDBRANCH   5   6
ENDBRANCH   3   5
BRANCH   3  16
ATOM     16  C10 ZIN A   1      18.926   5.717  15.197  0.00  0.00     0.347 C 
BRANCH  16  17
ATOM     17  C11 ZIN A   1      20.381   6.100  15.116  0.00  0.00     0.199 C 
ATOM     18  O12 ZIN A   1      20.742   6.969  14.341  0.00  0.00    -0.647 OA
ATOM     19  O13 ZIN A   1      21.199   5.540  15.827  0.00  0.00    -0.647 OA
ENDBRANCH  16  17
ENDBRANCH   3  16
ENDBRANCH   2   3
ENDBRANCH   1   2
BRANCH   1  20
ATOM     20  C17 ZIN A   1      19.046   2.306  13.821  0.00  0.00     0.219 C 
BRANCH  20  21
ATOM     21  O18 ZIN A   1      18.169   3.271  13.237  0.00  0.00    -0.288 OA
BRANCH  21  22
ATOM     22  P19 ZIN A   1      18.221   3.673  11.680  0.00  0.00     0.408 P 
ATOM     23  O20 ZIN A   1      18.935   5.034  11.523  0.00  0.00    -0.624 OA
ATOM     24  O21 ZIN A   1      16.782   3.779  11.127  0.00  0.00    -0.624 OA
BRANCH  22  25
ATOM     25  O22 ZIN A   1      19.029   2.546  10.860  0.00  0.00    -0.284 OA
BRANCH  25  26
ATOM     26  C23 ZIN A   1      18.801   1.146  11.031  0.00  0.00     0.134 C 
ATOM     27  C40 ZIN A   1      19.891   0.360  10.299  0.00  0.00     0.034 C 
ATOM     28  C39 ZIN A   1      19.646  -1.140  10.481  0.00  0.00     0.022 C 
ATOM     29  C26 ZIN A   1      18.277  -1.507   9.905  0.00  0.00     0.014 C 
ATOM     30  C25 ZIN A   1      17.188  -0.720  10.637  0.00  0.00     0.022 C 
ATOM     31  C24 ZIN A   1      17.433   0.779  10.455  0.00  0.00     0.034 C 
BRANCH  29  32
ATOM     32  C27 ZIN A   1      18.037  -2.984  10.085  0.00  0.00    -0.045 A 
ATOM     33  C32 ZIN A   1      18.429  -3.612  11.252  0.00  0.00     0.008 A 
ATOM     34  C31 ZIN A   1      18.206  -4.965  11.419  0.00  0.00     0.001 A 
ATOM     35  C30 ZIN A   1      17.597  -5.694  10.413  0.00  0.00     0.000 A 
ATOM     36  C29 ZIN A   1      17.210  -5.068   9.243  0.00  0.00     0.001 A 
ATOM     37  C28 ZIN A   1      17.430  -3.712   9.079  0.00  0.00     0.008 A 
ENDBRANCH  29  32
BRANCH  29  38
ATOM     38  C33 ZIN A   1      18.242  -1.167   8.437  0.00  0.00    -0.045 A 
ATOM     39  C38 ZIN A   1      19.264  -1.587   7.606  0.00  0.00     0.008 A 
ATOM     40  C37 ZIN A   1      19.230  -1.279   6.259  0.00  0.00     0.001 A 
ATOM     41  C36 ZIN A   1      18.180  -0.542   5.745  0.00  0.00     0.000 A 
ATOM     42  C35 ZIN A   1      17.161  -0.118   6.576  0.00  0.00     0.001 A 
ATOM     43  C34 ZIN A   1      17.192  -0.430   7.923  0.00  0.00     0.008 A 
ENDBRANCH  29  38
ENDBRANCH  25  26
ENDBRANCH  22  25
ENDBRANCH  21  22
ENDBRANCH  20  21
ENDBRANCH   1  20
BRANCH   1  44
ATOM     44  N41 ZIN A   1      18.760   1.224  15.999  0.00  0.00     0.117 N 
BRANCH  44  45
ATOM     45  C42 ZIN A   1      18.130   1.452  17.307  0.00  0.00     0.386 C 
BRANCH  45  46
ATOM     46  C43 ZIN A   1      19.144   1.233  18.399  0.00  0.00     0.202 C 
ATOM     47  O44 ZIN A   1      19.798   2.172  18.820  0.00  0.00    -0.647 OA
ATOM     48  O45 ZIN A   1      19.312   0.118  18.861  0.00  0.00    -0.647 OA
ENDBRANCH  45  46
ENDBRANCH  44  45
BRANCH  44  49
ATOM     49  C46 ZIN A   1      17.909   0.385  15.144  0.00  0.00     0.386 C 
BRANCH  49  50
ATOM     50  C47 ZIN A   1      18.562  -0.959  14.950  0.00  0.00     0.202 C 
ATOM     51  O48 ZIN A   1      19.199  -1.464  15.860  0.00  0.00    -0.647 OA
ATOM     52  O49 ZIN A   1      18.454  -1.542  13.885  0.00  0.00    -0.647 OA
ENDBRANCH  49  50
ENDBRANCH  44  49
ENDBRANCH   1  44
TORSDOF 23
ENDMDL
MODEL 2
REMARK VINA RESULT:      -7.4      1.184      2.627
REMARK  23 active torsions:
REMARK  status: ('A' for Active; 'I' for Inactive)
REMARK    1  A    between atoms: C2_2  and  C4_4 
REMARK    2  A    between atoms: C4_4  and  N5_5 
REMARK    3  A    between atoms: N5_5  and  C6_6 
REMARK    4  A    between atoms: N5_5  and  C50_49 
REMARK    5  A    between atoms: C6_6  and  C7_7 
REMARK    6  A    between atoms: C7_7  and  N8_8 
REMARK    7  A    between atoms: N8_8  and  C10_10 
REMARK    8  A    between atoms: N8_8  and  C14_14 
REMARK    9  A    between atoms: C10_10  and  C11_11 
REMARK   10  A    between atoms: C14_14  and  C15_15 
REMARK   11  A    between atoms: C15_15  and  C17_16 
REMARK   12  A    between atoms: C15_15  and  N41_40 
REMARK   13  A    between atoms: C17_16  and  O18_17 
REMARK   14  A    between atoms: O18_17  and  P19_18 
REMARK   15  A    between atoms: P19_18  and  O22_21 
REMARK   16  A    between atoms: O22_21  and  C23_22 
REMARK   17  A    between atoms: C26_25  and  C27_26 
REMARK   18  A    between atoms: C26_25  and  C33_32 
REMARK   19  A    between atoms: N41_40  and  C42_41 
REMARK   20  A    between atoms: N41_40  and  C46_45 
REMARK   21  A    between atoms: C42_41  and  C43_42 
REMARK   22  A    between atoms: C46_45  and  C47_46 
REMARK   23  A    between atoms: C50_49  and  C51_50 
ROOT
ATOM      1  C15 ZIN A   1      18.927   2.380  15.314  0.00  0.00     0.274 C 
ENDROOT
BRANCH   1   2
ATOM      2  C14 ZIN A   1      18.031   3.577  15.633  0.00  0.00     0.273 C 
BRANCH   2   3
ATOM      3  N8  ZIN A   1      18.848   4.668  16.180  0.00  0.00    -0.058 N 
ATOM      4  H9  ZIN A   1      19.759   4.314  16.427  0.00  0.00     0.280 HD
BRANCH   3   5
ATOM      5  C7  ZIN A   1      18.195   5.217  17.377  0.00  0.00     0.265 C 
BRANCH   5   6
ATOM      6  C6  ZIN A   1      16.695   5.366  17.117  0.00  0.00     0.301 C 
BRANCH   6   7
ATOM      7  N5  ZIN A   1      16.173   6.498  17.894  0.00  0.00     0.110 N 
BRANCH   7   8
ATOM      8  C4  ZIN A   1      14.841   6.196  18.434  0.00  0.00     0.385 C 
BRANCH   8   9
ATOM      9  C2  ZIN A   1      14.816   6.504  19.909  0.00  0.00     0.202 C 
ATOM     10  O1  ZIN A   1      14.800   7.662  20.291  0.00  0.00    -0.647 OA
ATOM     11  O3  ZIN A   1      14.807   5.595  20.722  0.00  0.00    -0.647 OA
ENDBRANCH   8   9
ENDBRANCH   7   8
BRANCH   7  12
ATOM     12  C50 ZIN A   1      16.150   7.725  17.087  0.00  0.00     0.385 C 
BRANCH  12  13
ATOM     13  C51 ZIN A   1      17.320   8.596  17.464  0.00  0.00     0.202 C 
ATOM     14  O52 ZIN A   1      17.516   8.883  18.634  0.00  0.00    -0.647 OA
ATOM     15  O53 ZIN A   1      18.073   9.014  16.600  0.00  0.00    -0.647 OA
ENDBRANCH  12  13
ENDBRANCH   7  12
ENDBRANCH   6   7
ENDBRANCH   5   6
ENDBRANCH   3   5
BRANCH   3  16
ATOM     16  C10 ZIN A   1      18.990   5.727  15.172  0.00  0.00     0.347 C 
BRANCH  16  17
ATOM     17  C11 ZIN A   1      20.429   6.169  15.107  0.00  0.00     0.199 C 
ATOM     18  O12 ZIN A   1      20.734   7.164  14.471  0.00  0.00    -0.647 OA
ATOM     19  O13 ZIN A   1      21.289   5.531  15.691  0.00  0.00    -0.647 OA
ENDBRANCH  16  17
ENDBRANCH   3  16
ENDBRANCH   2   3
ENDBRANCH   1   2
BRANCH   1  20
ATOM     20  C17 ZIN A   1      19.068   2.238  13.796  0.00  0.00     0.219 C 
BRANCH  20  21
ATOM     21  O18 ZIN A   1      17.925   2.808  13.156  0.00  0.00    -0.288 OA
BRANCH  21  22
ATOM     22  P19 ZIN A   1      18.011   3.613  11.765  0.00  0.00     0.408 P 
ATOM     23  O20 ZIN A   1      18.927   4.845  11.938  0.00  0.00    -0.624 OA
ATOM     24  O21 ZIN A   1      16.597   4.075  11.349  0.00  0.00    -0.624 OA
BRANCH  22  25
ATOM     25  O22 ZIN A   1      18.618   2.651  10.624  0.00  0.00    -0.284 OA
BRANCH  25  26
ATOM     26  C23 ZIN A   1      18.636   1.227  10.736  0.00  0.00     0.134 C 
ATOM     27  C40 ZIN A   1      19.802   0.666   9.919  0.00  0.00     0.034 C 
ATOM     28  C39 ZIN A   1      19.822  -0.859  10.038  0.00  0.00     0.022 C 
ATOM     29  C26 ZIN A   1      18.505  -1.429   9.506  0.00  0.00     0.014 C 
ATOM     30  C25 ZIN A   1      17.339  -0.868  10.322  0.00  0.00     0.022 C 
ATOM     31  C24 ZIN A   1      17.320   0.657  10.203  0.00  0.00     0.034 C 
BRANCH  29  32
ATOM     32  C27 ZIN A   1      18.524  -2.931   9.623  0.00  0.00    -0.045 A 
ATOM     33  C32 ZIN A   1      19.430  -3.548  10.465  0.00  0.00     0.008 A 
ATOM     34  C31 ZIN A   1      19.446  -4.925  10.576  0.00  0.00     0.001 A 
ATOM     35  C30 ZIN A   1      18.559  -5.688   9.837  0.00  0.00     0.000 A 
ATOM     36  C29 ZIN A   1      17.657  -5.072   8.990  0.00  0.00     0.001 A 
ATOM     37  C28 ZIN A   1      17.639  -3.693   8.884  0.00  0.00     0.008 A 
ENDBRANCH  29  32
BRANCH  29  38
ATOM     38  C33 ZIN A   1      18.338  -1.040   8.059  0.00  0.00    -0.045 A 
ATOM     39  C38 ZIN A   1      17.199  -0.372   7.650  0.00  0.00     0.008 A 
ATOM     40  C37 ZIN A   1      17.047  -0.011   6.324  0.00  0.00     0.001 A 
ATOM     41  C36 ZIN A   1      18.030  -0.327   5.406  0.00  0.00     0.000 A 
ATOM     42  C35 ZIN A   1      19.167  -0.999   5.813  0.00  0.00     0.001 A 
ATOM     43  C34 ZIN A   1      19.321  -1.356   7.140  0.00  0.00     0.008 A 
ENDBRANCH  29  38
ENDBRANCH  25  26
ENDBRANCH  22  25
ENDBRANCH  21  22
ENDBRANCH  20  21
ENDBRANCH   1  20
BRANCH   1  44
ATOM     44  N41 ZIN A   1      18.327   1.158  15.866  0.00  0.00     0.117 N 
BRANCH  44  45
ATOM     45  C42 ZIN A   1      19.229   0.009  15.703  0.00  0.00     0.386 C 
BRANCH  45  46
ATOM     46  C43 ZIN A   1      18.426  -1.211  15.333  0.00  0.00     0.202 C 
ATOM     47  O44 ZIN A   1      17.956  -1.920  16.208  0.00  0.00    -0.647 OA
ATOM     48  O45 ZIN A   1      18.247  -1.491  14.161  0.00  0.00    -0.647 OA
ENDBRANCH  45  46
ENDBRANCH  44  45
BRANCH  44  49
ATOM     49  C46 ZIN A   1      17.959   1.342  17.276  0.00  0.00     0.386 C 
BRANCH  49  50
ATOM     50  C47 ZIN A   1      19.198   1.275  18.131  0.00  0.00     0.202 C 
ATOM     51  O48 ZIN A   1      19.636   0.194  18.486  0.00  0.00    -0.647 OA
ATOM     52  O49 ZIN A   1      19.762   2.302  18.469  0.00  0.00    -0.647 OA
ENDBRANCH  49  50
ENDBRANCH  44  49
ENDBRANCH   1  44
TORSDOF 23
ENDMDL
MODEL 3
REMARK VINA RESULT:      -7.3      2.072      3.790
REMARK  23 active torsions:
REMARK  status: ('A' for Active; 'I' for Inactive)
REMARK    1  A    between atoms: C2_2  and  C4_4 
REMARK    2  A    between atoms: C4_4  and  N5_5 
REMARK    3  A    between atoms: N5_5  and  C6_6 
REMARK    4  A    between atoms: N5_5  and  C50_49 
REMARK    5  A    between atoms: C6_6  and  C7_7 
REMARK    6  A    between atoms: C7_7  and  N8_8 
REMARK    7  A    between atoms: N8_8  and  C10_10 
REMARK    8  A    between atoms: N8_8  and  C14_14 
REMARK    9  A    between atoms: C10_10  and  C11_11 
REMARK   10  A    between atoms: C14_14  and  C15_15 
REMARK   11  A    between atoms: C15_15  and  C17_16 
REMARK   12  A    between atoms: C15_15  and  N41_40 
REMARK   13  A    between atoms: C17_16  and  O18_17 
REMARK   14  A    between atoms: O18_17  and  P19_18 
REMARK   15  A    between atoms: P19_18  and  O22_21 
REMARK   16  A    between atoms: O22_21  and  C23_22 
REMARK   17  A    between atoms: C26_25  and  C27_26 
REMARK   18  A    between atoms: C26_25  and  C33_32 
REMARK   19  A    between atoms: N41_40  and  C42_41 
REMARK   20  A    between atoms: N41_40  and  C46_45 
REMARK   21  A    between atoms: C42_41  and  C43_42 
REMARK   22  A    between atoms: C46_45  and  C47_46 
REMARK   23  A    between atoms: C50_49  and  C51_50 
ROOT
ATOM      1  C15 ZIN A   1      18.617   1.417  14.633  0.00  0.00     0.274 C 
ENDROOT
BRANCH   1   2
ATOM      2  C14 ZIN A   1      17.980   2.805  14.552  0.00  0.00     0.273 C 
BRANCH   2   3
ATOM      3  N8  ZIN A   1      18.431   3.479  13.327  0.00  0.00    -0.058 N 
ATOM      4  H9  ZIN A   1      19.040   2.864  12.809  0.00  0.00     0.280 HD
BRANCH   3   5
ATOM      5  C7  ZIN A   1      19.160   4.705  13.681  0.00  0.00     0.265 C 
BRANCH   5   6
ATOM      6  C6  ZIN A   1      18.326   5.527  14.666  0.00  0.00     0.301 C 
BRANCH   6   7
ATOM      7  N5  ZIN A   1      19.214   6.156  15.653  0.00  0.00     0.110 N 
BRANCH   7   8
ATOM      8  C4  ZIN A   1      20.398   5.324  15.902  0.00  0.00     0.385 C 
BRANCH   8   9
ATOM      9  C2  ZIN A   1      21.624   6.029  15.381  0.00  0.00     0.202 C 
ATOM     10  O1  ZIN A   1      22.734   5.595  15.640  0.00  0.00    -0.647 OA
ATOM     11  O3  ZIN A   1      21.507   7.032  14.697  0.00  0.00    -0.647 OA
ENDBRANCH   8   9
ENDBRANCH   7   8
BRANCH   7  12
ATOM     12  C50 ZIN A   1      18.495   6.437  16.903  0.00  0.00     0.385 C 
BRANCH  12  13
ATOM     13  C51 ZIN A   1      17.507   7.552  16.674  0.00  0.00     0.202 C 
ATOM     14  O52 ZIN A   1      17.875   8.600  16.170  0.00  0.00    -0.647 OA
ATOM     15  O53 ZIN A   1      16.338   7.406  16.991  0.00  0.00    -0.647 OA
ENDBRANCH  12  13
ENDBRANCH   7  12
ENDBRANCH   6   7
ENDBRANCH   5   6
ENDBRANCH   3   5
BRANCH   3  16
ATOM     16  C10 ZIN A   1      17.266   3.824  12.500  0.00  0.00     0.347 C 
BRANCH  16  17
ATOM     17  C11 ZIN A   1      17.717   4.111  11.091  0.00  0.00     0.199 C 
ATOM     18  O12 ZIN A   1      18.331   3.265  10.463  0.00  0.00    -0.647 OA
ATOM     19  O13 ZIN A   1      17.468   5.189  10.580  0.00  0.00    -0.647 OA
ENDBRANCH  16  17
ENDBRANCH   3  16
ENDBRANCH   2   3
ENDBRANCH   1   2
BRANCH   1  20
ATOM     20  C17 ZIN A   1      17.901   0.470  13.668  0.00  0.00     0.219 C 
BRANCH  20  21
ATOM     21  O18 ZIN A   1      18.498   0.567  12.373  0.00  0.00    -0.288 OA
BRANCH  21  22
ATOM     22  P19 ZIN A   1      19.833  -0.231  11.961  0.00  0.00     0.408 P 
ATOM     23  O20 ZIN A   1      21.072   0.555  12.445  0.00  0.00    -0.624 OA
ATOM     24  O21 ZIN A   1      19.887  -0.385  10.426  0.00  0.00    -0.624 OA
BRANCH  22  25
ATOM     25  O22 ZIN A   1      19.821  -1.688  12.647  0.00  0.00    -0.284 OA
BRANCH  25  26
ATOM     26  C23 ZIN A   1      19.203  -2.827  12.045  0.00  0.00     0.134 C 
ATOM     27  C40 ZIN A   1      20.112  -3.377  10.945  0.00  0.00     0.034 C 
ATOM     28  C39 ZIN A   1      19.450  -4.596  10.298  0.00  0.00     0.022 C 
ATOM     29  C26 ZIN A   1      18.107  -4.185   9.692  0.00  0.00     0.014 C 
ATOM     30  C25 ZIN A   1      17.197  -3.634  10.792  0.00  0.00     0.022 C 
ATOM     31  C24 ZIN A   1      17.860  -2.415  11.438  0.00  0.00     0.034 C 
BRANCH  29  32
ATOM     32  C27 ZIN A   1      17.455  -5.386   9.056  0.00  0.00    -0.045 A 
ATOM     33  C32 ZIN A   1      16.083  -5.422   8.892  0.00  0.00     0.008 A 
ATOM     34  C31 ZIN A   1      15.485  -6.522   8.305  0.00  0.00     0.001 A 
ATOM     35  C30 ZIN A   1      16.260  -7.590   7.889  0.00  0.00     0.000 A 
ATOM     36  C29 ZIN A   1      17.631  -7.556   8.059  0.00  0.00     0.001 A 
ATOM     37  C28 ZIN A   1      18.229  -6.454   8.642  0.00  0.00     0.008 A 
ENDBRANCH  29  32
BRANCH  29  38
ATOM     38  C33 ZIN A   1      18.332  -3.123   8.647  0.00  0.00    -0.045 A 
ATOM     39  C38 ZIN A   1      17.588  -1.958   8.674  0.00  0.00     0.008 A 
ATOM     40  C37 ZIN A   1      17.797  -0.982   7.718  0.00  0.00     0.001 A 
ATOM     41  C36 ZIN A   1      18.743  -1.174   6.730  0.00  0.00     0.000 A 
ATOM     42  C35 ZIN A   1      19.484  -2.340   6.699  0.00  0.00     0.001 A 
ATOM     43  C34 ZIN A   1      19.278  -3.315   7.658  0.00  0.00     0.008 A 
ENDBRANCH  29  38
ENDBRANCH  25  26
ENDBRANCH  22  25
ENDBRANCH  21  22
ENDBRANCH  20  21
ENDBRANCH   1  20
BRANCH   1  44
ATOM     44  N41 ZIN A   1      18.495   0.902  16.004  0.00  0.00     0.117 N 
BRANCH  44  45
ATOM     45  C42 ZIN A   1      18.278   1.997  16.960  0.00  0.00     0.386 C 
BRANCH  45  46
ATOM     46  C43 ZIN A   1      19.234   1.852  18.115  0.00  0.00     0.202 C 
ATOM     47  O44 ZIN A   1      19.691   0.756  18.395  0.00  0.00    -0.647 OA
ATOM     48  O45 ZIN A   1      19.552   2.829  18.771  0.00  0.00    -0.647 OA
ENDBRANCH  45  46
ENDBRANCH  44  45
BRANCH  44  49
ATOM     49  C46 ZIN A   1      17.423  -0.098  16.098  0.00  0.00     0.386 C 
BRANCH  49  50
ATOM     50  C47 ZIN A   1      18.010  -1.426  16.502  0.00  0.00     0.202 C 
ATOM     51  O48 ZIN A   1      17.275  -2.351  16.805  0.00  0.00    -0.647 OA
ATOM     52  O49 ZIN A   1      19.220  -1.576  16.526  0.00  0.00    -0.647 OA
ENDBRANCH  49  50
ENDBRANCH  44  49
ENDBRANCH   1  44
TORSDOF 23
ENDMDL
MODEL 4
REMARK VINA RESULT:      -7.2      6.068     12.375
REMARK  23 active torsions:
REMARK  status: ('A' for Active; 'I' for Inactive)
REMARK    1  A    between atoms: C2_2  and  C4_4 
REMARK    2  A    between atoms: C4_4  and  N5_5 
REMARK    3  A    between atoms: N5_5  and  C6_6 
REMARK    4  A    between atoms: N5_5  and  C50_49 
REMARK    5  A    between atoms: C6_6  and  C7_7 
REMARK    6  A    between atoms: C7_7  and  N8_8 
REMARK    7  A    between atoms: N8_8  and  C10_10 
REMARK    8  A    between atoms: N8_8  and  C14_14 
REMARK    9  A    between atoms: C10_10  and  C11_11 
REMARK   10  A    between atoms: C14_14  and  C15_15 
REMARK   11  A    between atoms: C15_15  and  C17_16 
REMARK   12  A    between atoms: C15_15  and  N41_40 
REMARK   13  A    between atoms: C17_16  and  O18_17 
REMARK   14  A    between atoms: O18_17  and  P19_18 
REMARK   15  A    between atoms: P19_18  and  O22_21 
REMARK   16  A    between atoms: O22_21  and  C23_22 
REMARK   17  A    between atoms: C26_25  and  C27_26 
REMARK   18  A    between atoms: C26_25  and  C33_32 
REMARK   19  A    between atoms: N41_40  and  C42_41 
REMARK   20  A    between atoms: N41_40  and  C46_45 
REMARK   21  A    between atoms: C42_41  and  C43_42 
REMARK   22  A    between atoms: C46_45  and  C47_46 
REMARK   23  A    between atoms: C50_49  and  C51_50 
ROOT
ATOM      1  C15 ZIN A   1      18.850  -2.471   7.114  0.00  0.00     0.274 C 
ENDROOT
BRANCH   1   2
ATOM      2  C14 ZIN A   1      17.962  -2.823   5.919  0.00  0.00     0.273 C 
BRANCH   2   3
ATOM      3  N8  ZIN A   1      18.477  -4.035   5.267  0.00  0.00    -0.058 N 
ATOM      4  H9  ZIN A   1      19.454  -4.147   5.489  0.00  0.00     0.280 HD
BRANCH   3   5
ATOM      5  C7  ZIN A   1      18.317  -3.914   3.812  0.00  0.00     0.265 C 
BRANCH   5   6
ATOM      6  C6  ZIN A   1      16.831  -3.784   3.471  0.00  0.00     0.301 C 
BRANCH   6   7
ATOM      7  N5  ZIN A   1      16.457  -4.824   2.503  0.00  0.00     0.110 N 
BRANCH   7   8
ATOM      8  C4  ZIN A   1      17.620  -5.251   1.714  0.00  0.00     0.385 C 
BRANCH   8   9
ATOM      9  C2  ZIN A   1      17.749  -6.751   1.782  0.00  0.00     0.202 C 
ATOM     10  O1  ZIN A   1      18.776  -7.293   1.410  0.00  0.00    -0.647 OA
ATOM     11  O3  ZIN A   1      16.828  -7.423   2.214  0.00  0.00    -0.647 OA
ENDBRANCH   8   9
ENDBRANCH   7   8
BRANCH   7  12
ATOM     12  C50 ZIN A   1      15.367  -4.365   1.631  0.00  0.00     0.385 C 
BRANCH  12  13
ATOM     13  C51 ZIN A   1      14.133  -5.188   1.894  0.00  0.00     0.202 C 
ATOM     14  O52 ZIN A   1      13.590  -5.143   2.986  0.00  0.00    -0.647 OA
ATOM     15  O53 ZIN A   1      13.677  -5.900   1.016  0.00  0.00    -0.647 OA
ENDBRANCH  12  13
ENDBRANCH   7  12
ENDBRANCH   6   7
ENDBRANCH   5   6
ENDBRANCH   3   5
BRANCH   3  16
ATOM     16  C10 ZIN A   1      17.728  -5.204   5.747  0.00  0.00     0.347 C 
BRANCH  16  17
ATOM     17  C11 ZIN A   1      18.686  -6.204   6.342  0.00  0.00     0.199 C 
ATOM     18  O12 ZIN A   1      18.338  -7.361   6.502  0.00  0.00    -0.647 OA
ATOM     19  O13 ZIN A   1      19.809  -5.855   6.663  0.00  0.00    -0.647 OA
ENDBRANCH  16  17
ENDBRANCH   3  16
ENDBRANCH   2   3
ENDBRANCH   1   2
BRANCH   1  20
ATOM     20  C17 ZIN A   1      18.212  -3.003   8.399  0.00  0.00     0.219 C 
BRANCH  20  21
ATOM     21  O18 ZIN A   1      19.222  -3.579   9.230  0.00  0.00    -0.288 OA
BRANCH  21  22
ATOM     22  P19 ZIN A   1      18.893  -4.333  10.613  0.00  0.00     0.408 P 
ATOM     23  O20 ZIN A   1      20.214  -4.772  11.286  0.00  0.00    -0.624 OA
ATOM     24  O21 ZIN A   1      18.023  -5.577  10.328  0.00  0.00    -0.624 OA
BRANCH  22  25
ATOM     25  O22 ZIN A   1      18.098  -3.334  11.594  0.00  0.00    -0.284 OA
BRANCH  25  26
ATOM     26  C23 ZIN A   1      18.358  -1.931  11.653  0.00  0.00     0.134 C 
ATOM     27  C40 ZIN A   1      19.576  -1.676  12.544  0.00  0.00     0.034 C 
ATOM     28  C39 ZIN A   1      19.854  -0.173  12.609  0.00  0.00     0.022 C 
ATOM     29  C26 ZIN A   1      18.636   0.548  13.191  0.00  0.00     0.014 C 
ATOM     30  C25 ZIN A   1      17.418   0.292  12.301  0.00  0.00     0.022 C 
ATOM     31  C24 ZIN A   1      17.140  -1.211  12.236  0.00  0.00     0.034 C 
BRANCH  29  32
ATOM     32  C27 ZIN A   1      18.911   2.027  13.254  0.00  0.00    -0.045 A 
ATOM     33  C32 ZIN A   1      19.361   2.696  12.132  0.00  0.00     0.008 A 
ATOM     34  C31 ZIN A   1      19.610   4.055  12.188  0.00  0.00     0.001 A 
ATOM     35  C30 ZIN A   1      19.415   4.744  13.372  0.00  0.00     0.000 A 
ATOM     36  C29 ZIN A   1      18.970   4.075  14.497  0.00  0.00     0.001 A 
ATOM     37  C28 ZIN A   1      18.717   2.716  14.438  0.00  0.00     0.008 A 
ENDBRANCH  29  32
BRANCH  29  38
ATOM     38  C33 ZIN A   1      18.362   0.027  14.579  0.00  0.00    -0.045 A 
ATOM     39  C38 ZIN A   1      17.175   0.344  15.214  0.00  0.00     0.008 A 
ATOM     40  C37 ZIN A   1      16.921  -0.136  16.485  0.00  0.00     0.001 A 
ATOM     41  C36 ZIN A   1      17.858  -0.925  17.125  0.00  0.00     0.000 A 
ATOM     42  C35 ZIN A   1      19.047  -1.238  16.493  0.00  0.00     0.001 A 
ATOM     43  C34 ZIN A   1      19.299  -0.761  15.220  0.00  0.00     0.008 A 
ENDBRANCH  29  38
ENDBRANCH  25  26
ENDBRANCH  22  25
ENDBRANCH  21  22
ENDBRANCH  20  21
ENDBRANCH   1  20
BRANCH   1  44
ATOM     44  N41 ZIN A   1      18.991  -1.011   7.206  0.00  0.00     0.117 N 
BRANCH  44  45
ATOM     45  C42 ZIN A   1      18.024  -0.333   6.332  0.00  0.00     0.386 C 
BRANCH  45  46
ATOM     46  C43 ZIN A   1      18.720   0.140   5.083  0.00  0.00     0.202 C 
ATOM     47  O44 ZIN A   1      18.322  -0.224   3.989  0.00  0.00    -0.647 OA
ATOM     48  O45 ZIN A   1      19.681   0.885   5.164  0.00  0.00    -0.647 OA
ENDBRANCH  45  46
ENDBRANCH  44  45
BRANCH  44  49
ATOM     49  C46 ZIN A   1      18.854  -0.555   8.596  0.00  0.00     0.386 C 
BRANCH  49  50
ATOM     50  C47 ZIN A   1      18.882   0.951   8.636  0.00  0.00     0.202 C 
ATOM     51  O48 ZIN A   1      17.928   1.566   9.081  0.00  0.00    -0.647 OA
ATOM     52  O49 ZIN A   1      19.857   1.554   8.221  0.00  0.00    -0.647 OA
ENDBRANCH  49  50
ENDBRANCH  44  49
ENDBRANCH   1  44
TORSDOF 23
ENDMDL
MODEL 5
REMARK VINA RESULT:      -7.1      5.360     11.788
REMARK  23 active torsions:
REMARK  status: ('A' for Active; 'I' for Inactive)
REMARK    1  A    between atoms: C2_2  and  C4_4 
REMARK    2  A    between atoms: C4_4  and  N5_5 
REMARK    3  A    between atoms: N5_5  and  C6_6 
REMARK    4  A    between atoms: N5_5  and  C50_49 
REMARK    5  A    between atoms: C6_6  and  C7_7 
REMARK    6  A    between atoms: C7_7  and  N8_8 
REMARK    7  A    between atoms: N8_8  and  C10_10 
REMARK    8  A    between atoms: N8_8  and  C14_14 
REMARK    9  A    between atoms: C10_10  and  C11_11 
REMARK   10  A    between atoms: C14_14  and  C15_15 
REMARK   11  A    between atoms: C15_15  and  C17_16 
REMARK   12  A    between atoms: C15_15  and  N41_40 
REMARK   13  A    between atoms: C17_16  and  O18_17 
REMARK   14  A    between atoms: O18_17  and  P19_18 
REMARK   15  A    between atoms: P19_18  and  O22_21 
REMARK   16  A    between atoms: O22_21  and  C23_22 
REMARK   17  A    between atoms: C26_25  and  C27_26 
REMARK   18  A    between atoms: C26_25  and  C33_32 
REMARK   19  A    between atoms: N41_40  and  C42_41 
REMARK   20  A    between atoms: N41_40  and  C46_45 
REMARK   21  A    between atoms: C42_41  and  C43_42 
REMARK   22  A    between atoms: C46_45  and  C47_46 
REMARK   23  A    between atoms: C50_49  and  C51_50 
ROOT
ATOM      1  C15 ZIN A   1      18.257  -3.332   7.358  0.00  0.00     0.274 C 
ENDROOT
BRANCH   1   2
ATOM      2  C14 ZIN A   1      17.194  -4.201   8.032  0.00  0.00     0.273 C 
BRANCH   2   3
ATOM      3  N8  ZIN A   1      17.820  -5.012   9.085  0.00  0.00    -0.058 N 
ATOM      4  H9  ZIN A   1      18.766  -5.238   8.818  0.00  0.00     0.280 HD
BRANCH   3   5
ATOM      5  C7  ZIN A   1      17.055  -6.253   9.269  0.00  0.00     0.265 C 
BRANCH   5   6
ATOM      6  C6  ZIN A   1      17.423  -7.247   8.165  0.00  0.00     0.301 C 
BRANCH   6   7
ATOM      7  N5  ZIN A   1      16.239  -7.529   7.344  0.00  0.00     0.110 N 
BRANCH   7   8
ATOM      8  C4  ZIN A   1      15.017  -7.041   7.997  0.00  0.00     0.385 C 
BRANCH   8   9
ATOM      9  C2  ZIN A   1      14.014  -6.636   6.947  0.00  0.00     0.202 C 
ATOM     10  O1  ZIN A   1      14.390  -6.097   5.920  0.00  0.00    -0.647 OA
ATOM     11  O3  ZIN A   1      12.827  -6.853   7.121  0.00  0.00    -0.647 OA
ENDBRANCH   8   9
ENDBRANCH   7   8
BRANCH   7  12
ATOM     12  C50 ZIN A   1      16.138  -8.963   7.040  0.00  0.00     0.385 C 
BRANCH  12  13
ATOM     13  C51 ZIN A   1      17.321  -9.383   6.205  0.00  0.00     0.202 C 
ATOM     14  O52 ZIN A   1      18.140 -10.166   6.658  0.00  0.00    -0.647 OA
ATOM     15  O53 ZIN A   1      17.459  -8.941   5.078  0.00  0.00    -0.647 OA
ENDBRANCH  12  13
ENDBRANCH   7  12
ENDBRANCH   6   7
ENDBRANCH   5   6
ENDBRANCH   3   5
BRANCH   3  16
ATOM     16  C10 ZIN A   1      17.834  -4.255  10.344  0.00  0.00     0.347 C 
BRANCH  16  17
ATOM     17  C11 ZIN A   1      19.240  -4.207  10.886  0.00  0.00     0.199 C 
ATOM     18  O12 ZIN A   1      20.135  -4.804  10.313  0.00  0.00    -0.647 OA
ATOM     19  O13 ZIN A   1      19.481  -3.571  11.898  0.00  0.00    -0.647 OA
ENDBRANCH  16  17
ENDBRANCH   3  16
ENDBRANCH   2   3
ENDBRANCH   1   2
BRANCH   1  20
ATOM     20  C17 ZIN A   1      18.142  -1.895   7.872  0.00  0.00     0.219 C 
BRANCH  20  21
ATOM     21  O18 ZIN A   1      19.393  -1.486   8.429  0.00  0.00    -0.288 OA
BRANCH  21  22
ATOM     22  P19 ZIN A   1      19.513  -0.394   9.604  0.00  0.00     0.408 P 
ATOM     23  O20 ZIN A   1      20.911  -0.489  10.255  0.00  0.00    -0.624 OA
ATOM     24  O21 ZIN A   1      18.429  -0.663  10.671  0.00  0.00    -0.624 OA
BRANCH  22  25
ATOM     25  O22 ZIN A   1      19.308   1.081   8.990  0.00  0.00    -0.284 OA
BRANCH  25  26
ATOM     26  C23 ZIN A   1      19.064   2.234   9.799  0.00  0.00     0.134 C 
ATOM     27  C40 ZIN A   1      20.177   2.369  10.840  0.00  0.00     0.034 C 
ATOM     28  C39 ZIN A   1      19.916   3.603  11.707  0.00  0.00     0.022 C 
ATOM     29  C26 ZIN A   1      18.568   3.453  12.416  0.00  0.00     0.014 C 
ATOM     30  C25 ZIN A   1      17.456   3.316  11.374  0.00  0.00     0.022 C 
ATOM     31  C24 ZIN A   1      17.717   2.083  10.508  0.00  0.00     0.034 C 
BRANCH  29  32
ATOM     32  C27 ZIN A   1      18.312   4.667  13.269  0.00  0.00    -0.045 A 
ATOM     33  C32 ZIN A   1      17.140   5.385  13.117  0.00  0.00     0.008 A 
ATOM     34  C31 ZIN A   1      16.902   6.497  13.903  0.00  0.00     0.001 A 
ATOM     35  C30 ZIN A   1      17.842   6.898  14.836  0.00  0.00     0.000 A 
ATOM     36  C29 ZIN A   1      19.017   6.184  14.984  0.00  0.00     0.001 A 
ATOM     37  C28 ZIN A   1      19.251   5.068  14.201  0.00  0.00     0.008 A 
ENDBRANCH  29  32
BRANCH  29  38
ATOM     38  C33 ZIN A   1      18.594   2.223  13.287  0.00  0.00    -0.045 A 
ATOM     39  C38 ZIN A   1      17.471   1.865  14.011  0.00  0.00     0.008 A 
ATOM     40  C37 ZIN A   1      17.493   0.735  14.807  0.00  0.00     0.001 A 
ATOM     41  C36 ZIN A   1      18.640  -0.032  14.886  0.00  0.00     0.000 A 
ATOM     42  C35 ZIN A   1      19.764   0.328  14.167  0.00  0.00     0.001 A 
ATOM     43  C34 ZIN A   1      19.741   1.456  13.368  0.00  0.00     0.008 A 
ENDBRANCH  29  38
ENDBRANCH  25  26
ENDBRANCH  22  25
ENDBRANCH  21  22
ENDBRANCH  20  21
ENDBRANCH   1  20
BRANCH   1  44
ATOM     44  N41 ZIN A   1      18.054  -3.350   5.904  0.00  0.00     0.117 N 
BRANCH  44  45
ATOM     45  C42 ZIN A   1      19.265  -2.912   5.197  0.00  0.00     0.386 C 
BRANCH  45  46
ATOM     46  C43 ZIN A   1      19.056  -1.524   4.653  0.00  0.00     0.202 C 
ATOM     47  O44 ZIN A   1      17.953  -1.184   4.258  0.00  0.00    -0.647 OA
ATOM     48  O45 ZIN A   1      19.988  -0.739   4.605  0.00  0.00    -0.647 OA
ENDBRANCH  45  46
ENDBRANCH  44  45
BRANCH  44  49
ATOM     49  C46 ZIN A   1      17.630  -4.682   5.447  0.00  0.00     0.386 C 
BRANCH  49  50
ATOM     50  C47 ZIN A   1      16.982  -4.565   4.092  0.00  0.00     0.202 C 
ATOM     51  O48 ZIN A   1      15.985  -3.876   3.950  0.00  0.00    -0.647 OA
ATOM     52  O49 ZIN A   1      17.454  -5.158   3.137  0.00  0.00    -0.647 OA
ENDBRANCH  49  50
ENDBRANCH  44  49
ENDBRANCH   1  44
TORSDOF 23
ENDMDL
MODEL 6
REMARK VINA RESULT:      -7.1      1.791      5.790
REMARK  23 active torsions:
REMARK  status: ('A' for Active; 'I' for Inactive)
REMARK    1  A    between atoms: C2_2  and  C4_4 
REMARK    2  A    between atoms: C4_4  and  N5_5 
REMARK    3  A    between atoms: N5_5  and  C6_6 
REMARK    4  A    between atoms: N5_5  and  C50_49 
REMARK    5  A    between atoms: C6_6  and  C7_7 
REMARK    6  A    between atoms: C7_7  and  N8_8 
REMARK    7  A    between atoms: N8_8  and  C10_10 
REMARK    8  A    between atoms: N8_8  and  C14_14 
REMARK    9  A    between atoms: C10_10  and  C11_11 
REMARK   10  A    between atoms: C14_14  and  C15_15 
REMARK   11  A    between atoms: C15_15  and  C17_16 
REMARK   12  A    between atoms: C15_15  and  N41_40 
REMARK   13  A    between atoms: C17_16  and  O18_17 
REMARK   14  A    between atoms: O18_17  and  P19_18 
REMARK   15  A    between atoms: P19_18  and  O22_21 
REMARK   16  A    between atoms: O22_21  and  C23_22 
REMARK   17  A    between atoms: C26_25  and  C27_26 
REMARK   18  A    between atoms: C26_25  and  C33_32 
REMARK   19  A    between atoms: N41_40  and  C42_41 
REMARK   20  A    between atoms: N41_40  and  C46_45 
REMARK   21  A    between atoms: C42_41  and  C43_42 
REMARK   22  A    between atoms: C46_45  and  C47_46 
REMARK   23  A    between atoms: C50_49  and  C51_50 
ROOT
ATOM      1  C15 ZIN A   1      17.880   3.911  14.443  0.00  0.00     0.274 C 
ENDROOT
BRANCH   1   2
ATOM      2  C14 ZIN A   1      19.304   3.370  14.305  0.00  0.00     0.273 C 
BRANCH   2   3
ATOM      3  N8  ZIN A   1      19.416   2.096  15.028  0.00  0.00    -0.058 N 
ATOM      4  H9  ZIN A   1      20.237   2.114  15.615  0.00  0.00     0.280 HD
BRANCH   3   5
ATOM      5  C7  ZIN A   1      19.528   0.993  14.064  0.00  0.00     0.265 C 
BRANCH   5   6
ATOM      6  C6  ZIN A   1      18.234   0.178  14.069  0.00  0.00     0.301 C 
BRANCH   6   7
ATOM      7  N5  ZIN A   1      18.557  -1.255  14.044  0.00  0.00     0.110 N 
BRANCH   7   8
ATOM      8  C4  ZIN A   1      19.551  -1.588  15.072  0.00  0.00     0.385 C 
BRANCH   8   9
ATOM      9  C2  ZIN A   1      18.892  -1.587  16.427  0.00  0.00     0.202 C 
ATOM     10  O1  ZIN A   1      17.715  -1.889  16.534  0.00  0.00    -0.647 OA
ATOM     11  O3  ZIN A   1      19.535  -1.288  17.419  0.00  0.00    -0.647 OA
ENDBRANCH   8   9
ENDBRANCH   7   8
BRANCH   7  12
ATOM     12  C50 ZIN A   1      19.016  -1.668  12.711  0.00  0.00     0.385 C 
BRANCH  12  13
ATOM     13  C51 ZIN A   1      18.240  -2.881  12.266  0.00  0.00     0.202 C 
ATOM     14  O52 ZIN A   1      17.062  -2.775  11.965  0.00  0.00    -0.647 OA
ATOM     15  O53 ZIN A   1      18.789  -3.968  12.206  0.00  0.00    -0.647 OA
ENDBRANCH  12  13
ENDBRANCH   7  12
ENDBRANCH   6   7
ENDBRANCH   5   6
ENDBRANCH   3   5
BRANCH   3  16
ATOM     16  C10 ZIN A   1      18.222   1.899  15.861  0.00  0.00     0.347 C 
BRANCH  16  17
ATOM     17  C11 ZIN A   1      18.597   2.029  17.315  0.00  0.00     0.199 C 
ATOM     18  O12 ZIN A   1      17.814   1.678  18.181  0.00  0.00    -0.647 OA
ATOM     19  O13 ZIN A   1      19.685   2.485  17.625  0.00  0.00    -0.647 OA
ENDBRANCH  16  17
ENDBRANCH   3  16
ENDBRANCH   2   3
ENDBRANCH   1   2
BRANCH   1  20
ATOM     20  C17 ZIN A   1      17.183   3.867  13.081  0.00  0.00     0.219 C 
BRANCH  20  21
ATOM     21  O18 ZIN A   1      17.883   2.971  12.215  0.00  0.00    -0.288 OA
BRANCH  21  22
ATOM     22  P19 ZIN A   1      18.719   3.467  10.933  0.00  0.00     0.408 P 
ATOM     23  O20 ZIN A   1      20.228   3.454  11.265  0.00  0.00    -0.624 OA
ATOM     24  O21 ZIN A   1      18.286   4.901  10.557  0.00  0.00    -0.624 OA
BRANCH  22  25
ATOM     25  O22 ZIN A   1      18.436   2.478   9.692  0.00  0.00    -0.284 OA
BRANCH  25  26
ATOM     26  C23 ZIN A   1      18.463   1.055   9.810  0.00  0.00     0.134 C 
ATOM     27  C40 ZIN A   1      19.694   0.508   9.082  0.00  0.00     0.034 C 
ATOM     28  C39 ZIN A   1      19.723  -1.017   9.207  0.00  0.00     0.022 C 
ATOM     29  C26 ZIN A   1      18.457  -1.605   8.581  0.00  0.00     0.014 C 
ATOM     30  C25 ZIN A   1      17.226  -1.057   9.308  0.00  0.00     0.022 C 
ATOM     31  C24 ZIN A   1      17.198   0.468   9.183  0.00  0.00     0.034 C 
BRANCH  29  32
ATOM     32  C27 ZIN A   1      18.486  -3.106   8.704  0.00  0.00    -0.045 A 
ATOM     33  C32 ZIN A   1      19.682  -3.758   8.937  0.00  0.00     0.008 A 
ATOM     34  C31 ZIN A   1      19.709  -5.135   9.054  0.00  0.00     0.001 A 
ATOM     35  C30 ZIN A   1      18.539  -5.862   8.929  0.00  0.00     0.000 A 
ATOM     36  C29 ZIN A   1      17.343  -5.211   8.690  0.00  0.00     0.001 A 
ATOM     37  C28 ZIN A   1      17.316  -3.833   8.578  0.00  0.00     0.008 A 
ENDBRANCH  29  32
BRANCH  29  38
ATOM     38  C33 ZIN A   1      18.392  -1.221   7.125  0.00  0.00    -0.045 A 
ATOM     39  C38 ZIN A   1      19.425  -1.566   6.273  0.00  0.00     0.008 A 
ATOM     40  C37 ZIN A   1      19.365  -1.217   4.937  0.00  0.00     0.001 A 
ATOM     41  C36 ZIN A   1      18.276  -0.516   4.454  0.00  0.00     0.000 A 
ATOM     42  C35 ZIN A   1      17.245  -0.167   5.307  0.00  0.00     0.001 A 
ATOM     43  C34 ZIN A   1      17.304  -0.519   6.642  0.00  0.00     0.008 A 
ENDBRANCH  29  38
ENDBRANCH  25  26
ENDBRANCH  22  25
ENDBRANCH  21  22
ENDBRANCH  20  21
ENDBRANCH   1  20
BRANCH   1  44
ATOM     44  N41 ZIN A   1      17.928   5.298  14.923  0.00  0.00     0.117 N 
BRANCH  44  45
ATOM     45  C42 ZIN A   1      16.609   5.735  15.404  0.00  0.00     0.386 C 
BRANCH  45  46
ATOM     46  C43 ZIN A   1      16.588   7.237  15.516  0.00  0.00     0.202 C 
ATOM     47  O44 ZIN A   1      16.737   7.925  14.520  0.00  0.00    -0.647 OA
ATOM     48  O45 ZIN A   1      16.421   7.765  16.601  0.00  0.00    -0.647 OA
ENDBRANCH  45  46
ENDBRANCH  44  45
BRANCH  44  49
ATOM     49  C46 ZIN A   1      18.948   5.459  15.969  0.00  0.00     0.386 C 
BRANCH  49  50
ATOM     50  C47 ZIN A   1      20.096   6.273  15.430  0.00  0.00     0.202 C 
ATOM     51  O48 ZIN A   1      19.916   7.034  14.494  0.00  0.00    -0.647 OA
ATOM     52  O49 ZIN A   1      21.204   6.170  15.928  0.00  0.00    -0.647 OA
ENDBRANCH  49  50
ENDBRANCH  44  49
ENDBRANCH   1  44
TORSDOF 23
ENDMDL
MODEL 7
REMARK VINA RESULT:      -7.0      1.467      3.170
REMARK  23 active torsions:
REMARK  status: ('A' for Active; 'I' for Inactive)
REMARK    1  A    between atoms: C2_2  and  C4_4 
REMARK    2  A    between atoms: C4_4  and  N5_5 
REMARK    3  A    between atoms: N5_5  and  C6_6 
REMARK    4  A    between atoms: N5_5  and  C50_49 
REMARK    5  A    between atoms: C6_6  and  C7_7 
REMARK    6  A    between atoms: C7_7  and  N8_8 
REMARK    7  A    between atoms: N8_8  and  C10_10 
REMARK    8  A    between atoms: N8_8  and  C14_14 
REMARK    9  A    between atoms: C10_10  and  C11_11 
REMARK   10  A    between atoms: C14_14  and  C15_15 
REMARK   11  A    between atoms: C15_15  and  C17_16 
REMARK   12  A    between atoms: C15_15  and  N41_40 
REMARK   13  A    between atoms: C17_16  and  O18_17 
REMARK   14  A    between atoms: O18_17  and  P19_18 
REMARK   15  A    between atoms: P19_18  and  O22_21 
REMARK   16  A    between atoms: O22_21  and  C23_22 
REMARK   17  A    between atoms: C26_25  and  C27_26 
REMARK   18  A    between atoms: C26_25  and  C33_32 
REMARK   19  A    between atoms: N41_40  and  C42_41 
REMARK   20  A    between atoms: N41_40  and  C46_45 
REMARK   21  A    between atoms: C42_41  and  C43_42 
REMARK   22  A    between atoms: C46_45  and  C47_46 
REMARK   23  A    between atoms: C50_49  and  C51_50 
ROOT
ATOM      1  C15 ZIN A   1      18.653   3.077  15.362  0.00  0.00     0.274 C 
ENDROOT
BRANCH   1   2
ATOM      2  C14 ZIN A   1      18.439   4.066  16.509  0.00  0.00     0.273 C 
BRANCH   2   3
ATOM      3  N8  ZIN A   1      19.429   5.147  16.415  0.00  0.00    -0.058 N 
ATOM      4  H9  ZIN A   1      20.145   5.009  17.112  0.00  0.00     0.280 HD
BRANCH   3   5
ATOM      5  C7  ZIN A   1      18.767   6.439  16.642  0.00  0.00     0.265 C 
BRANCH   5   6
ATOM      6  C6  ZIN A   1      17.253   6.232  16.705  0.00  0.00     0.301 C 
BRANCH   6   7
ATOM      7  N5  ZIN A   1      16.777   6.501  18.068  0.00  0.00     0.110 N 
BRANCH   7   8
ATOM      8  C4  ZIN A   1      15.532   5.773  18.345  0.00  0.00     0.385 C 
BRANCH   8   9
ATOM      9  C2  ZIN A   1      15.752   4.818  19.489  0.00  0.00     0.202 C 
ATOM     10  O1  ZIN A   1      16.841   4.292  19.644  0.00  0.00    -0.647 OA
ATOM     11  O3  ZIN A   1      14.844   4.574  20.264  0.00  0.00    -0.647 OA
ENDBRANCH   8   9
ENDBRANCH   7   8
BRANCH   7  12
ATOM     12  C50 ZIN A   1      16.607   7.943  18.292  0.00  0.00     0.385 C 
BRANCH  12  13
ATOM     13  C51 ZIN A   1      17.113   8.301  19.666  0.00  0.00     0.202 C 
ATOM     14  O52 ZIN A   1      16.323   8.576  20.554  0.00  0.00    -0.647 OA
ATOM     15  O53 ZIN A   1      18.311   8.316  19.889  0.00  0.00    -0.647 OA
ENDBRANCH  12  13
ENDBRANCH   7  12
ENDBRANCH   6   7
ENDBRANCH   5   6
ENDBRANCH   3   5
BRANCH   3  16
ATOM     16  C10 ZIN A   1      20.039   5.138  15.078  0.00  0.00     0.347 C 
BRANCH  16  17
ATOM     17  C11 ZIN A   1      21.111   6.195  15.008  0.00  0.00     0.199 C 
ATOM     18  O12 ZIN A   1      22.186   6.010  15.553  0.00  0.00    -0.647 OA
ATOM     19  O13 ZIN A   1      20.904   7.235  14.406  0.00  0.00    -0.647 OA
ENDBRANCH  16  17
ENDBRANCH   3  16
ENDBRANCH   2   3
ENDBRANCH   1   2
BRANCH   1  20
ATOM     20  C17 ZIN A   1      17.467   3.149  14.398  0.00  0.00     0.219 C 
BRANCH  20  21
ATOM     21  O18 ZIN A   1      17.738   4.114  13.379  0.00  0.00    -0.288 OA
BRANCH  21  22
ATOM     22  P19 ZIN A   1      17.857   3.733  11.820  0.00  0.00     0.408 P 
ATOM     23  O20 ZIN A   1      19.078   4.454  11.205  0.00  0.00    -0.624 OA
ATOM     24  O21 ZIN A   1      16.573   4.174  11.083  0.00  0.00    -0.624 OA
BRANCH  22  25
ATOM     25  O22 ZIN A   1      18.043   2.140  11.669  0.00  0.00    -0.284 OA
BRANCH  25  26
ATOM     26  C23 ZIN A   1      18.212   1.493  10.407  0.00  0.00     0.134 C 
ATOM     27  C40 ZIN A   1      17.083   0.482  10.198  0.00  0.00     0.034 C 
ATOM     28  C39 ZIN A   1      17.264  -0.212   8.846  0.00  0.00     0.022 C 
ATOM     29  C26 ZIN A   1      18.611  -0.938   8.821  0.00  0.00     0.014 C 
ATOM     30  C25 ZIN A   1      19.740   0.073   9.031  0.00  0.00     0.022 C 
ATOM     31  C24 ZIN A   1      19.558   0.767  10.383  0.00  0.00     0.034 C 
BRANCH  29  32
ATOM     32  C27 ZIN A   1      18.789  -1.621   7.491  0.00  0.00    -0.045 A 
ATOM     33  C32 ZIN A   1      19.401  -2.859   7.424  0.00  0.00     0.008 A 
ATOM     34  C31 ZIN A   1      19.561  -3.488   6.204  0.00  0.00     0.001 A 
ATOM     35  C30 ZIN A   1      19.116  -2.874   5.047  0.00  0.00     0.000 A 
ATOM     36  C29 ZIN A   1      18.510  -1.633   5.112  0.00  0.00     0.001 A 
ATOM     37  C28 ZIN A   1      18.346  -1.007   6.334  0.00  0.00     0.008 A 
ENDBRANCH  29  32
BRANCH  29  38
ATOM     38  C33 ZIN A   1      18.646  -1.966   9.923  0.00  0.00    -0.045 A 
ATOM     39  C38 ZIN A   1      19.801  -2.149  10.661  0.00  0.00     0.008 A 
ATOM     40  C37 ZIN A   1      19.833  -3.089  11.674  0.00  0.00     0.001 A 
ATOM     41  C36 ZIN A   1      18.713  -3.853  11.943  0.00  0.00     0.000 A 
ATOM     42  C35 ZIN A   1      17.559  -3.674  11.202  0.00  0.00     0.001 A 
ATOM     43  C34 ZIN A   1      17.527  -2.731  10.192  0.00  0.00     0.008 A 
ENDBRANCH  29  38
ENDBRANCH  25  26
ENDBRANCH  22  25
ENDBRANCH  21  22
ENDBRANCH  20  21
ENDBRANCH   1  20
BRANCH   1  44
ATOM     44  N41 ZIN A   1      18.762   1.716  15.903  0.00  0.00     0.117 N 
BRANCH  44  45
ATOM     45  C42 ZIN A   1      18.528   1.706  17.354  0.00  0.00     0.386 C 
BRANCH  45  46
ATOM     46  C43 ZIN A   1      18.750   0.315  17.889  0.00  0.00     0.202 C 
ATOM     47  O44 ZIN A   1      17.818  -0.469  17.955  0.00  0.00    -0.647 OA
ATOM     48  O45 ZIN A   1      19.861  -0.027  18.256  0.00  0.00    -0.647 OA
ENDBRANCH  45  46
ENDBRANCH  44  45
BRANCH  44  49
ATOM     49  C46 ZIN A   1      17.841   0.800  15.215  0.00  0.00     0.386 C 
BRANCH  49  50
ATOM     50  C47 ZIN A   1      18.618  -0.068  14.259  0.00  0.00     0.202 C 
ATOM     51  O48 ZIN A   1      19.837  -0.086  14.305  0.00  0.00    -0.647 OA
ATOM     52  O49 ZIN A   1      18.029  -0.751  13.439  0.00  0.00    -0.647 OA
ENDBRANCH  49  50
ENDBRANCH  44  49
ENDBRANCH   1  44
TORSDOF 23
ENDMDL
MODEL 8
REMARK VINA RESULT:      -7.0      1.663      5.682
REMARK  23 active torsions:
REMARK  status: ('A' for Active; 'I' for Inactive)
REMARK    1  A    between atoms: C2_2  and  C4_4 
REMARK    2  A    between atoms: C4_4  and  N5_5 
REMARK    3  A    between atoms: N5_5  and  C6_6 
REMARK    4  A    between atoms: N5_5  and  C50_49 
REMARK    5  A    between atoms: C6_6  and  C7_7 
REMARK    6  A    between atoms: C7_7  and  N8_8 
REMARK    7  A    between atoms: N8_8  and  C10_10 
REMARK    8  A    between atoms: N8_8  and  C14_14 
REMARK    9  A    between atoms: C10_10  and  C11_11 
REMARK   10  A    between atoms: C14_14  and  C15_15 
REMARK   11  A    between atoms: C15_15  and  C17_16 
REMARK   12  A    between atoms: C15_15  and  N41_40 
REMARK   13  A    between atoms: C17_16  and  O18_17 
REMARK   14  A    between atoms: O18_17  and  P19_18 
REMARK   15  A    between atoms: P19_18  and  O22_21 
REMARK   16  A    between atoms: O22_21  and  C23_22 
REMARK   17  A    between atoms: C26_25  and  C27_26 
REMARK   18  A    between atoms: C26_25  and  C33_32 
REMARK   19  A    between atoms: N41_40  and  C42_41 
REMARK   20  A    between atoms: N41_40  and  C46_45 
REMARK   21  A    between atoms: C42_41  and  C43_42 
REMARK   22  A    between atoms: C46_45  and  C47_46 
REMARK   23  A    between atoms: C50_49  and  C51_50 
ROOT
ATOM      1  C15 ZIN A   1      17.812   5.279  15.542  0.00  0.00     0.274 C 
ENDROOT
BRANCH   1   2
ATOM      2  C14 ZIN A   1      18.821   5.524  16.665  0.00  0.00     0.273 C 
BRANCH   2   3
ATOM      3  N8  ZIN A   1      18.734   4.435  17.648  0.00  0.00    -0.058 N 
ATOM      4  H9  ZIN A   1      19.138   4.737  18.521  0.00  0.00     0.280 HD
BRANCH   3   5
ATOM      5  C7  ZIN A   1      19.468   3.264  17.148  0.00  0.00     0.265 C 
BRANCH   5   6
ATOM      6  C6  ZIN A   1      18.495   2.310  16.453  0.00  0.00     0.301 C 
BRANCH   6   7
ATOM      7  N5  ZIN A   1      19.204   1.084  16.065  0.00  0.00     0.110 N 
BRANCH   7   8
ATOM      8  C4  ZIN A   1      18.661   0.535  14.816  0.00  0.00     0.385 C 
BRANCH   8   9
ATOM      9  C2  ZIN A   1      19.696  -0.348  14.165  0.00  0.00     0.202 C 
ATOM     10  O1  ZIN A   1      20.579   0.146  13.486  0.00  0.00    -0.647 OA
ATOM     11  O3  ZIN A   1      19.652  -1.556  14.323  0.00  0.00    -0.647 OA
ENDBRANCH   8   9
ENDBRANCH   7   8
BRANCH   7  12
ATOM     12  C50 ZIN A   1      19.159   0.087  17.143  0.00  0.00     0.385 C 
BRANCH  12  13
ATOM     13  C51 ZIN A   1      17.723  -0.209  17.494  0.00  0.00     0.202 C 
ATOM     14  O52 ZIN A   1      17.146  -1.144  16.966  0.00  0.00    -0.647 OA
ATOM     15  O53 ZIN A   1      17.139   0.487  18.308  0.00  0.00    -0.647 OA
ENDBRANCH  12  13
ENDBRANCH   7  12
ENDBRANCH   6   7
ENDBRANCH   5   6
ENDBRANCH   3   5
BRANCH   3  16
ATOM     16  C10 ZIN A   1      17.324   4.076  17.857  0.00  0.00     0.347 C 
BRANCH  16  17
ATOM     17  C11 ZIN A   1      16.876   4.570  19.209  0.00  0.00     0.199 C 
ATOM     18  O12 ZIN A   1      17.699   4.967  20.016  0.00  0.00    -0.647 OA
ATOM     19  O13 ZIN A   1      15.691   4.573  19.494  0.00  0.00    -0.647 OA
ENDBRANCH  16  17
ENDBRANCH   3  16
ENDBRANCH   2   3
ENDBRANCH   1   2
BRANCH   1  20
ATOM     20  C17 ZIN A   1      18.546   5.220  14.201  0.00  0.00     0.219 C 
BRANCH  20  21
ATOM     21  O18 ZIN A   1      18.242   3.987  13.545  0.00  0.00    -0.288 OA
BRANCH  21  22
ATOM     22  P19 ZIN A   1      18.743   3.639  12.056  0.00  0.00     0.408 P 
ATOM     23  O20 ZIN A   1      20.265   3.889  11.953  0.00  0.00    -0.624 OA
ATOM     24  O21 ZIN A   1      18.004   4.538  11.040  0.00  0.00    -0.624 OA
BRANCH  22  25
ATOM     25  O22 ZIN A   1      18.432   2.093  11.731  0.00  0.00    -0.284 OA
BRANCH  25  26
ATOM     26  C23 ZIN A   1      18.434   1.560  10.406  0.00  0.00     0.134 C 
ATOM     27  C40 ZIN A   1      17.241   0.617  10.234  0.00  0.00     0.034 C 
ATOM     28  C39 ZIN A   1      17.244   0.046   8.814  0.00  0.00     0.022 C 
ATOM     29  C26 ZIN A   1      18.544  -0.726   8.577  0.00  0.00     0.014 C 
ATOM     30  C25 ZIN A   1      19.736   0.217   8.750  0.00  0.00     0.022 C 
ATOM     31  C24 ZIN A   1      19.733   0.788  10.169  0.00  0.00     0.034 C 
BRANCH  29  32
ATOM     32  C27 ZIN A   1      18.546  -1.288   7.179  0.00  0.00    -0.045 A 
ATOM     33  C32 ZIN A   1      17.696  -0.767   6.222  0.00  0.00     0.008 A 
ATOM     34  C31 ZIN A   1      17.701  -1.279   4.939  0.00  0.00     0.001 A 
ATOM     35  C30 ZIN A   1      18.550  -2.322   4.614  0.00  0.00     0.000 A 
ATOM     36  C29 ZIN A   1      19.396  -2.849   5.573  0.00  0.00     0.001 A 
ATOM     37  C28 ZIN A   1      19.394  -2.332   6.855  0.00  0.00     0.008 A 
ENDBRANCH  29  32
BRANCH  29  38
ATOM     38  C33 ZIN A   1      18.646  -1.853   9.572  0.00  0.00    -0.045 A 
ATOM     39  C38 ZIN A   1      19.737  -1.931  10.418  0.00  0.00     0.008 A 
ATOM     40  C37 ZIN A   1      19.830  -2.962  11.334  0.00  0.00     0.001 A 
ATOM     41  C36 ZIN A   1      18.837  -3.921  11.398  0.00  0.00     0.000 A 
ATOM     42  C35 ZIN A   1      17.748  -3.847  10.549  0.00  0.00     0.001 A 
ATOM     43  C34 ZIN A   1      17.654  -2.813   9.636  0.00  0.00     0.008 A 
ENDBRANCH  29  38
ENDBRANCH  25  26
ENDBRANCH  22  25
ENDBRANCH  21  22
ENDBRANCH  20  21
ENDBRANCH   1  20
BRANCH   1  44
ATOM     44  N41 ZIN A   1      16.833   6.374  15.516  0.00  0.00     0.117 N 
BRANCH  44  45
ATOM     45  C42 ZIN A   1      17.466   7.637  15.111  0.00  0.00     0.386 C 
BRANCH  45  46
ATOM     46  C43 ZIN A   1      17.450   8.601  16.268  0.00  0.00     0.202 C 
ATOM     47  O44 ZIN A   1      18.128   9.615  16.225  0.00  0.00    -0.647 OA
ATOM     48  O45 ZIN A   1      16.761   8.370  17.246  0.00  0.00    -0.647 OA
ENDBRANCH  45  46
ENDBRANCH  44  45
BRANCH  44  49
ATOM     49  C46 ZIN A   1      15.701   6.048  14.638  0.00  0.00     0.386 C 
BRANCH  49  50
ATOM     50  C47 ZIN A   1      14.409   6.307  15.369  0.00  0.00     0.202 C 
ATOM     51  O48 ZIN A   1      13.407   6.616  14.745  0.00  0.00    -0.647 OA
ATOM     52  O49 ZIN A   1      14.364   6.207  16.583  0.00  0.00    -0.647 OA
ENDBRANCH  49  50
ENDBRANCH  44  49
ENDBRANCH   1  44
TORSDOF 23
ENDMDL
MODEL 9
REMARK VINA RESULT:      -6.9      2.094      4.034
REMARK  23 active torsions:
REMARK  status: ('A' for Active; 'I' for Inactive)
REMARK    1  A    between atoms: C2_2  and  C4_4 
REMARK    2  A    between atoms: C4_4  and  N5_5 
REMARK    3  A    between atoms: N5_5  and  C6_6 
REMARK    4  A    between atoms: N5_5  and  C50_49 
REMARK    5  A    between atoms: C6_6  and  C7_7 
REMARK    6  A    between atoms: C7_7  and  N8_8 
REMARK    7  A    between atoms: N8_8  and  C10_10 
REMARK    8  A    between atoms: N8_8  and  C14_14 
REMARK    9  A    between atoms: C10_10  and  C11_11 
REMARK   10  A    between atoms: C14_14  and  C15_15 
REMARK   11  A    between atoms: C15_15  and  C17_16 
REMARK   12  A    between atoms: C15_15  and  N41_40 
REMARK   13  A    between atoms: C17_16  and  O18_17 
REMARK   14  A    between atoms: O18_17  and  P19_18 
REMARK   15  A    between atoms: P19_18  and  O22_21 
REMARK   16  A    between atoms: O22_21  and  C23_22 
REMARK   17  A    between atoms: C26_25  and  C27_26 
REMARK   18  A    between atoms: C26_25  and  C33_32 
REMARK   19  A    between atoms: N41_40  and  C42_41 
REMARK   20  A    between atoms: N41_40  and  C46_45 
REMARK   21  A    between atoms: C42_41  and  C43_42 
REMARK   22  A    between atoms: C46_45  and  C47_46 
REMARK   23  A    between atoms: C50_49  and  C51_50 
ROOT
ATOM      1  C15 ZIN A   1      18.880   1.548  14.638  0.00  0.00     0.274 C 
ENDROOT
BRANCH   1   2
ATOM      2  C14 ZIN A   1      17.807   2.301  13.851  0.00  0.00     0.273 C 
BRANCH   2   3
ATOM      3  N8  ZIN A   1      18.442   3.082  12.781  0.00  0.00    -0.058 N 
ATOM      4  H9  ZIN A   1      19.327   2.663  12.539  0.00  0.00     0.280 HD
BRANCH   3   5
ATOM      5  C7  ZIN A   1      18.663   4.459  13.244  0.00  0.00     0.265 C 
BRANCH   5   6
ATOM      6  C6  ZIN A   1      17.324   5.196  13.310  0.00  0.00     0.301 C 
BRANCH   6   7
ATOM      7  N5  ZIN A   1      17.265   5.996  14.540  0.00  0.00     0.110 N 
BRANCH   7   8
ATOM      8  C4  ZIN A   1      16.020   6.772  14.604  0.00  0.00     0.385 C 
BRANCH   8   9
ATOM      9  C2  ZIN A   1      15.221   6.339  15.806  0.00  0.00     0.202 C 
ATOM     10  O1  ZIN A   1      15.763   5.727  16.711  0.00  0.00    -0.647 OA
ATOM     11  O3  ZIN A   1      14.033   6.604  15.877  0.00  0.00    -0.647 OA
ENDBRANCH   8   9
ENDBRANCH   7   8
BRANCH   7  12
ATOM     12  C50 ZIN A   1      18.440   6.872  14.655  0.00  0.00     0.385 C 
BRANCH  12  13
ATOM     13  C51 ZIN A   1      19.162   6.576  15.945  0.00  0.00     0.202 C 
ATOM     14  O52 ZIN A   1      20.299   6.136  15.920  0.00  0.00    -0.647 OA
ATOM     15  O53 ZIN A   1      18.609   6.778  17.013  0.00  0.00    -0.647 OA
ENDBRANCH  12  13
ENDBRANCH   7  12
ENDBRANCH   6   7
ENDBRANCH   5   6
ENDBRANCH   3   5
BRANCH   3  16
ATOM     16  C10 ZIN A   1      17.567   3.097  11.600  0.00  0.00     0.347 C 
BRANCH  16  17
ATOM     17  C11 ZIN A   1      18.391   3.371  10.369  0.00  0.00     0.199 C 
ATOM     18  O12 ZIN A   1      19.386   2.705  10.139  0.00  0.00    -0.647 OA
ATOM     19  O13 ZIN A   1      18.062   4.260   9.601  0.00  0.00    -0.647 OA
ENDBRANCH  16  17
ENDBRANCH   3  16
ENDBRANCH   2   3
ENDBRANCH   1   2
BRANCH   1  20
ATOM     20  C17 ZIN A   1      18.838   0.064  14.267  0.00  0.00     0.219 C 
BRANCH  20  21
ATOM     21  O18 ZIN A   1      18.584  -0.071  12.868  0.00  0.00    -0.288 OA
BRANCH  21  22
ATOM     22  P19 ZIN A   1      19.672  -0.645  11.831  0.00  0.00     0.408 P 
ATOM     23  O20 ZIN A   1      20.985   0.159  11.963  0.00  0.00    -0.624 OA
ATOM     24  O21 ZIN A   1      19.131  -0.515  10.390  0.00  0.00    -0.624 OA
BRANCH  22  25
ATOM     25  O22 ZIN A   1      19.960  -2.196  12.158  0.00  0.00    -0.284 OA
BRANCH  25  26
ATOM     26  C23 ZIN A   1      19.170  -3.263  11.628  0.00  0.00     0.134 C 
ATOM     27  C40 ZIN A   1      20.016  -4.088  10.657  0.00  0.00     0.034 C 
ATOM     28  C39 ZIN A   1      19.171  -5.230  10.088  0.00  0.00     0.022 C 
ATOM     29  C26 ZIN A   1      17.962  -4.651   9.349  0.00  0.00     0.014 C 
ATOM     30  C25 ZIN A   1      17.117  -3.825  10.320  0.00  0.00     0.022 C 
ATOM     31  C24 ZIN A   1      17.963  -2.683  10.888  0.00  0.00     0.034 C 
BRANCH  29  32
ATOM     32  C27 ZIN A   1      17.130  -5.775   8.789  0.00  0.00    -0.045 A 
ATOM     33  C32 ZIN A   1      15.772  -5.603   8.599  0.00  0.00     0.008 A 
ATOM     34  C31 ZIN A   1      15.009  -6.632   8.083  0.00  0.00     0.001 A 
ATOM     35  C30 ZIN A   1      15.603  -7.840   7.763  0.00  0.00     0.000 A 
ATOM     36  C29 ZIN A   1      16.960  -8.015   7.958  0.00  0.00     0.001 A 
ATOM     37  C28 ZIN A   1      17.724  -6.983   8.471  0.00  0.00     0.008 A 
ENDBRANCH  29  32
BRANCH  29  38
ATOM     38  C33 ZIN A   1      18.439  -3.770   8.223  0.00  0.00    -0.045 A 
ATOM     39  C38 ZIN A   1      17.893  -2.511   8.051  0.00  0.00     0.008 A 
ATOM     40  C37 ZIN A   1      18.333  -1.701   7.021  0.00  0.00     0.001 A 
ATOM     41  C36 ZIN A   1      19.311  -2.153   6.156  0.00  0.00     0.000 A 
ATOM     42  C35 ZIN A   1      19.854  -3.413   6.324  0.00  0.00     0.001 A 
ATOM     43  C34 ZIN A   1      19.417  -4.222   7.357  0.00  0.00     0.008 A 
ENDBRANCH  29  38
ENDBRANCH  25  26
ENDBRANCH  22  25
ENDBRANCH  21  22
ENDBRANCH  20  21
ENDBRANCH   1  20
BRANCH   1  44
ATOM     44  N41 ZIN A   1      18.628   1.700  16.078  0.00  0.00     0.117 N 
BRANCH  44  45
ATOM     45  C42 ZIN A   1      18.805   0.422  16.781  0.00  0.00     0.386 C 
BRANCH  45  46
ATOM     46  C43 ZIN A   1      17.489  -0.014  17.369  0.00  0.00     0.202 C 
ATOM     47  O44 ZIN A   1      16.850  -0.907  16.838  0.00  0.00    -0.647 OA
ATOM     48  O45 ZIN A   1      17.062   0.524  18.376  0.00  0.00    -0.647 OA
ENDBRANCH  45  46
ENDBRANCH  44  45
BRANCH  44  49
ATOM     49  C46 ZIN A   1      19.488   2.742  16.656  0.00  0.00     0.386 C 
BRANCH  49  50
ATOM     50  C47 ZIN A   1      19.041   3.038  18.064  0.00  0.00     0.202 C 
ATOM     51  O48 ZIN A   1      19.641   2.552  19.009  0.00  0.00    -0.647 OA
ATOM     52  O49 ZIN A   1      18.079   3.761  18.259  0.00  0.00    -0.647 OA
ENDBRANCH  49  50
ENDBRANCH  44  49
ENDBRANCH   1  44
TORSDOF 23
ENDMDL
