MODEL 1
REMARK VINA RESULT:      -8.1      0.000      0.000
REMARK  6 active torsions:
REMARK  status: ('A' for Active; 'I' for Inactive)
REMARK    1  A    between atoms: C5_5  and  C6_6 
REMARK    2  A    between atoms: C6_6  and  O7_7 
REMARK    3  A    between atoms: O7_7  and  C8_8 
REMARK    4  A    between atoms: C8_8  and  C10_9 
REMARK    5  A    between atoms: C8_8  and  C17_16 
REMARK    6  A    between atoms: C10_9  and  N11_10 
ROOT
ATOM      1  C8  ZIN A   1      18.786   2.062  11.158  0.00  0.00     0.174 C 
ENDROOT
BRANCH   1   2
ATOM      2  O7  ZIN A   1      20.139   1.822  11.551  0.00  0.00    -0.375 OA
BRANCH   2   3
ATOM      3  C6  ZIN A   1      20.414   0.460  11.886  0.00  0.00     0.209 C 
BRANCH   3   4
ATOM      4  C5  ZIN A   1      19.698   0.102  13.163  0.00  0.00    -0.013 A 
ATOM      5  C4  ZIN A   1      19.619   1.022  14.192  0.00  0.00     0.012 A 
ATOM      6  C3  ZIN A   1      18.964   0.694  15.364  0.00  0.00     0.024 A 
ATOM      7  C2  ZIN A   1      18.387  -0.555  15.507  0.00  0.00     0.035 A 
ATOM      8 Cl1  ZIN A   1      17.563  -0.966  16.979  0.00  0.00    -0.084 Cl
ATOM      9  C27 ZIN A   1      18.471  -1.478  14.481  0.00  0.00     0.048 A 
ATOM     10  C25 ZIN A   1      19.122  -1.147  13.306  0.00  0.00     0.044 A 
ATOM     11 Cl26 ZIN A   1      19.221  -2.303  12.014  0.00  0.00    -0.084 Cl
ENDBRANCH   3   4
ENDBRANCH   2   3
ENDBRANCH   1   2
BRANCH   1  12
ATOM     12  C10 ZIN A   1      18.532   3.570  11.104  0.00  0.00     0.166 C 
BRANCH  12  13
ATOM     13  N11 ZIN A   1      18.829   4.163  12.410  0.00  0.00    -0.349 N 
ATOM     14  C16 ZIN A   1      19.957   4.822  12.752  0.00  0.00     0.182 A 
ATOM     15  N14 ZIN A   1      19.856   5.205  13.996  0.00  0.00    -0.361 N 
ATOM     16  C13 ZIN A   1      18.677   4.800  14.489  0.00  0.00     0.106 A 
ATOM     17  H15 ZIN A   1      20.531   5.700  14.487  0.00  0.00     0.166 HD
ATOM     18  C12 ZIN A   1      18.019   4.146  13.513  0.00  0.00     0.108 A 
ENDBRANCH  12  13
ENDBRANCH   1  12
BRANCH   1  19
ATOM     19  C17 ZIN A   1      18.545   1.464   9.796  0.00  0.00    -0.006 A 
ATOM     20  C23 ZIN A   1      17.584   0.482   9.632  0.00  0.00     0.044 A 
ATOM     21  C22 ZIN A   1      17.359  -0.064   8.381  0.00  0.00     0.048 A 
ATOM     22 Cl24 ZIN A   1      16.650  -0.055  10.994  0.00  0.00    -0.084 Cl
ATOM     23  C20 ZIN A   1      18.104   0.364   7.297  0.00  0.00     0.035 A 
ATOM     24  C19 ZIN A   1      19.069   1.341   7.462  0.00  0.00     0.024 A 
ATOM     25 Cl21 ZIN A   1      17.827  -0.325   5.727  0.00  0.00    -0.084 Cl
ATOM     26  C18 ZIN A   1      19.289   1.890   8.712  0.00  0.00     0.013 A 
ENDBRANCH   1  19
TORSDOF 6
ENDMDL
MODEL 2
REMARK VINA RESULT:      -8.0      3.043      5.081
REMARK  6 active torsions:
REMARK  status: ('A' for Active; 'I' for Inactive)
REMARK    1  A    between atoms: C5_5  and  C6_6 
REMARK    2  A    between atoms: C6_6  and  O7_7 
REMARK    3  A    between atoms: O7_7  and  C8_8 
REMARK    4  A    between atoms: C8_8  and  C10_9 
REMARK    5  A    between atoms: C8_8  and  C17_16 
REMARK    6  A    between atoms: C10_9  and  N11_10 
ROOT
ATOM      1  C8  ZIN A   1      19.650  -0.484  10.697  0.00  0.00     0.174 C 
ENDROOT
BRANCH   1   2
ATOM      2  O7  ZIN A   1      20.704  -0.137  11.598  0.00  0.00    -0.375 OA
BRANCH   2   3
ATOM      3  C6  ZIN A   1      20.385   0.945  12.476  0.00  0.00     0.209 C 
BRANCH   3   4
ATOM      4  C5  ZIN A   1      19.508   0.444  13.594  0.00  0.00    -0.013 A 
ATOM      5  C4  ZIN A   1      19.841  -0.717  14.267  0.00  0.00     0.012 A 
ATOM      6  C3  ZIN A   1      19.036  -1.177  15.291  0.00  0.00     0.024 A 
ATOM      7  C2  ZIN A   1      17.896  -0.477  15.643  0.00  0.00     0.035 A 
ATOM      8 Cl1  ZIN A   1      16.885  -1.056  16.931  0.00  0.00    -0.084 Cl
ATOM      9  C27 ZIN A   1      17.559   0.681  14.966  0.00  0.00     0.048 A 
ATOM     10  C25 ZIN A   1      18.368   1.144  13.944  0.00  0.00     0.044 A 
ATOM     11 Cl26 ZIN A   1      17.948   2.601  13.099  0.00  0.00    -0.084 Cl
ENDBRANCH   3   4
ENDBRANCH   2   3
ENDBRANCH   1   2
BRANCH   1  12
ATOM     12  C10 ZIN A   1      20.192  -0.512   9.267  0.00  0.00     0.166 C 
BRANCH  12  13
ATOM     13  N11 ZIN A   1      19.075  -0.586   8.322  0.00  0.00    -0.349 N 
ATOM     14  C16 ZIN A   1      18.861  -1.561   7.410  0.00  0.00     0.182 A 
ATOM     15  N14 ZIN A   1      17.767  -1.284   6.754  0.00  0.00    -0.361 N 
ATOM     16  C13 ZIN A   1      17.255  -0.133   7.211  0.00  0.00     0.106 A 
ATOM     17  H15 ZIN A   1      17.387  -1.825   6.044  0.00  0.00     0.166 HD
ATOM     18  C12 ZIN A   1      18.058   0.320   8.193  0.00  0.00     0.108 A 
ENDBRANCH  12  13
ENDBRANCH   1  12
BRANCH   1  19
ATOM     19  C17 ZIN A   1      19.108  -1.844  11.056  0.00  0.00    -0.006 A 
ATOM     20  C23 ZIN A   1      17.776  -1.989  11.400  0.00  0.00     0.044 A 
ATOM     21  C22 ZIN A   1      17.279  -3.238  11.725  0.00  0.00     0.048 A 
ATOM     22 Cl24 ZIN A   1      16.727  -0.606  11.413  0.00  0.00    -0.084 Cl
ATOM     23  C20 ZIN A   1      18.116  -4.339  11.716  0.00  0.00     0.035 A 
ATOM     24  C19 ZIN A   1      19.449  -4.192  11.377  0.00  0.00     0.024 A 
ATOM     25 Cl21 ZIN A   1      17.493  -5.906  12.129  0.00  0.00    -0.084 Cl
ATOM     26  C18 ZIN A   1      19.944  -2.944  11.047  0.00  0.00     0.013 A 
ENDBRANCH   1  19
TORSDOF 6
ENDMDL
MODEL 3
REMARK VINA RESULT:      -7.9      1.196      2.261
REMARK  6 active torsions:
REMARK  status: ('A' for Active; 'I' for Inactive)
REMARK    1  A    between atoms: C5_5  and  C6_6 
REMARK    2  A    between atoms: C6_6  and  O7_7 
REMARK    3  A    between atoms: O7_7  and  C8_8 
REMARK    4  A    between atoms: C8_8  and  C10_9 
REMARK    5  A    between atoms: C8_8  and  C17_16 
REMARK    6  A    between atoms: C10_9  and  N11_10 
ROOT
ATOM      1  C8  ZIN A   1      18.680   2.006  11.000  0.00  0.00     0.174 C 
ENDROOT
BRANCH   1   2
ATOM      2  O7  ZIN A   1      19.988   1.664  11.464  0.00  0.00    -0.375 OA
BRANCH   2   3
ATOM      3  C6  ZIN A   1      19.996   0.909  12.677  0.00  0.00     0.209 C 
BRANCH   3   4
ATOM      4  C5  ZIN A   1      19.640  -0.525  12.378  0.00  0.00    -0.013 A 
ATOM      5  C4  ZIN A   1      20.233  -1.177  11.313  0.00  0.00     0.012 A 
ATOM      6  C3  ZIN A   1      19.906  -2.491  11.038  0.00  0.00     0.024 A 
ATOM      7  C2  ZIN A   1      18.984  -3.155  11.829  0.00  0.00     0.035 A 
ATOM      8 Cl1  ZIN A   1      18.575  -4.806  11.484  0.00  0.00    -0.084 Cl
ATOM      9  C27 ZIN A   1      18.386  -2.501  12.891  0.00  0.00     0.048 A 
ATOM     10  C25 ZIN A   1      18.718  -1.187  13.169  0.00  0.00     0.044 A 
ATOM     11 Cl26 ZIN A   1      17.972  -0.368  14.506  0.00  0.00    -0.084 Cl
ENDBRANCH   3   4
ENDBRANCH   2   3
ENDBRANCH   1   2
BRANCH   1  12
ATOM     12  C10 ZIN A   1      18.541   3.529  10.948  0.00  0.00     0.166 C 
BRANCH  12  13
ATOM     13  N11 ZIN A   1      18.845   4.094  12.265  0.00  0.00    -0.349 N 
ATOM     14  C16 ZIN A   1      19.962   4.772  12.607  0.00  0.00     0.182 A 
ATOM     15  N14 ZIN A   1      19.871   5.118  13.862  0.00  0.00    -0.361 N 
ATOM     16  C13 ZIN A   1      18.711   4.670  14.363  0.00  0.00     0.106 A 
ATOM     17  H15 ZIN A   1      20.541   5.617  14.356  0.00  0.00     0.166 HD
ATOM     18  C12 ZIN A   1      18.053   4.027  13.379  0.00  0.00     0.108 A 
ENDBRANCH  12  13
ENDBRANCH   1  12
BRANCH   1  19
ATOM     19  C17 ZIN A   1      18.469   1.435   9.622  0.00  0.00    -0.006 A 
ATOM     20  C23 ZIN A   1      17.512   0.458   9.417  0.00  0.00     0.044 A 
ATOM     21  C22 ZIN A   1      17.315  -0.063   8.151  0.00  0.00     0.048 A 
ATOM     22 Cl24 ZIN A   1      16.547  -0.105  10.746  0.00  0.00    -0.084 Cl
ATOM     23  C20 ZIN A   1      18.084   0.386   7.092  0.00  0.00     0.035 A 
ATOM     24  C19 ZIN A   1      19.046   1.359   7.299  0.00  0.00     0.024 A 
ATOM     25 Cl21 ZIN A   1      17.843  -0.272   5.504  0.00  0.00    -0.084 Cl
ATOM     26  C18 ZIN A   1      19.238   1.882   8.564  0.00  0.00     0.013 A 
ENDBRANCH   1  19
TORSDOF 6
ENDMDL
MODEL 4
REMARK VINA RESULT:      -7.9      1.505      2.184
REMARK  6 active torsions:
REMARK  status: ('A' for Active; 'I' for Inactive)
REMARK    1  A    between atoms: C5_5  and  C6_6 
REMARK    2  A    between atoms: C6_6  and  O7_7 
REMARK    3  A    between atoms: O7_7  and  C8_8 
REMARK    4  A    between atoms: C8_8  and  C10_9 
REMARK    5  A    between atoms: C8_8  and  C17_16 
REMARK    6  A    between atoms: C10_9  and  N11_10 
ROOT
ATOM      1  C8  ZIN A   1      18.939   1.597  10.868  0.00  0.00     0.174 C 
ENDROOT
BRANCH   1   2
ATOM      2  O7  ZIN A   1      19.965   0.771  11.424  0.00  0.00    -0.375 OA
BRANCH   2   3
ATOM      3  C6  ZIN A   1      20.402   1.182  12.721  0.00  0.00     0.209 C 
BRANCH   3   4
ATOM      4  C5  ZIN A   1      19.537   0.534  13.771  0.00  0.00    -0.013 A 
ATOM      5  C4  ZIN A   1      19.351  -0.836  13.765  0.00  0.00     0.012 A 
ATOM      6  C3  ZIN A   1      18.556  -1.429  14.728  0.00  0.00     0.024 A 
ATOM      7  C2  ZIN A   1      17.946  -0.652  15.697  0.00  0.00     0.035 A 
ATOM      8 Cl1  ZIN A   1      16.949  -1.399  16.906  0.00  0.00    -0.084 Cl
ATOM      9  C27 ZIN A   1      18.128   0.719  15.700  0.00  0.00     0.048 A 
ATOM     10  C25 ZIN A   1      18.927   1.312  14.740  0.00  0.00     0.044 A 
ATOM     11 Cl26 ZIN A   1      19.161   3.032  14.747  0.00  0.00    -0.084 Cl
ENDBRANCH   3   4
ENDBRANCH   2   3
ENDBRANCH   1   2
BRANCH   1  12
ATOM     12  C10 ZIN A   1      19.435   3.042  10.790  0.00  0.00     0.166 C 
BRANCH  12  13
ATOM     13  N11 ZIN A   1      18.294   3.956  10.880  0.00  0.00    -0.349 N 
ATOM     14  C16 ZIN A   1      17.868   4.801   9.916  0.00  0.00     0.182 A 
ATOM     15  N14 ZIN A   1      16.826   5.450  10.361  0.00  0.00    -0.361 N 
ATOM     16  C13 ZIN A   1      16.560   5.053  11.614  0.00  0.00     0.106 A 
ATOM     17  H15 ZIN A   1      16.327   6.117   9.865  0.00  0.00     0.166 HD
ATOM     18  C12 ZIN A   1      17.467   4.119  11.958  0.00  0.00     0.108 A 
ENDBRANCH  12  13
ENDBRANCH   1  12
BRANCH   1  19
ATOM     19  C17 ZIN A   1      18.595   1.109   9.484  0.00  0.00    -0.006 A 
ATOM     20  C23 ZIN A   1      17.598   0.165   9.312  0.00  0.00     0.044 A 
ATOM     21  C22 ZIN A   1      17.280  -0.279   8.041  0.00  0.00     0.048 A 
ATOM     22 Cl24 ZIN A   1      16.738  -0.452  10.687  0.00  0.00    -0.084 Cl
ATOM     23  C20 ZIN A   1      17.966   0.212   6.945  0.00  0.00     0.035 A 
ATOM     24  C19 ZIN A   1      18.967   1.151   7.119  0.00  0.00     0.024 A 
ATOM     25 Cl21 ZIN A   1      17.571  -0.349   5.350  0.00  0.00    -0.084 Cl
ATOM     26  C18 ZIN A   1      19.281   1.599   8.389  0.00  0.00     0.013 A 
ENDBRANCH   1  19
TORSDOF 6
ENDMDL
MODEL 5
REMARK VINA RESULT:      -7.8      2.810      5.606
REMARK  6 active torsions:
REMARK  status: ('A' for Active; 'I' for Inactive)
REMARK    1  A    between atoms: C5_5  and  C6_6 
REMARK    2  A    between atoms: C6_6  and  O7_7 
REMARK    3  A    between atoms: O7_7  and  C8_8 
REMARK    4  A    between atoms: C8_8  and  C10_9 
REMARK    5  A    between atoms: C8_8  and  C17_16 
REMARK    6  A    between atoms: C10_9  and  N11_10 
ROOT
ATOM      1  C8  ZIN A   1      18.436  -0.887  12.783  0.00  0.00     0.174 C 
ENDROOT
BRANCH   1   2
ATOM      2  O7  ZIN A   1      17.230  -0.211  12.421  0.00  0.00    -0.375 OA
BRANCH   2   3
ATOM      3  C6  ZIN A   1      17.431   1.121  11.943  0.00  0.00     0.209 C 
BRANCH   3   4
ATOM      4  C5  ZIN A   1      17.842   1.076  10.494  0.00  0.00    -0.013 A 
ATOM      5  C4  ZIN A   1      17.223   0.197   9.626  0.00  0.00     0.012 A 
ATOM      6  C3  ZIN A   1      17.601   0.155   8.297  0.00  0.00     0.024 A 
ATOM      7  C2  ZIN A   1      18.600   0.995   7.835  0.00  0.00     0.035 A 
ATOM      8 Cl1  ZIN A   1      19.073   0.943   6.166  0.00  0.00    -0.084 Cl
ATOM      9  C27 ZIN A   1      19.224   1.871   8.705  0.00  0.00     0.048 A 
ATOM     10  C25 ZIN A   1      18.842   1.915  10.033  0.00  0.00     0.044 A 
ATOM     11 Cl26 ZIN A   1      19.620   3.019  11.123  0.00  0.00    -0.084 Cl
ENDBRANCH   3   4
ENDBRANCH   2   3
ENDBRANCH   1   2
BRANCH   1  12
ATOM     12  C10 ZIN A   1      18.383  -1.267  14.264  0.00  0.00     0.166 C 
BRANCH  12  13
ATOM     13  N11 ZIN A   1      18.406  -0.051  15.081  0.00  0.00    -0.349 N 
ATOM     14  C16 ZIN A   1      17.511   0.291  16.034  0.00  0.00     0.182 A 
ATOM     15  N14 ZIN A   1      17.864   1.439  16.544  0.00  0.00    -0.361 N 
ATOM     16  C13 ZIN A   1      18.978   1.871  15.936  0.00  0.00     0.106 A 
ATOM     17  H15 ZIN A   1      17.391   1.908  17.250  0.00  0.00     0.166 HD
ATOM     18  C12 ZIN A   1      19.334   0.953  15.017  0.00  0.00     0.108 A 
ENDBRANCH  12  13
ENDBRANCH   1  12
BRANCH   1  19
ATOM     19  C17 ZIN A   1      18.582  -2.135  11.950  0.00  0.00    -0.006 A 
ATOM     20  C23 ZIN A   1      19.616  -2.240  11.037  0.00  0.00     0.044 A 
ATOM     21  C22 ZIN A   1      19.752  -3.387  10.276  0.00  0.00     0.048 A 
ATOM     22 Cl24 ZIN A   1      20.749  -0.938  10.855  0.00  0.00    -0.084 Cl
ATOM     23  C20 ZIN A   1      18.848  -4.424  10.421  0.00  0.00     0.035 A 
ATOM     24  C19 ZIN A   1      17.810  -4.316  11.330  0.00  0.00     0.024 A 
ATOM     25 Cl21 ZIN A   1      19.014  -5.862   9.462  0.00  0.00    -0.084 Cl
ATOM     26  C18 ZIN A   1      17.678  -3.171  12.094  0.00  0.00     0.013 A 
ENDBRANCH   1  19
TORSDOF 6
ENDMDL
MODEL 6
REMARK VINA RESULT:      -7.8      3.362      6.901
REMARK  6 active torsions:
REMARK  status: ('A' for Active; 'I' for Inactive)
REMARK    1  A    between atoms: C5_5  and  C6_6 
REMARK    2  A    between atoms: C6_6  and  O7_7 
REMARK    3  A    between atoms: O7_7  and  C8_8 
REMARK    4  A    between atoms: C8_8  and  C10_9 
REMARK    5  A    between atoms: C8_8  and  C17_16 
REMARK    6  A    between atoms: C10_9  and  N11_10 
ROOT
ATOM      1  C8  ZIN A   1      19.166  -1.599  11.890  0.00  0.00     0.174 C 
ENDROOT
BRANCH   1   2
ATOM      2  O7  ZIN A   1      20.347  -0.896  11.498  0.00  0.00    -0.375 OA
BRANCH   2   3
ATOM      3  C6  ZIN A   1      20.248  -0.258  10.223  0.00  0.00     0.209 C 
BRANCH   3   4
ATOM      4  C5  ZIN A   1      19.607   1.096  10.388  0.00  0.00    -0.013 A 
ATOM      5  C4  ZIN A   1      19.890   1.864  11.502  0.00  0.00     0.012 A 
ATOM      6  C3  ZIN A   1      19.301   3.106  11.654  0.00  0.00     0.024 A 
ATOM      7  C2  ZIN A   1      18.428   3.579  10.690  0.00  0.00     0.035 A 
ATOM      8 Cl1  ZIN A   1      17.690   5.139  10.881  0.00  0.00    -0.084 Cl
ATOM      9  C27 ZIN A   1      18.140   2.809   9.579  0.00  0.00     0.048 A 
ATOM     10  C25 ZIN A   1      18.733   1.569   9.425  0.00  0.00     0.044 A 
ATOM     11 Cl26 ZIN A   1      18.377   0.604   8.027  0.00  0.00    -0.084 Cl
ENDBRANCH   3   4
ENDBRANCH   2   3
ENDBRANCH   1   2
BRANCH   1  12
ATOM     12  C10 ZIN A   1      19.445  -3.103  11.888  0.00  0.00     0.166 C 
BRANCH  12  13
ATOM     13  N11 ZIN A   1      18.342  -3.804  11.225  0.00  0.00    -0.349 N 
ATOM     14  C16 ZIN A   1      17.386  -4.544  11.828  0.00  0.00     0.182 A 
ATOM     15  N14 ZIN A   1      16.578  -5.007  10.913  0.00  0.00    -0.361 N 
ATOM     16  C13 ZIN A   1      16.991  -4.593   9.707  0.00  0.00     0.106 A 
ATOM     17  H15 ZIN A   1      15.804  -5.567  11.080  0.00  0.00     0.166 HD
ATOM     18  C12 ZIN A   1      18.094  -3.838   9.880  0.00  0.00     0.108 A 
ENDBRANCH  12  13
ENDBRANCH   1  12
BRANCH   1  19
ATOM     19  C17 ZIN A   1      18.758  -1.165  13.274  0.00  0.00    -0.006 A 
ATOM     20  C23 ZIN A   1      17.646  -0.359  13.447  0.00  0.00     0.044 A 
ATOM     21  C22 ZIN A   1      17.270   0.035  14.718  0.00  0.00     0.048 A 
ATOM     22 Cl24 ZIN A   1      16.718   0.147  12.071  0.00  0.00    -0.084 Cl
ATOM     23  C20 ZIN A   1      18.011  -0.368  15.815  0.00  0.00     0.035 A 
ATOM     24  C19 ZIN A   1      19.125  -1.169  15.641  0.00  0.00     0.024 A 
ATOM     25 Cl21 ZIN A   1      17.542   0.131  17.410  0.00  0.00    -0.084 Cl
ATOM     26  C18 ZIN A   1      19.498  -1.567  14.370  0.00  0.00     0.013 A 
ENDBRANCH   1  19
TORSDOF 6
ENDMDL
MODEL 7
REMARK VINA RESULT:      -7.6      3.584      7.650
REMARK  6 active torsions:
REMARK  status: ('A' for Active; 'I' for Inactive)
REMARK    1  A    between atoms: C5_5  and  C6_6 
REMARK    2  A    between atoms: C6_6  and  O7_7 
REMARK    3  A    between atoms: O7_7  and  C8_8 
REMARK    4  A    between atoms: C8_8  and  C10_9 
REMARK    5  A    between atoms: C8_8  and  C17_16 
REMARK    6  A    between atoms: C10_9  and  N11_10 
ROOT
ATOM      1  C8  ZIN A   1      18.660  -1.985  11.505  0.00  0.00     0.174 C 
ENDROOT
BRANCH   1   2
ATOM      2  O7  ZIN A   1      19.908  -1.627  10.909  0.00  0.00    -0.375 OA
BRANCH   2   3
ATOM      3  C6  ZIN A   1      19.958  -0.283  10.425  0.00  0.00     0.209 C 
BRANCH   3   4
ATOM      4  C5  ZIN A   1      19.539  -0.255   8.978  0.00  0.00    -0.013 A 
ATOM      5  C4  ZIN A   1      19.555  -1.418   8.230  0.00  0.00     0.012 A 
ATOM      6  C3  ZIN A   1      19.172  -1.392   6.903  0.00  0.00     0.024 A 
ATOM      7  C2  ZIN A   1      18.772  -0.201   6.321  0.00  0.00     0.035 A 
ATOM      8 Cl1  ZIN A   1      18.290  -0.170   4.654  0.00  0.00    -0.084 Cl
ATOM      9  C27 ZIN A   1      18.761   0.964   7.067  0.00  0.00     0.048 A 
ATOM     10  C25 ZIN A   1      19.140   0.936   8.397  0.00  0.00     0.044 A 
ATOM     11 Cl26 ZIN A   1      19.120   2.397   9.335  0.00  0.00    -0.084 Cl
ENDBRANCH   3   4
ENDBRANCH   2   3
ENDBRANCH   1   2
BRANCH   1  12
ATOM     12  C10 ZIN A   1      18.599  -3.502  11.688  0.00  0.00     0.166 C 
BRANCH  12  13
ATOM     13  N11 ZIN A   1      18.545  -4.152  10.376  0.00  0.00    -0.349 N 
ATOM     14  C16 ZIN A   1      19.540  -4.848   9.786  0.00  0.00     0.182 A 
ATOM     15  N14 ZIN A   1      19.118  -5.277   8.627  0.00  0.00    -0.361 N 
ATOM     16  C13 ZIN A   1      17.857  -4.865   8.435  0.00  0.00     0.106 A 
ATOM     17  H15 ZIN A   1      19.639  -5.805   8.002  0.00  0.00     0.166 HD
ATOM     18  C12 ZIN A   1      17.479  -4.159   9.518  0.00  0.00     0.108 A 
ENDBRANCH  12  13
ENDBRANCH   1  12
BRANCH   1  19
ATOM     19  C17 ZIN A   1      18.533  -1.311  12.848  0.00  0.00    -0.006 A 
ATOM     20  C23 ZIN A   1      17.606  -0.300  13.029  0.00  0.00     0.044 A 
ATOM     21  C22 ZIN A   1      17.487   0.315  14.262  0.00  0.00     0.048 A 
ATOM     22 Cl24 ZIN A   1      16.586   0.189  11.713  0.00  0.00    -0.084 Cl
ATOM     23  C20 ZIN A   1      18.301  -0.075  15.310  0.00  0.00     0.035 A 
ATOM     24  C19 ZIN A   1      19.231  -1.083  15.127  0.00  0.00     0.024 A 
ATOM     25 Cl21 ZIN A   1      18.155   0.700  16.857  0.00  0.00    -0.084 Cl
ATOM     26  C18 ZIN A   1      19.346  -1.700  13.895  0.00  0.00     0.013 A 
ENDBRANCH   1  19
TORSDOF 6
ENDMDL
MODEL 8
REMARK VINA RESULT:      -7.5      2.332      6.903
REMARK  6 active torsions:
REMARK  status: ('A' for Active; 'I' for Inactive)
REMARK    1  A    between atoms: C5_5  and  C6_6 
REMARK    2  A    between atoms: C6_6  and  O7_7 
REMARK    3  A    between atoms: O7_7  and  C8_8 
REMARK    4  A    between atoms: C8_8  and  C10_9 
REMARK    5  A    between atoms: C8_8  and  C17_16 
REMARK    6  A    between atoms: C10_9  and  N11_10 
ROOT
ATOM      1  C8  ZIN A   1      19.023   1.373  13.652  0.00  0.00     0.174 C 
ENDROOT
BRANCH   1   2
ATOM      2  O7  ZIN A   1      19.025   2.500  12.774  0.00  0.00    -0.375 OA
BRANCH   2   3
ATOM      3  C6  ZIN A   1      17.836   2.630  11.992  0.00  0.00     0.209 C 
BRANCH   3   4
ATOM      4  C5  ZIN A   1      18.064   2.032  10.628  0.00  0.00    -0.013 A 
ATOM      5  C4  ZIN A   1      18.933   2.640   9.742  0.00  0.00     0.012 A 
ATOM      6  C3  ZIN A   1      19.141   2.091   8.491  0.00  0.00     0.024 A 
ATOM      7  C2  ZIN A   1      18.479   0.933   8.125  0.00  0.00     0.035 A 
ATOM      8 Cl1  ZIN A   1      18.742   0.244   6.553  0.00  0.00    -0.084 Cl
ATOM      9  C27 ZIN A   1      17.604   0.327   9.008  0.00  0.00     0.048 A 
ATOM     10  C25 ZIN A   1      17.400   0.874  10.262  0.00  0.00     0.044 A 
ATOM     11 Cl26 ZIN A   1      16.308   0.110  11.374  0.00  0.00    -0.084 Cl
ENDBRANCH   3   4
ENDBRANCH   2   3
ENDBRANCH   1   2
BRANCH   1  12
ATOM     12  C10 ZIN A   1      20.306   0.566  13.449  0.00  0.00     0.166 C 
BRANCH  12  13
ATOM     13  N11 ZIN A   1      20.090  -0.443  12.409  0.00  0.00    -0.349 N 
ATOM     14  C16 ZIN A   1      20.705  -0.498  11.207  0.00  0.00     0.182 A 
ATOM     15  N14 ZIN A   1      20.255  -1.537  10.557  0.00  0.00    -0.361 N 
ATOM     16  C13 ZIN A   1      19.342  -2.169  11.308  0.00  0.00     0.106 A 
ATOM     17  H15 ZIN A   1      20.536  -1.806   9.668  0.00  0.00     0.166 HD
ATOM     18  C12 ZIN A   1      19.224  -1.501  12.471  0.00  0.00     0.108 A 
ENDBRANCH  12  13
ENDBRANCH   1  12
BRANCH   1  19
ATOM     19  C17 ZIN A   1      18.950   1.848  15.081  0.00  0.00    -0.006 A 
ATOM     20  C23 ZIN A   1      18.459   1.009  16.065  0.00  0.00     0.044 A 
ATOM     21  C22 ZIN A   1      18.396   1.444  17.376  0.00  0.00     0.048 A 
ATOM     22 Cl24 ZIN A   1      17.934  -0.595  15.656  0.00  0.00    -0.084 Cl
ATOM     23  C20 ZIN A   1      18.814   2.722  17.701  0.00  0.00     0.035 A 
ATOM     24  C19 ZIN A   1      19.299   3.563  16.715  0.00  0.00     0.024 A 
ATOM     25 Cl21 ZIN A   1      18.730   3.271  19.346  0.00  0.00    -0.084 Cl
ATOM     26  C18 ZIN A   1      19.366   3.125  15.406  0.00  0.00     0.013 A 
ENDBRANCH   1  19
TORSDOF 6
ENDMDL
MODEL 9
REMARK VINA RESULT:      -7.5      3.613      5.494
REMARK  6 active torsions:
REMARK  status: ('A' for Active; 'I' for Inactive)
REMARK    1  A    between atoms: C5_5  and  C6_6 
REMARK    2  A    between atoms: C6_6  and  O7_7 
REMARK    3  A    between atoms: O7_7  and  C8_8 
REMARK    4  A    between atoms: C8_8  and  C10_9 
REMARK    5  A    between atoms: C8_8  and  C17_16 
REMARK    6  A    between atoms: C10_9  and  N11_10 
ROOT
ATOM      1  C8  ZIN A   1      18.567  -1.575  11.478  0.00  0.00     0.174 C 
ENDROOT
BRANCH   1   2
ATOM      2  O7  ZIN A   1      18.191  -1.771  12.843  0.00  0.00    -0.375 OA
BRANCH   2   3
ATOM      3  C6  ZIN A   1      19.280  -1.688  13.764  0.00  0.00     0.209 C 
BRANCH   3   4
ATOM      4  C5  ZIN A   1      18.846  -0.923  14.988  0.00  0.00    -0.013 A 
ATOM      5  C4  ZIN A   1      18.162  -1.569  16.000  0.00  0.00     0.012 A 
ATOM      6  C3  ZIN A   1      17.762  -0.868  17.122  0.00  0.00     0.024 A 
ATOM      7  C2  ZIN A   1      18.046   0.482  17.232  0.00  0.00     0.035 A 
ATOM      8 Cl1  ZIN A   1      17.545   1.362  18.642  0.00  0.00    -0.084 Cl
ATOM      9  C27 ZIN A   1      18.725   1.131  16.216  0.00  0.00     0.048 A 
ATOM     10  C25 ZIN A   1      19.129   0.427  15.096  0.00  0.00     0.044 A 
ATOM     11 Cl26 ZIN A   1      19.987   1.239  13.824  0.00  0.00    -0.084 Cl
ENDBRANCH   3   4
ENDBRANCH   2   3
ENDBRANCH   1   2
BRANCH   1  12
ATOM     12  C10 ZIN A   1      17.685  -2.443  10.578  0.00  0.00     0.166 C 
BRANCH  12  13
ATOM     13  N11 ZIN A   1      18.520  -3.408   9.859  0.00  0.00    -0.349 N 
ATOM     14  C16 ZIN A   1      19.458  -4.215  10.402  0.00  0.00     0.182 A 
ATOM     15  N14 ZIN A   1      19.990  -4.935   9.451  0.00  0.00    -0.361 N 
ATOM     16  C13 ZIN A   1      19.423  -4.609   8.280  0.00  0.00     0.106 A 
ATOM     17  H15 ZIN A   1      20.688  -5.597   9.572  0.00  0.00     0.166 HD
ATOM     18  C12 ZIN A   1      18.501  -3.656   8.513  0.00  0.00     0.108 A 
ENDBRANCH  12  13
ENDBRANCH   1  12
BRANCH   1  19
ATOM     19  C17 ZIN A   1      18.388  -0.125  11.110  0.00  0.00    -0.006 A 
ATOM     20  C23 ZIN A   1      19.187   0.445  10.135  0.00  0.00     0.044 A 
ATOM     21  C22 ZIN A   1      19.020   1.775   9.794  0.00  0.00     0.048 A 
ATOM     22 Cl24 ZIN A   1      20.392  -0.512   9.331  0.00  0.00    -0.084 Cl
ATOM     23  C20 ZIN A   1      18.060   2.537  10.435  0.00  0.00     0.035 A 
ATOM     24  C19 ZIN A   1      17.264   1.968  11.414  0.00  0.00     0.024 A 
ATOM     25 Cl21 ZIN A   1      17.852   4.208  10.012  0.00  0.00    -0.084 Cl
ATOM     26  C18 ZIN A   1      17.429   0.637  11.751  0.00  0.00     0.013 A 
ENDBRANCH   1  19
TORSDOF 6
ENDMDL
