MODEL 1
REMARK VINA RESULT:      -6.6      0.000      0.000
REMARK  10 active torsions:
REMARK  status: ('A' for Active; 'I' for Inactive)
REMARK    1  A    between atoms: C2_2  and  C4_4 
REMARK    2  A    between atoms: C4_4  and  N6_5 
REMARK    3  A    between atoms: C4_4  and  C10_9 
REMARK    4  A    between atoms: C10_9  and  O12_11 
REMARK    5  A    between atoms: O12_11  and  C13_12 
REMARK    6  A    between atoms: C13_12  and  C14_13 
REMARK    7  A    between atoms: C14_13  and  O15_14 
REMARK    8  A    between atoms: O15_14  and  C16_15 
REMARK    9  A    between atoms: C16_15  and  N17_16 
REMARK   10  A    between atoms: C23_22  and  N24_23 
ROOT
ATOM      1  C16 ZIN A   1      18.972   4.811  13.435  0.00  0.00     0.301 C 
ENDROOT
BRANCH   1   2
ATOM      2  O15 ZIN A   1      18.607   4.211  14.679  0.00  0.00    -0.369 OA
BRANCH   2   3
ATOM      3  C14 ZIN A   1      19.051   4.938  15.827  0.00  0.00     0.196 C 
BRANCH   3   4
ATOM      4  C13 ZIN A   1      19.855   4.009  16.739  0.00  0.00     0.205 C 
BRANCH   4   5
ATOM      5  O12 ZIN A   1      18.949   3.131  17.456  0.00  0.00    -0.318 OA
BRANCH   5   6
ATOM      6  C10 ZIN A   1      19.174   1.811  17.358  0.00  0.00     0.290 C 
ATOM      7  O11 ZIN A   1      19.805   1.241  18.216  0.00  0.00    -0.263 OA
BRANCH   6   8
ATOM      8  C4  ZIN A   1      18.641   1.041  16.177  0.00  0.00     0.285 C 
BRANCH   8   9
ATOM      9  C2  ZIN A   1      18.587  -0.448  16.520  0.00  0.00     0.018 C 
ATOM     10  C1  ZIN A   1      17.145  -0.845  16.848  0.00  0.00     0.012 C 
ATOM     11  C3  ZIN A   1      19.082  -1.265  15.325  0.00  0.00     0.012 C 
ENDBRANCH   8   9
BRANCH   8  12
ATOM     12  N6  ZIN A   1      19.524   1.246  15.020  0.00  0.00    -0.066 N 
ATOM     13  H7  ZIN A   1      19.034   1.770  14.312  0.00  0.00     0.275 HD
ATOM     14  H8  ZIN A   1      20.344   1.757  15.310  0.00  0.00     0.275 HD
ATOM     15  H9  ZIN A   1      19.799   0.350  14.646  0.00  0.00     0.275 HD
ENDBRANCH   8  12
ENDBRANCH   6   8
ENDBRANCH   5   6
ENDBRANCH   4   5
ENDBRANCH   3   4
ENDBRANCH   2   3
ENDBRANCH   1   2
BRANCH   1  16
ATOM     16  N17 ZIN A   1      18.423   4.019  12.331  0.00  0.00    -0.301 N 
ATOM     17  C21 ZIN A   1      18.942   2.855  11.833  0.00  0.00     0.186 A 
ATOM     18  C20 ZIN A   1      18.089   2.460  10.797  0.00  0.00     0.173 A 
ATOM     19  N22 ZIN A   1      20.008   2.104  12.137  0.00  0.00    -0.044 NA
ATOM     20  N19 ZIN A   1      17.108   3.392  10.707  0.00  0.00    -0.234 NA
ATOM     21  C26 ZIN A   1      18.383   1.270  10.093  0.00  0.00     0.292 A 
ATOM     22  C18 ZIN A   1      17.302   4.310  11.609  0.00  0.00     0.214 A 
ATOM     23  N25 ZIN A   1      19.475   0.561  10.460  0.00  0.00    -0.152 N 
ATOM     24  O27 ZIN A   1      17.667   0.887   9.184  0.00  0.00    -0.265 OA
ATOM     25  C23 ZIN A   1      20.268   0.997  11.478  0.00  0.00     0.703 A 
ATOM     26  H44 ZIN A   1      19.695  -0.260   9.994  0.00  0.00     0.187 HD
BRANCH  25  27
ATOM     27  N24 ZIN A   1      21.372   0.259  11.826  0.00  0.00    -0.233 N 
ATOM     28  H42 ZIN A   1      21.387  -0.697  11.664  0.00  0.00     0.174 HD
ATOM     29  H43 ZIN A   1      22.136   0.695  12.234  0.00  0.00     0.174 HD
ENDBRANCH  25  27
ENDBRANCH   1  16
TORSDOF 10
ENDMDL
MODEL 2
REMARK VINA RESULT:      -6.4      2.166      6.496
REMARK  10 active torsions:
REMARK  status: ('A' for Active; 'I' for Inactive)
REMARK    1  A    between atoms: C2_2  and  C4_4 
REMARK    2  A    between atoms: C4_4  and  N6_5 
REMARK    3  A    between atoms: C4_4  and  C10_9 
REMARK    4  A    between atoms: C10_9  and  O12_11 
REMARK    5  A    between atoms: O12_11  and  C13_12 
REMARK    6  A    between atoms: C13_12  and  C14_13 
REMARK    7  A    between atoms: C14_13  and  O15_14 
REMARK    8  A    between atoms: O15_14  and  C16_15 
REMARK    9  A    between atoms: C16_15  and  N17_16 
REMARK   10  A    between atoms: C23_22  and  N24_23 
ROOT
ATOM      1  C16 ZIN A   1      18.622   3.973  14.216  0.00  0.00     0.301 C 
ENDROOT
BRANCH   1   2
ATOM      2  O15 ZIN A   1      18.949   3.791  12.837  0.00  0.00    -0.369 OA
BRANCH   2   3
ATOM      3  C14 ZIN A   1      18.399   4.788  11.973  0.00  0.00     0.196 C 
BRANCH   3   4
ATOM      4  C13 ZIN A   1      17.868   4.124  10.701  0.00  0.00     0.205 C 
BRANCH   4   5
ATOM      5  O12 ZIN A   1      17.092   2.950  11.056  0.00  0.00    -0.318 OA
BRANCH   5   6
ATOM      6  C10 ZIN A   1      17.579   1.758  10.673  0.00  0.00     0.290 C 
ATOM      7  O11 ZIN A   1      16.955   0.750  10.900  0.00  0.00    -0.263 OA
BRANCH   6   8
ATOM      8  C4  ZIN A   1      18.905   1.681   9.961  0.00  0.00     0.285 C 
BRANCH   8   9
ATOM      9  C2  ZIN A   1      18.811   0.672   8.815  0.00  0.00     0.018 C 
ATOM     10  C1  ZIN A   1      19.084   1.380   7.487  0.00  0.00     0.012 C 
ATOM     11  C3  ZIN A   1      19.847  -0.435   9.026  0.00  0.00     0.012 C 
ENDBRANCH   8   9
BRANCH   8  12
ATOM     12  N6  ZIN A   1      19.945   1.253  10.907  0.00  0.00    -0.066 N 
ATOM     13  H7  ZIN A   1      19.541   1.148  11.825  0.00  0.00     0.275 HD
ATOM     14  H8  ZIN A   1      20.331   0.372  10.606  0.00  0.00     0.275 HD
ATOM     15  H9  ZIN A   1      20.676   1.948  10.940  0.00  0.00     0.275 HD
ENDBRANCH   8  12
ENDBRANCH   6   8
ENDBRANCH   5   6
ENDBRANCH   4   5
ENDBRANCH   3   4
ENDBRANCH   2   3
ENDBRANCH   1   2
BRANCH   1  16
ATOM     16  N17 ZIN A   1      18.844   2.719  14.941  0.00  0.00    -0.301 N 
ATOM     17  C21 ZIN A   1      18.875   2.564  16.300  0.00  0.00     0.186 A 
ATOM     18  C20 ZIN A   1      19.111   1.205  16.531  0.00  0.00     0.173 A 
ATOM     19  N22 ZIN A   1      18.726   3.397  17.337  0.00  0.00    -0.044 NA
ATOM     20  N19 ZIN A   1      19.221   0.605  15.320  0.00  0.00    -0.234 NA
ATOM     21  C26 ZIN A   1      19.190   0.748  17.867  0.00  0.00     0.292 A 
ATOM     22  C18 ZIN A   1      19.064   1.493  14.383  0.00  0.00     0.214 A 
ATOM     23  N25 ZIN A   1      19.025   1.647  18.863  0.00  0.00    -0.152 N 
ATOM     24  O27 ZIN A   1      19.395  -0.428  18.115  0.00  0.00    -0.265 OA
ATOM     25  C23 ZIN A   1      18.798   2.959  18.575  0.00  0.00     0.703 A 
ATOM     26  H44 ZIN A   1      19.073   1.357  19.787  0.00  0.00     0.187 HD
BRANCH  25  27
ATOM     27  N24 ZIN A   1      18.637   3.851  19.606  0.00  0.00    -0.233 N 
ATOM     28  H42 ZIN A   1      18.694   3.545  20.525  0.00  0.00     0.174 HD
ATOM     29  H43 ZIN A   1      18.468   4.787  19.415  0.00  0.00     0.174 HD
ENDBRANCH  25  27
ENDBRANCH   1  16
TORSDOF 10
ENDMDL
MODEL 3
REMARK VINA RESULT:      -6.4      4.453      7.242
REMARK  10 active torsions:
REMARK  status: ('A' for Active; 'I' for Inactive)
REMARK    1  A    between atoms: C2_2  and  C4_4 
REMARK    2  A    between atoms: C4_4  and  N6_5 
REMARK    3  A    between atoms: C4_4  and  C10_9 
REMARK    4  A    between atoms: C10_9  and  O12_11 
REMARK    5  A    between atoms: O12_11  and  C13_12 
REMARK    6  A    between atoms: C13_12  and  C14_13 
REMARK    7  A    between atoms: C14_13  and  O15_14 
REMARK    8  A    between atoms: O15_14  and  C16_15 
REMARK    9  A    between atoms: C16_15  and  N17_16 
REMARK   10  A    between atoms: C23_22  and  N24_23 
ROOT
ATOM      1  C16 ZIN A   1      18.886  -4.995   9.371  0.00  0.00     0.301 C 
ENDROOT
BRANCH   1   2
ATOM      2  O15 ZIN A   1      19.987  -5.009  10.281  0.00  0.00    -0.369 OA
BRANCH   2   3
ATOM      3  C14 ZIN A   1      19.838  -4.116  11.387  0.00  0.00     0.196 C 
BRANCH   3   4
ATOM      4  C13 ZIN A   1      18.355  -3.801  11.592  0.00  0.00     0.205 C 
BRANCH   4   5
ATOM      5  O12 ZIN A   1      18.213  -2.791  12.625  0.00  0.00    -0.318 OA
BRANCH   5   6
ATOM      6  C10 ZIN A   1      17.953  -1.538  12.219  0.00  0.00     0.290 C 
ATOM      7  O11 ZIN A   1      17.004  -1.319  11.505  0.00  0.00    -0.263 OA
BRANCH   6   8
ATOM      8  C4  ZIN A   1      18.846  -0.405  12.656  0.00  0.00     0.285 C 
BRANCH   8   9
ATOM      9  C2  ZIN A   1      19.389   0.321  11.423  0.00  0.00     0.018 C 
ATOM     10  C1  ZIN A   1      19.913   1.699  11.833  0.00  0.00     0.012 C 
ATOM     11  C3  ZIN A   1      20.529  -0.497  10.811  0.00  0.00     0.012 C 
ENDBRANCH   8   9
BRANCH   8  12
ATOM     12  N6  ZIN A   1      19.966  -0.940  13.442  0.00  0.00    -0.066 N 
ATOM     13  H7  ZIN A   1      20.836  -0.595  13.067  0.00  0.00     0.275 HD
ATOM     14  H8  ZIN A   1      19.873  -0.645  14.402  0.00  0.00     0.275 HD
ATOM     15  H9  ZIN A   1      19.957  -1.948  13.397  0.00  0.00     0.275 HD
ENDBRANCH   8  12
ENDBRANCH   6   8
ENDBRANCH   5   6
ENDBRANCH   4   5
ENDBRANCH   3   4
ENDBRANCH   2   3
ENDBRANCH   1   2
BRANCH   1  16
ATOM     16  N17 ZIN A   1      19.265  -4.268   8.156  0.00  0.00    -0.301 N 
ATOM     17  C21 ZIN A   1      18.908  -2.987   7.835  0.00  0.00     0.186 A 
ATOM     18  C20 ZIN A   1      19.499  -2.719   6.595  0.00  0.00     0.173 A 
ATOM     19  N22 ZIN A   1      18.177  -2.043   8.439  0.00  0.00    -0.044 NA
ATOM     20  N19 ZIN A   1      20.171  -3.835   6.219  0.00  0.00    -0.234 NA
ATOM     21  C26 ZIN A   1      19.299  -1.446   6.010  0.00  0.00     0.292 A 
ATOM     22  C18 ZIN A   1      20.035  -4.748   7.136  0.00  0.00     0.214 A 
ATOM     23  N25 ZIN A   1      18.552  -0.542   6.682  0.00  0.00    -0.152 N 
ATOM     24  O27 ZIN A   1      19.795  -1.168   4.932  0.00  0.00    -0.265 OA
ATOM     25  C23 ZIN A   1      18.002  -0.862   7.887  0.00  0.00     0.703 A 
ATOM     26  H44 ZIN A   1      18.403   0.338   6.303  0.00  0.00     0.187 HD
BRANCH  25  27
ATOM     27  N24 ZIN A   1      17.245   0.074   8.545  0.00  0.00    -0.233 N 
ATOM     28  H42 ZIN A   1      17.613   0.549   9.307  0.00  0.00     0.174 HD
ATOM     29  H43 ZIN A   1      16.341   0.261   8.248  0.00  0.00     0.174 HD
ENDBRANCH  25  27
ENDBRANCH   1  16
TORSDOF 10
ENDMDL
MODEL 4
REMARK VINA RESULT:      -6.3      3.782      5.463
REMARK  10 active torsions:
REMARK  status: ('A' for Active; 'I' for Inactive)
REMARK    1  A    between atoms: C2_2  and  C4_4 
REMARK    2  A    between atoms: C4_4  and  N6_5 
REMARK    3  A    between atoms: C4_4  and  C10_9 
REMARK    4  A    between atoms: C10_9  and  O12_11 
REMARK    5  A    between atoms: O12_11  and  C13_12 
REMARK    6  A    between atoms: C13_12  and  C14_13 
REMARK    7  A    between atoms: C14_13  and  O15_14 
REMARK    8  A    between atoms: O15_14  and  C16_15 
REMARK    9  A    between atoms: C16_15  and  N17_16 
REMARK   10  A    between atoms: C23_22  and  N24_23 
ROOT
ATOM      1  C16 ZIN A   1      18.259   1.376   9.127  0.00  0.00     0.301 C 
ENDROOT
BRANCH   1   2
ATOM      2  O15 ZIN A   1      18.674   2.742   9.193  0.00  0.00    -0.369 OA
BRANCH   2   3
ATOM      3  C14 ZIN A   1      18.666   3.288  10.514  0.00  0.00     0.196 C 
BRANCH   3   4
ATOM      4  C13 ZIN A   1      18.557   2.153  11.534  0.00  0.00     0.205 C 
BRANCH   4   5
ATOM      5  O12 ZIN A   1      19.863   1.897  12.113  0.00  0.00    -0.318 OA
BRANCH   5   6
ATOM      6  C10 ZIN A   1      20.129   0.633  12.480  0.00  0.00     0.290 C 
ATOM      7  O11 ZIN A   1      20.384   0.380  13.633  0.00  0.00    -0.263 OA
BRANCH   6   8
ATOM      8  C4  ZIN A   1      20.110  -0.469  11.452  0.00  0.00     0.285 C 
BRANCH   8   9
ATOM      9  C2  ZIN A   1      19.511  -1.734  12.071  0.00  0.00     0.018 C 
ATOM     10  C1  ZIN A   1      17.989  -1.707  11.913  0.00  0.00     0.012 C 
ATOM     11  C3  ZIN A   1      20.076  -2.966  11.360  0.00  0.00     0.012 C 
ENDBRANCH   8   9
BRANCH   8  12
ATOM     12  N6  ZIN A   1      21.482  -0.746  11.005  0.00  0.00    -0.066 N 
ATOM     13  H7  ZIN A   1      22.134  -0.246  11.591  0.00  0.00     0.275 HD
ATOM     14  H8  ZIN A   1      21.664  -1.736  11.069  0.00  0.00     0.275 HD
ATOM     15  H9  ZIN A   1      21.591  -0.444  10.048  0.00  0.00     0.275 HD
ENDBRANCH   8  12
ENDBRANCH   6   8
ENDBRANCH   5   6
ENDBRANCH   4   5
ENDBRANCH   3   4
ENDBRANCH   2   3
ENDBRANCH   1   2
BRANCH   1  16
ATOM     16  N17 ZIN A   1      18.635   0.814   7.826  0.00  0.00    -0.301 N 
ATOM     17  C21 ZIN A   1      18.699  -0.515   7.507  0.00  0.00     0.186 A 
ATOM     18  C20 ZIN A   1      19.095  -0.574   6.167  0.00  0.00     0.173 A 
ATOM     19  N22 ZIN A   1      18.467  -1.648   8.181  0.00  0.00    -0.044 NA
ATOM     20  N19 ZIN A   1      19.260   0.703   5.740  0.00  0.00    -0.234 NA
ATOM     21  C26 ZIN A   1      19.242  -1.842   5.559  0.00  0.00     0.292 A 
ATOM     22  C18 ZIN A   1      18.989   1.521   6.714  0.00  0.00     0.214 A 
ATOM     23  N25 ZIN A   1      18.986  -2.943   6.301  0.00  0.00    -0.152 N 
ATOM     24  O27 ZIN A   1      19.585  -1.941   4.393  0.00  0.00    -0.265 OA
ATOM     25  C23 ZIN A   1      18.603  -2.821   7.603  0.00  0.00     0.703 A 
ATOM     26  H44 ZIN A   1      19.077  -3.823   5.905  0.00  0.00     0.187 HD
BRANCH  25  27
ATOM     27  N24 ZIN A   1      18.353  -3.956   8.333  0.00  0.00    -0.233 N 
ATOM     28  H42 ZIN A   1      19.089  -4.469   8.701  0.00  0.00     0.174 HD
ATOM     29  H43 ZIN A   1      17.439  -4.244   8.481  0.00  0.00     0.174 HD
ENDBRANCH  25  27
ENDBRANCH   1  16
TORSDOF 10
ENDMDL
MODEL 5
REMARK VINA RESULT:      -6.2      3.776      6.835
REMARK  10 active torsions:
REMARK  status: ('A' for Active; 'I' for Inactive)
REMARK    1  A    between atoms: C2_2  and  C4_4 
REMARK    2  A    between atoms: C4_4  and  N6_5 
REMARK    3  A    between atoms: C4_4  and  C10_9 
REMARK    4  A    between atoms: C10_9  and  O12_11 
REMARK    5  A    between atoms: O12_11  and  C13_12 
REMARK    6  A    between atoms: C13_12  and  C14_13 
REMARK    7  A    between atoms: C14_13  and  O15_14 
REMARK    8  A    between atoms: O15_14  and  C16_15 
REMARK    9  A    between atoms: C16_15  and  N17_16 
REMARK   10  A    between atoms: C23_22  and  N24_23 
ROOT
ATOM      1  C16 ZIN A   1      19.638  -1.041   8.375  0.00  0.00     0.301 C 
ENDROOT
BRANCH   1   2
ATOM      2  O15 ZIN A   1      18.863  -1.243   7.191  0.00  0.00    -0.369 OA
BRANCH   2   3
ATOM      3  C14 ZIN A   1      18.277  -2.542   7.094  0.00  0.00     0.196 C 
BRANCH   3   4
ATOM      4  C13 ZIN A   1      19.286  -3.593   7.563  0.00  0.00     0.205 C 
BRANCH   4   5
ATOM      5  O12 ZIN A   1      18.738  -4.318   8.695  0.00  0.00    -0.318 OA
BRANCH   5   6
ATOM      6  C10 ZIN A   1      19.615  -4.819   9.580  0.00  0.00     0.290 C 
ATOM      7  O11 ZIN A   1      20.414  -5.655   9.232  0.00  0.00    -0.263 OA
BRANCH   6   8
ATOM      8  C4  ZIN A   1      19.601  -4.338  11.008  0.00  0.00     0.285 C 
BRANCH   8   9
ATOM      9  C2  ZIN A   1      18.184  -3.905  11.388  0.00  0.00     0.018 C 
ATOM     10  C1  ZIN A   1      17.451  -5.076  12.045  0.00  0.00     0.012 C 
ATOM     11  C3  ZIN A   1      18.255  -2.732  12.369  0.00  0.00     0.012 C 
ENDBRANCH   8   9
BRANCH   8  12
ATOM     12  N6  ZIN A   1      20.517  -3.197  11.149  0.00  0.00    -0.066 N 
ATOM     13  H7  ZIN A   1      21.091  -3.122  10.324  0.00  0.00     0.275 HD
ATOM     14  H8  ZIN A   1      19.982  -2.349  11.265  0.00  0.00     0.275 HD
ATOM     15  H9  ZIN A   1      21.106  -3.336  11.957  0.00  0.00     0.275 HD
ENDBRANCH   8  12
ENDBRANCH   6   8
ENDBRANCH   5   6
ENDBRANCH   4   5
ENDBRANCH   3   4
ENDBRANCH   2   3
ENDBRANCH   1   2
BRANCH   1  16
ATOM     16  N17 ZIN A   1      19.411   0.314   8.883  0.00  0.00    -0.301 N 
ATOM     17  C21 ZIN A   1      19.631   0.747  10.162  0.00  0.00     0.186 A 
ATOM     18  C20 ZIN A   1      19.280   2.101  10.180  0.00  0.00     0.173 A 
ATOM     19  N22 ZIN A   1      20.084   0.164  11.278  0.00  0.00    -0.044 NA
ATOM     20  N19 ZIN A   1      18.860   2.424   8.933  0.00  0.00    -0.234 NA
ATOM     21  C26 ZIN A   1      19.412   2.819  11.392  0.00  0.00     0.292 A 
ATOM     22  C18 ZIN A   1      18.936   1.375   8.167  0.00  0.00     0.214 A 
ATOM     23  N25 ZIN A   1      19.880   2.164  12.478  0.00  0.00    -0.152 N 
ATOM     24  O27 ZIN A   1      19.118   4.000  11.454  0.00  0.00    -0.265 OA
ATOM     25  C23 ZIN A   1      20.206   0.843  12.398  0.00  0.00     0.703 A 
ATOM     26  H44 ZIN A   1      19.981   2.636  13.319  0.00  0.00     0.187 HD
BRANCH  25  27
ATOM     27  N24 ZIN A   1      20.675   0.203  13.518  0.00  0.00    -0.233 N 
ATOM     28  H42 ZIN A   1      21.421   0.576  14.013  0.00  0.00     0.174 HD
ATOM     29  H43 ZIN A   1      20.261  -0.623  13.812  0.00  0.00     0.174 HD
ENDBRANCH  25  27
ENDBRANCH   1  16
TORSDOF 10
ENDMDL
MODEL 6
REMARK VINA RESULT:      -6.2      2.778      6.748
REMARK  10 active torsions:
REMARK  status: ('A' for Active; 'I' for Inactive)
REMARK    1  A    between atoms: C2_2  and  C4_4 
REMARK    2  A    between atoms: C4_4  and  N6_5 
REMARK    3  A    between atoms: C4_4  and  C10_9 
REMARK    4  A    between atoms: C10_9  and  O12_11 
REMARK    5  A    between atoms: O12_11  and  C13_12 
REMARK    6  A    between atoms: C13_12  and  C14_13 
REMARK    7  A    between atoms: C14_13  and  O15_14 
REMARK    8  A    between atoms: O15_14  and  C16_15 
REMARK    9  A    between atoms: C16_15  and  N17_16 
REMARK   10  A    between atoms: C23_22  and  N24_23 
ROOT
ATOM      1  C16 ZIN A   1      16.775  -0.142  11.518  0.00  0.00     0.301 C 
ENDROOT
BRANCH   1   2
ATOM      2  O15 ZIN A   1      16.955  -1.438  12.092  0.00  0.00    -0.369 OA
BRANCH   2   3
ATOM      3  C14 ZIN A   1      17.871  -2.269  11.377  0.00  0.00     0.196 C 
BRANCH   3   4
ATOM      4  C13 ZIN A   1      17.730  -2.009   9.876  0.00  0.00     0.205 C 
BRANCH   4   5
ATOM      5  O12 ZIN A   1      19.046  -1.834   9.289  0.00  0.00    -0.318 OA
BRANCH   5   6
ATOM      6  C10 ZIN A   1      19.550  -0.589   9.284  0.00  0.00     0.290 C 
ATOM      7  O11 ZIN A   1      20.590  -0.356   9.852  0.00  0.00    -0.263 OA
BRANCH   6   8
ATOM      8  C4  ZIN A   1      18.817   0.517   8.570  0.00  0.00     0.285 C 
BRANCH   8   9
ATOM      9  C2  ZIN A   1      18.647   0.148   7.095  0.00  0.00     0.018 C 
ATOM     10  C1  ZIN A   1      17.166  -0.091   6.796  0.00  0.00     0.012 C 
ATOM     11  C3  ZIN A   1      19.166   1.292   6.221  0.00  0.00     0.012 C 
ENDBRANCH   8   9
BRANCH   8  12
ATOM     12  N6  ZIN A   1      19.587   1.764   8.678  0.00  0.00    -0.066 N 
ATOM     13  H7  ZIN A   1      20.571   1.548   8.733  0.00  0.00     0.275 HD
ATOM     14  H8  ZIN A   1      19.414   2.337   7.866  0.00  0.00     0.275 HD
ATOM     15  H9  ZIN A   1      19.305   2.263   9.508  0.00  0.00     0.275 HD
ENDBRANCH   8  12
ENDBRANCH   6   8
ENDBRANCH   5   6
ENDBRANCH   4   5
ENDBRANCH   3   4
ENDBRANCH   2   3
ENDBRANCH   1   2
BRANCH   1  16
ATOM     16  N17 ZIN A   1      17.393   0.866  12.384  0.00  0.00    -0.301 N 
ATOM     17  C21 ZIN A   1      17.644   2.170  12.056  0.00  0.00     0.186 A 
ATOM     18  C20 ZIN A   1      18.233   2.748  13.186  0.00  0.00     0.173 A 
ATOM     19  N22 ZIN A   1      17.438   2.913  10.962  0.00  0.00    -0.044 NA
ATOM     20  N19 ZIN A   1      18.321   1.782  14.133  0.00  0.00    -0.234 NA
ATOM     21  C26 ZIN A   1      18.601   4.113  13.135  0.00  0.00     0.292 A 
ATOM     22  C18 ZIN A   1      17.827   0.674  13.664  0.00  0.00     0.214 A 
ATOM     23  N25 ZIN A   1      18.359   4.801  11.996  0.00  0.00    -0.152 N 
ATOM     24  O27 ZIN A   1      19.118   4.658  14.095  0.00  0.00    -0.265 OA
ATOM     25  C23 ZIN A   1      17.782   4.182  10.928  0.00  0.00     0.703 A 
ATOM     26  H44 ZIN A   1      18.600   5.738  11.939  0.00  0.00     0.187 HD
BRANCH  25  27
ATOM     27  N24 ZIN A   1      17.550   4.904   9.784  0.00  0.00    -0.233 N 
ATOM     28  H42 ZIN A   1      16.964   5.676   9.807  0.00  0.00     0.174 HD
ATOM     29  H43 ZIN A   1      17.974   4.641   8.952  0.00  0.00     0.174 HD
ENDBRANCH  25  27
ENDBRANCH   1  16
TORSDOF 10
ENDMDL
MODEL 7
REMARK VINA RESULT:      -6.1      2.019      2.811
REMARK  10 active torsions:
REMARK  status: ('A' for Active; 'I' for Inactive)
REMARK    1  A    between atoms: C2_2  and  C4_4 
REMARK    2  A    between atoms: C4_4  and  N6_5 
REMARK    3  A    between atoms: C4_4  and  C10_9 
REMARK    4  A    between atoms: C10_9  and  O12_11 
REMARK    5  A    between atoms: O12_11  and  C13_12 
REMARK    6  A    between atoms: C13_12  and  C14_13 
REMARK    7  A    between atoms: C14_13  and  O15_14 
REMARK    8  A    between atoms: O15_14  and  C16_15 
REMARK    9  A    between atoms: C16_15  and  N17_16 
REMARK   10  A    between atoms: C23_22  and  N24_23 
ROOT
ATOM      1  C16 ZIN A   1      19.544   2.844  11.327  0.00  0.00     0.301 C 
ENDROOT
BRANCH   1   2
ATOM      2  O15 ZIN A   1      18.329   3.537  11.613  0.00  0.00    -0.369 OA
BRANCH   2   3
ATOM      3  C14 ZIN A   1      18.493   4.669  12.471  0.00  0.00     0.196 C 
BRANCH   3   4
ATOM      4  C13 ZIN A   1      18.902   4.195  13.867  0.00  0.00     0.205 C 
BRANCH   4   5
ATOM      5  O12 ZIN A   1      17.928   3.237  14.357  0.00  0.00    -0.318 OA
BRANCH   5   6
ATOM      6  C10 ZIN A   1      18.404   2.165  15.010  0.00  0.00     0.290 C 
ATOM      7  O11 ZIN A   1      19.329   2.286  15.778  0.00  0.00    -0.263 OA
BRANCH   6   8
ATOM      8  C4  ZIN A   1      17.785   0.809  14.785  0.00  0.00     0.285 C 
BRANCH   8   9
ATOM      9  C2  ZIN A   1      18.551  -0.243  15.588  0.00  0.00     0.018 C 
ATOM     10  C1  ZIN A   1      17.581  -0.995  16.501  0.00  0.00     0.012 C 
ATOM     11  C3  ZIN A   1      19.219  -1.230  14.628  0.00  0.00     0.012 C 
ENDBRANCH   8   9
BRANCH   8  12
ATOM     12  N6  ZIN A   1      17.846   0.475  13.355  0.00  0.00    -0.066 N 
ATOM     13  H7  ZIN A   1      18.654   0.914  12.942  0.00  0.00     0.275 HD
ATOM     14  H8  ZIN A   1      17.915  -0.526  13.247  0.00  0.00     0.275 HD
ATOM     15  H9  ZIN A   1      17.011   0.807  12.896  0.00  0.00     0.275 HD
ENDBRANCH   8  12
ENDBRANCH   6   8
ENDBRANCH   5   6
ENDBRANCH   4   5
ENDBRANCH   3   4
ENDBRANCH   2   3
ENDBRANCH   1   2
BRANCH   1  16
ATOM     16  N17 ZIN A   1      19.363   2.013  10.133  0.00  0.00    -0.301 N 
ATOM     17  C21 ZIN A   1      19.556   0.661  10.052  0.00  0.00     0.186 A 
ATOM     18  C20 ZIN A   1      19.262   0.305   8.731  0.00  0.00     0.173 A 
ATOM     19  N22 ZIN A   1      19.929  -0.282  10.926  0.00  0.00    -0.044 NA
ATOM     20  N19 ZIN A   1      18.918   1.441   8.076  0.00  0.00    -0.234 NA
ATOM     21  C26 ZIN A   1      19.374  -1.053   8.354  0.00  0.00     0.292 A 
ATOM     22  C18 ZIN A   1      18.976   2.447   8.899  0.00  0.00     0.214 A 
ATOM     23  N25 ZIN A   1      19.752  -1.951   9.293  0.00  0.00    -0.152 N 
ATOM     24  O27 ZIN A   1      19.128  -1.409   7.214  0.00  0.00    -0.265 OA
ATOM     25  C23 ZIN A   1      20.025  -1.543  10.564  0.00  0.00     0.703 A 
ATOM     26  H44 ZIN A   1      19.833  -2.888   9.058  0.00  0.00     0.187 HD
BRANCH  25  27
ATOM     27  N24 ZIN A   1      20.411  -2.475  11.495  0.00  0.00    -0.233 N 
ATOM     28  H42 ZIN A   1      19.832  -2.680  12.245  0.00  0.00     0.174 HD
ATOM     29  H43 ZIN A   1      21.263  -2.928  11.401  0.00  0.00     0.174 HD
ENDBRANCH  25  27
ENDBRANCH   1  16
TORSDOF 10
ENDMDL
MODEL 8
REMARK VINA RESULT:      -6.1      2.602      4.689
REMARK  10 active torsions:
REMARK  status: ('A' for Active; 'I' for Inactive)
REMARK    1  A    between atoms: C2_2  and  C4_4 
REMARK    2  A    between atoms: C4_4  and  N6_5 
REMARK    3  A    between atoms: C4_4  and  C10_9 
REMARK    4  A    between atoms: C10_9  and  O12_11 
REMARK    5  A    between atoms: O12_11  and  C13_12 
REMARK    6  A    between atoms: C13_12  and  C14_13 
REMARK    7  A    between atoms: C14_13  and  O15_14 
REMARK    8  A    between atoms: O15_14  and  C16_15 
REMARK    9  A    between atoms: C16_15  and  N17_16 
REMARK   10  A    between atoms: C23_22  and  N24_23 
ROOT
ATOM      1  C16 ZIN A   1      19.326   2.989  10.734  0.00  0.00     0.301 C 
ENDROOT
BRANCH   1   2
ATOM      2  O15 ZIN A   1      19.256   1.624  11.148  0.00  0.00    -0.369 OA
BRANCH   2   3
ATOM      3  C14 ZIN A   1      18.932   0.713  10.095  0.00  0.00     0.196 C 
BRANCH   3   4
ATOM      4  C13 ZIN A   1      18.765  -0.694  10.672  0.00  0.00     0.205 C 
BRANCH   4   5
ATOM      5  O12 ZIN A   1      19.740  -0.904  11.726  0.00  0.00    -0.318 OA
BRANCH   5   6
ATOM      6  C10 ZIN A   1      19.297  -1.464  12.864  0.00  0.00     0.290 C 
ATOM      7  O11 ZIN A   1      18.660  -2.489  12.824  0.00  0.00    -0.263 OA
BRANCH   6   8
ATOM      8  C4  ZIN A   1      19.595  -0.812  14.189  0.00  0.00     0.285 C 
BRANCH   8   9
ATOM      9  C2  ZIN A   1      18.381  -0.947  15.110  0.00  0.00     0.018 C 
ATOM     10  C1  ZIN A   1      18.849  -1.299  16.523  0.00  0.00     0.012 C 
ATOM     11  C3  ZIN A   1      17.614   0.377  15.140  0.00  0.00     0.012 C 
ENDBRANCH   8   9
BRANCH   8  12
ATOM     12  N6  ZIN A   1      19.894   0.612  13.978  0.00  0.00    -0.066 N 
ATOM     13  H7  ZIN A   1      20.884   0.728  13.826  0.00  0.00     0.275 HD
ATOM     14  H8  ZIN A   1      19.388   0.945  13.173  0.00  0.00     0.275 HD
ATOM     15  H9  ZIN A   1      19.615   1.138  14.793  0.00  0.00     0.275 HD
ENDBRANCH   8  12
ENDBRANCH   6   8
ENDBRANCH   5   6
ENDBRANCH   4   5
ENDBRANCH   3   4
ENDBRANCH   2   3
ENDBRANCH   1   2
BRANCH   1  16
ATOM     16  N17 ZIN A   1      18.247   3.749  11.371  0.00  0.00    -0.301 N 
ATOM     17  C21 ZIN A   1      18.097   3.972  12.713  0.00  0.00     0.186 A 
ATOM     18  C20 ZIN A   1      16.936   4.741  12.851  0.00  0.00     0.173 A 
ATOM     19  N22 ZIN A   1      18.796   3.625  13.799  0.00  0.00    -0.044 NA
ATOM     20  N19 ZIN A   1      16.436   4.942  11.607  0.00  0.00    -0.234 NA
ATOM     21  C26 ZIN A   1      16.532   5.130  14.149  0.00  0.00     0.292 A 
ATOM     22  C18 ZIN A   1      17.205   4.359  10.735  0.00  0.00     0.214 A 
ATOM     23  N25 ZIN A   1      17.292   4.746  15.200  0.00  0.00    -0.152 N 
ATOM     24  O27 ZIN A   1      15.528   5.801  14.317  0.00  0.00    -0.265 OA
ATOM     25  C23 ZIN A   1      18.412   3.996  15.001  0.00  0.00     0.703 A 
ATOM     26  H44 ZIN A   1      17.036   5.003  16.099  0.00  0.00     0.187 HD
BRANCH  25  27
ATOM     27  N24 ZIN A   1      19.162   3.617  16.087  0.00  0.00    -0.233 N 
ATOM     28  H42 ZIN A   1      18.892   2.855  16.621  0.00  0.00     0.174 HD
ATOM     29  H43 ZIN A   1      19.963   4.113  16.318  0.00  0.00     0.174 HD
ENDBRANCH  25  27
ENDBRANCH   1  16
TORSDOF 10
ENDMDL
MODEL 9
REMARK VINA RESULT:      -6.0      5.443      8.504
REMARK  10 active torsions:
REMARK  status: ('A' for Active; 'I' for Inactive)
REMARK    1  A    between atoms: C2_2  and  C4_4 
REMARK    2  A    between atoms: C4_4  and  N6_5 
REMARK    3  A    between atoms: C4_4  and  C10_9 
REMARK    4  A    between atoms: C10_9  and  O12_11 
REMARK    5  A    between atoms: O12_11  and  C13_12 
REMARK    6  A    between atoms: C13_12  and  C14_13 
REMARK    7  A    between atoms: C14_13  and  O15_14 
REMARK    8  A    between atoms: O15_14  and  C16_15 
REMARK    9  A    between atoms: C16_15  and  N17_16 
REMARK   10  A    between atoms: C23_22  and  N24_23 
ROOT
ATOM      1  C16 ZIN A   1      17.496  -2.054  11.308  0.00  0.00     0.301 C 
ENDROOT
BRANCH   1   2
ATOM      2  O15 ZIN A   1      17.865  -0.871  10.597  0.00  0.00    -0.369 OA
BRANCH   2   3
ATOM      3  C14 ZIN A   1      19.125  -0.324  10.993  0.00  0.00     0.196 C 
BRANCH   3   4
ATOM      4  C13 ZIN A   1      19.502   0.820  10.050  0.00  0.00     0.205 C 
BRANCH   4   5
ATOM      5  O12 ZIN A   1      19.876   0.278   8.756  0.00  0.00    -0.318 OA
BRANCH   5   6
ATOM      6  C10 ZIN A   1      19.074   0.567   7.719  0.00  0.00     0.290 C 
ATOM      7  O11 ZIN A   1      18.894   1.717   7.398  0.00  0.00    -0.263 OA
BRANCH   6   8
ATOM      8  C4  ZIN A   1      18.398  -0.544   6.957  0.00  0.00     0.285 C 
BRANCH   8   9
ATOM      9  C2  ZIN A   1      18.252  -0.141   5.489  0.00  0.00     0.018 C 
ATOM     10  C1  ZIN A   1      19.627  -0.157   4.816  0.00  0.00     0.012 C 
ATOM     11  C3  ZIN A   1      17.325  -1.129   4.779  0.00  0.00     0.012 C 
ENDBRANCH   8   9
BRANCH   8  12
ATOM     12  N6  ZIN A   1      17.069  -0.793   7.531  0.00  0.00    -0.066 N 
ATOM     13  H7  ZIN A   1      17.162  -1.350   8.366  0.00  0.00     0.275 HD
ATOM     14  H8  ZIN A   1      16.632   0.087   7.761  0.00  0.00     0.275 HD
ATOM     15  H9  ZIN A   1      16.500  -1.287   6.860  0.00  0.00     0.275 HD
ENDBRANCH   8  12
ENDBRANCH   6   8
ENDBRANCH   5   6
ENDBRANCH   4   5
ENDBRANCH   3   4
ENDBRANCH   2   3
ENDBRANCH   1   2
BRANCH   1  16
ATOM     16  N17 ZIN A   1      18.418  -3.139  10.962  0.00  0.00    -0.301 N 
ATOM     17  C21 ZIN A   1      18.479  -3.798   9.765  0.00  0.00     0.186 A 
ATOM     18  C20 ZIN A   1      19.504  -4.743   9.894  0.00  0.00     0.173 A 
ATOM     19  N22 ZIN A   1      17.807  -3.702   8.612  0.00  0.00    -0.044 NA
ATOM     20  N19 ZIN A   1      20.006  -4.623  11.147  0.00  0.00    -0.234 NA
ATOM     21  C26 ZIN A   1      19.798  -5.578   8.791  0.00  0.00     0.292 A 
ATOM     22  C18 ZIN A   1      19.369  -3.680  11.778  0.00  0.00     0.214 A 
ATOM     23  N25 ZIN A   1      19.079  -5.420   7.656  0.00  0.00    -0.152 N 
ATOM     24  O27 ZIN A   1      20.682  -6.414   8.858  0.00  0.00    -0.265 OA
ATOM     25  C23 ZIN A   1      18.093  -4.482   7.592  0.00  0.00     0.703 A 
ATOM     26  H44 ZIN A   1      19.264  -5.979   6.887  0.00  0.00     0.187 HD
BRANCH  25  27
ATOM     27  N24 ZIN A   1      17.377  -4.346   6.429  0.00  0.00    -0.233 N 
ATOM     28  H42 ZIN A   1      17.237  -5.113   5.852  0.00  0.00     0.174 HD
ATOM     29  H43 ZIN A   1      17.010  -3.482   6.185  0.00  0.00     0.174 HD
ENDBRANCH  25  27
ENDBRANCH   1  16
TORSDOF 10
ENDMDL
