MODEL 1
REMARK VINA RESULT:      -8.8      0.000      0.000
REMARK  5 active torsions:
REMARK  status: ('A' for Active; 'I' for Inactive)
REMARK    1  A    between atoms: O2_2  and  C3_3 
REMARK    2  A    between atoms: C5_5  and  C6_6 
REMARK    3  A    between atoms: C14_13  and  O16_14 
REMARK    4  A    between atoms: C29_25  and  O30_26 
REMARK    5  A    between atoms: C32_28  and  O33_29 
ROOT
ATOM      1  C6  ZIN A   1      17.536  -2.948   9.703  0.00  0.00     0.066 C 
ATOM      2  C8  ZIN A   1      17.969  -2.217  10.962  0.00  0.00    -0.037 A 
ATOM      3  C9  ZIN A   1      17.273  -1.045  11.262  0.00  0.00     0.048 A 
ATOM      4  C10 ZIN A   1      17.628  -0.353  12.408  0.00  0.00     0.105 A 
ATOM      5  C11 ZIN A   1      18.656  -0.820  13.241  0.00  0.00     0.105 A 
ATOM      6  C12 ZIN A   1      19.344  -1.982  12.936  0.00  0.00     0.050 A 
ATOM      7  C13 ZIN A   1      18.986  -2.671  11.775  0.00  0.00    -0.019 A 
ATOM      8  C14 ZIN A   1      19.791  -3.921  11.465  0.00  0.00     0.158 C 
ATOM      9  C17 ZIN A   1      19.607  -4.242   9.994  0.00  0.00     0.058 C 
ATOM     10  C19 ZIN A   1      20.023  -5.661   9.577  0.00  0.00     0.187 C 
ATOM     11  O20 ZIN A   1      19.122  -5.952   8.452  0.00  0.00    -0.321 OA
ATOM     12  C21 ZIN A   1      18.001  -5.197   8.527  0.00  0.00     0.264 C 
ATOM     13  O22 ZIN A   1      17.104  -5.181   7.719  0.00  0.00    -0.265 OA
ATOM     14  C23 ZIN A   1      18.062  -4.366   9.781  0.00  0.00     0.107 C 
ATOM     15  O25 ZIN A   1      18.795   0.032  14.281  0.00  0.00    -0.323 OA
ATOM     16  C26 ZIN A   1      18.116   1.242  13.882  0.00  0.00     0.352 C 
ATOM     17  O27 ZIN A   1      17.131   0.792  12.928  0.00  0.00    -0.323 OA
ENDROOT
BRANCH   1  18
ATOM     18  C5  ZIN A   1      18.109  -2.257   8.492  0.00  0.00    -0.043 A 
ATOM     19  C4  ZIN A   1      18.215  -0.880   8.470  0.00  0.00     0.047 A 
ATOM     20  C3  ZIN A   1      18.741  -0.240   7.358  0.00  0.00     0.104 A 
ATOM     21  C32 ZIN A   1      19.156  -0.986   6.261  0.00  0.00     0.135 A 
ATOM     22  C29 ZIN A   1      19.052  -2.372   6.289  0.00  0.00     0.104 A 
ATOM     23  C28 ZIN A   1      18.524  -3.003   7.405  0.00  0.00     0.047 A 
BRANCH  20  24
ATOM     24  O2  ZIN A   1      18.846   1.116   7.338  0.00  0.00    -0.353 OA
ATOM     25  C1  ZIN A   1      19.155   1.761   8.575  0.00  0.00     0.210 C 
ENDBRANCH  20  24
BRANCH  21  26
ATOM     26  O33 ZIN A   1      19.672  -0.363   5.168  0.00  0.00    -0.351 OA
ATOM     27  C34 ZIN A   1      18.748   0.052   4.160  0.00  0.00     0.210 C 
ENDBRANCH  21  26
BRANCH  22  28
ATOM     28  O30 ZIN A   1      19.460  -3.106   5.220  0.00  0.00    -0.353 OA
ATOM     29  C31 ZIN A   1      18.440  -3.681   4.399  0.00  0.00     0.210 C 
ENDBRANCH  22  28
ENDBRANCH   1  18
BRANCH   8  30
ATOM     30  O16 ZIN A   1      21.173  -3.685  11.740  0.00  0.00    -0.390 OA
ATOM     31  H41 ZIN A   1      21.354  -2.823  12.140  0.00  0.00     0.210 HD
ENDBRANCH   8  30
TORSDOF 5
ENDMDL
MODEL 2
REMARK VINA RESULT:      -8.8      0.043      2.334
REMARK  5 active torsions:
REMARK  status: ('A' for Active; 'I' for Inactive)
REMARK    1  A    between atoms: O2_2  and  C3_3 
REMARK    2  A    between atoms: C5_5  and  C6_6 
REMARK    3  A    between atoms: C14_13  and  O16_14 
REMARK    4  A    between atoms: C29_25  and  O30_26 
REMARK    5  A    between atoms: C32_28  and  O33_29 
ROOT
ATOM      1  C6  ZIN A   1      17.537  -2.958   9.731  0.00  0.00     0.066 C 
ATOM      2  C8  ZIN A   1      17.976  -2.236  10.993  0.00  0.00    -0.037 A 
ATOM      3  C9  ZIN A   1      17.279  -1.068  11.306  0.00  0.00     0.048 A 
ATOM      4  C10 ZIN A   1      17.640  -0.383  12.455  0.00  0.00     0.105 A 
ATOM      5  C11 ZIN A   1      18.675  -0.855  13.278  0.00  0.00     0.105 A 
ATOM      6  C12 ZIN A   1      19.363  -2.013  12.959  0.00  0.00     0.050 A 
ATOM      7  C13 ZIN A   1      18.999  -2.693  11.796  0.00  0.00    -0.019 A 
ATOM      8  C14 ZIN A   1      19.805  -3.939  11.471  0.00  0.00     0.158 C 
ATOM      9  C17 ZIN A   1      19.612  -4.249   9.999  0.00  0.00     0.058 C 
ATOM     10  C19 ZIN A   1      20.029  -5.664   9.568  0.00  0.00     0.187 C 
ATOM     11  O20 ZIN A   1      19.121  -5.948   8.446  0.00  0.00    -0.321 OA
ATOM     12  C21 ZIN A   1      17.999  -5.196   8.534  0.00  0.00     0.264 C 
ATOM     13  O22 ZIN A   1      17.097  -5.176   7.732  0.00  0.00    -0.265 OA
ATOM     14  C23 ZIN A   1      18.067  -4.375   9.794  0.00  0.00     0.107 C 
ATOM     15  O25 ZIN A   1      18.818  -0.010  14.323  0.00  0.00    -0.323 OA
ATOM     16  C26 ZIN A   1      18.133   1.201  13.939  0.00  0.00     0.352 C 
ATOM     17  O27 ZIN A   1      17.144   0.756  12.988  0.00  0.00    -0.323 OA
ENDROOT
BRANCH   1  18
ATOM     18  C5  ZIN A   1      18.099  -2.257   8.521  0.00  0.00    -0.043 A 
ATOM     19  C4  ZIN A   1      18.533  -2.995   7.436  0.00  0.00     0.047 A 
ATOM     20  C3  ZIN A   1      19.051  -2.355   6.321  0.00  0.00     0.104 A 
ATOM     21  C32 ZIN A   1      19.140  -0.967   6.298  0.00  0.00     0.135 A 
ATOM     22  C29 ZIN A   1      18.699  -0.229   7.389  0.00  0.00     0.104 A 
ATOM     23  C28 ZIN A   1      18.182  -0.877   8.500  0.00  0.00     0.047 A 
BRANCH  20  24
ATOM     24  O2  ZIN A   1      19.477  -3.082   5.254  0.00  0.00    -0.353 OA
ATOM     25  C1  ZIN A   1      18.470  -3.653   4.415  0.00  0.00     0.210 C 
ENDBRANCH  20  24
BRANCH  21  26
ATOM     26  O33 ZIN A   1      19.649  -0.335   5.206  0.00  0.00    -0.351 OA
ATOM     27  C34 ZIN A   1      18.724   0.045   4.186  0.00  0.00     0.210 C 
ENDBRANCH  21  26
BRANCH  22  28
ATOM     28  O30 ZIN A   1      18.780   1.129   7.369  0.00  0.00    -0.353 OA
ATOM     29  C31 ZIN A   1      19.123   1.776   8.596  0.00  0.00     0.210 C 
ENDBRANCH  22  28
ENDBRANCH   1  18
BRANCH   8  30
ATOM     30  O16 ZIN A   1      21.189  -3.702  11.738  0.00  0.00    -0.390 OA
ATOM     31  H41 ZIN A   1      21.352  -3.191  12.543  0.00  0.00     0.210 HD
ENDBRANCH   8  30
TORSDOF 5
ENDMDL
MODEL 3
REMARK VINA RESULT:      -8.8      5.529      8.562
REMARK  5 active torsions:
REMARK  status: ('A' for Active; 'I' for Inactive)
REMARK    1  A    between atoms: O2_2  and  C3_3 
REMARK    2  A    between atoms: C5_5  and  C6_6 
REMARK    3  A    between atoms: C14_13  and  O16_14 
REMARK    4  A    between atoms: C29_25  and  O30_26 
REMARK    5  A    between atoms: C32_28  and  O33_29 
ROOT
ATOM      1  C6  ZIN A   1      17.288   2.652  13.064  0.00  0.00     0.066 C 
ATOM      2  C8  ZIN A   1      18.017   1.530  13.781  0.00  0.00    -0.037 A 
ATOM      3  C9  ZIN A   1      17.493   1.149  15.018  0.00  0.00     0.048 A 
ATOM      4  C10 ZIN A   1      18.120   0.120  15.702  0.00  0.00     0.105 A 
ATOM      5  C11 ZIN A   1      19.248  -0.518  15.163  0.00  0.00     0.105 A 
ATOM      6  C12 ZIN A   1      19.764  -0.133  13.938  0.00  0.00     0.050 A 
ATOM      7  C13 ZIN A   1      19.131   0.909  13.258  0.00  0.00    -0.019 A 
ATOM      8  C14 ZIN A   1      19.753   1.318  11.934  0.00  0.00     0.158 C 
ATOM      9  C17 ZIN A   1      19.261   2.713  11.597  0.00  0.00     0.058 C 
ATOM     10  C19 ZIN A   1      19.468   3.145  10.137  0.00  0.00     0.187 C 
ATOM     11  O20 ZIN A   1      18.345   4.064   9.903  0.00  0.00    -0.321 OA
ATOM     12  C21 ZIN A   1      17.327   3.806  10.757  0.00  0.00     0.264 C 
ATOM     13  O22 ZIN A   1      16.294   4.427  10.834  0.00  0.00    -0.265 OA
ATOM     14  C23 ZIN A   1      17.700   2.621  11.607  0.00  0.00     0.107 C 
ATOM     15  O25 ZIN A   1      19.657  -1.478  16.023  0.00  0.00    -0.323 OA
ATOM     16  C26 ZIN A   1      19.016  -1.169  17.279  0.00  0.00     0.352 C 
ATOM     17  O27 ZIN A   1      17.831  -0.440  16.897  0.00  0.00    -0.323 OA
ENDROOT
BRANCH   1  18
ATOM     18  C5  ZIN A   1      17.670   3.977  13.673  0.00  0.00    -0.043 A 
ATOM     19  C4  ZIN A   1      16.691   4.802  14.195  0.00  0.00     0.047 A 
ATOM     20  C3  ZIN A   1      17.037   6.022  14.757  0.00  0.00     0.104 A 
ATOM     21  C32 ZIN A   1      18.370   6.418  14.788  0.00  0.00     0.135 A 
ATOM     22  C29 ZIN A   1      19.350   5.583  14.266  0.00  0.00     0.104 A 
ATOM     23  C28 ZIN A   1      18.996   4.365  13.706  0.00  0.00     0.047 A 
BRANCH  20  24
ATOM     24  O2  ZIN A   1      16.074   6.833  15.271  0.00  0.00    -0.353 OA
ATOM     25  C1  ZIN A   1      14.716   6.454  15.040  0.00  0.00     0.210 C 
ENDBRANCH  20  24
BRANCH  21  26
ATOM     26  O33 ZIN A   1      18.713   7.614  15.337  0.00  0.00    -0.351 OA
ATOM     27  C34 ZIN A   1      18.104   8.782  14.784  0.00  0.00     0.210 C 
ENDBRANCH  21  26
BRANCH  22  28
ATOM     28  O30 ZIN A   1      20.655   5.963  14.298  0.00  0.00    -0.353 OA
ATOM     29  C31 ZIN A   1      21.355   5.777  15.531  0.00  0.00     0.210 C 
ENDBRANCH  22  28
ENDBRANCH   1  18
BRANCH   8  30
ATOM     30  O16 ZIN A   1      21.178   1.323  12.051  0.00  0.00    -0.390 OA
ATOM     31  H41 ZIN A   1      21.639   1.032  11.252  0.00  0.00     0.210 HD
ENDBRANCH   8  30
TORSDOF 5
ENDMDL
MODEL 4
REMARK VINA RESULT:      -8.8      5.535      8.603
REMARK  5 active torsions:
REMARK  status: ('A' for Active; 'I' for Inactive)
REMARK    1  A    between atoms: O2_2  and  C3_3 
REMARK    2  A    between atoms: C5_5  and  C6_6 
REMARK    3  A    between atoms: C14_13  and  O16_14 
REMARK    4  A    between atoms: C29_25  and  O30_26 
REMARK    5  A    between atoms: C32_28  and  O33_29 
ROOT
ATOM      1  C6  ZIN A   1      17.290   2.655  13.062  0.00  0.00     0.066 C 
ATOM      2  C8  ZIN A   1      18.019   1.532  13.778  0.00  0.00    -0.037 A 
ATOM      3  C9  ZIN A   1      17.493   1.147  15.013  0.00  0.00     0.048 A 
ATOM      4  C10 ZIN A   1      18.120   0.118  15.695  0.00  0.00     0.105 A 
ATOM      5  C11 ZIN A   1      19.250  -0.518  15.157  0.00  0.00     0.105 A 
ATOM      6  C12 ZIN A   1      19.768  -0.129  13.933  0.00  0.00     0.050 A 
ATOM      7  C13 ZIN A   1      19.135   0.914  13.255  0.00  0.00    -0.019 A 
ATOM      8  C14 ZIN A   1      19.759   1.326  11.933  0.00  0.00     0.158 C 
ATOM      9  C17 ZIN A   1      19.265   2.721  11.599  0.00  0.00     0.058 C 
ATOM     10  C19 ZIN A   1      19.475   3.158  10.140  0.00  0.00     0.187 C 
ATOM     11  O20 ZIN A   1      18.351   4.076   9.906  0.00  0.00    -0.321 OA
ATOM     12  C21 ZIN A   1      17.332   3.815  10.758  0.00  0.00     0.264 C 
ATOM     13  O22 ZIN A   1      16.298   4.435  10.835  0.00  0.00    -0.265 OA
ATOM     14  C23 ZIN A   1      17.704   2.628  11.605  0.00  0.00     0.107 C 
ATOM     15  O25 ZIN A   1      19.658  -1.479  16.015  0.00  0.00    -0.323 OA
ATOM     16  C26 ZIN A   1      19.015  -1.174  17.271  0.00  0.00     0.352 C 
ATOM     17  O27 ZIN A   1      17.830  -0.446  16.889  0.00  0.00    -0.323 OA
ENDROOT
BRANCH   1  18
ATOM     18  C5  ZIN A   1      17.669   3.979  13.675  0.00  0.00    -0.043 A 
ATOM     19  C4  ZIN A   1      18.994   4.373  13.699  0.00  0.00     0.047 A 
ATOM     20  C3  ZIN A   1      19.348   5.590  14.262  0.00  0.00     0.104 A 
ATOM     21  C32 ZIN A   1      18.367   6.413  14.807  0.00  0.00     0.135 A 
ATOM     22  C29 ZIN A   1      17.036   6.015  14.776  0.00  0.00     0.104 A 
ATOM     23  C28 ZIN A   1      16.692   4.796  14.212  0.00  0.00     0.047 A 
BRANCH  20  24
ATOM     24  O2  ZIN A   1      20.651   5.977  14.285  0.00  0.00    -0.353 OA
ATOM     25  C1  ZIN A   1      21.363   5.780  15.509  0.00  0.00     0.210 C 
ENDBRANCH  20  24
BRANCH  21  26
ATOM     26  O33 ZIN A   1      18.710   7.607  15.360  0.00  0.00    -0.351 OA
ATOM     27  C34 ZIN A   1      18.141   8.781  14.778  0.00  0.00     0.210 C 
ENDBRANCH  21  26
BRANCH  22  28
ATOM     28  O30 ZIN A   1      16.074   6.817  15.304  0.00  0.00    -0.353 OA
ATOM     29  C31 ZIN A   1      14.714   6.455  15.048  0.00  0.00     0.210 C 
ENDBRANCH  22  28
ENDBRANCH   1  18
BRANCH   8  30
ATOM     30  O16 ZIN A   1      21.183   1.333  12.053  0.00  0.00    -0.390 OA
ATOM     31  H41 ZIN A   1      21.523   1.993  12.673  0.00  0.00     0.210 HD
ENDBRANCH   8  30
TORSDOF 5
ENDMDL
MODEL 5
REMARK VINA RESULT:      -8.7      2.828      7.564
REMARK  5 active torsions:
REMARK  status: ('A' for Active; 'I' for Inactive)
REMARK    1  A    between atoms: O2_2  and  C3_3 
REMARK    2  A    between atoms: C5_5  and  C6_6 
REMARK    3  A    between atoms: C14_13  and  O16_14 
REMARK    4  A    between atoms: C29_25  and  O30_26 
REMARK    5  A    between atoms: C32_28  and  O33_29 
ROOT
ATOM      1  C6  ZIN A   1      17.237   0.503  11.467  0.00  0.00     0.066 C 
ATOM      2  C8  ZIN A   1      17.698  -0.897  11.101  0.00  0.00    -0.037 A 
ATOM      3  C9  ZIN A   1      17.023  -1.948  11.726  0.00  0.00     0.048 A 
ATOM      4  C10 ZIN A   1      17.403  -3.242  11.413  0.00  0.00     0.105 A 
ATOM      5  C11 ZIN A   1      18.435  -3.486  10.493  0.00  0.00     0.105 A 
ATOM      6  C12 ZIN A   1      19.102  -2.439   9.880  0.00  0.00     0.050 A 
ATOM      7  C13 ZIN A   1      18.718  -1.137  10.206  0.00  0.00    -0.019 A 
ATOM      8  C14 ZIN A   1      19.500  -0.022   9.534  0.00  0.00     0.158 C 
ATOM      9  C17 ZIN A   1      19.293   1.246  10.339  0.00  0.00     0.058 C 
ATOM     10  C19 ZIN A   1      19.682   2.548   9.622  0.00  0.00     0.187 C 
ATOM     11  O20 ZIN A   1      18.762   3.535  10.207  0.00  0.00    -0.321 OA
ATOM     12  C21 ZIN A   1      17.654   2.929  10.693  0.00  0.00     0.264 C 
ATOM     13  O22 ZIN A   1      16.746   3.475  11.274  0.00  0.00    -0.265 OA
ATOM     14  C23 ZIN A   1      17.744   1.455  10.403  0.00  0.00     0.107 C 
ATOM     15  O25 ZIN A   1      18.600  -4.822  10.369  0.00  0.00    -0.323 OA
ATOM     16  C26 ZIN A   1      17.934  -5.402  11.510  0.00  0.00     0.352 C 
ATOM     17  O27 ZIN A   1      16.930  -4.427  11.862  0.00  0.00    -0.323 OA
ENDROOT
BRANCH   1  18
ATOM     18  C5  ZIN A   1      17.804   0.891  12.809  0.00  0.00    -0.043 A 
ATOM     19  C4  ZIN A   1      18.361  -0.074  13.626  0.00  0.00     0.047 A 
ATOM     20  C3  ZIN A   1      18.884   0.278  14.861  0.00  0.00     0.104 A 
ATOM     21  C32 ZIN A   1      18.841   1.603  15.280  0.00  0.00     0.135 A 
ATOM     22  C29 ZIN A   1      18.284   2.571  14.452  0.00  0.00     0.104 A 
ATOM     23  C28 ZIN A   1      17.763   2.210  13.219  0.00  0.00     0.047 A 
BRANCH  20  24
ATOM     24  O2  ZIN A   1      19.432  -0.672  15.665  0.00  0.00    -0.353 OA
ATOM     25  C1  ZIN A   1      18.528  -1.541  16.351  0.00  0.00     0.210 C 
ENDBRANCH  20  24
BRANCH  21  26
ATOM     26  O33 ZIN A   1      19.351   1.953  16.491  0.00  0.00    -0.351 OA
ATOM     27  C34 ZIN A   1      18.447   1.972  17.597  0.00  0.00     0.210 C 
ENDBRANCH  21  26
BRANCH  22  28
ATOM     28  O30 ZIN A   1      18.244   3.869  14.855  0.00  0.00    -0.353 OA
ATOM     29  C31 ZIN A   1      18.750   4.847  13.944  0.00  0.00     0.210 C 
ENDBRANCH  22  28
ENDBRANCH   1  18
BRANCH   8  30
ATOM     30  O16 ZIN A   1      20.890  -0.356   9.507  0.00  0.00    -0.390 OA
ATOM     31  H41 ZIN A   1      21.134  -0.966   8.797  0.00  0.00     0.210 HD
ENDBRANCH   8  30
TORSDOF 5
ENDMDL
MODEL 6
REMARK VINA RESULT:      -8.7      2.836      7.327
REMARK  5 active torsions:
REMARK  status: ('A' for Active; 'I' for Inactive)
REMARK    1  A    between atoms: O2_2  and  C3_3 
REMARK    2  A    between atoms: C5_5  and  C6_6 
REMARK    3  A    between atoms: C14_13  and  O16_14 
REMARK    4  A    between atoms: C29_25  and  O30_26 
REMARK    5  A    between atoms: C32_28  and  O33_29 
ROOT
ATOM      1  C6  ZIN A   1      17.244   0.488  11.480  0.00  0.00     0.066 C 
ATOM      2  C8  ZIN A   1      17.706  -0.914  11.120  0.00  0.00    -0.037 A 
ATOM      3  C9  ZIN A   1      17.031  -1.963  11.748  0.00  0.00     0.048 A 
ATOM      4  C10 ZIN A   1      17.412  -3.258  11.440  0.00  0.00     0.105 A 
ATOM      5  C11 ZIN A   1      18.445  -3.505  10.522  0.00  0.00     0.105 A 
ATOM      6  C12 ZIN A   1      19.111  -2.460   9.905  0.00  0.00     0.050 A 
ATOM      7  C13 ZIN A   1      18.726  -1.157  10.226  0.00  0.00    -0.019 A 
ATOM      8  C14 ZIN A   1      19.508  -0.044   9.550  0.00  0.00     0.158 C 
ATOM      9  C17 ZIN A   1      19.299   1.227  10.350  0.00  0.00     0.058 C 
ATOM     10  C19 ZIN A   1      19.688   2.527   9.628  0.00  0.00     0.187 C 
ATOM     11  O20 ZIN A   1      18.768   3.515  10.208  0.00  0.00    -0.321 OA
ATOM     12  C21 ZIN A   1      17.660   2.910  10.697  0.00  0.00     0.264 C 
ATOM     13  O22 ZIN A   1      16.752   3.458  11.275  0.00  0.00    -0.265 OA
ATOM     14  C23 ZIN A   1      17.750   1.435  10.412  0.00  0.00     0.107 C 
ATOM     15  O25 ZIN A   1      18.610  -4.841  10.403  0.00  0.00    -0.323 OA
ATOM     16  C26 ZIN A   1      17.944  -5.417  11.546  0.00  0.00     0.352 C 
ATOM     17  O27 ZIN A   1      16.940  -4.441  11.894  0.00  0.00    -0.323 OA
ENDROOT
BRANCH   1  18
ATOM     18  C5  ZIN A   1      17.810   0.881  12.820  0.00  0.00    -0.043 A 
ATOM     19  C4  ZIN A   1      17.756   2.200  13.231  0.00  0.00     0.047 A 
ATOM     20  C3  ZIN A   1      18.274   2.567  14.463  0.00  0.00     0.104 A 
ATOM     21  C32 ZIN A   1      18.856   1.607  15.284  0.00  0.00     0.135 A 
ATOM     22  C29 ZIN A   1      18.904   0.281  14.869  0.00  0.00     0.104 A 
ATOM     23  C28 ZIN A   1      18.384  -0.077  13.635  0.00  0.00     0.047 A 
BRANCH  20  24
ATOM     24  O2  ZIN A   1      18.220   3.864  14.867  0.00  0.00    -0.353 OA
ATOM     25  C1  ZIN A   1      18.771   4.842  13.982  0.00  0.00     0.210 C 
ENDBRANCH  20  24
BRANCH  21  26
ATOM     26  O33 ZIN A   1      19.367   1.963  16.493  0.00  0.00    -0.351 OA
ATOM     27  C34 ZIN A   1      18.471   1.954  17.606  0.00  0.00     0.210 C 
ENDBRANCH  21  26
BRANCH  22  28
ATOM     28  O30 ZIN A   1      19.468  -0.662  15.670  0.00  0.00    -0.353 OA
ATOM     29  C31 ZIN A   1      18.579  -1.552  16.350  0.00  0.00     0.210 C 
ENDBRANCH  22  28
ENDBRANCH   1  18
BRANCH   8  30
ATOM     30  O16 ZIN A   1      20.898  -0.377   9.524  0.00  0.00    -0.390 OA
ATOM     31  H41 ZIN A   1      21.454   0.290   9.099  0.00  0.00     0.210 HD
ENDBRANCH   8  30
TORSDOF 5
ENDMDL
MODEL 7
REMARK VINA RESULT:      -8.4      1.848      6.020
REMARK  5 active torsions:
REMARK  status: ('A' for Active; 'I' for Inactive)
REMARK    1  A    between atoms: O2_2  and  C3_3 
REMARK    2  A    between atoms: C5_5  and  C6_6 
REMARK    3  A    between atoms: C14_13  and  O16_14 
REMARK    4  A    between atoms: C29_25  and  O30_26 
REMARK    5  A    between atoms: C32_28  and  O33_29 
ROOT
ATOM      1  C6  ZIN A   1      19.114  -3.895   8.732  0.00  0.00     0.066 C 
ATOM      2  C8  ZIN A   1      18.279  -4.445   7.589  0.00  0.00    -0.037 A 
ATOM      3  C9  ZIN A   1      18.686  -4.085   6.303  0.00  0.00     0.048 A 
ATOM      4  C10 ZIN A   1      17.959  -4.573   5.230  0.00  0.00     0.105 A 
ATOM      5  C11 ZIN A   1      16.849  -5.407   5.434  0.00  0.00     0.105 A 
ATOM      6  C12 ZIN A   1      16.450  -5.758   6.712  0.00  0.00     0.050 A 
ATOM      7  C13 ZIN A   1      17.182  -5.256   7.789  0.00  0.00    -0.019 A 
ATOM      8  C14 ZIN A   1      16.686  -5.641   9.172  0.00  0.00     0.158 C 
ATOM      9  C17 ZIN A   1      17.268  -4.656  10.168  0.00  0.00     0.058 C 
ATOM     10  C19 ZIN A   1      17.198  -5.095  11.639  0.00  0.00     0.187 C 
ATOM     11  O20 ZIN A   1      18.378  -4.450  12.233  0.00  0.00    -0.321 OA
ATOM     12  C21 ZIN A   1      19.312  -4.194  11.288  0.00  0.00     0.264 C 
ATOM     13  O22 ZIN A   1      20.363  -3.627  11.467  0.00  0.00    -0.265 OA
ATOM     14  C23 ZIN A   1      18.818  -4.721   9.967  0.00  0.00     0.107 C 
ATOM     15  O25 ZIN A   1      16.329  -5.741   4.231  0.00  0.00    -0.323 OA
ATOM     16  C26 ZIN A   1      16.882  -4.792   3.295  0.00  0.00     0.352 C 
ATOM     17  O27 ZIN A   1      18.127  -4.386   3.902  0.00  0.00    -0.323 OA
ENDROOT
BRANCH   1  18
ATOM     18  C5  ZIN A   1      18.748  -2.455   8.983  0.00  0.00    -0.043 A 
ATOM     19  C4  ZIN A   1      19.271  -1.461   8.177  0.00  0.00     0.047 A 
ATOM     20  C3  ZIN A   1      18.937  -0.134   8.403  0.00  0.00     0.104 A 
ATOM     21  C32 ZIN A   1      18.080   0.196   9.448  0.00  0.00     0.135 A 
ATOM     22  C29 ZIN A   1      17.554  -0.807  10.252  0.00  0.00     0.104 A 
ATOM     23  C28 ZIN A   1      17.893  -2.131  10.019  0.00  0.00     0.047 A 
BRANCH  20  24
ATOM     24  O2  ZIN A   1      19.451   0.843   7.610  0.00  0.00    -0.353 OA
ATOM     25  C1  ZIN A   1      18.877   0.990   6.309  0.00  0.00     0.210 C 
ENDBRANCH  20  24
BRANCH  21  26
ATOM     26  O33 ZIN A   1      17.751   1.496   9.674  0.00  0.00    -0.351 OA
ATOM     27  C34 ZIN A   1      18.650   2.264  10.475  0.00  0.00     0.210 C 
ENDBRANCH  21  26
BRANCH  22  28
ATOM     28  O30 ZIN A   1      16.712  -0.489  11.272  0.00  0.00    -0.353 OA
ATOM     29  C31 ZIN A   1      17.257  -0.510  12.594  0.00  0.00     0.210 C 
ENDBRANCH  22  28
ENDBRANCH   1  18
BRANCH   8  30
ATOM     30  O16 ZIN A   1      15.259  -5.579   9.207  0.00  0.00    -0.390 OA
ATOM     31  H41 ZIN A   1      14.854  -5.356   8.358  0.00  0.00     0.210 HD
ENDBRANCH   8  30
TORSDOF 5
ENDMDL
MODEL 8
REMARK VINA RESULT:      -8.3      1.848      5.893
REMARK  5 active torsions:
REMARK  status: ('A' for Active; 'I' for Inactive)
REMARK    1  A    between atoms: O2_2  and  C3_3 
REMARK    2  A    between atoms: C5_5  and  C6_6 
REMARK    3  A    between atoms: C14_13  and  O16_14 
REMARK    4  A    between atoms: C29_25  and  O30_26 
REMARK    5  A    between atoms: C32_28  and  O33_29 
ROOT
ATOM      1  C6  ZIN A   1      19.119  -3.891   8.733  0.00  0.00     0.066 C 
ATOM      2  C8  ZIN A   1      18.285  -4.441   7.589  0.00  0.00    -0.037 A 
ATOM      3  C9  ZIN A   1      18.688  -4.073   6.304  0.00  0.00     0.048 A 
ATOM      4  C10 ZIN A   1      17.962  -4.561   5.230  0.00  0.00     0.105 A 
ATOM      5  C11 ZIN A   1      16.856  -5.402   5.432  0.00  0.00     0.105 A 
ATOM      6  C12 ZIN A   1      16.461  -5.759   6.710  0.00  0.00     0.050 A 
ATOM      7  C13 ZIN A   1      17.193  -5.258   7.788  0.00  0.00    -0.019 A 
ATOM      8  C14 ZIN A   1      16.701  -5.651   9.170  0.00  0.00     0.158 C 
ATOM      9  C17 ZIN A   1      17.279  -4.667  10.169  0.00  0.00     0.058 C 
ATOM     10  C19 ZIN A   1      17.213  -5.112  11.639  0.00  0.00     0.187 C 
ATOM     11  O20 ZIN A   1      18.390  -4.462  12.233  0.00  0.00    -0.321 OA
ATOM     12  C21 ZIN A   1      19.322  -4.198  11.287  0.00  0.00     0.264 C 
ATOM     13  O22 ZIN A   1      20.370  -3.626  11.467  0.00  0.00    -0.265 OA
ATOM     14  C23 ZIN A   1      18.829  -4.723   9.965  0.00  0.00     0.107 C 
ATOM     15  O25 ZIN A   1      16.337  -5.734   4.229  0.00  0.00    -0.323 OA
ATOM     16  C26 ZIN A   1      16.883  -4.779   3.295  0.00  0.00     0.352 C 
ATOM     17  O27 ZIN A   1      18.126  -4.368   3.902  0.00  0.00    -0.323 OA
ENDROOT
BRANCH   1  18
ATOM     18  C5  ZIN A   1      18.746  -2.453   8.990  0.00  0.00    -0.043 A 
ATOM     19  C4  ZIN A   1      17.885  -2.139  10.025  0.00  0.00     0.047 A 
ATOM     20  C3  ZIN A   1      17.539  -0.818  10.266  0.00  0.00     0.104 A 
ATOM     21  C32 ZIN A   1      18.054   0.191   9.460  0.00  0.00     0.135 A 
ATOM     22  C29 ZIN A   1      18.923  -0.129   8.423  0.00  0.00     0.104 A 
ATOM     23  C28 ZIN A   1      19.264  -1.453   8.190  0.00  0.00     0.047 A 
BRANCH  20  24
ATOM     24  O2  ZIN A   1      16.692  -0.510  11.284  0.00  0.00    -0.353 OA
ATOM     25  C1  ZIN A   1      17.249  -0.469  12.600  0.00  0.00     0.210 C 
ENDBRANCH  20  24
BRANCH  21  26
ATOM     26  O33 ZIN A   1      17.717   1.488   9.691  0.00  0.00    -0.351 OA
ATOM     27  C34 ZIN A   1      18.631   2.270  10.463  0.00  0.00     0.210 C 
ENDBRANCH  21  26
BRANCH  22  28
ATOM     28  O30 ZIN A   1      19.433   0.854   7.635  0.00  0.00    -0.353 OA
ATOM     29  C31 ZIN A   1      18.877   0.990   6.325  0.00  0.00     0.210 C 
ENDBRANCH  22  28
ENDBRANCH   1  18
BRANCH   8  30
ATOM     30  O16 ZIN A   1      15.273  -5.596   9.208  0.00  0.00    -0.390 OA
ATOM     31  H41 ZIN A   1      14.904  -4.752   8.914  0.00  0.00     0.210 HD
ENDBRANCH   8  30
TORSDOF 5
ENDMDL
MODEL 9
REMARK VINA RESULT:      -8.3      2.164      2.987
REMARK  5 active torsions:
REMARK  status: ('A' for Active; 'I' for Inactive)
REMARK    1  A    between atoms: O2_2  and  C3_3 
REMARK    2  A    between atoms: C5_5  and  C6_6 
REMARK    3  A    between atoms: C14_13  and  O16_14 
REMARK    4  A    between atoms: C29_25  and  O30_26 
REMARK    5  A    between atoms: C32_28  and  O33_29 
ROOT
ATOM      1  C6  ZIN A   1      17.762  -1.102  10.557  0.00  0.00     0.066 C 
ATOM      2  C8  ZIN A   1      18.170   0.324  10.884  0.00  0.00    -0.037 A 
ATOM      3  C9  ZIN A   1      17.312   1.328  10.429  0.00  0.00     0.048 A 
ATOM      4  C10 ZIN A   1      17.640   2.643  10.715  0.00  0.00     0.105 A 
ATOM      5  C11 ZIN A   1      18.800   2.953  11.442  0.00  0.00     0.105 A 
ATOM      6  C12 ZIN A   1      19.647   1.952  11.887  0.00  0.00     0.050 A 
ATOM      7  C13 ZIN A   1      19.314   0.630  11.589  0.00  0.00    -0.019 A 
ATOM      8  C14 ZIN A   1      20.291  -0.429  12.069  0.00  0.00     0.158 C 
ATOM      9  C17 ZIN A   1      20.040  -1.693  11.269  0.00  0.00     0.058 C 
ATOM     10  C19 ZIN A   1      20.655  -2.973  11.858  0.00  0.00     0.187 C 
ATOM     11  O20 ZIN A   1      19.724  -4.021  11.412  0.00  0.00    -0.321 OA
ATOM     12  C21 ZIN A   1      18.502  -3.500  11.156  0.00  0.00     0.264 C 
ATOM     13  O22 ZIN A   1      17.550  -4.108  10.729  0.00  0.00    -0.265 OA
ATOM     14  C23 ZIN A   1      18.527  -2.030  11.478  0.00  0.00     0.107 C 
ATOM     15  O25 ZIN A   1      18.879   4.295  11.583  0.00  0.00    -0.323 OA
ATOM     16  C26 ZIN A   1      17.972   4.841  10.602  0.00  0.00     0.352 C 
ATOM     17  O27 ZIN A   1      17.001   3.792  10.402  0.00  0.00    -0.323 OA
ENDROOT
BRANCH   1  18
ATOM     18  C5  ZIN A   1      18.103  -1.412   9.122  0.00  0.00    -0.043 A 
ATOM     19  C4  ZIN A   1      18.487  -0.394   8.270  0.00  0.00     0.047 A 
ATOM     20  C3  ZIN A   1      18.802  -0.675   6.949  0.00  0.00     0.104 A 
ATOM     21  C32 ZIN A   1      18.725  -1.982   6.481  0.00  0.00     0.135 A 
ATOM     22  C29 ZIN A   1      18.343  -3.003   7.343  0.00  0.00     0.104 A 
ATOM     23  C28 ZIN A   1      18.030  -2.713   8.662  0.00  0.00     0.047 A 
BRANCH  20  24
ATOM     24  O2  ZIN A   1      19.180   0.326   6.110  0.00  0.00    -0.353 OA
ATOM     25  C1  ZIN A   1      18.902   1.664   6.531  0.00  0.00     0.210 C 
ENDBRANCH  20  24
BRANCH  21  26
ATOM     26  O33 ZIN A   1      19.032  -2.262   5.185  0.00  0.00    -0.351 OA
ATOM     27  C34 ZIN A   1      17.954  -2.270   4.249  0.00  0.00     0.210 C 
ENDBRANCH  21  26
BRANCH  22  28
ATOM     28  O30 ZIN A   1      18.271  -4.284   6.891  0.00  0.00    -0.353 OA
ATOM     29  C31 ZIN A   1      19.426  -5.105   7.080  0.00  0.00     0.210 C 
ENDBRANCH  22  28
ENDBRANCH   1  18
BRANCH   8  30
ATOM     30  O16 ZIN A   1      21.632   0.019  11.858  0.00  0.00    -0.390 OA
ATOM     31  H41 ZIN A   1      21.746   0.975  11.951  0.00  0.00     0.210 HD
ENDBRANCH   8  30
TORSDOF 5
ENDMDL
