MODEL 1
REMARK VINA RESULT:      -7.9      0.000      0.000
REMARK  10 active torsions:
REMARK  status: ('A' for Active; 'I' for Inactive)
REMARK    1  A    between atoms: C2_2  and  C4_3 
REMARK    2  A    between atoms: C2_2  and  N12_11 
REMARK    3  A    between atoms: C4_3  and  C5_4 
REMARK    4  A    between atoms: C5_4  and  C6_5 
REMARK    5  A    between atoms: N12_11  and  C15_14 
REMARK    6  A    between atoms: C15_14  and  C16_15 
REMARK    7  A    between atoms: C16_15  and  O18_16 
REMARK    8  A    between atoms: C16_15  and  C19_17 
REMARK    9  A    between atoms: C22_20  and  O23_21 
REMARK   10  A    between atoms: C24_22  and  C25_23 
REMARK       I    between atoms: C25_23  and  N26_24 
ROOT
ATOM      1  C16 ZIN A   1      20.437  -0.385  10.875  0.00  0.00     0.176 C 
ENDROOT
BRANCH   1   2
ATOM      2  C15 ZIN A   1      20.157   0.781  11.824  0.00  0.00     0.269 C 
BRANCH   2   3
ATOM      3  N12 ZIN A   1      20.736   0.489  13.142  0.00  0.00    -0.069 N 
ATOM      4  H13 ZIN A   1      21.233   1.300  13.478  0.00  0.00     0.277 HD
ATOM      5  H14 ZIN A   1      21.374  -0.289  13.064  0.00  0.00     0.277 HD
BRANCH   3   6
ATOM      6  C2  ZIN A   1      19.661   0.149  14.084  0.00  0.00     0.182 C 
ATOM      7  C1  ZIN A   1      18.351   0.787  13.617  0.00  0.00     0.040 C 
BRANCH   6   8
ATOM      8  C4  ZIN A   1      19.495  -1.371  14.141  0.00  0.00     0.037 C 
BRANCH   8   9
ATOM      9  C5  ZIN A   1      18.162  -1.763  13.502  0.00  0.00     0.040 C 
BRANCH   9  10
ATOM     10  C6  ZIN A   1      18.416  -2.660  12.319  0.00  0.00    -0.058 A 
ATOM     11  C11 ZIN A   1      17.432  -2.848  11.367  0.00  0.00     0.007 A 
ATOM     12  C10 ZIN A   1      17.668  -3.668  10.280  0.00  0.00     0.001 A 
ATOM     13  C9  ZIN A   1      18.886  -4.308  10.149  0.00  0.00     0.000 A 
ATOM     14  C8  ZIN A   1      19.869  -4.125  11.102  0.00  0.00     0.001 A 
ATOM     15  C7  ZIN A   1      19.635  -3.301  12.187  0.00  0.00     0.007 A 
ENDBRANCH   9  10
ENDBRANCH   8   9
ENDBRANCH   6   8
ENDBRANCH   3   6
ENDBRANCH   2   3
ENDBRANCH   1   2
BRANCH   1  16
ATOM     16  O18 ZIN A   1      21.848  -0.570  10.751  0.00  0.00    -0.389 OA
ATOM     17  H43 ZIN A   1      22.226  -1.165  11.413  0.00  0.00     0.210 HD
ENDBRANCH   1  16
BRANCH   1  18
ATOM     18  C19 ZIN A   1      19.849  -0.082   9.520  0.00  0.00    -0.027 A 
ATOM     19  C28 ZIN A   1      19.693  -1.094   8.598  0.00  0.00     0.029 A 
ATOM     20  C24 ZIN A   1      19.143  -0.815   7.344  0.00  0.00     0.065 A 
ATOM     21  C22 ZIN A   1      18.765   0.497   7.030  0.00  0.00     0.081 A 
ATOM     22  C21 ZIN A   1      18.935   1.505   7.968  0.00  0.00     0.038 A 
ATOM     23  C20 ZIN A   1      19.475   1.214   9.205  0.00  0.00     0.012 A 
BRANCH  20  24
ATOM     24  C25 ZIN A   1      18.967  -1.895   6.354  0.00  0.00     0.252 C 
ATOM     25  N26 ZIN A   1      18.095  -2.893   6.594  0.00  0.00    -0.366 N 
ATOM     26  H47 ZIN A   1      17.582  -2.902   7.418  0.00  0.00     0.159 HD
ATOM     27  H48 ZIN A   1      17.978  -3.603   5.943  0.00  0.00     0.159 HD
ATOM     28  O27 ZIN A   1      19.609  -1.884   5.323  0.00  0.00    -0.268 OA
ENDBRANCH  20  24
BRANCH  21  29
ATOM     29  O23 ZIN A   1      18.236   0.781   5.814  0.00  0.00    -0.360 OA
ATOM     30  H46 ZIN A   1      18.475   0.148   5.123  0.00  0.00     0.217 HD
ENDBRANCH  21  29
ENDBRANCH   1  18
TORSDOF 10
ENDMDL
MODEL 2
REMARK VINA RESULT:      -7.7      3.553      7.632
REMARK  10 active torsions:
REMARK  status: ('A' for Active; 'I' for Inactive)
REMARK    1  A    between atoms: C2_2  and  C4_3 
REMARK    2  A    between atoms: C2_2  and  N12_11 
REMARK    3  A    between atoms: C4_3  and  C5_4 
REMARK    4  A    between atoms: C5_4  and  C6_5 
REMARK    5  A    between atoms: N12_11  and  C15_14 
REMARK    6  A    between atoms: C15_14  and  C16_15 
REMARK    7  A    between atoms: C16_15  and  O18_16 
REMARK    8  A    between atoms: C16_15  and  C19_17 
REMARK    9  A    between atoms: C22_20  and  O23_21 
REMARK   10  A    between atoms: C24_22  and  C25_23 
REMARK       I    between atoms: C25_23  and  N26_24 
ROOT
ATOM      1  C16 ZIN A   1      20.383   0.946  12.172  0.00  0.00     0.176 C 
ENDROOT
BRANCH   1   2
ATOM      2  C15 ZIN A   1      19.722   0.308  10.949  0.00  0.00     0.269 C 
BRANCH   2   3
ATOM      3  N12 ZIN A   1      19.886   1.193   9.787  0.00  0.00    -0.069 N 
ATOM      4  H13 ZIN A   1      20.245   0.662   9.008  0.00  0.00     0.277 HD
ATOM      5  H14 ZIN A   1      20.532   1.933  10.017  0.00  0.00     0.277 HD
BRANCH   3   6
ATOM      6  C2  ZIN A   1      18.585   1.772   9.426  0.00  0.00     0.182 C 
ATOM      7  C1  ZIN A   1      17.465   0.958  10.077  0.00  0.00     0.040 C 
BRANCH   6   8
ATOM      8  C4  ZIN A   1      18.516   3.219   9.920  0.00  0.00     0.037 C 
BRANCH   8   9
ATOM      9  C5  ZIN A   1      17.455   3.333  11.016  0.00  0.00     0.040 C 
BRANCH   9  10
ATOM     10  C6  ZIN A   1      18.065   3.959  12.243  0.00  0.00    -0.058 A 
ATOM     11  C11 ZIN A   1      17.345   4.018  13.422  0.00  0.00     0.007 A 
ATOM     12  C10 ZIN A   1      17.907   4.588  14.548  0.00  0.00     0.001 A 
ATOM     13  C9  ZIN A   1      19.187   5.107  14.494  0.00  0.00     0.000 A 
ATOM     14  C8  ZIN A   1      19.906   5.053  13.315  0.00  0.00     0.001 A 
ATOM     15  C7  ZIN A   1      19.346   4.479  12.190  0.00  0.00     0.007 A 
ENDBRANCH   9  10
ENDBRANCH   8   9
ENDBRANCH   6   8
ENDBRANCH   3   6
ENDBRANCH   2   3
ENDBRANCH   1   2
BRANCH   1  16
ATOM     16  O18 ZIN A   1      21.772   0.609  12.193  0.00  0.00    -0.389 OA
ATOM     17  H43 ZIN A   1      22.220   0.734  11.346  0.00  0.00     0.210 HD
ENDBRANCH   1  16
BRANCH   1  18
ATOM     18  C19 ZIN A   1      19.722   0.432  13.426  0.00  0.00    -0.027 A 
ATOM     19  C28 ZIN A   1      19.556   1.271  14.507  0.00  0.00     0.029 A 
ATOM     20  C24 ZIN A   1      18.938   0.797  15.667  0.00  0.00     0.065 A 
ATOM     21  C22 ZIN A   1      18.502  -0.534  15.726  0.00  0.00     0.081 A 
ATOM     22  C21 ZIN A   1      18.684  -1.365  14.629  0.00  0.00     0.038 A 
ATOM     23  C20 ZIN A   1      19.291  -0.882  13.488  0.00  0.00     0.012 A 
BRANCH  20  24
ATOM     24  C25 ZIN A   1      18.752   1.690  16.826  0.00  0.00     0.252 C 
ATOM     25  N26 ZIN A   1      17.557   1.748  17.446  0.00  0.00    -0.366 N 
ATOM     26  H47 ZIN A   1      16.819   1.203  17.129  0.00  0.00     0.159 HD
ATOM     27  H48 ZIN A   1      17.433   2.334  18.208  0.00  0.00     0.159 HD
ATOM     28  O27 ZIN A   1      19.675   2.374  17.221  0.00  0.00    -0.268 OA
ENDBRANCH  20  24
BRANCH  21  29
ATOM     29  O23 ZIN A   1      17.907  -1.007  16.848  0.00  0.00    -0.360 OA
ATOM     30  H46 ZIN A   1      18.266  -1.849  17.159  0.00  0.00     0.217 HD
ENDBRANCH  21  29
ENDBRANCH   1  18
TORSDOF 10
ENDMDL
MODEL 3
REMARK VINA RESULT:      -7.7      2.870      5.176
REMARK  10 active torsions:
REMARK  status: ('A' for Active; 'I' for Inactive)
REMARK    1  A    between atoms: C2_2  and  C4_3 
REMARK    2  A    between atoms: C2_2  and  N12_11 
REMARK    3  A    between atoms: C4_3  and  C5_4 
REMARK    4  A    between atoms: C5_4  and  C6_5 
REMARK    5  A    between atoms: N12_11  and  C15_14 
REMARK    6  A    between atoms: C15_14  and  C16_15 
REMARK    7  A    between atoms: C16_15  and  O18_16 
REMARK    8  A    between atoms: C16_15  and  C19_17 
REMARK    9  A    between atoms: C22_20  and  O23_21 
REMARK   10  A    between atoms: C24_22  and  C25_23 
REMARK       I    between atoms: C25_23  and  N26_24 
ROOT
ATOM      1  C16 ZIN A   1      18.358   1.312  14.835  0.00  0.00     0.176 C 
ENDROOT
BRANCH   1   2
ATOM      2  C15 ZIN A   1      18.770   2.779  14.706  0.00  0.00     0.269 C 
BRANCH   2   3
ATOM      3  N12 ZIN A   1      17.593   3.590  14.363  0.00  0.00    -0.069 N 
ATOM      4  H13 ZIN A   1      17.354   4.184  15.142  0.00  0.00     0.277 HD
ATOM      5  H14 ZIN A   1      16.816   2.982  14.152  0.00  0.00     0.277 HD
BRANCH   3   6
ATOM      6  C2  ZIN A   1      17.896   4.421  13.190  0.00  0.00     0.182 C 
ATOM      7  C1  ZIN A   1      19.408   4.634  13.093  0.00  0.00     0.040 C 
BRANCH   6   8
ATOM      8  C4  ZIN A   1      17.399   3.718  11.925  0.00  0.00     0.037 C 
BRANCH   8   9
ATOM      9  C5  ZIN A   1      18.510   3.717  10.872  0.00  0.00     0.040 C 
BRANCH   9  10
ATOM     10  C6  ZIN A   1      18.398   2.476  10.025  0.00  0.00    -0.058 A 
ATOM     11  C11 ZIN A   1      17.451   1.515  10.326  0.00  0.00     0.007 A 
ATOM     12  C10 ZIN A   1      17.347   0.379   9.546  0.00  0.00     0.001 A 
ATOM     13  C9  ZIN A   1      18.195   0.200   8.470  0.00  0.00     0.000 A 
ATOM     14  C8  ZIN A   1      19.145   1.158   8.170  0.00  0.00     0.001 A 
ATOM     15  C7  ZIN A   1      19.247   2.296   8.948  0.00  0.00     0.007 A 
ENDBRANCH   9  10
ENDBRANCH   8   9
ENDBRANCH   6   8
ENDBRANCH   3   6
ENDBRANCH   2   3
ENDBRANCH   1   2
BRANCH   1  16
ATOM     16  O18 ZIN A   1      18.855   0.784  16.066  0.00  0.00    -0.389 OA
ATOM     17  H43 ZIN A   1      19.451   1.380  16.538  0.00  0.00     0.210 HD
ENDBRANCH   1  16
BRANCH   1  18
ATOM     18  C19 ZIN A   1      18.931   0.527  13.683  0.00  0.00    -0.027 A 
ATOM     19  C28 ZIN A   1      18.346  -0.663  13.306  0.00  0.00     0.029 A 
ATOM     20  C24 ZIN A   1      18.873  -1.388  12.235  0.00  0.00     0.065 A 
ATOM     21  C22 ZIN A   1      20.003  -0.906  11.559  0.00  0.00     0.081 A 
ATOM     22  C21 ZIN A   1      20.582   0.290  11.958  0.00  0.00     0.038 A 
ATOM     23  C20 ZIN A   1      20.047   1.000  13.014  0.00  0.00     0.012 A 
BRANCH  20  24
ATOM     24  C25 ZIN A   1      18.249  -2.660  11.821  0.00  0.00     0.252 C 
ATOM     25  N26 ZIN A   1      18.961  -3.803  11.858  0.00  0.00    -0.366 N 
ATOM     26  H47 ZIN A   1      19.884  -3.791  12.158  0.00  0.00     0.159 HD
ATOM     27  H48 ZIN A   1      18.551  -4.639  11.587  0.00  0.00     0.159 HD
ATOM     28  O27 ZIN A   1      17.094  -2.675  11.445  0.00  0.00    -0.268 OA
ENDBRANCH  20  24
BRANCH  21  29
ATOM     29  O23 ZIN A   1      20.527  -1.605  10.522  0.00  0.00    -0.360 OA
ATOM     30  H46 ZIN A   1      20.093  -1.435   9.674  0.00  0.00     0.217 HD
ENDBRANCH  21  29
ENDBRANCH   1  18
TORSDOF 10
ENDMDL
MODEL 4
REMARK VINA RESULT:      -7.7      2.994      7.073
REMARK  10 active torsions:
REMARK  status: ('A' for Active; 'I' for Inactive)
REMARK    1  A    between atoms: C2_2  and  C4_3 
REMARK    2  A    between atoms: C2_2  and  N12_11 
REMARK    3  A    between atoms: C4_3  and  C5_4 
REMARK    4  A    between atoms: C5_4  and  C6_5 
REMARK    5  A    between atoms: N12_11  and  C15_14 
REMARK    6  A    between atoms: C15_14  and  C16_15 
REMARK    7  A    between atoms: C16_15  and  O18_16 
REMARK    8  A    between atoms: C16_15  and  C19_17 
REMARK    9  A    between atoms: C22_20  and  O23_21 
REMARK   10  A    between atoms: C24_22  and  C25_23 
REMARK       I    between atoms: C25_23  and  N26_24 
ROOT
ATOM      1  C16 ZIN A   1      20.505   0.353  11.980  0.00  0.00     0.176 C 
ENDROOT
BRANCH   1   2
ATOM      2  C15 ZIN A   1      20.417  -0.856  11.047  0.00  0.00     0.269 C 
BRANCH   2   3
ATOM      3  N12 ZIN A   1      20.696  -0.431   9.668  0.00  0.00    -0.069 N 
ATOM      4  H13 ZIN A   1      21.601  -0.776   9.386  0.00  0.00     0.277 HD
ATOM      5  H14 ZIN A   1      20.690   0.577   9.619  0.00  0.00     0.277 HD
BRANCH   3   6
ATOM      6  C2  ZIN A   1      19.666  -0.971   8.771  0.00  0.00     0.182 C 
ATOM      7  C1  ZIN A   1      18.738  -1.898   9.559  0.00  0.00     0.040 C 
BRANCH   6   8
ATOM      8  C4  ZIN A   1      18.851   0.180   8.178  0.00  0.00     0.037 C 
BRANCH   8   9
ATOM      9  C5  ZIN A   1      17.585   0.391   9.010  0.00  0.00     0.040 C 
BRANCH   9  10
ATOM     10  C6  ZIN A   1      17.792   1.544   9.957  0.00  0.00    -0.058 A 
ATOM     11  C11 ZIN A   1      17.237   1.510  11.222  0.00  0.00     0.007 A 
ATOM     12  C10 ZIN A   1      17.431   2.566  12.092  0.00  0.00     0.001 A 
ATOM     13  C9  ZIN A   1      18.172   3.662  11.692  0.00  0.00     0.000 A 
ATOM     14  C8  ZIN A   1      18.724   3.700  10.426  0.00  0.00     0.001 A 
ATOM     15  C7  ZIN A   1      18.534   2.641   9.558  0.00  0.00     0.007 A 
ENDBRANCH   9  10
ENDBRANCH   8   9
ENDBRANCH   6   8
ENDBRANCH   3   6
ENDBRANCH   2   3
ENDBRANCH   1   2
BRANCH   1  16
ATOM     16  O18 ZIN A   1      21.877   0.665  12.227  0.00  0.00    -0.389 OA
ATOM     17  H43 ZIN A   1      22.432  -0.107  12.401  0.00  0.00     0.210 HD
ENDBRANCH   1  16
BRANCH   1  18
ATOM     18  C19 ZIN A   1      19.820   0.031  13.284  0.00  0.00    -0.027 A 
ATOM     19  C28 ZIN A   1      19.722   0.996  14.263  0.00  0.00     0.029 A 
ATOM     20  C24 ZIN A   1      19.082   0.700  15.469  0.00  0.00     0.065 A 
ATOM     21  C22 ZIN A   1      18.555  -0.581  15.678  0.00  0.00     0.081 A 
ATOM     22  C21 ZIN A   1      18.668  -1.541  14.683  0.00  0.00     0.038 A 
ATOM     23  C20 ZIN A   1      19.298  -1.234  13.494  0.00  0.00     0.012 A 
BRANCH  20  24
ATOM     24  C25 ZIN A   1      18.968   1.729  16.520  0.00  0.00     0.252 C 
ATOM     25  N26 ZIN A   1      18.220   2.830  16.307  0.00  0.00    -0.366 N 
ATOM     26  H47 ZIN A   1      17.757   2.945  15.462  0.00  0.00     0.159 HD
ATOM     27  H48 ZIN A   1      18.144   3.506  16.998  0.00  0.00     0.159 HD
ATOM     28  O27 ZIN A   1      19.549   1.585  17.578  0.00  0.00    -0.268 OA
ENDBRANCH  20  24
BRANCH  21  29
ATOM     29  O23 ZIN A   1      17.937  -0.882  16.848  0.00  0.00    -0.360 OA
ATOM     30  H46 ZIN A   1      18.544  -1.056  17.580  0.00  0.00     0.217 HD
ENDBRANCH  21  29
ENDBRANCH   1  18
TORSDOF 10
ENDMDL
MODEL 5
REMARK VINA RESULT:      -7.5      3.175      6.924
REMARK  10 active torsions:
REMARK  status: ('A' for Active; 'I' for Inactive)
REMARK    1  A    between atoms: C2_2  and  C4_3 
REMARK    2  A    between atoms: C2_2  and  N12_11 
REMARK    3  A    between atoms: C4_3  and  C5_4 
REMARK    4  A    between atoms: C5_4  and  C6_5 
REMARK    5  A    between atoms: N12_11  and  C15_14 
REMARK    6  A    between atoms: C15_14  and  C16_15 
REMARK    7  A    between atoms: C16_15  and  O18_16 
REMARK    8  A    between atoms: C16_15  and  C19_17 
REMARK    9  A    between atoms: C22_20  and  O23_21 
REMARK   10  A    between atoms: C24_22  and  C25_23 
REMARK       I    between atoms: C25_23  and  N26_24 
ROOT
ATOM      1  C16 ZIN A   1      19.699  -1.806  11.395  0.00  0.00     0.176 C 
ENDROOT
BRANCH   1   2
ATOM      2  C15 ZIN A   1      20.204  -0.810  10.350  0.00  0.00     0.269 C 
BRANCH   2   3
ATOM      3  N12 ZIN A   1      19.700  -1.195   9.024  0.00  0.00    -0.069 N 
ATOM      4  H13 ZIN A   1      18.971  -1.884   9.129  0.00  0.00     0.277 HD
ATOM      5  H14 ZIN A   1      20.454  -1.583   8.477  0.00  0.00     0.277 HD
BRANCH   3   6
ATOM      6  C2  ZIN A   1      19.160  -0.011   8.343  0.00  0.00     0.182 C 
ATOM      7  C1  ZIN A   1      17.631  -0.042   8.399  0.00  0.00     0.040 C 
BRANCH   6   8
ATOM      8  C4  ZIN A   1      19.670   1.253   9.038  0.00  0.00     0.037 C 
BRANCH   8   9
ATOM      9  C5  ZIN A   1      18.622   2.362   8.912  0.00  0.00     0.040 C 
BRANCH   9  10
ATOM     10  C6  ZIN A   1      18.595   3.173  10.181  0.00  0.00    -0.058 A 
ATOM     11  C11 ZIN A   1      17.481   3.930  10.494  0.00  0.00     0.007 A 
ATOM     12  C10 ZIN A   1      17.455   4.671  11.661  0.00  0.00     0.001 A 
ATOM     13  C9  ZIN A   1      18.546   4.662  12.510  0.00  0.00     0.000 A 
ATOM     14  C8  ZIN A   1      19.661   3.909  12.195  0.00  0.00     0.001 A 
ATOM     15  C7  ZIN A   1      19.686   3.165  11.031  0.00  0.00     0.007 A 
ENDBRANCH   9  10
ENDBRANCH   8   9
ENDBRANCH   6   8
ENDBRANCH   3   6
ENDBRANCH   2   3
ENDBRANCH   1   2
BRANCH   1  16
ATOM     16  O18 ZIN A   1      18.794  -2.725  10.781  0.00  0.00    -0.389 OA
ATOM     17  H43 ZIN A   1      18.056  -2.988  11.347  0.00  0.00     0.210 HD
ENDBRANCH   1  16
BRANCH   1  18
ATOM     18  C19 ZIN A   1      18.990  -1.061  12.497  0.00  0.00    -0.027 A 
ATOM     19  C28 ZIN A   1      19.015  -1.553  13.784  0.00  0.00     0.029 A 
ATOM     20  C24 ZIN A   1      18.362  -0.860  14.807  0.00  0.00     0.065 A 
ATOM     21  C22 ZIN A   1      17.675   0.325  14.512  0.00  0.00     0.081 A 
ATOM     22  C21 ZIN A   1      17.656   0.802  13.209  0.00  0.00     0.038 A 
ATOM     23  C20 ZIN A   1      18.309   0.110  12.210  0.00  0.00     0.012 A 
BRANCH  20  24
ATOM     24  C25 ZIN A   1      18.390  -1.377  16.189  0.00  0.00     0.252 C 
ATOM     25  N26 ZIN A   1      17.246  -1.479  16.893  0.00  0.00    -0.366 N 
ATOM     26  H47 ZIN A   1      16.403  -1.211  16.491  0.00  0.00     0.159 HD
ATOM     27  H48 ZIN A   1      17.262  -1.819  17.801  0.00  0.00     0.159 HD
ATOM     28  O27 ZIN A   1      19.444  -1.711  16.692  0.00  0.00    -0.268 OA
ENDBRANCH  20  24
BRANCH  21  29
ATOM     29  O23 ZIN A   1      17.033   1.004  15.496  0.00  0.00    -0.360 OA
ATOM     30  H46 ZIN A   1      16.077   1.070  15.368  0.00  0.00     0.217 HD
ENDBRANCH  21  29
ENDBRANCH   1  18
TORSDOF 10
ENDMDL
MODEL 6
REMARK VINA RESULT:      -7.5      3.235      5.646
REMARK  10 active torsions:
REMARK  status: ('A' for Active; 'I' for Inactive)
REMARK    1  A    between atoms: C2_2  and  C4_3 
REMARK    2  A    between atoms: C2_2  and  N12_11 
REMARK    3  A    between atoms: C4_3  and  C5_4 
REMARK    4  A    between atoms: C5_4  and  C6_5 
REMARK    5  A    between atoms: N12_11  and  C15_14 
REMARK    6  A    between atoms: C15_14  and  C16_15 
REMARK    7  A    between atoms: C16_15  and  O18_16 
REMARK    8  A    between atoms: C16_15  and  C19_17 
REMARK    9  A    between atoms: C22_20  and  O23_21 
REMARK   10  A    between atoms: C24_22  and  C25_23 
REMARK       I    between atoms: C25_23  and  N26_24 
ROOT
ATOM      1  C16 ZIN A   1      20.863   0.781  11.851  0.00  0.00     0.176 C 
ENDROOT
BRANCH   1   2
ATOM      2  C15 ZIN A   1      20.668  -0.443  10.954  0.00  0.00     0.269 C 
BRANCH   2   3
ATOM      3  N12 ZIN A   1      20.416  -1.626  11.789  0.00  0.00    -0.069 N 
ATOM      4  H13 ZIN A   1      20.316  -1.343  12.752  0.00  0.00     0.277 HD
ATOM      5  H14 ZIN A   1      21.190  -2.268  11.705  0.00  0.00     0.277 HD
BRANCH   3   6
ATOM      6  C2  ZIN A   1      19.182  -2.286  11.342  0.00  0.00     0.182 C 
ATOM      7  C1  ZIN A   1      19.511  -3.687  10.824  0.00  0.00     0.040 C 
BRANCH   6   8
ATOM      8  C4  ZIN A   1      18.207  -2.393  12.516  0.00  0.00     0.037 C 
BRANCH   8   9
ATOM      9  C5  ZIN A   1      17.717  -0.995  12.901  0.00  0.00     0.040 C 
BRANCH   9  10
ATOM     10  C6  ZIN A   1      18.003  -0.747  14.360  0.00  0.00    -0.058 A 
ATOM     11  C11 ZIN A   1      17.539   0.403  14.970  0.00  0.00     0.007 A 
ATOM     12  C10 ZIN A   1      17.798   0.628  16.309  0.00  0.00     0.001 A 
ATOM     13  C9  ZIN A   1      18.529  -0.294  17.036  0.00  0.00     0.000 A 
ATOM     14  C8  ZIN A   1      18.996  -1.442  16.425  0.00  0.00     0.001 A 
ATOM     15  C7  ZIN A   1      18.734  -1.669  15.087  0.00  0.00     0.007 A 
ENDBRANCH   9  10
ENDBRANCH   8   9
ENDBRANCH   6   8
ENDBRANCH   3   6
ENDBRANCH   2   3
ENDBRANCH   1   2
BRANCH   1  16
ATOM     16  O18 ZIN A   1      20.934   0.365  13.216  0.00  0.00    -0.389 OA
ATOM     17  H43 ZIN A   1      21.789  -0.007  13.470  0.00  0.00     0.210 HD
ENDBRANCH   1  16
BRANCH   1  18
ATOM     18  C19 ZIN A   1      19.700   1.724  11.673  0.00  0.00    -0.027 A 
ATOM     19  C28 ZIN A   1      19.362   2.595  12.686  0.00  0.00     0.029 A 
ATOM     20  C24 ZIN A   1      18.289   3.473  12.519  0.00  0.00     0.065 A 
ATOM     21  C22 ZIN A   1      17.555   3.452  11.325  0.00  0.00     0.081 A 
ATOM     22  C21 ZIN A   1      17.906   2.564  10.319  0.00  0.00     0.038 A 
ATOM     23  C20 ZIN A   1      18.972   1.705  10.495  0.00  0.00     0.012 A 
BRANCH  20  24
ATOM     24  C25 ZIN A   1      17.925   4.413  13.597  0.00  0.00     0.252 C 
ATOM     25  N26 ZIN A   1      17.476   3.943  14.777  0.00  0.00    -0.366 N 
ATOM     26  H47 ZIN A   1      17.391   2.987  14.918  0.00  0.00     0.159 HD
ATOM     27  H48 ZIN A   1      17.237   4.560  15.486  0.00  0.00     0.159 HD
ATOM     28  O27 ZIN A   1      18.029   5.611  13.419  0.00  0.00    -0.268 OA
ENDBRANCH  20  24
BRANCH  21  29
ATOM     29  O23 ZIN A   1      16.507   4.296  11.154  0.00  0.00    -0.360 OA
ATOM     30  H46 ZIN A   1      16.378   4.916  11.885  0.00  0.00     0.217 HD
ENDBRANCH  21  29
ENDBRANCH   1  18
TORSDOF 10
ENDMDL
MODEL 7
REMARK VINA RESULT:      -7.4      2.415      5.002
REMARK  10 active torsions:
REMARK  status: ('A' for Active; 'I' for Inactive)
REMARK    1  A    between atoms: C2_2  and  C4_3 
REMARK    2  A    between atoms: C2_2  and  N12_11 
REMARK    3  A    between atoms: C4_3  and  C5_4 
REMARK    4  A    between atoms: C5_4  and  C6_5 
REMARK    5  A    between atoms: N12_11  and  C15_14 
REMARK    6  A    between atoms: C15_14  and  C16_15 
REMARK    7  A    between atoms: C16_15  and  O18_16 
REMARK    8  A    between atoms: C16_15  and  C19_17 
REMARK    9  A    between atoms: C22_20  and  O23_21 
REMARK   10  A    between atoms: C24_22  and  C25_23 
REMARK       I    between atoms: C25_23  and  N26_24 
ROOT
ATOM      1  C16 ZIN A   1      20.470   0.536  12.556  0.00  0.00     0.176 C 
ENDROOT
BRANCH   1   2
ATOM      2  C15 ZIN A   1      19.800   1.890  12.321  0.00  0.00     0.269 C 
BRANCH   2   3
ATOM      3  N12 ZIN A   1      20.072   2.339  10.948  0.00  0.00    -0.069 N 
ATOM      4  H13 ZIN A   1      20.768   1.740  10.530  0.00  0.00     0.277 HD
ATOM      5  H14 ZIN A   1      20.411   3.289  10.966  0.00  0.00     0.277 HD
BRANCH   3   6
ATOM      6  C2  ZIN A   1      18.834   2.276  10.159  0.00  0.00     0.182 C 
ATOM      7  C1  ZIN A   1      18.240   3.680  10.028  0.00  0.00     0.040 C 
BRANCH   6   8
ATOM      8  C4  ZIN A   1      19.146   1.722   8.767  0.00  0.00     0.037 C 
BRANCH   8   9
ATOM      9  C5  ZIN A   1      18.406   0.398   8.567  0.00  0.00     0.040 C 
BRANCH   9  10
ATOM     10  C6  ZIN A   1      18.580  -0.066   7.145  0.00  0.00    -0.058 A 
ATOM     11  C11 ZIN A   1      18.252  -1.362   6.794  0.00  0.00     0.007 A 
ATOM     12  C10 ZIN A   1      18.408  -1.786   5.487  0.00  0.00     0.001 A 
ATOM     13  C9  ZIN A   1      18.902  -0.916   4.533  0.00  0.00     0.000 A 
ATOM     14  C8  ZIN A   1      19.235   0.379   4.884  0.00  0.00     0.001 A 
ATOM     15  C7  ZIN A   1      19.075   0.804   6.190  0.00  0.00     0.007 A 
ENDBRANCH   9  10
ENDBRANCH   8   9
ENDBRANCH   6   8
ENDBRANCH   3   6
ENDBRANCH   2   3
ENDBRANCH   1   2
BRANCH   1  16
ATOM     16  O18 ZIN A   1      21.625   0.424  11.722  0.00  0.00    -0.389 OA
ATOM     17  H43 ZIN A   1      22.413   0.104  12.181  0.00  0.00     0.210 HD
ENDBRANCH   1  16
BRANCH   1  18
ATOM     18  C19 ZIN A   1      19.500  -0.569  12.223  0.00  0.00    -0.027 A 
ATOM     19  C28 ZIN A   1      19.920  -1.647  11.472  0.00  0.00     0.029 A 
ATOM     20  C24 ZIN A   1      19.023  -2.674  11.168  0.00  0.00     0.065 A 
ATOM     21  C22 ZIN A   1      17.698  -2.594  11.618  0.00  0.00     0.081 A 
ATOM     22  C21 ZIN A   1      17.293  -1.499  12.367  0.00  0.00     0.038 A 
ATOM     23  C20 ZIN A   1      18.190  -0.493  12.665  0.00  0.00     0.012 A 
BRANCH  20  24
ATOM     24  C25 ZIN A   1      19.466  -3.833  10.370  0.00  0.00     0.252 C 
ATOM     25  N26 ZIN A   1      19.747  -3.682   9.061  0.00  0.00    -0.366 N 
ATOM     26  H47 ZIN A   1      19.657  -2.811   8.643  0.00  0.00     0.159 HD
ATOM     27  H48 ZIN A   1      20.039  -4.444   8.536  0.00  0.00     0.159 HD
ATOM     28  O27 ZIN A   1      19.577  -4.924  10.894  0.00  0.00    -0.268 OA
ENDBRANCH  20  24
BRANCH  21  29
ATOM     29  O23 ZIN A   1      16.817  -3.582  11.324  0.00  0.00    -0.360 OA
ATOM     30  H46 ZIN A   1      16.017  -3.570  11.866  0.00  0.00     0.217 HD
ENDBRANCH  21  29
ENDBRANCH   1  18
TORSDOF 10
ENDMDL
MODEL 8
REMARK VINA RESULT:      -7.4      2.119      5.600
REMARK  10 active torsions:
REMARK  status: ('A' for Active; 'I' for Inactive)
REMARK    1  A    between atoms: C2_2  and  C4_3 
REMARK    2  A    between atoms: C2_2  and  N12_11 
REMARK    3  A    between atoms: C4_3  and  C5_4 
REMARK    4  A    between atoms: C5_4  and  C6_5 
REMARK    5  A    between atoms: N12_11  and  C15_14 
REMARK    6  A    between atoms: C15_14  and  C16_15 
REMARK    7  A    between atoms: C16_15  and  O18_16 
REMARK    8  A    between atoms: C16_15  and  C19_17 
REMARK    9  A    between atoms: C22_20  and  O23_21 
REMARK   10  A    between atoms: C24_22  and  C25_23 
REMARK       I    between atoms: C25_23  and  N26_24 
ROOT
ATOM      1  C16 ZIN A   1      18.969  -1.645   5.870  0.00  0.00     0.176 C 
ENDROOT
BRANCH   1   2
ATOM      2  C15 ZIN A   1      19.404  -3.036   6.335  0.00  0.00     0.269 C 
BRANCH   2   3
ATOM      3  N12 ZIN A   1      19.045  -4.028   5.312  0.00  0.00    -0.069 N 
ATOM      4  H13 ZIN A   1      19.884  -4.434   4.928  0.00  0.00     0.277 HD
ATOM      5  H14 ZIN A   1      18.520  -3.579   4.576  0.00  0.00     0.277 HD
BRANCH   3   6
ATOM      6  C2  ZIN A   1      18.225  -5.085   5.922  0.00  0.00     0.182 C 
ATOM      7  C1  ZIN A   1      17.693  -6.013   4.828  0.00  0.00     0.040 C 
BRANCH   6   8
ATOM      8  C4  ZIN A   1      19.079  -5.890   6.902  0.00  0.00     0.037 C 
BRANCH   8   9
ATOM      9  C5  ZIN A   1      18.168  -6.614   7.896  0.00  0.00     0.040 C 
BRANCH   9  10
ATOM     10  C6  ZIN A   1      18.269  -5.950   9.245  0.00  0.00    -0.058 A 
ATOM     11  C11 ZIN A   1      19.357  -5.152   9.545  0.00  0.00     0.007 A 
ATOM     12  C10 ZIN A   1      19.447  -4.540  10.781  0.00  0.00     0.001 A 
ATOM     13  C9  ZIN A   1      18.453  -4.734  11.721  0.00  0.00     0.000 A 
ATOM     14  C8  ZIN A   1      17.367  -5.536  11.424  0.00  0.00     0.001 A 
ATOM     15  C7  ZIN A   1      17.275  -6.144  10.187  0.00  0.00     0.007 A 
ENDBRANCH   9  10
ENDBRANCH   8   9
ENDBRANCH   6   8
ENDBRANCH   3   6
ENDBRANCH   2   3
ENDBRANCH   1   2
BRANCH   1  16
ATOM     16  O18 ZIN A   1      19.760  -1.250   4.748  0.00  0.00    -0.389 OA
ATOM     17  H43 ZIN A   1      19.529  -1.700   3.924  0.00  0.00     0.210 HD
ENDBRANCH   1  16
BRANCH   1  18
ATOM     18  C19 ZIN A   1      19.161  -0.658   6.993  0.00  0.00    -0.027 A 
ATOM     19  C28 ZIN A   1      19.575  -1.100   8.231  0.00  0.00     0.029 A 
ATOM     20  C24 ZIN A   1      19.758  -0.185   9.271  0.00  0.00     0.065 A 
ATOM     21  C22 ZIN A   1      19.507   1.176   9.049  0.00  0.00     0.081 A 
ATOM     22  C21 ZIN A   1      19.085   1.601   7.797  0.00  0.00     0.038 A 
ATOM     23  C20 ZIN A   1      18.913   0.687   6.777  0.00  0.00     0.012 A 
BRANCH  20  24
ATOM     24  C25 ZIN A   1      20.207  -0.649  10.597  0.00  0.00     0.252 C 
ATOM     25  N26 ZIN A   1      21.512  -0.586  10.927  0.00  0.00    -0.366 N 
ATOM     26  H47 ZIN A   1      22.156  -0.236  10.292  0.00  0.00     0.159 HD
ATOM     27  H48 ZIN A   1      21.808  -0.890  11.799  0.00  0.00     0.159 HD
ATOM     28  O27 ZIN A   1      19.400  -1.089  11.392  0.00  0.00    -0.268 OA
ENDBRANCH  20  24
BRANCH  21  29
ATOM     29  O23 ZIN A   1      19.675   2.073  10.052  0.00  0.00    -0.360 OA
ATOM     30  H46 ZIN A   1      19.585   1.694  10.938  0.00  0.00     0.217 HD
ENDBRANCH  21  29
ENDBRANCH   1  18
TORSDOF 10
ENDMDL
MODEL 9
REMARK VINA RESULT:      -7.4      2.343      6.209
REMARK  10 active torsions:
REMARK  status: ('A' for Active; 'I' for Inactive)
REMARK    1  A    between atoms: C2_2  and  C4_3 
REMARK    2  A    between atoms: C2_2  and  N12_11 
REMARK    3  A    between atoms: C4_3  and  C5_4 
REMARK    4  A    between atoms: C5_4  and  C6_5 
REMARK    5  A    between atoms: N12_11  and  C15_14 
REMARK    6  A    between atoms: C15_14  and  C16_15 
REMARK    7  A    between atoms: C16_15  and  O18_16 
REMARK    8  A    between atoms: C16_15  and  C19_17 
REMARK    9  A    between atoms: C22_20  and  O23_21 
REMARK   10  A    between atoms: C24_22  and  C25_23 
REMARK       I    between atoms: C25_23  and  N26_24 
ROOT
ATOM      1  C16 ZIN A   1      19.324  -3.433   9.757  0.00  0.00     0.176 C 
ENDROOT
BRANCH   1   2
ATOM      2  C15 ZIN A   1      18.005  -3.898   9.137  0.00  0.00     0.269 C 
BRANCH   2   3
ATOM      3  N12 ZIN A   1      17.879  -3.344   7.781  0.00  0.00    -0.069 N 
ATOM      4  H13 ZIN A   1      17.287  -2.528   7.806  0.00  0.00     0.277 HD
ATOM      5  H14 ZIN A   1      17.472  -4.037   7.171  0.00  0.00     0.277 HD
BRANCH   3   6
ATOM      6  C2  ZIN A   1      19.208  -2.970   7.281  0.00  0.00     0.182 C 
ATOM      7  C1  ZIN A   1      19.639  -3.954   6.191  0.00  0.00     0.040 C 
BRANCH   6   8
ATOM      8  C4  ZIN A   1      19.154  -1.556   6.698  0.00  0.00     0.037 C 
BRANCH   8   9
ATOM      9  C5  ZIN A   1      17.810  -0.913   7.045  0.00  0.00     0.040 C 
BRANCH   9  10
ATOM     10  C6  ZIN A   1      18.031   0.220   8.013  0.00  0.00    -0.058 A 
ATOM     11  C11 ZIN A   1      17.273   0.302   9.167  0.00  0.00     0.007 A 
ATOM     12  C10 ZIN A   1      17.479   1.339  10.057  0.00  0.00     0.001 A 
ATOM     13  C9  ZIN A   1      18.436   2.300   9.789  0.00  0.00     0.000 A 
ATOM     14  C8  ZIN A   1      19.191   2.221   8.634  0.00  0.00     0.001 A 
ATOM     15  C7  ZIN A   1      18.988   1.181   7.746  0.00  0.00     0.007 A 
ENDBRANCH   9  10
ENDBRANCH   8   9
ENDBRANCH   6   8
ENDBRANCH   3   6
ENDBRANCH   2   3
ENDBRANCH   1   2
BRANCH   1  16
ATOM     16  O18 ZIN A   1      20.056  -4.567  10.225  0.00  0.00    -0.389 OA
ATOM     17  H43 ZIN A   1      20.590  -4.393  11.012  0.00  0.00     0.210 HD
ENDBRANCH   1  16
BRANCH   1  18
ATOM     18  C19 ZIN A   1      19.036  -2.508  10.911  0.00  0.00    -0.027 A 
ATOM     19  C28 ZIN A   1      19.820  -1.391  11.107  0.00  0.00     0.029 A 
ATOM     20  C24 ZIN A   1      19.551  -0.530  12.173  0.00  0.00     0.065 A 
ATOM     21  C22 ZIN A   1      18.491  -0.815  13.044  0.00  0.00     0.081 A 
ATOM     22  C21 ZIN A   1      17.716  -1.947  12.835  0.00  0.00     0.038 A 
ATOM     23  C20 ZIN A   1      17.990  -2.787  11.775  0.00  0.00     0.012 A 
BRANCH  20  24
ATOM     24  C25 ZIN A   1      20.382   0.671  12.385  0.00  0.00     0.252 C 
ATOM     25  N26 ZIN A   1      21.712   0.615  12.175  0.00  0.00    -0.366 N 
ATOM     26  H47 ZIN A   1      22.123  -0.214  11.884  0.00  0.00     0.159 HD
ATOM     27  H48 ZIN A   1      22.259   1.404  12.314  0.00  0.00     0.159 HD
ATOM     28  O27 ZIN A   1      19.867   1.709  12.750  0.00  0.00    -0.268 OA
ENDBRANCH  20  24
BRANCH  21  29
ATOM     29  O23 ZIN A   1      18.224   0.010  14.087  0.00  0.00    -0.360 OA
ATOM     30  H46 ZIN A   1      18.909   0.017  14.769  0.00  0.00     0.217 HD
ENDBRANCH  21  29
ENDBRANCH   1  18
TORSDOF 10
ENDMDL
