MODEL 1
REMARK VINA RESULT:      -4.9      0.000      0.000
REMARK  1 active torsions:
REMARK  status: ('A' for Active; 'I' for Inactive)
REMARK    1  A    between atoms: C7_7  and  C8_8 
ROOT
ATOM      1  C1  ZIN A   1      18.611  -2.058   8.791  0.00  0.00     0.155 C 
ATOM      2  N2  ZIN A   1      18.760  -0.624   8.525  0.00  0.00    -0.360 N 
ATOM      3  C3  ZIN A   1      18.731   0.246   9.549  0.00  0.00     0.090 A 
ATOM      4  C4  ZIN A   1      18.866   1.583   9.333  0.00  0.00     0.017 A 
ATOM      5  C5  ZIN A   1      19.038   2.066   8.035  0.00  0.00     0.004 A 
ATOM      6  C6  ZIN A   1      19.068   1.168   6.982  0.00  0.00     0.031 A 
ATOM      7  C7  ZIN A   1      18.930  -0.194   7.246  0.00  0.00     0.053 A 
ENDROOT
BRANCH   7   8
ATOM      8  C8  ZIN A   1      18.959  -1.159   6.145  0.00  0.00     0.178 C 
ATOM      9  N9  ZIN A   1      19.687  -0.925   5.093  0.00  0.00    -0.108 NA
ATOM     10  O10 ZIN A   1      19.711  -1.727   4.177  0.00  0.00    -0.062 OA
ENDBRANCH   7   8
TORSDOF 1
ENDMDL
MODEL 2
REMARK VINA RESULT:      -4.7      8.057      9.684
REMARK  1 active torsions:
REMARK  status: ('A' for Active; 'I' for Inactive)
REMARK    1  A    between atoms: C7_7  and  C8_8 
ROOT
ATOM      1  C1  ZIN A   1      18.448   2.425  14.455  0.00  0.00     0.155 C 
ATOM      2  N2  ZIN A   1      18.529   1.015  14.847  0.00  0.00    -0.360 N 
ATOM      3  C3  ZIN A   1      18.427   0.060  13.907  0.00  0.00     0.090 A 
ATOM      4  C4  ZIN A   1      18.499  -1.258  14.241  0.00  0.00     0.017 A 
ATOM      5  C5  ZIN A   1      18.681  -1.631  15.573  0.00  0.00     0.004 A 
ATOM      6  C6  ZIN A   1      18.786  -0.646  16.539  0.00  0.00     0.031 A 
ATOM      7  C7  ZIN A   1      18.712   0.692  16.156  0.00  0.00     0.053 A 
ENDROOT
BRANCH   7   8
ATOM      8  C8  ZIN A   1      18.821   1.749  17.164  0.00  0.00     0.178 C 
ATOM      9  N9  ZIN A   1      19.602   1.591  18.191  0.00  0.00    -0.108 NA
ATOM     10  O10 ZIN A   1      19.693   2.470  19.029  0.00  0.00    -0.062 OA
ENDBRANCH   7   8
TORSDOF 1
ENDMDL
MODEL 3
REMARK VINA RESULT:      -4.6      3.990      5.083
REMARK  1 active torsions:
REMARK  status: ('A' for Active; 'I' for Inactive)
REMARK    1  A    between atoms: C7_7  and  C8_8 
ROOT
ATOM      1  C1  ZIN A   1      16.840   0.078  11.167  0.00  0.00     0.155 C 
ATOM      2  N2  ZIN A   1      17.674   0.591  10.078  0.00  0.00    -0.360 N 
ATOM      3  C3  ZIN A   1      18.014  -0.223   9.063  0.00  0.00     0.090 A 
ATOM      4  C4  ZIN A   1      18.788   0.227   8.037  0.00  0.00     0.017 A 
ATOM      5  C5  ZIN A   1      19.238   1.547   8.029  0.00  0.00     0.004 A 
ATOM      6  C6  ZIN A   1      18.887   2.384   9.074  0.00  0.00     0.031 A 
ATOM      7  C7  ZIN A   1      18.090   1.887  10.104  0.00  0.00     0.053 A 
ENDROOT
BRANCH   7   8
ATOM      8  C8  ZIN A   1      17.707   2.756  11.219  0.00  0.00     0.178 C 
ATOM      9  N9  ZIN A   1      16.915   3.768  11.014  0.00  0.00    -0.108 NA
ATOM     10  O10 ZIN A   1      16.598   4.491  11.940  0.00  0.00    -0.062 OA
ENDBRANCH   7   8
TORSDOF 1
ENDMDL
MODEL 4
REMARK VINA RESULT:      -4.5      3.306      4.337
REMARK  1 active torsions:
REMARK  status: ('A' for Active; 'I' for Inactive)
REMARK    1  A    between atoms: C7_7  and  C8_8 
ROOT
ATOM      1  C1  ZIN A   1      19.044   2.122  10.215  0.00  0.00     0.155 C 
ATOM      2  N2  ZIN A   1      18.625   1.408   9.007  0.00  0.00    -0.360 N 
ATOM      3  C3  ZIN A   1      19.175   1.730   7.823  0.00  0.00     0.090 A 
ATOM      4  C4  ZIN A   1      18.806   1.083   6.683  0.00  0.00     0.017 A 
ATOM      5  C5  ZIN A   1      17.845   0.073   6.734  0.00  0.00     0.004 A 
ATOM      6  C6  ZIN A   1      17.280  -0.257   7.953  0.00  0.00     0.031 A 
ATOM      7  C7  ZIN A   1      17.688   0.425   9.099  0.00  0.00     0.053 A 
ENDROOT
BRANCH   7   8
ATOM      8  C8  ZIN A   1      17.103   0.090  10.399  0.00  0.00     0.178 C 
ATOM      9  N9  ZIN A   1      17.362  -1.057  10.953  0.00  0.00    -0.108 NA
ATOM     10  O10 ZIN A   1      16.875  -1.336  12.034  0.00  0.00    -0.062 OA
ENDBRANCH   7   8
TORSDOF 1
ENDMDL
MODEL 5
REMARK VINA RESULT:      -4.5      2.599      3.790
REMARK  1 active torsions:
REMARK  status: ('A' for Active; 'I' for Inactive)
REMARK    1  A    between atoms: C7_7  and  C8_8 
ROOT
ATOM      1  C1  ZIN A   1      19.019  -1.894   8.470  0.00  0.00     0.155 C 
ATOM      2  N2  ZIN A   1      19.049  -1.213   7.172  0.00  0.00    -0.360 N 
ATOM      3  C3  ZIN A   1      19.255  -1.929   6.054  0.00  0.00     0.090 A 
ATOM      4  C4  ZIN A   1      19.287  -1.324   4.834  0.00  0.00     0.017 A 
ATOM      5  C5  ZIN A   1      19.105   0.055   4.735  0.00  0.00     0.004 A 
ATOM      6  C6  ZIN A   1      18.892   0.791   5.888  0.00  0.00     0.031 A 
ATOM      7  C7  ZIN A   1      18.862   0.133   7.117  0.00  0.00     0.053 A 
ENDROOT
BRANCH   7   8
ATOM      8  C8  ZIN A   1      18.638   0.894   8.349  0.00  0.00     0.178 C 
ATOM      9  N9  ZIN A   1      19.224   2.042   8.521  0.00  0.00    -0.108 NA
ATOM     10  O10 ZIN A   1      19.038   2.673   9.545  0.00  0.00    -0.062 OA
ENDBRANCH   7   8
TORSDOF 1
ENDMDL
MODEL 6
REMARK VINA RESULT:      -4.3      5.704      6.898
REMARK  1 active torsions:
REMARK  status: ('A' for Active; 'I' for Inactive)
REMARK    1  A    between atoms: C7_7  and  C8_8 
ROOT
ATOM      1  C1  ZIN A   1      20.363   0.297  12.326  0.00  0.00     0.155 C 
ATOM      2  N2  ZIN A   1      19.453   0.054  13.449  0.00  0.00    -0.360 N 
ATOM      3  C3  ZIN A   1      19.653  -1.009  14.246  0.00  0.00     0.090 A 
ATOM      4  C4  ZIN A   1      18.824  -1.260  15.297  0.00  0.00     0.017 A 
ATOM      5  C5  ZIN A   1      17.751  -0.407  15.557  0.00  0.00     0.004 A 
ATOM      6  C6  ZIN A   1      17.548   0.688  14.736  0.00  0.00     0.031 A 
ATOM      7  C7  ZIN A   1      18.421   0.912  13.673  0.00  0.00     0.053 A 
ENDROOT
BRANCH   7   8
ATOM      8  C8  ZIN A   1      18.223   2.066  12.793  0.00  0.00     0.178 C 
ATOM      9  N9  ZIN A   1      17.334   2.016  11.845  0.00  0.00    -0.108 NA
ATOM     10  O10 ZIN A   1      17.169   2.975  11.113  0.00  0.00    -0.062 OA
ENDBRANCH   7   8
TORSDOF 1
ENDMDL
MODEL 7
REMARK VINA RESULT:      -4.2      6.255      7.772
REMARK  1 active torsions:
REMARK  status: ('A' for Active; 'I' for Inactive)
REMARK    1  A    between atoms: C7_7  and  C8_8 
ROOT
ATOM      1  C1  ZIN A   1      18.675   2.427  15.087  0.00  0.00     0.155 C 
ATOM      2  N2  ZIN A   1      18.609   1.018  15.482  0.00  0.00    -0.360 N 
ATOM      3  C3  ZIN A   1      17.912   0.669  16.577  0.00  0.00     0.090 A 
ATOM      4  C4  ZIN A   1      17.832  -0.633  16.968  0.00  0.00     0.017 A 
ATOM      5  C5  ZIN A   1      18.479  -1.624  16.229  0.00  0.00     0.004 A 
ATOM      6  C6  ZIN A   1      19.195  -1.263  15.101  0.00  0.00     0.031 A 
ATOM      7  C7  ZIN A   1      19.249   0.081  14.732  0.00  0.00     0.053 A 
ENDROOT
BRANCH   7   8
ATOM      8  C8  ZIN A   1      20.002   0.483  13.541  0.00  0.00     0.178 C 
ATOM      9  N9  ZIN A   1      19.815  -0.135  12.413  0.00  0.00    -0.108 NA
ATOM     10  O10 ZIN A   1      20.441   0.199  11.424  0.00  0.00    -0.062 OA
ENDBRANCH   7   8
TORSDOF 1
ENDMDL
MODEL 8
REMARK VINA RESULT:      -4.2      2.145      3.837
REMARK  1 active torsions:
REMARK  status: ('A' for Active; 'I' for Inactive)
REMARK    1  A    between atoms: C7_7  and  C8_8 
ROOT
ATOM      1  C1  ZIN A   1      17.826  -1.262   8.816  0.00  0.00     0.155 C 
ATOM      2  N2  ZIN A   1      18.442  -2.574   8.602  0.00  0.00    -0.360 N 
ATOM      3  C3  ZIN A   1      18.361  -3.509   9.563  0.00  0.00     0.090 A 
ATOM      4  C4  ZIN A   1      18.923  -4.737   9.392  0.00  0.00     0.017 A 
ATOM      5  C5  ZIN A   1      19.595  -5.037   8.207  0.00  0.00     0.004 A 
ATOM      6  C6  ZIN A   1      19.679  -4.073   7.218  0.00  0.00     0.031 A 
ATOM      7  C7  ZIN A   1      19.085  -2.829   7.430  0.00  0.00     0.053 A 
ENDROOT
BRANCH   7   8
ATOM      8  C8  ZIN A   1      19.162  -1.795   6.395  0.00  0.00     0.178 C 
ATOM      9  N9  ZIN A   1      19.627  -2.087   5.217  0.00  0.00    -0.108 NA
ATOM     10  O10 ZIN A   1      19.691  -1.228   4.357  0.00  0.00    -0.062 OA
ENDBRANCH   7   8
TORSDOF 1
ENDMDL
MODEL 9
REMARK VINA RESULT:      -4.1      2.593      3.706
REMARK  1 active torsions:
REMARK  status: ('A' for Active; 'I' for Inactive)
REMARK    1  A    between atoms: C7_7  and  C8_8 
ROOT
ATOM      1  C1  ZIN A   1      19.444  -3.034   6.947  0.00  0.00     0.155 C 
ATOM      2  N2  ZIN A   1      19.270  -1.601   6.696  0.00  0.00    -0.360 N 
ATOM      3  C3  ZIN A   1      19.348  -1.134   5.438  0.00  0.00     0.090 A 
ATOM      4  C4  ZIN A   1      19.189   0.192   5.174  0.00  0.00     0.017 A 
ATOM      5  C5  ZIN A   1      18.943   1.086   6.217  0.00  0.00     0.004 A 
ATOM      6  C6  ZIN A   1      18.863   0.604   7.512  0.00  0.00     0.031 A 
ATOM      7  C7  ZIN A   1      19.026  -0.762   7.739  0.00  0.00     0.053 A 
ENDROOT
BRANCH   7   8
ATOM      8  C8  ZIN A   1      18.945  -1.292   9.103  0.00  0.00     0.178 C 
ATOM      9  N9  ZIN A   1      17.865  -1.118   9.805  0.00  0.00    -0.108 NA
ATOM     10  O10 ZIN A   1      17.797  -1.558  10.938  0.00  0.00    -0.062 OA
ENDBRANCH   7   8
TORSDOF 1
ENDMDL
