MODEL 1
REMARK VINA RESULT:      -9.1      0.000      0.000
REMARK  6 active torsions:
REMARK  status: ('A' for Active; 'I' for Inactive)
REMARK    1  A    between atoms: C5_5  and  C6_6 
REMARK    2  A    between atoms: C6_6  and  C14_14 
REMARK    3  A    between atoms: C7_7  and  C8_8 
REMARK    4  A    between atoms: C8_8  and  N9_9 
REMARK    5  A    between atoms: C18_18  and  C19_19 
REMARK    6  A    between atoms: C20_20  and  C21_21 
ROOT
ATOM      1  C6  ZIN A   1      17.781  -0.904  12.771  0.00  0.00     0.001 C 
ATOM      2  C7  ZIN A   1      17.160   0.034  12.047  0.00  0.00     0.018 C 
ENDROOT
BRANCH   1   3
ATOM      3  C5  ZIN A   1      18.070  -0.663  14.205  0.00  0.00    -0.024 A 
ATOM      4  C4  ZIN A   1      17.791   0.578  14.777  0.00  0.00     0.013 A 
ATOM      5  C3  ZIN A   1      18.064   0.797  16.112  0.00  0.00     0.007 A 
ATOM      6  C2  ZIN A   1      18.611  -0.212  16.883  0.00  0.00    -0.062 A 
ATOM      7  C1  ZIN A   1      18.906   0.032  18.341  0.00  0.00     0.048 C 
ATOM      8  C26 ZIN A   1      18.895  -1.444  16.320  0.00  0.00     0.007 A 
ATOM      9  C25 ZIN A   1      18.622  -1.676  14.987  0.00  0.00     0.013 A 
ENDBRANCH   1   3
BRANCH   1  10
ATOM     10  C14 ZIN A   1      18.181  -2.184  12.139  0.00  0.00     0.068 A 
ATOM     11  N24 ZIN A   1      17.255  -2.974  11.620  0.00  0.00    -0.248 NA
ATOM     12  C18 ZIN A   1      17.572  -4.128  11.040  0.00  0.00     0.057 A 
ATOM     13  C17 ZIN A   1      18.903  -4.548  10.972  0.00  0.00     0.031 A 
ATOM     14  C16 ZIN A   1      19.895  -3.744  11.513  0.00  0.00     0.005 A 
ATOM     15  C15 ZIN A   1      19.529  -2.547  12.105  0.00  0.00     0.032 A 
BRANCH  12  16
ATOM     16  C19 ZIN A   1      16.509  -4.974  10.469  0.00  0.00     0.038 C 
ATOM     17  C20 ZIN A   1      16.494  -5.237   9.145  0.00  0.00     0.086 C 
BRANCH  17  18
ATOM     18  C21 ZIN A   1      15.440  -6.076   8.580  0.00  0.00     0.198 C 
ATOM     19  O22 ZIN A   1      15.702  -7.204   8.181  0.00  0.00    -0.645 OA
ATOM     20  O23 ZIN A   1      14.293  -5.651   8.507  0.00  0.00    -0.645 OA
ENDBRANCH  17  18
ENDBRANCH  12  16
ENDBRANCH   1  10
BRANCH   2  21
ATOM     21  C8  ZIN A   1      16.999  -0.146  10.559  0.00  0.00     0.300 C 
BRANCH  21  22
ATOM     22  N9  ZIN A   1      17.313   1.116   9.876  0.00  0.00     0.091 N 
ATOM     23  C13 ZIN A   1      18.429   0.939   8.923  0.00  0.00     0.273 C 
ATOM     24  C12 ZIN A   1      19.235   2.252   8.922  0.00  0.00     0.032 C 
ATOM     25  C11 ZIN A   1      18.526   3.161   9.952  0.00  0.00     0.032 C 
ATOM     26  C10 ZIN A   1      17.766   2.148  10.844  0.00  0.00     0.273 C 
ENDBRANCH  21  22
ENDBRANCH   2  21
TORSDOF 6
ENDMDL
MODEL 2
REMARK VINA RESULT:      -8.8      4.575      8.548
REMARK  6 active torsions:
REMARK  status: ('A' for Active; 'I' for Inactive)
REMARK    1  A    between atoms: C5_5  and  C6_6 
REMARK    2  A    between atoms: C6_6  and  C14_14 
REMARK    3  A    between atoms: C7_7  and  C8_8 
REMARK    4  A    between atoms: C8_8  and  N9_9 
REMARK    5  A    between atoms: C18_18  and  C19_19 
REMARK    6  A    between atoms: C20_20  and  C21_21 
ROOT
ATOM      1  C6  ZIN A   1      17.617   0.961  10.193  0.00  0.00     0.001 C 
ATOM      2  C7  ZIN A   1      16.892   0.049  10.849  0.00  0.00     0.018 C 
ENDROOT
BRANCH   1   3
ATOM      3  C5  ZIN A   1      17.928   0.769   8.756  0.00  0.00    -0.024 A 
ATOM      4  C4  ZIN A   1      17.261  -0.210   8.021  0.00  0.00     0.013 A 
ATOM      5  C3  ZIN A   1      17.554  -0.386   6.685  0.00  0.00     0.007 A 
ATOM      6  C2  ZIN A   1      18.508   0.408   6.073  0.00  0.00    -0.062 A 
ATOM      7  C1  ZIN A   1      18.825   0.212   4.613  0.00  0.00     0.048 C 
ATOM      8  C26 ZIN A   1      19.177   1.378   6.799  0.00  0.00     0.007 A 
ATOM      9  C25 ZIN A   1      18.888   1.565   8.135  0.00  0.00     0.013 A 
ENDBRANCH   1   3
BRANCH   1  10
ATOM     10  C14 ZIN A   1      18.112   2.166  10.903  0.00  0.00     0.068 A 
ATOM     11  N24 ZIN A   1      17.247   3.053  11.368  0.00  0.00    -0.248 NA
ATOM     12  C18 ZIN A   1      17.650   4.142  12.015  0.00  0.00     0.057 A 
ATOM     13  C17 ZIN A   1      19.010   4.389  12.214  0.00  0.00     0.031 A 
ATOM     14  C16 ZIN A   1      19.941   3.480  11.734  0.00  0.00     0.005 A 
ATOM     15  C15 ZIN A   1      19.486   2.354  11.069  0.00  0.00     0.032 A 
BRANCH  12  16
ATOM     16  C19 ZIN A   1      16.652   5.101  12.520  0.00  0.00     0.038 C 
ATOM     17  C20 ZIN A   1      16.426   5.205  13.847  0.00  0.00     0.086 C 
BRANCH  17  18
ATOM     18  C21 ZIN A   1      15.437   6.156  14.347  0.00  0.00     0.198 C 
ATOM     19  O22 ZIN A   1      14.260   5.827  14.435  0.00  0.00    -0.645 OA
ATOM     20  O23 ZIN A   1      15.784   7.283  14.679  0.00  0.00    -0.645 OA
ENDBRANCH  17  18
ENDBRANCH  12  16
ENDBRANCH   1  10
BRANCH   2  21
ATOM     21  C8  ZIN A   1      16.701   0.167  12.340  0.00  0.00     0.300 C 
BRANCH  21  22
ATOM     22  N9  ZIN A   1      17.516  -0.848  13.019  0.00  0.00     0.091 N 
ATOM     23  C13 ZIN A   1      18.568  -0.217  13.845  0.00  0.00     0.273 C 
ATOM     24  C12 ZIN A   1      19.798  -1.144  13.796  0.00  0.00     0.032 C 
ATOM     25  C11 ZIN A   1      19.386  -2.312  12.871  0.00  0.00     0.032 C 
ATOM     26  C10 ZIN A   1      18.231  -1.703  12.037  0.00  0.00     0.273 C 
ENDBRANCH  21  22
ENDBRANCH   2  21
TORSDOF 6
ENDMDL
MODEL 3
REMARK VINA RESULT:      -8.7      3.655      7.231
REMARK  6 active torsions:
REMARK  status: ('A' for Active; 'I' for Inactive)
REMARK    1  A    between atoms: C5_5  and  C6_6 
REMARK    2  A    between atoms: C6_6  and  C14_14 
REMARK    3  A    between atoms: C7_7  and  C8_8 
REMARK    4  A    between atoms: C8_8  and  N9_9 
REMARK    5  A    between atoms: C18_18  and  C19_19 
REMARK    6  A    between atoms: C20_20  and  C21_21 
ROOT
ATOM      1  C6  ZIN A   1      18.937  -1.778  11.937  0.00  0.00     0.001 C 
ATOM      2  C7  ZIN A   1      19.222  -1.703  13.242  0.00  0.00     0.018 C 
ENDROOT
BRANCH   1   3
ATOM      3  C5  ZIN A   1      18.526  -3.072  11.341  0.00  0.00    -0.024 A 
ATOM      4  C4  ZIN A   1      17.184  -3.448  11.342  0.00  0.00     0.013 A 
ATOM      5  C3  ZIN A   1      16.808  -4.654  10.787  0.00  0.00     0.007 A 
ATOM      6  C2  ZIN A   1      17.759  -5.489  10.229  0.00  0.00    -0.062 A 
ATOM      7  C1  ZIN A   1      17.343  -6.804   9.624  0.00  0.00     0.048 C 
ATOM      8  C26 ZIN A   1      19.094  -5.122  10.229  0.00  0.00     0.007 A 
ATOM      9  C25 ZIN A   1      19.481  -3.916  10.778  0.00  0.00     0.013 A 
ENDBRANCH   1   3
BRANCH   1  10
ATOM     10  C14 ZIN A   1      19.031  -0.566  11.087  0.00  0.00     0.068 A 
ATOM     11  N24 ZIN A   1      18.354   0.521  11.420  0.00  0.00    -0.248 NA
ATOM     12  C18 ZIN A   1      18.416   1.628  10.687  0.00  0.00     0.057 A 
ATOM     13  C17 ZIN A   1      19.196   1.673   9.529  0.00  0.00     0.031 A 
ATOM     14  C16 ZIN A   1      19.912   0.547   9.152  0.00  0.00     0.005 A 
ATOM     15  C15 ZIN A   1      19.828  -0.588   9.940  0.00  0.00     0.032 A 
BRANCH  12  16
ATOM     16  C19 ZIN A   1      17.650   2.819  11.098  0.00  0.00     0.038 C 
ATOM     17  C20 ZIN A   1      17.687   3.938  10.345  0.00  0.00     0.086 C 
BRANCH  17  18
ATOM     18  C21 ZIN A   1      16.927   5.117  10.753  0.00  0.00     0.198 C 
ATOM     19  O22 ZIN A   1      16.036   5.014  11.586  0.00  0.00    -0.645 OA
ATOM     20  O23 ZIN A   1      17.182   6.210  10.261  0.00  0.00    -0.645 OA
ENDBRANCH  17  18
ENDBRANCH  12  16
ENDBRANCH   1  10
BRANCH   2  21
ATOM     21  C8  ZIN A   1      19.782  -0.427  13.819  0.00  0.00     0.300 C 
BRANCH  21  22
ATOM     22  N9  ZIN A   1      19.184  -0.183  15.138  0.00  0.00     0.091 N 
ATOM     23  C13 ZIN A   1      18.964  -1.453  15.864  0.00  0.00     0.273 C 
ATOM     24  C12 ZIN A   1      17.681  -1.281  16.698  0.00  0.00     0.032 C 
ATOM     25  C11 ZIN A   1      17.177   0.144  16.374  0.00  0.00     0.032 C 
ATOM     26  C10 ZIN A   1      17.844   0.446  15.009  0.00  0.00     0.273 C 
ENDBRANCH  21  22
ENDBRANCH   2  21
TORSDOF 6
ENDMDL
MODEL 4
REMARK VINA RESULT:      -8.4      5.336      9.119
REMARK  6 active torsions:
REMARK  status: ('A' for Active; 'I' for Inactive)
REMARK    1  A    between atoms: C5_5  and  C6_6 
REMARK    2  A    between atoms: C6_6  and  C14_14 
REMARK    3  A    between atoms: C7_7  and  C8_8 
REMARK    4  A    between atoms: C8_8  and  N9_9 
REMARK    5  A    between atoms: C18_18  and  C19_19 
REMARK    6  A    between atoms: C20_20  and  C21_21 
ROOT
ATOM      1  C6  ZIN A   1      18.647   1.327  10.643  0.00  0.00     0.001 C 
ATOM      2  C7  ZIN A   1      19.043   0.387  11.509  0.00  0.00     0.018 C 
ENDROOT
BRANCH   1   3
ATOM      3  C5  ZIN A   1      18.510   1.000   9.204  0.00  0.00    -0.024 A 
ATOM      4  C4  ZIN A   1      19.331   1.621   8.263  0.00  0.00     0.013 A 
ATOM      5  C3  ZIN A   1      19.198   1.313   6.925  0.00  0.00     0.007 A 
ATOM      6  C2  ZIN A   1      18.254   0.389   6.515  0.00  0.00    -0.062 A 
ATOM      7  C1  ZIN A   1      18.114   0.057   5.052  0.00  0.00     0.048 C 
ATOM      8  C26 ZIN A   1      17.434  -0.227   7.443  0.00  0.00     0.007 A 
ATOM      9  C25 ZIN A   1      17.560   0.070   8.785  0.00  0.00     0.013 A 
ENDBRANCH   1   3
BRANCH   1  10
ATOM     10  C14 ZIN A   1      18.345   2.697  11.123  0.00  0.00     0.068 A 
ATOM     11  N24 ZIN A   1      19.102   3.244  12.061  0.00  0.00    -0.248 NA
ATOM     12  C18 ZIN A   1      18.868   4.472  12.514  0.00  0.00     0.057 A 
ATOM     13  C17 ZIN A   1      17.799   5.222  12.017  0.00  0.00     0.031 A 
ATOM     14  C16 ZIN A   1      16.984   4.674  11.039  0.00  0.00     0.005 A 
ATOM     15  C15 ZIN A   1      17.260   3.394  10.586  0.00  0.00     0.032 A 
BRANCH  12  16
ATOM     16  C19 ZIN A   1      19.740   5.044  13.554  0.00  0.00     0.038 C 
ATOM     17  C20 ZIN A   1      19.199   5.600  14.659  0.00  0.00     0.086 C 
BRANCH  17  18
ATOM     18  C21 ZIN A   1      20.065   6.167  15.690  0.00  0.00     0.198 C 
ATOM     19  O22 ZIN A   1      21.273   6.242  15.503  0.00  0.00    -0.645 OA
ATOM     20  O23 ZIN A   1      19.582   6.568  16.742  0.00  0.00    -0.645 OA
ENDBRANCH  17  18
ENDBRANCH  12  16
ENDBRANCH   1  10
BRANCH   2  21
ATOM     21  C8  ZIN A   1      19.326   0.755  12.943  0.00  0.00     0.300 C 
BRANCH  21  22
ATOM     22  N9  ZIN A   1      18.451  -0.023  13.830  0.00  0.00     0.091 N 
ATOM     23  C13 ZIN A   1      17.734   0.859  14.775  0.00  0.00     0.273 C 
ATOM     24  C12 ZIN A   1      17.583   0.079  16.095  0.00  0.00     0.032 C 
ATOM     25  C11 ZIN A   1      18.282  -1.276  15.845  0.00  0.00     0.032 C 
ATOM     26  C10 ZIN A   1      19.240  -0.961  14.669  0.00  0.00     0.273 C 
ENDBRANCH  21  22
ENDBRANCH   2  21
TORSDOF 6
ENDMDL
MODEL 5
REMARK VINA RESULT:      -8.4      3.351      5.314
REMARK  6 active torsions:
REMARK  status: ('A' for Active; 'I' for Inactive)
REMARK    1  A    between atoms: C5_5  and  C6_6 
REMARK    2  A    between atoms: C6_6  and  C14_14 
REMARK    3  A    between atoms: C7_7  and  C8_8 
REMARK    4  A    between atoms: C8_8  and  N9_9 
REMARK    5  A    between atoms: C18_18  and  C19_19 
REMARK    6  A    between atoms: C20_20  and  C21_21 
ROOT
ATOM      1  C6  ZIN A   1      18.864  -1.584   8.486  0.00  0.00     0.001 C 
ATOM      2  C7  ZIN A   1      19.298  -1.793   7.238  0.00  0.00     0.018 C 
ENDROOT
BRANCH   1   3
ATOM      3  C5  ZIN A   1      18.635  -0.201   8.969  0.00  0.00    -0.024 A 
ATOM      4  C4  ZIN A   1      17.729   0.038  10.002  0.00  0.00     0.013 A 
ATOM      5  C3  ZIN A   1      17.519   1.327  10.447  0.00  0.00     0.007 A 
ATOM      6  C2  ZIN A   1      18.205   2.382   9.872  0.00  0.00    -0.062 A 
ATOM      7  C1  ZIN A   1      17.972   3.787  10.362  0.00  0.00     0.048 C 
ATOM      8  C26 ZIN A   1      19.102   2.150   8.843  0.00  0.00     0.007 A 
ATOM      9  C25 ZIN A   1      19.323   0.865   8.393  0.00  0.00     0.013 A 
ENDBRANCH   1   3
BRANCH   1  10
ATOM     10  C14 ZIN A   1      18.613  -2.735   9.386  0.00  0.00     0.068 A 
ATOM     11  N24 ZIN A   1      17.569  -3.519   9.169  0.00  0.00    -0.248 NA
ATOM     12  C18 ZIN A   1      17.313  -4.564   9.950  0.00  0.00     0.057 A 
ATOM     13  C17 ZIN A   1      18.137  -4.860  11.038  0.00  0.00     0.031 A 
ATOM     14  C16 ZIN A   1      19.235  -4.052  11.294  0.00  0.00     0.005 A 
ATOM     15  C15 ZIN A   1      19.476  -2.975  10.458  0.00  0.00     0.032 A 
BRANCH  12  16
ATOM     16  C19 ZIN A   1      16.143  -5.416   9.668  0.00  0.00     0.038 C 
ATOM     17  C20 ZIN A   1      15.746  -5.617   8.394  0.00  0.00     0.086 C 
BRANCH  17  18
ATOM     18  C21 ZIN A   1      14.586  -6.461   8.116  0.00  0.00     0.198 C 
ATOM     19  O22 ZIN A   1      13.459  -5.985   8.152  0.00  0.00    -0.645 OA
ATOM     20  O23 ZIN A   1      14.743  -7.646   7.845  0.00  0.00    -0.645 OA
ENDBRANCH  17  18
ENDBRANCH  12  16
ENDBRANCH   1  10
BRANCH   2  21
ATOM     21  C8  ZIN A   1      19.673  -3.184   6.794  0.00  0.00     0.300 C 
BRANCH  21  22
ATOM     22  N9  ZIN A   1      19.100  -3.446   5.467  0.00  0.00     0.091 N 
ATOM     23  C13 ZIN A   1      18.513  -2.217   4.892  0.00  0.00     0.273 C 
ATOM     24  C12 ZIN A   1      17.284  -2.645   4.069  0.00  0.00     0.032 C 
ATOM     25  C11 ZIN A   1      17.197  -4.179   4.242  0.00  0.00     0.032 C 
ATOM     26  C10 ZIN A   1      17.986  -4.425   5.552  0.00  0.00     0.273 C 
ENDBRANCH  21  22
ENDBRANCH   2  21
TORSDOF 6
ENDMDL
MODEL 6
REMARK VINA RESULT:      -8.4      2.641      5.835
REMARK  6 active torsions:
REMARK  status: ('A' for Active; 'I' for Inactive)
REMARK    1  A    between atoms: C5_5  and  C6_6 
REMARK    2  A    between atoms: C6_6  and  C14_14 
REMARK    3  A    between atoms: C7_7  and  C8_8 
REMARK    4  A    between atoms: C8_8  and  N9_9 
REMARK    5  A    between atoms: C18_18  and  C19_19 
REMARK    6  A    between atoms: C20_20  and  C21_21 
ROOT
ATOM      1  C6  ZIN A   1      18.144   1.209  10.177  0.00  0.00     0.001 C 
ATOM      2  C7  ZIN A   1      17.712   2.410  10.578  0.00  0.00     0.018 C 
ENDROOT
BRANCH   1   3
ATOM      3  C5  ZIN A   1      18.224   0.894   8.731  0.00  0.00    -0.024 A 
ATOM      4  C4  ZIN A   1      17.341  -0.024   8.164  0.00  0.00     0.013 A 
ATOM      5  C3  ZIN A   1      17.421  -0.314   6.818  0.00  0.00     0.007 A 
ATOM      6  C2  ZIN A   1      18.375   0.304   6.029  0.00  0.00    -0.062 A 
ATOM      7  C1  ZIN A   1      18.458  -0.017   4.559  0.00  0.00     0.048 C 
ATOM      8  C26 ZIN A   1      19.257   1.212   6.587  0.00  0.00     0.007 A 
ATOM      9  C25 ZIN A   1      19.183   1.514   7.932  0.00  0.00     0.013 A 
ENDBRANCH   1   3
BRANCH   1  10
ATOM     10  C14 ZIN A   1      18.542   0.192  11.180  0.00  0.00     0.068 A 
ATOM     11  N24 ZIN A   1      17.939  -0.986  11.192  0.00  0.00    -0.248 NA
ATOM     12  C18 ZIN A   1      18.270  -1.926  12.072  0.00  0.00     0.057 A 
ATOM     13  C17 ZIN A   1      19.265  -1.691  13.024  0.00  0.00     0.031 A 
ATOM     14  C16 ZIN A   1      19.911  -0.465  13.040  0.00  0.00     0.005 A 
ATOM     15  C15 ZIN A   1      19.544   0.490  12.107  0.00  0.00     0.032 A 
BRANCH  12  16
ATOM     16  C19 ZIN A   1      17.577  -3.226  12.045  0.00  0.00     0.038 C 
ATOM     17  C20 ZIN A   1      18.223  -4.327  11.607  0.00  0.00     0.086 C 
BRANCH  17  18
ATOM     18  C21 ZIN A   1      17.534  -5.616  11.581  0.00  0.00     0.198 C 
ATOM     19  O22 ZIN A   1      17.119  -6.068  10.522  0.00  0.00    -0.645 OA
ATOM     20  O23 ZIN A   1      17.373  -6.244  12.621  0.00  0.00    -0.645 OA
ENDBRANCH  17  18
ENDBRANCH  12  16
ENDBRANCH   1  10
BRANCH   2  21
ATOM     21  C8  ZIN A   1      17.489   2.681  12.044  0.00  0.00     0.300 C 
BRANCH  21  22
ATOM     22  N9  ZIN A   1      17.919   4.049  12.360  0.00  0.00     0.091 N 
ATOM     23  C13 ZIN A   1      19.384   4.191  12.215  0.00  0.00     0.273 C 
ATOM     24  C12 ZIN A   1      19.849   5.191  13.290  0.00  0.00     0.032 C 
ATOM     25  C11 ZIN A   1      18.568   5.577  14.064  0.00  0.00     0.032 C 
ATOM     26  C10 ZIN A   1      17.617   4.389  13.774  0.00  0.00     0.273 C 
ENDBRANCH  21  22
ENDBRANCH   2  21
TORSDOF 6
ENDMDL
MODEL 7
REMARK VINA RESULT:      -8.2      3.832      7.143
REMARK  6 active torsions:
REMARK  status: ('A' for Active; 'I' for Inactive)
REMARK    1  A    between atoms: C5_5  and  C6_6 
REMARK    2  A    between atoms: C6_6  and  C14_14 
REMARK    3  A    between atoms: C7_7  and  C8_8 
REMARK    4  A    between atoms: C8_8  and  N9_9 
REMARK    5  A    between atoms: C18_18  and  C19_19 
REMARK    6  A    between atoms: C20_20  and  C21_21 
ROOT
ATOM      1  C6  ZIN A   1      18.939   1.325   9.768  0.00  0.00     0.001 C 
ATOM      2  C7  ZIN A   1      19.130   2.623  10.024  0.00  0.00     0.018 C 
ENDROOT
BRANCH   1   3
ATOM      3  C5  ZIN A   1      18.588   0.882   8.397  0.00  0.00    -0.024 A 
ATOM      4  C4  ZIN A   1      17.487   0.053   8.190  0.00  0.00     0.013 A 
ATOM      5  C3  ZIN A   1      17.166  -0.357   6.912  0.00  0.00     0.007 A 
ATOM      6  C2  ZIN A   1      17.933   0.054   5.837  0.00  0.00    -0.062 A 
ATOM      7  C1  ZIN A   1      17.578  -0.396   4.444  0.00  0.00     0.048 C 
ATOM      8  C26 ZIN A   1      19.031   0.873   6.038  0.00  0.00     0.007 A 
ATOM      9  C25 ZIN A   1      19.358   1.293   7.311  0.00  0.00     0.013 A 
ENDBRANCH   1   3
BRANCH   1  10
ATOM     10  C14 ZIN A   1      19.077   0.326  10.856  0.00  0.00     0.068 A 
ATOM     11  N24 ZIN A   1      18.401   0.489  11.982  0.00  0.00    -0.248 NA
ATOM     12  C18 ZIN A   1      18.493  -0.386  12.979  0.00  0.00     0.057 A 
ATOM     13  C17 ZIN A   1      19.322  -1.505  12.870  0.00  0.00     0.031 A 
ATOM     14  C16 ZIN A   1      20.047  -1.699  11.704  0.00  0.00     0.005 A 
ATOM     15  C15 ZIN A   1      19.924  -0.771  10.684  0.00  0.00     0.032 A 
BRANCH  12  16
ATOM     16  C19 ZIN A   1      17.718  -0.170  14.214  0.00  0.00     0.038 C 
ATOM     17  C20 ZIN A   1      18.245  -0.505  15.410  0.00  0.00     0.086 C 
BRANCH  17  18
ATOM     18  C21 ZIN A   1      17.476  -0.290  16.633  0.00  0.00     0.198 C 
ATOM     19  O22 ZIN A   1      17.688   0.697  17.325  0.00  0.00    -0.645 OA
ATOM     20  O23 ZIN A   1      16.617  -1.098  16.966  0.00  0.00    -0.645 OA
ENDBRANCH  17  18
ENDBRANCH  12  16
ENDBRANCH   1  10
BRANCH   2  21
ATOM     21  C8  ZIN A   1      19.339   3.090  11.442  0.00  0.00     0.300 C 
BRANCH  21  22
ATOM     22  N9  ZIN A   1      18.601   4.340  11.660  0.00  0.00     0.091 N 
ATOM     23  C13 ZIN A   1      18.648   4.742  13.083  0.00  0.00     0.273 C 
ATOM     24  C12 ZIN A   1      17.302   5.418  13.406  0.00  0.00     0.032 C 
ATOM     25  C11 ZIN A   1      16.488   5.343  12.094  0.00  0.00     0.032 C 
ATOM     26  C10 ZIN A   1      17.161   4.174  11.334  0.00  0.00     0.273 C 
ENDBRANCH  21  22
ENDBRANCH   2  21
TORSDOF 6
ENDMDL
MODEL 8
REMARK VINA RESULT:      -8.1      2.824      6.331
REMARK  6 active torsions:
REMARK  status: ('A' for Active; 'I' for Inactive)
REMARK    1  A    between atoms: C5_5  and  C6_6 
REMARK    2  A    between atoms: C6_6  and  C14_14 
REMARK    3  A    between atoms: C7_7  and  C8_8 
REMARK    4  A    between atoms: C8_8  and  N9_9 
REMARK    5  A    between atoms: C18_18  and  C19_19 
REMARK    6  A    between atoms: C20_20  and  C21_21 
ROOT
ATOM      1  C6  ZIN A   1      18.663  -1.695  11.750  0.00  0.00     0.001 C 
ATOM      2  C7  ZIN A   1      19.142  -1.585  12.994  0.00  0.00     0.018 C 
ENDROOT
BRANCH   1   3
ATOM      3  C5  ZIN A   1      18.332  -3.030  11.198  0.00  0.00    -0.024 A 
ATOM      4  C4  ZIN A   1      17.082  -3.597  11.438  0.00  0.00     0.013 A 
ATOM      5  C3  ZIN A   1      16.780  -4.841  10.923  0.00  0.00     0.007 A 
ATOM      6  C2  ZIN A   1      17.714  -5.525  10.168  0.00  0.00    -0.062 A 
ATOM      7  C1  ZIN A   1      17.379  -6.883   9.607  0.00  0.00     0.048 C 
ATOM      8  C26 ZIN A   1      18.959  -4.969   9.929  0.00  0.00     0.007 A 
ATOM      9  C25 ZIN A   1      19.270  -3.724  10.436  0.00  0.00     0.013 A 
ENDBRANCH   1   3
BRANCH   1  10
ATOM     10  C14 ZIN A   1      18.463  -0.480  10.923  0.00  0.00     0.068 A 
ATOM     11  N24 ZIN A   1      18.786  -0.502   9.640  0.00  0.00    -0.248 NA
ATOM     12  C18 ZIN A   1      18.617   0.564   8.863  0.00  0.00     0.057 A 
ATOM     13  C17 ZIN A   1      18.100   1.751   9.387  0.00  0.00     0.031 A 
ATOM     14  C16 ZIN A   1      17.757   1.806  10.729  0.00  0.00     0.005 A 
ATOM     15  C15 ZIN A   1      17.942   0.676  11.508  0.00  0.00     0.032 A 
BRANCH  12  16
ATOM     16  C19 ZIN A   1      18.985   0.493   7.438  0.00  0.00     0.038 C 
ATOM     17  C20 ZIN A   1      18.919  -0.684   6.781  0.00  0.00     0.086 C 
BRANCH  17  18
ATOM     18  C21 ZIN A   1      19.284  -0.752   5.368  0.00  0.00     0.198 C 
ATOM     19  O22 ZIN A   1      19.247   0.257   4.675  0.00  0.00    -0.645 OA
ATOM     20  O23 ZIN A   1      19.627  -1.820   4.876  0.00  0.00    -0.645 OA
ENDBRANCH  17  18
ENDBRANCH  12  16
ENDBRANCH   1  10
BRANCH   2  21
ATOM     21  C8  ZIN A   1      19.618  -0.248  13.504  0.00  0.00     0.300 C 
BRANCH  21  22
ATOM     22  N9  ZIN A   1      19.201  -0.081  14.902  0.00  0.00     0.091 N 
ATOM     23  C13 ZIN A   1      19.254  -1.367  15.628  0.00  0.00     0.273 C 
ATOM     24  C12 ZIN A   1      18.100  -1.358  16.649  0.00  0.00     0.032 C 
ATOM     25  C11 ZIN A   1      17.380  -0.008  16.431  0.00  0.00     0.032 C 
ATOM     26  C10 ZIN A   1      17.789   0.374  14.987  0.00  0.00     0.273 C 
ENDBRANCH  21  22
ENDBRANCH   2  21
TORSDOF 6
ENDMDL
MODEL 9
REMARK VINA RESULT:      -8.1      4.553      7.642
REMARK  6 active torsions:
REMARK  status: ('A' for Active; 'I' for Inactive)
REMARK    1  A    between atoms: C5_5  and  C6_6 
REMARK    2  A    between atoms: C6_6  and  C14_14 
REMARK    3  A    between atoms: C7_7  and  C8_8 
REMARK    4  A    between atoms: C8_8  and  N9_9 
REMARK    5  A    between atoms: C18_18  and  C19_19 
REMARK    6  A    between atoms: C20_20  and  C21_21 
ROOT
ATOM      1  C6  ZIN A   1      18.037   1.613  10.626  0.00  0.00     0.001 C 
ATOM      2  C7  ZIN A   1      17.713   2.877  10.917  0.00  0.00     0.018 C 
ENDROOT
BRANCH   1   3
ATOM      3  C5  ZIN A   1      18.189   1.192   9.212  0.00  0.00    -0.024 A 
ATOM      4  C4  ZIN A   1      19.143   1.802   8.400  0.00  0.00     0.013 A 
ATOM      5  C3  ZIN A   1      19.279   1.409   7.084  0.00  0.00     0.007 A 
ATOM      6  C2  ZIN A   1      18.472   0.409   6.571  0.00  0.00    -0.062 A 
ATOM      7  C1  ZIN A   1      18.625  -0.017   5.134  0.00  0.00     0.048 C 
ATOM      8  C26 ZIN A   1      17.520  -0.196   7.372  0.00  0.00     0.007 A 
ATOM      9  C25 ZIN A   1      17.378   0.187   8.690  0.00  0.00     0.013 A 
ENDBRANCH   1   3
BRANCH   1  10
ATOM     10  C14 ZIN A   1      18.244   0.630  11.718  0.00  0.00     0.068 A 
ATOM     11  N24 ZIN A   1      18.627   1.051  12.912  0.00  0.00    -0.248 NA
ATOM     12  C18 ZIN A   1      18.818   0.203  13.918  0.00  0.00     0.057 A 
ATOM     13  C17 ZIN A   1      18.630  -1.169  13.738  0.00  0.00     0.031 A 
ATOM     14  C16 ZIN A   1      18.234  -1.641  12.496  0.00  0.00     0.005 A 
ATOM     15  C15 ZIN A   1      18.039  -0.729  11.472  0.00  0.00     0.032 A 
BRANCH  12  16
ATOM     16  C19 ZIN A   1      19.239   0.716  15.234  0.00  0.00     0.038 C 
ATOM     17  C20 ZIN A   1      19.197   2.040  15.488  0.00  0.00     0.086 C 
BRANCH  17  18
ATOM     18  C21 ZIN A   1      19.614   2.548  16.793  0.00  0.00     0.198 C 
ATOM     19  O22 ZIN A   1      19.559   1.823  17.779  0.00  0.00    -0.645 OA
ATOM     20  O23 ZIN A   1      20.020   3.699  16.901  0.00  0.00    -0.645 OA
ENDBRANCH  17  18
ENDBRANCH  12  16
ENDBRANCH   1  10
BRANCH   2  21
ATOM     21  C8  ZIN A   1      17.412   3.270  12.342  0.00  0.00     0.300 C 
BRANCH  21  22
ATOM     22  N9  ZIN A   1      18.042   4.564  12.636  0.00  0.00     0.091 N 
ATOM     23  C13 ZIN A   1      19.516   4.455  12.606  0.00  0.00     0.273 C 
ATOM     24  C12 ZIN A   1      20.062   5.423  13.674  0.00  0.00     0.032 C 
ATOM     25  C11 ZIN A   1      18.810   6.055  14.323  0.00  0.00     0.032 C 
ATOM     26  C10 ZIN A   1      17.696   5.026  14.004  0.00  0.00     0.273 C 
ENDBRANCH  21  22
ENDBRANCH   2  21
TORSDOF 6
ENDMDL
