MODEL 1
REMARK VINA RESULT:      -8.2      0.000      0.000
REMARK  5 active torsions:
REMARK  status: ('A' for Active; 'I' for Inactive)
REMARK    1  A    between atoms: O2_2  and  C3_3 
REMARK    2  A    between atoms: C4_4  and  O5_5 
REMARK    3  A    between atoms: C9_9  and  N10_10 
REMARK    4  A    between atoms: C12_12  and  N13_13 
REMARK       I    between atoms: N16_16  and  C17_17 
REMARK    5  A    between atoms: C17_17  and  C19_19 
ROOT
ATOM      1  C3  ZIN A   1      18.292   0.271  16.278  0.00  0.00     0.103 A 
ATOM      2  C4  ZIN A   1      19.067   1.379  15.910  0.00  0.00     0.102 A 
ATOM      3  C7  ZIN A   1      19.619   1.461  14.663  0.00  0.00     0.057 A 
ATOM      4  C8  ZIN A   1      19.408   0.428  13.742  0.00  0.00     0.039 A 
ATOM      5  C9  ZIN A   1      19.959   0.466  12.438  0.00  0.00     0.137 A 
ATOM      6  N11 ZIN A   1      19.717  -0.549  11.621  0.00  0.00    -0.202 NA
ATOM      7  C12 ZIN A   1      18.976  -1.586  12.005  0.00  0.00     0.184 A 
ATOM      8  N26 ZIN A   1      18.439  -1.673  13.206  0.00  0.00    -0.330 N 
ATOM      9  H27 ZIN A   1      17.906  -2.448  13.440  0.00  0.00     0.168 HD
ATOM     10  C28 ZIN A   1      18.625  -0.695  14.107  0.00  0.00     0.051 A 
ATOM     11  C29 ZIN A   1      18.074  -0.761  15.392  0.00  0.00     0.070 A 
ENDROOT
BRANCH   7  12
ATOM     12  N13 ZIN A   1      18.759  -2.615  11.105  0.00  0.00    -0.250 NA
ATOM     13  C25 ZIN A   1      18.522  -2.091   9.754  0.00  0.00     0.118 C 
ATOM     14  C24 ZIN A   1      18.110  -3.241   8.829  0.00  0.00     0.141 C 
ATOM     15  N16 ZIN A   1      19.128  -4.298   8.915  0.00  0.00    -0.344 N 
ATOM     16  C15 ZIN A   1      19.520  -4.779  10.249  0.00  0.00     0.141 C 
ATOM     17  C17 ZIN A   1      19.688  -4.813   7.803  0.00  0.00     0.277 C 
ATOM     18  C14 ZIN A   1      19.876  -3.568  11.119  0.00  0.00     0.118 C 
ATOM     19  O18 ZIN A   1      20.616  -5.596   7.895  0.00  0.00    -0.265 OA
BRANCH  17  20
ATOM     20  C19 ZIN A   1      19.181  -4.430   6.482  0.00  0.00     0.142 A 
ATOM     21  O23 ZIN A   1      19.575  -3.359   5.762  0.00  0.00    -0.317 OA
ATOM     22  C22 ZIN A   1      18.899  -3.327   4.606  0.00  0.00     0.143 A 
ATOM     23  C21 ZIN A   1      18.050  -4.379   4.569  0.00  0.00     0.027 A 
ATOM     24  C20 ZIN A   1      18.224  -5.091   5.767  0.00  0.00     0.045 A 
ENDBRANCH  17  20
ENDBRANCH   7  12
BRANCH   5  25
ATOM     25  N10 ZIN A   1      20.730   1.534  12.027  0.00  0.00    -0.383 N 
ATOM     26  H37 ZIN A   1      20.963   2.234  12.657  0.00  0.00     0.157 HD
ATOM     27  H38 ZIN A   1      21.039   1.584  11.109  0.00  0.00     0.157 HD
ENDBRANCH   5  25
BRANCH   1  28
ATOM     28  O2  ZIN A   1      17.754   0.211  17.524  0.00  0.00    -0.353 OA
ATOM     29  C1  ZIN A   1      18.610  -0.227  18.581  0.00  0.00     0.210 C 
ENDBRANCH   1  28
BRANCH   2  30
ATOM     30  O5  ZIN A   1      19.272   2.383  16.804  0.00  0.00    -0.353 OA
ATOM     31  C6  ZIN A   1      19.545   3.680  16.271  0.00  0.00     0.210 C 
ENDBRANCH   2  30
TORSDOF 5
ENDMDL
MODEL 2
REMARK VINA RESULT:      -8.1      2.341      2.891
REMARK  5 active torsions:
REMARK  status: ('A' for Active; 'I' for Inactive)
REMARK    1  A    between atoms: O2_2  and  C3_3 
REMARK    2  A    between atoms: C4_4  and  O5_5 
REMARK    3  A    between atoms: C9_9  and  N10_10 
REMARK    4  A    between atoms: C12_12  and  N13_13 
REMARK       I    between atoms: N16_16  and  C17_17 
REMARK    5  A    between atoms: C17_17  and  C19_19 
ROOT
ATOM      1  C3  ZIN A   1      19.162   1.642  16.539  0.00  0.00     0.103 A 
ATOM      2  C4  ZIN A   1      18.908   3.015  16.424  0.00  0.00     0.102 A 
ATOM      3  C7  ZIN A   1      18.431   3.542  15.257  0.00  0.00     0.057 A 
ATOM      4  C8  ZIN A   1      18.192   2.700  14.163  0.00  0.00     0.039 A 
ATOM      5  C9  ZIN A   1      17.699   3.198  12.932  0.00  0.00     0.137 A 
ATOM      6  N11 ZIN A   1      17.499   2.342  11.942  0.00  0.00    -0.202 NA
ATOM      7  C12 ZIN A   1      17.751   1.043  12.086  0.00  0.00     0.184 A 
ATOM      8  N26 ZIN A   1      18.211   0.526  13.208  0.00  0.00    -0.330 N 
ATOM      9  H27 ZIN A   1      18.380  -0.427  13.267  0.00  0.00     0.168 HD
ATOM     10  C28 ZIN A   1      18.446   1.312  14.272  0.00  0.00     0.051 A 
ATOM     11  C29 ZIN A   1      18.940   0.794  15.475  0.00  0.00     0.070 A 
ENDROOT
BRANCH   7  12
ATOM     12  N13 ZIN A   1      17.521   0.200  11.013  0.00  0.00    -0.250 NA
ATOM     13  C25 ZIN A   1      17.803   0.878   9.741  0.00  0.00     0.118 C 
ATOM     14  C24 ZIN A   1      17.367  -0.020   8.579  0.00  0.00     0.141 C 
ATOM     15  N16 ZIN A   1      18.008  -1.334   8.738  0.00  0.00    -0.344 N 
ATOM     16  C15 ZIN A   1      17.885  -2.016  10.036  0.00  0.00     0.141 C 
ATOM     17  C17 ZIN A   1      18.690  -1.899   7.723  0.00  0.00     0.277 C 
ATOM     18  C14 ZIN A   1      18.301  -1.038  11.141  0.00  0.00     0.118 C 
ATOM     19  O18 ZIN A   1      19.318  -2.925   7.908  0.00  0.00    -0.265 OA
BRANCH  17  20
ATOM     20  C19 ZIN A   1      18.676  -1.278   6.394  0.00  0.00     0.142 A 
ATOM     21  O23 ZIN A   1      19.479  -0.275   5.981  0.00  0.00    -0.317 OA
ATOM     22  C22 ZIN A   1      19.186   0.034   4.711  0.00  0.00     0.143 A 
ATOM     23  C21 ZIN A   1      18.179  -0.765   4.290  0.00  0.00     0.027 A 
ATOM     24  C20 ZIN A   1      17.847  -1.608   5.362  0.00  0.00     0.045 A 
ENDBRANCH  17  20
ENDBRANCH   7  12
BRANCH   5  25
ATOM     25  N10 ZIN A   1      17.434   4.542  12.768  0.00  0.00    -0.383 N 
ATOM     26  H37 ZIN A   1      17.324   4.909  11.876  0.00  0.00     0.157 HD
ATOM     27  H38 ZIN A   1      17.358   5.120  13.544  0.00  0.00     0.157 HD
ENDBRANCH   5  25
BRANCH   1  28
ATOM     28  O2  ZIN A   1      19.636   1.142  17.709  0.00  0.00    -0.353 OA
ATOM     29  C1  ZIN A   1      19.054  -0.077  18.177  0.00  0.00     0.210 C 
ENDBRANCH   1  28
BRANCH   2  30
ATOM     30  O5  ZIN A   1      19.138   3.833  17.486  0.00  0.00    -0.353 OA
ATOM     31  C6  ZIN A   1      18.013   4.181  18.294  0.00  0.00     0.210 C 
ENDBRANCH   2  30
TORSDOF 5
ENDMDL
MODEL 3
REMARK VINA RESULT:      -8.1      2.467      9.949
REMARK  5 active torsions:
REMARK  status: ('A' for Active; 'I' for Inactive)
REMARK    1  A    between atoms: O2_2  and  C3_3 
REMARK    2  A    between atoms: C4_4  and  O5_5 
REMARK    3  A    between atoms: C9_9  and  N10_10 
REMARK    4  A    between atoms: C12_12  and  N13_13 
REMARK       I    between atoms: N16_16  and  C17_17 
REMARK    5  A    between atoms: C17_17  and  C19_19 
ROOT
ATOM      1  C3  ZIN A   1      18.521  -0.396   6.724  0.00  0.00     0.103 A 
ATOM      2  C4  ZIN A   1      19.280  -1.514   7.094  0.00  0.00     0.102 A 
ATOM      3  C7  ZIN A   1      19.752  -1.646   8.369  0.00  0.00     0.057 A 
ATOM      4  C8  ZIN A   1      19.473  -0.655   9.318  0.00  0.00     0.039 A 
ATOM      5  C9  ZIN A   1      19.940  -0.745  10.652  0.00  0.00     0.137 A 
ATOM      6  N11 ZIN A   1      19.636   0.233  11.493  0.00  0.00    -0.202 NA
ATOM      7  C12 ZIN A   1      18.912   1.280  11.107  0.00  0.00     0.184 A 
ATOM      8  N26 ZIN A   1      18.452   1.415   9.879  0.00  0.00    -0.330 N 
ATOM      9  H27 ZIN A   1      17.928   2.197   9.643  0.00  0.00     0.168 HD
ATOM     10  C28 ZIN A   1      18.705   0.477   8.951  0.00  0.00     0.051 A 
ATOM     11  C29 ZIN A   1      18.237   0.596   7.637  0.00  0.00     0.070 A 
ENDROOT
BRANCH   7  12
ATOM     12  N13 ZIN A   1      18.629   2.268  12.034  0.00  0.00    -0.250 NA
ATOM     13  C25 ZIN A   1      18.535   1.708  13.388  0.00  0.00     0.118 C 
ATOM     14  C24 ZIN A   1      18.046   2.793  14.354  0.00  0.00     0.141 C 
ATOM     15  N16 ZIN A   1      18.925   3.965  14.225  0.00  0.00    -0.344 N 
ATOM     16  C15 ZIN A   1      19.177   4.500  12.878  0.00  0.00     0.141 C 
ATOM     17  C17 ZIN A   1      19.485   4.533  15.310  0.00  0.00     0.277 C 
ATOM     18  C14 ZIN A   1      19.622   3.348  11.971  0.00  0.00     0.118 C 
ATOM     19  O18 ZIN A   1      20.306   5.421  15.177  0.00  0.00    -0.265 OA
BRANCH  17  20
ATOM     20  C19 ZIN A   1      19.106   4.080  16.653  0.00  0.00     0.142 A 
ATOM     21  O23 ZIN A   1      19.692   3.083  17.347  0.00  0.00    -0.317 OA
ATOM     22  C22 ZIN A   1      19.085   2.952  18.535  0.00  0.00     0.143 A 
ATOM     23  C21 ZIN A   1      18.090   3.864  18.617  0.00  0.00     0.027 A 
ATOM     24  C20 ZIN A   1      18.096   4.591  17.416  0.00  0.00     0.045 A 
ENDBRANCH  17  20
ENDBRANCH   7  12
BRANCH   5  25
ATOM     25  N10 ZIN A   1      20.692  -1.825  11.066  0.00  0.00    -0.383 N 
ATOM     26  H37 ZIN A   1      21.531  -1.680  11.532  0.00  0.00     0.157 HD
ATOM     27  H38 ZIN A   1      20.382  -2.727  10.892  0.00  0.00     0.157 HD
ENDBRANCH   5  25
BRANCH   1  28
ATOM     28  O2  ZIN A   1      18.063  -0.287   5.449  0.00  0.00    -0.353 OA
ATOM     29  C1  ZIN A   1      19.002   0.132   4.456  0.00  0.00     0.210 C 
ENDBRANCH   1  28
BRANCH   2  30
ATOM     30  O5  ZIN A   1      19.552  -2.478   6.173  0.00  0.00    -0.353 OA
ATOM     31  C6  ZIN A   1      19.792  -3.797   6.667  0.00  0.00     0.210 C 
ENDBRANCH   2  30
TORSDOF 5
ENDMDL
MODEL 4
REMARK VINA RESULT:      -8.0      2.159      9.212
REMARK  5 active torsions:
REMARK  status: ('A' for Active; 'I' for Inactive)
REMARK    1  A    between atoms: O2_2  and  C3_3 
REMARK    2  A    between atoms: C4_4  and  O5_5 
REMARK    3  A    between atoms: C9_9  and  N10_10 
REMARK    4  A    between atoms: C12_12  and  N13_13 
REMARK       I    between atoms: N16_16  and  C17_17 
REMARK    5  A    between atoms: C17_17  and  C19_19 
ROOT
ATOM      1  C3  ZIN A   1      19.017  -3.118   8.093  0.00  0.00     0.103 A 
ATOM      2  C4  ZIN A   1      19.267  -2.277   7.001  0.00  0.00     0.102 A 
ATOM      3  C7  ZIN A   1      19.197  -0.919   7.135  0.00  0.00     0.057 A 
ATOM      4  C8  ZIN A   1      18.873  -0.361   8.378  0.00  0.00     0.039 A 
ATOM      5  C9  ZIN A   1      18.786   1.040   8.568  0.00  0.00     0.137 A 
ATOM      6  N11 ZIN A   1      18.473   1.494   9.772  0.00  0.00    -0.202 NA
ATOM      7  C12 ZIN A   1      18.243   0.666  10.788  0.00  0.00     0.184 A 
ATOM      8  N26 ZIN A   1      18.309  -0.646  10.667  0.00  0.00    -0.330 N 
ATOM      9  H27 ZIN A   1      18.132  -1.210  11.436  0.00  0.00     0.168 HD
ATOM     10  C28 ZIN A   1      18.619  -1.205   9.486  0.00  0.00     0.051 A 
ATOM     11  C29 ZIN A   1      18.691  -2.594   9.325  0.00  0.00     0.070 A 
ENDROOT
BRANCH   7  12
ATOM     12  N13 ZIN A   1      17.920   1.203  12.022  0.00  0.00    -0.250 NA
ATOM     13  C25 ZIN A   1      18.150   0.228  13.096  0.00  0.00     0.118 C 
ATOM     14  C24 ZIN A   1      17.615   0.791  14.416  0.00  0.00     0.141 C 
ATOM     15  N16 ZIN A   1      18.217   2.114  14.638  0.00  0.00    -0.344 N 
ATOM     16  C15 ZIN A   1      18.147   3.102  13.551  0.00  0.00     0.141 C 
ATOM     17  C17 ZIN A   1      18.818   2.414  15.806  0.00  0.00     0.277 C 
ATOM     18  C14 ZIN A   1      18.662   2.447  12.264  0.00  0.00     0.118 C 
ATOM     19  O18 ZIN A   1      19.418   3.466  15.930  0.00  0.00    -0.265 OA
BRANCH  17  20
ATOM     20  C19 ZIN A   1      18.748   1.474  16.930  0.00  0.00     0.142 A 
ATOM     21  O23 ZIN A   1      19.489   0.356  17.074  0.00  0.00    -0.317 OA
ATOM     22  C22 ZIN A   1      19.157  -0.253  18.221  0.00  0.00     0.143 A 
ATOM     23  C21 ZIN A   1      18.187   0.466  18.829  0.00  0.00     0.027 A 
ATOM     24  C20 ZIN A   1      17.919   1.574  18.010  0.00  0.00     0.045 A 
ENDBRANCH  17  20
ENDBRANCH   7  12
BRANCH   5  25
ATOM     25  N10 ZIN A   1      19.022   1.911   7.524  0.00  0.00    -0.383 N 
ATOM     26  H37 ZIN A   1      19.435   2.772   7.696  0.00  0.00     0.157 HD
ATOM     27  H38 ZIN A   1      18.776   1.661   6.619  0.00  0.00     0.157 HD
ENDBRANCH   5  25
BRANCH   1  28
ATOM     28  O2  ZIN A   1      19.092  -4.465   7.935  0.00  0.00    -0.353 OA
ATOM     29  C1  ZIN A   1      19.598  -5.221   9.037  0.00  0.00     0.210 C 
ENDBRANCH   1  28
BRANCH   2  30
ATOM     30  O5  ZIN A   1      19.583  -2.818   5.793  0.00  0.00    -0.353 OA
ATOM     31  C6  ZIN A   1      19.148  -2.109   4.631  0.00  0.00     0.210 C 
ENDBRANCH   2  30
TORSDOF 5
ENDMDL
MODEL 5
REMARK VINA RESULT:      -7.9      2.061      3.179
REMARK  5 active torsions:
REMARK  status: ('A' for Active; 'I' for Inactive)
REMARK    1  A    between atoms: O2_2  and  C3_3 
REMARK    2  A    between atoms: C4_4  and  O5_5 
REMARK    3  A    between atoms: C9_9  and  N10_10 
REMARK    4  A    between atoms: C12_12  and  N13_13 
REMARK       I    between atoms: N16_16  and  C17_17 
REMARK    5  A    between atoms: C17_17  and  C19_19 
ROOT
ATOM      1  C3  ZIN A   1      18.890   3.517  15.113  0.00  0.00     0.103 A 
ATOM      2  C4  ZIN A   1      19.252   2.686  16.181  0.00  0.00     0.102 A 
ATOM      3  C7  ZIN A   1      19.251   1.327  16.041  0.00  0.00     0.057 A 
ATOM      4  C8  ZIN A   1      18.886   0.757  14.814  0.00  0.00     0.039 A 
ATOM      5  C9  ZIN A   1      18.868  -0.645  14.619  0.00  0.00     0.137 A 
ATOM      6  N11 ZIN A   1      18.511  -1.111  13.430  0.00  0.00    -0.202 NA
ATOM      7  C12 ZIN A   1      18.175  -0.292  12.437  0.00  0.00     0.184 A 
ATOM      8  N26 ZIN A   1      18.173   1.020  12.564  0.00  0.00    -0.330 N 
ATOM      9  H27 ZIN A   1      17.920   1.577  11.812  0.00  0.00     0.168 HD
ATOM     10  C28 ZIN A   1      18.520   1.591  13.729  0.00  0.00     0.051 A 
ATOM     11  C29 ZIN A   1      18.522   2.981  13.898  0.00  0.00     0.070 A 
ENDROOT
BRANCH   7  12
ATOM     12  N13 ZIN A   1      17.811  -0.841  11.220  0.00  0.00    -0.250 NA
ATOM     13  C25 ZIN A   1      18.171   0.053  10.112  0.00  0.00     0.118 C 
ATOM     14  C24 ZIN A   1      17.594  -0.500   8.805  0.00  0.00     0.141 C 
ATOM     15  N16 ZIN A   1      18.040  -1.893   8.650  0.00  0.00    -0.344 N 
ATOM     16  C15 ZIN A   1      17.837  -2.818   9.775  0.00  0.00     0.141 C 
ATOM     17  C17 ZIN A   1      18.619  -2.312   7.508  0.00  0.00     0.277 C 
ATOM     18  C14 ZIN A   1      18.405  -2.172  11.045  0.00  0.00     0.118 C 
ATOM     19  O18 ZIN A   1      19.094  -3.431   7.441  0.00  0.00    -0.265 OA
BRANCH  17  20
ATOM     20  C19 ZIN A   1      18.678  -1.420   6.345  0.00  0.00     0.142 A 
ATOM     21  O23 ZIN A   1      19.463  -0.328   6.224  0.00  0.00    -0.317 OA
ATOM     22  C22 ZIN A   1      19.253   0.238   5.028  0.00  0.00     0.143 A 
ATOM     23  C21 ZIN A   1      18.320  -0.480   4.364  0.00  0.00     0.027 A 
ATOM     24  C20 ZIN A   1      17.946  -1.545   5.200  0.00  0.00     0.045 A 
ENDBRANCH  17  20
ENDBRANCH   7  12
BRANCH   5  25
ATOM     25  N10 ZIN A   1      19.215  -1.506  15.639  0.00  0.00    -0.383 N 
ATOM     26  H37 ZIN A   1      19.949  -2.130  15.519  0.00  0.00     0.157 HD
ATOM     27  H38 ZIN A   1      18.725  -1.488  16.476  0.00  0.00     0.157 HD
ENDBRANCH   5  25
BRANCH   1  28
ATOM     28  O2  ZIN A   1      18.898   4.865  15.277  0.00  0.00    -0.353 OA
ATOM     29  C1  ZIN A   1      19.924   5.595  14.601  0.00  0.00     0.210 C 
ENDBRANCH   1  28
BRANCH   2  30
ATOM     30  O5  ZIN A   1      19.607   3.238  17.373  0.00  0.00    -0.353 OA
ATOM     31  C6  ZIN A   1      18.876   2.819  18.526  0.00  0.00     0.210 C 
ENDBRANCH   2  30
TORSDOF 5
ENDMDL
MODEL 6
REMARK VINA RESULT:      -7.8      3.053      4.578
REMARK  5 active torsions:
REMARK  status: ('A' for Active; 'I' for Inactive)
REMARK    1  A    between atoms: O2_2  and  C3_3 
REMARK    2  A    between atoms: C4_4  and  O5_5 
REMARK    3  A    between atoms: C9_9  and  N10_10 
REMARK    4  A    between atoms: C12_12  and  N13_13 
REMARK       I    between atoms: N16_16  and  C17_17 
REMARK    5  A    between atoms: C17_17  and  C19_19 
ROOT
ATOM      1  C3  ZIN A   1      17.860   2.959  11.361  0.00  0.00     0.103 A 
ATOM      2  C4  ZIN A   1      18.877   2.569  12.242  0.00  0.00     0.102 A 
ATOM      3  C7  ZIN A   1      19.744   1.567  11.909  0.00  0.00     0.057 A 
ATOM      4  C8  ZIN A   1      19.616   0.924  10.671  0.00  0.00     0.039 A 
ATOM      5  C9  ZIN A   1      20.489  -0.120  10.279  0.00  0.00     0.137 A 
ATOM      6  N11 ZIN A   1      20.306  -0.683   9.093  0.00  0.00    -0.202 NA
ATOM      7  C12 ZIN A   1      19.329  -0.286   8.281  0.00  0.00     0.184 A 
ATOM      8  N26 ZIN A   1      18.489   0.680   8.595  0.00  0.00    -0.330 N 
ATOM      9  H27 ZIN A   1      17.792   0.935   7.971  0.00  0.00     0.168 HD
ATOM     10  C28 ZIN A   1      18.591   1.314   9.775  0.00  0.00     0.051 A 
ATOM     11  C29 ZIN A   1      17.710   2.338  10.140  0.00  0.00     0.070 A 
ENDROOT
BRANCH   7  12
ATOM     12  N13 ZIN A   1      19.190  -0.913   7.056  0.00  0.00    -0.250 NA
ATOM     13  C25 ZIN A   1      19.130  -2.372   7.215  0.00  0.00     0.118 C 
ATOM     14  C24 ZIN A   1      19.159  -3.036   5.835  0.00  0.00     0.141 C 
ATOM     15  N16 ZIN A   1      18.084  -2.456   5.015  0.00  0.00    -0.344 N 
ATOM     16  C15 ZIN A   1      17.996  -0.991   4.919  0.00  0.00     0.141 C 
ATOM     17  C17 ZIN A   1      17.203  -3.245   4.370  0.00  0.00     0.277 C 
ATOM     18  C14 ZIN A   1      18.014  -0.407   6.337  0.00  0.00     0.118 C 
ATOM     19  O18 ZIN A   1      16.248  -2.751   3.799  0.00  0.00    -0.265 OA
BRANCH  17  20
ATOM     20  C19 ZIN A   1      17.395  -4.699   4.355  0.00  0.00     0.142 A 
ATOM     21  O23 ZIN A   1      17.370  -5.512   5.431  0.00  0.00    -0.317 OA
ATOM     22  C22 ZIN A   1      17.580  -6.776   5.039  0.00  0.00     0.143 A 
ATOM     23  C21 ZIN A   1      17.751  -6.792   3.698  0.00  0.00     0.027 A 
ATOM     24  C20 ZIN A   1      17.634  -5.466   3.251  0.00  0.00     0.045 A 
ENDBRANCH  17  20
ENDBRANCH   7  12
BRANCH   5  25
ATOM     25  N10 ZIN A   1      21.505  -0.542  11.111  0.00  0.00    -0.383 N 
ATOM     26  H37 ZIN A   1      22.325  -0.898  10.732  0.00  0.00     0.157 HD
ATOM     27  H38 ZIN A   1      21.400  -0.483  12.074  0.00  0.00     0.157 HD
ENDBRANCH   5  25
BRANCH   1  28
ATOM     28  O2  ZIN A   1      17.010   3.958  11.716  0.00  0.00    -0.353 OA
ATOM     29  C1  ZIN A   1      17.001   5.126  10.893  0.00  0.00     0.210 C 
ENDBRANCH   1  28
BRANCH   2  30
ATOM     30  O5  ZIN A   1      19.002   3.194  13.444  0.00  0.00    -0.353 OA
ATOM     31  C6  ZIN A   1      18.437   2.537  14.580  0.00  0.00     0.210 C 
ENDBRANCH   2  30
TORSDOF 5
ENDMDL
MODEL 7
REMARK VINA RESULT:      -7.8      1.780      9.301
REMARK  5 active torsions:
REMARK  status: ('A' for Active; 'I' for Inactive)
REMARK    1  A    between atoms: O2_2  and  C3_3 
REMARK    2  A    between atoms: C4_4  and  O5_5 
REMARK    3  A    between atoms: C9_9  and  N10_10 
REMARK    4  A    between atoms: C12_12  and  N13_13 
REMARK       I    between atoms: N16_16  and  C17_17 
REMARK    5  A    between atoms: C17_17  and  C19_19 
ROOT
ATOM      1  C3  ZIN A   1      19.298  -2.094   5.845  0.00  0.00     0.103 A 
ATOM      2  C4  ZIN A   1      18.815  -3.409   5.833  0.00  0.00     0.102 A 
ATOM      3  C7  ZIN A   1      18.577  -4.076   7.002  0.00  0.00     0.057 A 
ATOM      4  C8  ZIN A   1      18.817  -3.438   8.225  0.00  0.00     0.039 A 
ATOM      5  C9  ZIN A   1      18.588  -4.088   9.463  0.00  0.00     0.137 A 
ATOM      6  N11 ZIN A   1      18.840  -3.421  10.580  0.00  0.00    -0.202 NA
ATOM      7  C12 ZIN A   1      19.297  -2.172  10.554  0.00  0.00     0.184 A 
ATOM      8  N26 ZIN A   1      19.530  -1.520   9.431  0.00  0.00    -0.330 N 
ATOM      9  H27 ZIN A   1      19.864  -0.611   9.462  0.00  0.00     0.168 HD
ATOM     10  C28 ZIN A   1      19.305  -2.109   8.245  0.00  0.00     0.051 A 
ATOM     11  C29 ZIN A   1      19.548  -1.447   7.036  0.00  0.00     0.070 A 
ENDROOT
BRANCH   7  12
ATOM     12  N13 ZIN A   1      19.541  -1.529  11.755  0.00  0.00    -0.250 NA
ATOM     13  C25 ZIN A   1      19.293  -0.086  11.640  0.00  0.00     0.118 C 
ATOM     14  C24 ZIN A   1      19.744   0.611  12.927  0.00  0.00     0.141 C 
ATOM     15  N16 ZIN A   1      19.086  -0.043  14.069  0.00  0.00    -0.344 N 
ATOM     16  C15 ZIN A   1      19.175  -1.507  14.176  0.00  0.00     0.141 C 
ATOM     17  C17 ZIN A   1      18.420   0.678  14.990  0.00  0.00     0.277 C 
ATOM     18  C14 ZIN A   1      18.746  -2.122  12.839  0.00  0.00     0.118 C 
ATOM     19  O18 ZIN A   1      17.778   0.114  15.858  0.00  0.00    -0.265 OA
BRANCH  17  20
ATOM     20  C19 ZIN A   1      18.467   2.144  14.950  0.00  0.00     0.142 A 
ATOM     21  O23 ZIN A   1      17.763   2.936  14.115  0.00  0.00    -0.317 OA
ATOM     22  C22 ZIN A   1      18.057   4.218  14.366  0.00  0.00     0.143 A 
ATOM     23  C21 ZIN A   1      18.966   4.269  15.365  0.00  0.00     0.027 A 
ATOM     24  C20 ZIN A   1      19.235   2.944  15.746  0.00  0.00     0.045 A 
ENDBRANCH  17  20
ENDBRANCH   7  12
BRANCH   5  25
ATOM     25  N10 ZIN A   1      18.113  -5.382   9.506  0.00  0.00    -0.383 N 
ATOM     26  H37 ZIN A   1      17.428  -5.667   8.880  0.00  0.00     0.157 HD
ATOM     27  H38 ZIN A   1      18.465  -6.006  10.159  0.00  0.00     0.157 HD
ENDBRANCH   5  25
BRANCH   1  28
ATOM     28  O2  ZIN A   1      19.527  -1.451   4.671  0.00  0.00    -0.353 OA
ATOM     29  C1  ZIN A   1      19.094  -0.093   4.579  0.00  0.00     0.210 C 
ENDBRANCH   1  28
BRANCH   2  30
ATOM     30  O5  ZIN A   1      18.580  -4.029   4.646  0.00  0.00    -0.353 OA
ATOM     31  C6  ZIN A   1      17.219  -4.124   4.221  0.00  0.00     0.210 C 
ENDBRANCH   2  30
TORSDOF 5
ENDMDL
MODEL 8
REMARK VINA RESULT:      -7.8      2.654      4.053
REMARK  5 active torsions:
REMARK  status: ('A' for Active; 'I' for Inactive)
REMARK    1  A    between atoms: O2_2  and  C3_3 
REMARK    2  A    between atoms: C4_4  and  O5_5 
REMARK    3  A    between atoms: C9_9  and  N10_10 
REMARK    4  A    between atoms: C12_12  and  N13_13 
REMARK       I    between atoms: N16_16  and  C17_17 
REMARK    5  A    between atoms: C17_17  and  C19_19 
ROOT
ATOM      1  C3  ZIN A   1      19.191   2.719  16.730  0.00  0.00     0.103 A 
ATOM      2  C4  ZIN A   1      18.387   3.865  16.712  0.00  0.00     0.102 A 
ATOM      3  C7  ZIN A   1      17.955   4.397  15.530  0.00  0.00     0.057 A 
ATOM      4  C8  ZIN A   1      18.320   3.789  14.322  0.00  0.00     0.039 A 
ATOM      5  C9  ZIN A   1      17.899   4.302  13.071  0.00  0.00     0.137 A 
ATOM      6  N11 ZIN A   1      18.285   3.673  11.970  0.00  0.00    -0.202 NA
ATOM      7  C12 ZIN A   1      19.049   2.585  12.025  0.00  0.00     0.184 A 
ATOM      8  N26 ZIN A   1      19.470   2.065  13.161  0.00  0.00    -0.330 N 
ATOM      9  H27 ZIN A   1      20.026   1.271  13.151  0.00  0.00     0.168 HD
ATOM     10  C28 ZIN A   1      19.132   2.629  14.333  0.00  0.00     0.051 A 
ATOM     11  C29 ZIN A   1      19.568   2.105  15.555  0.00  0.00     0.070 A 
ENDROOT
BRANCH   7  12
ATOM     12  N13 ZIN A   1      19.418   1.974  10.839  0.00  0.00    -0.250 NA
ATOM     13  C25 ZIN A   1      19.219   0.521  10.912  0.00  0.00     0.118 C 
ATOM     14  C24 ZIN A   1      19.804  -0.136   9.658  0.00  0.00     0.141 C 
ATOM     15  N16 ZIN A   1      19.219   0.513   8.475  0.00  0.00    -0.344 N 
ATOM     16  C15 ZIN A   1      19.259   1.981   8.396  0.00  0.00     0.141 C 
ATOM     17  C17 ZIN A   1      18.662  -0.217   7.489  0.00  0.00     0.277 C 
ATOM     18  C14 ZIN A   1      18.695   2.554   9.701  0.00  0.00     0.118 C 
ATOM     19  O18 ZIN A   1      18.074   0.337   6.579  0.00  0.00    -0.265 OA
BRANCH  17  20
ATOM     20  C19 ZIN A   1      18.764  -1.680   7.513  0.00  0.00     0.142 A 
ATOM     21  O23 ZIN A   1      18.091  -2.508   8.338  0.00  0.00    -0.317 OA
ATOM     22  C22 ZIN A   1      18.433  -3.776   8.073  0.00  0.00     0.143 A 
ATOM     23  C21 ZIN A   1      19.342  -3.780   7.072  0.00  0.00     0.027 A 
ATOM     24  C20 ZIN A   1      19.561  -2.442   6.707  0.00  0.00     0.045 A 
ENDBRANCH  17  20
ENDBRANCH   7  12
BRANCH   5  25
ATOM     25  N10 ZIN A   1      17.107   5.429  12.999  0.00  0.00    -0.383 N 
ATOM     26  H37 ZIN A   1      17.157   6.007  12.221  0.00  0.00     0.157 HD
ATOM     27  H38 ZIN A   1      16.501   5.643  13.726  0.00  0.00     0.157 HD
ENDBRANCH   5  25
BRANCH   1  28
ATOM     28  O2  ZIN A   1      19.608   2.209  17.918  0.00  0.00    -0.353 OA
ATOM     29  C1  ZIN A   1      19.252   0.855  18.204  0.00  0.00     0.210 C 
ENDBRANCH   1  28
BRANCH   2  30
ATOM     30  O5  ZIN A   1      18.031   4.457  17.884  0.00  0.00    -0.353 OA
ATOM     31  C6  ZIN A   1      17.796   5.866  17.856  0.00  0.00     0.210 C 
ENDBRANCH   2  30
TORSDOF 5
ENDMDL
MODEL 9
REMARK VINA RESULT:      -7.6      2.551      3.018
REMARK  5 active torsions:
REMARK  status: ('A' for Active; 'I' for Inactive)
REMARK    1  A    between atoms: O2_2  and  C3_3 
REMARK    2  A    between atoms: C4_4  and  O5_5 
REMARK    3  A    between atoms: C9_9  and  N10_10 
REMARK    4  A    between atoms: C12_12  and  N13_13 
REMARK       I    between atoms: N16_16  and  C17_17 
REMARK    5  A    between atoms: C17_17  and  C19_19 
ROOT
ATOM      1  C3  ZIN A   1      18.133   0.141  14.577  0.00  0.00     0.103 A 
ATOM      2  C4  ZIN A   1      19.077   0.986  13.979  0.00  0.00     0.102 A 
ATOM      3  C7  ZIN A   1      19.765   0.589  12.867  0.00  0.00     0.057 A 
ATOM      4  C8  ZIN A   1      19.524  -0.677  12.318  0.00  0.00     0.039 A 
ATOM      5  C9  ZIN A   1      20.212  -1.135  11.168  0.00  0.00     0.137 A 
ATOM      6  N11 ZIN A   1      19.932  -2.345  10.706  0.00  0.00    -0.202 NA
ATOM      7  C12 ZIN A   1      19.028  -3.121  11.299  0.00  0.00     0.184 A 
ATOM      8  N26 ZIN A   1      18.360  -2.746  12.372  0.00  0.00    -0.330 N 
ATOM      9  H27 ZIN A   1      17.711  -3.346  12.770  0.00  0.00     0.168 HD
ATOM     10  C28 ZIN A   1      18.571  -1.536  12.917  0.00  0.00     0.051 A 
ATOM     11  C29 ZIN A   1      17.882  -1.112  14.059  0.00  0.00     0.070 A 
ENDROOT
BRANCH   7  12
ATOM     12  N13 ZIN A   1      18.781  -4.375  10.769  0.00  0.00    -0.250 NA
ATOM     13  C25 ZIN A   1      17.376  -4.505  10.360  0.00  0.00     0.118 C 
ATOM     14  C24 ZIN A   1      17.099  -5.954   9.949  0.00  0.00     0.141 C 
ATOM     15  N16 ZIN A   1      18.082  -6.347   8.928  0.00  0.00    -0.344 N 
ATOM     16  C15 ZIN A   1      19.507  -6.119   9.211  0.00  0.00     0.141 C 
ATOM     17  C17 ZIN A   1      17.689  -6.900   7.764  0.00  0.00     0.277 C 
ATOM     18  C14 ZIN A   1      19.690  -4.662   9.652  0.00  0.00     0.118 C 
ATOM     19  O18 ZIN A   1      18.501  -7.104   6.882  0.00  0.00    -0.265 OA
BRANCH  17  20
ATOM     20  C19 ZIN A   1      16.281  -7.257   7.561  0.00  0.00     0.142 A 
ATOM     21  O23 ZIN A   1      15.276  -6.396   7.298  0.00  0.00    -0.317 OA
ATOM     22  C22 ZIN A   1      14.129  -7.077   7.171  0.00  0.00     0.143 A 
ATOM     23  C21 ZIN A   1      14.381  -8.392   7.359  0.00  0.00     0.027 A 
ATOM     24  C20 ZIN A   1      15.757  -8.517   7.609  0.00  0.00     0.045 A 
ENDBRANCH  17  20
ENDBRANCH   7  12
BRANCH   5  25
ATOM     25  N10 ZIN A   1      21.151  -0.341  10.543  0.00  0.00    -0.383 N 
ATOM     26  H37 ZIN A   1      21.078   0.626  10.592  0.00  0.00     0.157 HD
ATOM     27  H38 ZIN A   1      21.884  -0.749  10.055  0.00  0.00     0.157 HD
ENDBRANCH   5  25
BRANCH   1  28
ATOM     28  O2  ZIN A   1      17.462   0.557  15.681  0.00  0.00    -0.353 OA
ATOM     29  C1  ZIN A   1      17.452  -0.325  16.806  0.00  0.00     0.210 C 
ENDBRANCH   1  28
BRANCH   2  30
ATOM     30  O5  ZIN A   1      19.311   2.216  14.510  0.00  0.00    -0.353 OA
ATOM     31  C6  ZIN A   1      18.832   3.343  13.775  0.00  0.00     0.210 C 
ENDBRANCH   2  30
TORSDOF 5
ENDMDL
