MODEL 1
REMARK VINA RESULT:      -6.4      0.000      0.000
REMARK  7 active torsions:
REMARK  status: ('A' for Active; 'I' for Inactive)
REMARK    1  A    between atoms: O2_2  and  C3_3 
REMARK    2  A    between atoms: C5_5  and  N6_6 
REMARK    3  A    between atoms: N6_6  and  C7_7 
REMARK    4  A    between atoms: C7_7  and  C10_9 
REMARK    5  A    between atoms: C10_9  and  C11_10 
REMARK    6  A    between atoms: C11_10  and  C12_11 
REMARK    7  A    between atoms: C12_11  and  N13_12 
ROOT
ATOM      1  C3  ZIN A   1      19.237   1.767   9.701  0.00  0.00     0.071 A 
ATOM      2  C4  ZIN A   1      19.498   0.500  10.226  0.00  0.00     0.068 A 
ATOM      3  C5  ZIN A   1      19.543  -0.606   9.406  0.00  0.00     0.060 A 
ATOM      4  C17 ZIN A   1      19.324  -0.459   8.019  0.00  0.00     0.093 A 
ATOM      5  N18 ZIN A   1      19.361  -1.515   7.202  0.00  0.00    -0.258 NA
ATOM      6  C19 ZIN A   1      19.158  -1.388   5.913  0.00  0.00     0.117 A 
ATOM      7  C20 ZIN A   1      18.893  -0.150   5.331  0.00  0.00     0.020 A 
ATOM      8  C21 ZIN A   1      18.840   0.971   6.109  0.00  0.00     0.015 A 
ATOM      9  C22 ZIN A   1      19.059   0.831   7.494  0.00  0.00    -0.002 A 
ATOM     10  C23 ZIN A   1      19.013   1.938   8.353  0.00  0.00     0.050 A 
ENDROOT
BRANCH   3  11
ATOM     11  N6  ZIN A   1      19.805  -1.865   9.944  0.00  0.00    -0.384 N 
ATOM     12  H28 ZIN A   1      20.447  -2.451   9.515  0.00  0.00     0.160 HD
BRANCH  11  13
ATOM     13  C7  ZIN A   1      19.111  -2.301  11.158  0.00  0.00     0.077 C 
ATOM     14  C9  ZIN A   1      19.877  -3.461  11.795  0.00  0.00     0.032 C 
BRANCH  13  15
ATOM     15  C10 ZIN A   1      17.696  -2.760  10.799  0.00  0.00     0.026 C 
BRANCH  15  16
ATOM     16  C11 ZIN A   1      17.683  -4.279  10.617  0.00  0.00     0.029 C 
BRANCH  16  17
ATOM     17  C12 ZIN A   1      16.953  -4.631   9.319  0.00  0.00     0.230 C 
BRANCH  17  18
ATOM     18  N13 ZIN A   1      17.482  -3.810   8.222  0.00  0.00    -0.079 N 
ATOM     19  H14 ZIN A   1      17.815  -4.410   7.482  0.00  0.00     0.274 HD
ATOM     20  H15 ZIN A   1      16.751  -3.211   7.866  0.00  0.00     0.274 HD
ATOM     21  H16 ZIN A   1      18.245  -3.243   8.564  0.00  0.00     0.274 HD
ENDBRANCH  17  18
ENDBRANCH  16  17
ENDBRANCH  15  16
ENDBRANCH  13  15
ENDBRANCH  11  13
ENDBRANCH   3  11
BRANCH   1  22
ATOM     22  O2  ZIN A   1      19.197   2.843  10.531  0.00  0.00    -0.356 OA
ATOM     23  C1  ZIN A   1      18.006   3.631  10.515  0.00  0.00     0.210 C 
ENDBRANCH   1  22
TORSDOF 7
ENDMDL
MODEL 2
REMARK VINA RESULT:      -6.3      2.444      4.576
REMARK  7 active torsions:
REMARK  status: ('A' for Active; 'I' for Inactive)
REMARK    1  A    between atoms: O2_2  and  C3_3 
REMARK    2  A    between atoms: C5_5  and  N6_6 
REMARK    3  A    between atoms: N6_6  and  C7_7 
REMARK    4  A    between atoms: C7_7  and  C10_9 
REMARK    5  A    between atoms: C10_9  and  C11_10 
REMARK    6  A    between atoms: C11_10  and  C12_11 
REMARK    7  A    between atoms: C12_11  and  N13_12 
ROOT
ATOM      1  C3  ZIN A   1      18.788   0.107   8.009  0.00  0.00     0.071 A 
ATOM      2  C4  ZIN A   1      18.297  -0.727   9.016  0.00  0.00     0.068 A 
ATOM      3  C5  ZIN A   1      17.853  -0.203  10.209  0.00  0.00     0.060 A 
ATOM      4  C17 ZIN A   1      17.895   1.193  10.420  0.00  0.00     0.093 A 
ATOM      5  N18 ZIN A   1      17.472   1.727  11.569  0.00  0.00    -0.258 NA
ATOM      6  C19 ZIN A   1      17.507   3.021  11.774  0.00  0.00     0.117 A 
ATOM      7  C20 ZIN A   1      17.986   3.904  10.808  0.00  0.00     0.020 A 
ATOM      8  C21 ZIN A   1      18.435   3.424   9.610  0.00  0.00     0.015 A 
ATOM      9  C22 ZIN A   1      18.395   2.032   9.394  0.00  0.00    -0.002 A 
ATOM     10  C23 ZIN A   1      18.845   1.470   8.190  0.00  0.00     0.050 A 
ENDROOT
BRANCH   3  11
ATOM     11  N6  ZIN A   1      17.366  -1.048  11.206  0.00  0.00    -0.384 N 
ATOM     12  H28 ZIN A   1      16.411  -1.111  11.363  0.00  0.00     0.160 HD
BRANCH  11  13
ATOM     13  C7  ZIN A   1      18.296  -1.840  12.013  0.00  0.00     0.077 C 
ATOM     14  C9  ZIN A   1      17.926  -3.321  11.912  0.00  0.00     0.032 C 
BRANCH  13  15
ATOM     15  C10 ZIN A   1      18.212  -1.392  13.474  0.00  0.00     0.026 C 
BRANCH  15  16
ATOM     16  C11 ZIN A   1      19.619  -1.102  14.000  0.00  0.00     0.029 C 
BRANCH  16  17
ATOM     17  C12 ZIN A   1      19.999   0.342  13.667  0.00  0.00     0.230 C 
BRANCH  17  18
ATOM     18  N13 ZIN A   1      21.153   0.347  12.757  0.00  0.00    -0.079 N 
ATOM     19  H14 ZIN A   1      20.889   0.775  11.882  0.00  0.00     0.274 HD
ATOM     20  H15 ZIN A   1      21.908   0.871  13.174  0.00  0.00     0.274 HD
ATOM     21  H16 ZIN A   1      21.453  -0.602  12.590  0.00  0.00     0.274 HD
ENDBRANCH  17  18
ENDBRANCH  16  17
ENDBRANCH  15  16
ENDBRANCH  13  15
ENDBRANCH  11  13
ENDBRANCH   3  11
BRANCH   1  22
ATOM     22  O2  ZIN A   1      19.220  -0.435   6.839  0.00  0.00    -0.356 OA
ATOM     23  C1  ZIN A   1      19.080   0.364   5.663  0.00  0.00     0.210 C 
ENDBRANCH   1  22
TORSDOF 7
ENDMDL
MODEL 3
REMARK VINA RESULT:      -6.3      1.421      1.525
REMARK  7 active torsions:
REMARK  status: ('A' for Active; 'I' for Inactive)
REMARK    1  A    between atoms: O2_2  and  C3_3 
REMARK    2  A    between atoms: C5_5  and  N6_6 
REMARK    3  A    between atoms: N6_6  and  C7_7 
REMARK    4  A    between atoms: C7_7  and  C10_9 
REMARK    5  A    between atoms: C10_9  and  C11_10 
REMARK    6  A    between atoms: C11_10  and  C12_11 
REMARK    7  A    between atoms: C12_11  and  N13_12 
ROOT
ATOM      1  C3  ZIN A   1      19.143   1.394   9.326  0.00  0.00     0.071 A 
ATOM      2  C4  ZIN A   1      19.338   0.112   9.844  0.00  0.00     0.068 A 
ATOM      3  C5  ZIN A   1      19.409  -0.981   9.010  0.00  0.00     0.060 A 
ATOM      4  C17 ZIN A   1      19.284  -0.806   7.614  0.00  0.00     0.093 A 
ATOM      5  N18 ZIN A   1      19.348  -1.850   6.782  0.00  0.00    -0.258 NA
ATOM      6  C19 ZIN A   1      19.232  -1.697   5.485  0.00  0.00     0.117 A 
ATOM      7  C20 ZIN A   1      19.037  -0.444   4.909  0.00  0.00     0.020 A 
ATOM      8  C21 ZIN A   1      18.961   0.666   5.703  0.00  0.00     0.015 A 
ATOM      9  C22 ZIN A   1      19.086   0.497   7.096  0.00  0.00    -0.002 A 
ATOM     10  C23 ZIN A   1      19.012   1.592   7.970  0.00  0.00     0.050 A 
ENDROOT
BRANCH   3  11
ATOM     11  N6  ZIN A   1      19.603  -2.256   9.541  0.00  0.00    -0.384 N 
ATOM     12  H28 ZIN A   1      20.490  -2.648   9.548  0.00  0.00     0.160 HD
BRANCH  11  13
ATOM     13  C7  ZIN A   1      18.469  -3.000  10.091  0.00  0.00     0.077 C 
ATOM     14  C9  ZIN A   1      18.750  -3.353  11.552  0.00  0.00     0.032 C 
BRANCH  13  15
ATOM     15  C10 ZIN A   1      18.264  -4.286   9.286  0.00  0.00     0.026 C 
BRANCH  15  16
ATOM     16  C11 ZIN A   1      19.609  -4.991   9.100  0.00  0.00     0.029 C 
BRANCH  16  17
ATOM     17  C12 ZIN A   1      19.796  -5.351   7.624  0.00  0.00     0.230 C 
BRANCH  17  18
ATOM     18  N13 ZIN A   1      20.925  -4.588   7.074  0.00  0.00    -0.079 N 
ATOM     19  H14 ZIN A   1      20.812  -3.611   7.299  0.00  0.00     0.274 HD
ATOM     20  H15 ZIN A   1      21.788  -4.928   7.473  0.00  0.00     0.274 HD
ATOM     21  H16 ZIN A   1      20.950  -4.701   6.071  0.00  0.00     0.274 HD
ENDBRANCH  17  18
ENDBRANCH  16  17
ENDBRANCH  15  16
ENDBRANCH  13  15
ENDBRANCH  11  13
ENDBRANCH   3  11
BRANCH   1  22
ATOM     22  O2  ZIN A   1      19.076   2.457  10.171  0.00  0.00    -0.356 OA
ATOM     23  C1  ZIN A   1      17.773   2.906  10.546  0.00  0.00     0.210 C 
ENDBRANCH   1  22
TORSDOF 7
ENDMDL
MODEL 4
REMARK VINA RESULT:      -6.2      1.992      3.696
REMARK  7 active torsions:
REMARK  status: ('A' for Active; 'I' for Inactive)
REMARK    1  A    between atoms: O2_2  and  C3_3 
REMARK    2  A    between atoms: C5_5  and  N6_6 
REMARK    3  A    between atoms: N6_6  and  C7_7 
REMARK    4  A    between atoms: C7_7  and  C10_9 
REMARK    5  A    between atoms: C10_9  and  C11_10 
REMARK    6  A    between atoms: C11_10  and  C12_11 
REMARK    7  A    between atoms: C12_11  and  N13_12 
ROOT
ATOM      1  C3  ZIN A   1      19.136  -0.212   7.695  0.00  0.00     0.071 A 
ATOM      2  C4  ZIN A   1      19.667  -1.034   8.691  0.00  0.00     0.068 A 
ATOM      3  C5  ZIN A   1      19.865  -0.556   9.967  0.00  0.00     0.060 A 
ATOM      4  C17 ZIN A   1      19.529   0.781  10.274  0.00  0.00     0.093 A 
ATOM      5  N18 ZIN A   1      19.713   1.271  11.503  0.00  0.00    -0.258 NA
ATOM      6  C19 ZIN A   1      19.404   2.510  11.797  0.00  0.00     0.117 A 
ATOM      7  C20 ZIN A   1      18.871   3.378  10.847  0.00  0.00     0.020 A 
ATOM      8  C21 ZIN A   1      18.658   2.942   9.570  0.00  0.00     0.015 A 
ATOM      9  C22 ZIN A   1      18.991   1.609   9.258  0.00  0.00    -0.002 A 
ATOM     10  C23 ZIN A   1      18.805   1.096   7.965  0.00  0.00     0.050 A 
ENDROOT
BRANCH   3  11
ATOM     11  N6  ZIN A   1      20.397  -1.388  10.951  0.00  0.00    -0.384 N 
ATOM     12  H28 ZIN A   1      21.336  -1.323  11.185  0.00  0.00     0.160 HD
BRANCH  11  13
ATOM     13  C7  ZIN A   1      19.538  -2.358  11.633  0.00  0.00     0.077 C 
ATOM     14  C9  ZIN A   1      19.361  -1.945  13.095  0.00  0.00     0.032 C 
BRANCH  13  15
ATOM     15  C10 ZIN A   1      20.182  -3.744  11.569  0.00  0.00     0.026 C 
BRANCH  15  16
ATOM     16  C11 ZIN A   1      19.155  -4.762  11.070  0.00  0.00     0.029 C 
BRANCH  16  17
ATOM     17  C12 ZIN A   1      19.037  -4.663   9.548  0.00  0.00     0.230 C 
BRANCH  17  18
ATOM     18  N13 ZIN A   1      20.358  -4.872   8.939  0.00  0.00    -0.079 N 
ATOM     19  H14 ZIN A   1      20.688  -4.003   8.547  0.00  0.00     0.274 HD
ATOM     20  H15 ZIN A   1      21.006  -5.191   9.644  0.00  0.00     0.274 HD
ATOM     21  H16 ZIN A   1      20.286  -5.565   8.209  0.00  0.00     0.274 HD
ENDBRANCH  17  18
ENDBRANCH  16  17
ENDBRANCH  15  16
ENDBRANCH  13  15
ENDBRANCH  11  13
ENDBRANCH   3  11
BRANCH   1  22
ATOM     22  O2  ZIN A   1      18.949  -0.708   6.443  0.00  0.00    -0.356 OA
ATOM     23  C1  ZIN A   1      19.147   0.193   5.352  0.00  0.00     0.210 C 
ENDBRANCH   1  22
TORSDOF 7
ENDMDL
MODEL 5
REMARK VINA RESULT:      -6.2      1.956      3.031
REMARK  7 active torsions:
REMARK  status: ('A' for Active; 'I' for Inactive)
REMARK    1  A    between atoms: O2_2  and  C3_3 
REMARK    2  A    between atoms: C5_5  and  N6_6 
REMARK    3  A    between atoms: N6_6  and  C7_7 
REMARK    4  A    between atoms: C7_7  and  C10_9 
REMARK    5  A    between atoms: C10_9  and  C11_10 
REMARK    6  A    between atoms: C11_10  and  C12_11 
REMARK    7  A    between atoms: C12_11  and  N13_12 
ROOT
ATOM      1  C3  ZIN A   1      18.401   2.654  10.101  0.00  0.00     0.071 A 
ATOM      2  C4  ZIN A   1      17.873   1.571  10.807  0.00  0.00     0.068 A 
ATOM      3  C5  ZIN A   1      17.726   0.342  10.204  0.00  0.00     0.060 A 
ATOM      4  C17 ZIN A   1      18.113   0.172   8.857  0.00  0.00     0.093 A 
ATOM      5  N18 ZIN A   1      17.980  -1.010   8.248  0.00  0.00    -0.258 NA
ATOM      6  C19 ZIN A   1      18.336  -1.177   6.997  0.00  0.00     0.117 A 
ATOM      7  C20 ZIN A   1      18.870  -0.135   6.241  0.00  0.00     0.020 A 
ATOM      8  C21 ZIN A   1      19.032   1.100   6.803  0.00  0.00     0.015 A 
ATOM      9  C22 ZIN A   1      18.648   1.275   8.147  0.00  0.00    -0.002 A 
ATOM     10  C23 ZIN A   1      18.781   2.517   8.785  0.00  0.00     0.050 A 
ENDROOT
BRANCH   3  11
ATOM     11  N6  ZIN A   1      17.196  -0.730  10.922  0.00  0.00    -0.384 N 
ATOM     12  H28 ZIN A   1      16.241  -0.898  10.906  0.00  0.00     0.160 HD
BRANCH  11  13
ATOM     13  C7  ZIN A   1      18.082  -1.602  11.695  0.00  0.00     0.077 C 
ATOM     14  C9  ZIN A   1      17.591  -3.047  11.595  0.00  0.00     0.032 C 
BRANCH  13  15
ATOM     15  C10 ZIN A   1      18.077  -1.163  13.161  0.00  0.00     0.026 C 
BRANCH  15  16
ATOM     16  C11 ZIN A   1      19.515  -1.104  13.681  0.00  0.00     0.029 C 
BRANCH  16  17
ATOM     17  C12 ZIN A   1      20.035   0.331  13.581  0.00  0.00     0.230 C 
BRANCH  17  18
ATOM     18  N13 ZIN A   1      21.162   0.379  12.640  0.00  0.00    -0.079 N 
ATOM     19  H14 ZIN A   1      20.815   0.554  11.709  0.00  0.00     0.274 HD
ATOM     20  H15 ZIN A   1      21.793   1.119  12.908  0.00  0.00     0.274 HD
ATOM     21  H16 ZIN A   1      21.651  -0.504  12.656  0.00  0.00     0.274 HD
ENDBRANCH  17  18
ENDBRANCH  16  17
ENDBRANCH  15  16
ENDBRANCH  13  15
ENDBRANCH  11  13
ENDBRANCH   3  11
BRANCH   1  22
ATOM     22  O2  ZIN A   1      18.536   3.857  10.719  0.00  0.00    -0.356 OA
ATOM     23  C1  ZIN A   1      17.490   4.810  10.519  0.00  0.00     0.210 C 
ENDBRANCH   1  22
TORSDOF 7
ENDMDL
MODEL 6
REMARK VINA RESULT:      -6.1      2.399      3.895
REMARK  7 active torsions:
REMARK  status: ('A' for Active; 'I' for Inactive)
REMARK    1  A    between atoms: O2_2  and  C3_3 
REMARK    2  A    between atoms: C5_5  and  N6_6 
REMARK    3  A    between atoms: N6_6  and  C7_7 
REMARK    4  A    between atoms: C7_7  and  C10_9 
REMARK    5  A    between atoms: C10_9  and  C11_10 
REMARK    6  A    between atoms: C11_10  and  C12_11 
REMARK    7  A    between atoms: C12_11  and  N13_12 
ROOT
ATOM      1  C3  ZIN A   1      18.869   0.074   6.257  0.00  0.00     0.071 A 
ATOM      2  C4  ZIN A   1      19.142  -1.113   6.940  0.00  0.00     0.068 A 
ATOM      3  C5  ZIN A   1      19.362  -1.108   8.299  0.00  0.00     0.060 A 
ATOM      4  C17 ZIN A   1      19.310   0.110   9.013  0.00  0.00     0.093 A 
ATOM      5  N18 ZIN A   1      19.521   0.143  10.331  0.00  0.00    -0.258 NA
ATOM      6  C19 ZIN A   1      19.476   1.269  11.002  0.00  0.00     0.117 A 
ATOM      7  C20 ZIN A   1      19.208   2.484  10.376  0.00  0.00     0.020 A 
ATOM      8  C21 ZIN A   1      18.984   2.522   9.029  0.00  0.00     0.015 A 
ATOM      9  C22 ZIN A   1      19.033   1.310   8.312  0.00  0.00    -0.002 A 
ATOM     10  C23 ZIN A   1      18.819   1.276   6.926  0.00  0.00     0.050 A 
ENDROOT
BRANCH   3  11
ATOM     11  N6  ZIN A   1      19.634  -2.300   8.968  0.00  0.00    -0.384 N 
ATOM     12  H28 ZIN A   1      20.552  -2.549   9.161  0.00  0.00     0.160 HD
BRANCH  11  13
ATOM     13  C7  ZIN A   1      18.536  -3.176   9.381  0.00  0.00     0.077 C 
ATOM     14  C9  ZIN A   1      18.783  -3.667  10.808  0.00  0.00     0.032 C 
BRANCH  13  15
ATOM     15  C10 ZIN A   1      18.456  -4.376   8.435  0.00  0.00     0.026 C 
BRANCH  15  16
ATOM     16  C11 ZIN A   1      19.720  -5.226   8.581  0.00  0.00     0.029 C 
BRANCH  16  17
ATOM     17  C12 ZIN A   1      20.423  -5.330   7.226  0.00  0.00     0.230 C 
BRANCH  17  18
ATOM     18  N13 ZIN A   1      21.877  -5.395   7.433  0.00  0.00    -0.079 N 
ATOM     19  H14 ZIN A   1      22.184  -6.353   7.358  0.00  0.00     0.274 HD
ATOM     20  H15 ZIN A   1      22.342  -4.836   6.733  0.00  0.00     0.274 HD
ATOM     21  H16 ZIN A   1      22.102  -5.040   8.351  0.00  0.00     0.274 HD
ENDBRANCH  17  18
ENDBRANCH  16  17
ENDBRANCH  15  16
ENDBRANCH  13  15
ENDBRANCH  11  13
ENDBRANCH   3  11
BRANCH   1  22
ATOM     22  O2  ZIN A   1      18.656   0.043   4.915  0.00  0.00    -0.356 OA
ATOM     23  C1  ZIN A   1      17.987  -1.107   4.391  0.00  0.00     0.210 C 
ENDBRANCH   1  22
TORSDOF 7
ENDMDL
MODEL 7
REMARK VINA RESULT:      -6.1      3.262      6.713
REMARK  7 active torsions:
REMARK  status: ('A' for Active; 'I' for Inactive)
REMARK    1  A    between atoms: O2_2  and  C3_3 
REMARK    2  A    between atoms: C5_5  and  N6_6 
REMARK    3  A    between atoms: N6_6  and  C7_7 
REMARK    4  A    between atoms: C7_7  and  C10_9 
REMARK    5  A    between atoms: C10_9  and  C11_10 
REMARK    6  A    between atoms: C11_10  and  C12_11 
REMARK    7  A    between atoms: C12_11  and  N13_12 
ROOT
ATOM      1  C3  ZIN A   1      19.170  -2.521  11.058  0.00  0.00     0.071 A 
ATOM      2  C4  ZIN A   1      19.471  -1.322  10.409  0.00  0.00     0.068 A 
ATOM      3  C5  ZIN A   1      19.588  -0.148  11.119  0.00  0.00     0.060 A 
ATOM      4  C17 ZIN A   1      19.401  -0.154  12.519  0.00  0.00     0.093 A 
ATOM      5  N18 ZIN A   1      19.508   0.971  13.231  0.00  0.00    -0.258 NA
ATOM      6  C19 ZIN A   1      19.335   0.975  14.531  0.00  0.00     0.117 A 
ATOM      7  C20 ZIN A   1      19.034  -0.190  15.234  0.00  0.00     0.020 A 
ATOM      8  C21 ZIN A   1      18.910  -1.375  14.567  0.00  0.00     0.015 A 
ATOM      9  C22 ZIN A   1      19.096  -1.375  13.170  0.00  0.00    -0.002 A 
ATOM     10  C23 ZIN A   1      18.977  -2.555  12.421  0.00  0.00     0.050 A 
ENDROOT
BRANCH   3  11
ATOM     11  N6  ZIN A   1      19.888   1.042  10.458  0.00  0.00    -0.384 N 
ATOM     12  H28 ZIN A   1      20.788   1.402  10.492  0.00  0.00     0.160 HD
BRANCH  11  13
ATOM     13  C7  ZIN A   1      18.846   1.748   9.711  0.00  0.00     0.077 C 
ATOM     14  C9  ZIN A   1      19.210   1.773   8.226  0.00  0.00     0.032 C 
BRANCH  13  15
ATOM     15  C10 ZIN A   1      18.728   3.183  10.231  0.00  0.00     0.026 C 
BRANCH  15  16
ATOM     16  C11 ZIN A   1      17.450   3.321  11.062  0.00  0.00     0.029 C 
BRANCH  16  17
ATOM     17  C12 ZIN A   1      16.948   4.764  10.988  0.00  0.00     0.230 C 
BRANCH  17  18
ATOM     18  N13 ZIN A   1      17.436   5.389   9.751  0.00  0.00    -0.079 N 
ATOM     19  H14 ZIN A   1      17.315   4.749   8.980  0.00  0.00     0.274 HD
ATOM     20  H15 ZIN A   1      16.913   6.234   9.572  0.00  0.00     0.274 HD
ATOM     21  H16 ZIN A   1      18.415   5.614   9.852  0.00  0.00     0.274 HD
ENDBRANCH  17  18
ENDBRANCH  16  17
ENDBRANCH  15  16
ENDBRANCH  13  15
ENDBRANCH  11  13
ENDBRANCH   3  11
BRANCH   1  22
ATOM     22  O2  ZIN A   1      19.060  -3.667  10.335  0.00  0.00    -0.356 OA
ATOM     23  C1  ZIN A   1      18.131  -3.662   9.249  0.00  0.00     0.210 C 
ENDBRANCH   1  22
TORSDOF 7
ENDMDL
MODEL 8
REMARK VINA RESULT:      -6.0      2.371      4.389
REMARK  7 active torsions:
REMARK  status: ('A' for Active; 'I' for Inactive)
REMARK    1  A    between atoms: O2_2  and  C3_3 
REMARK    2  A    between atoms: C5_5  and  N6_6 
REMARK    3  A    between atoms: N6_6  and  C7_7 
REMARK    4  A    between atoms: C7_7  and  C10_9 
REMARK    5  A    between atoms: C10_9  and  C11_10 
REMARK    6  A    between atoms: C11_10  and  C12_11 
REMARK    7  A    between atoms: C12_11  and  N13_12 
ROOT
ATOM      1  C3  ZIN A   1      19.217   0.683   8.846  0.00  0.00     0.071 A 
ATOM      2  C4  ZIN A   1      19.659   0.123  10.046  0.00  0.00     0.068 A 
ATOM      3  C5  ZIN A   1      19.582   0.832  11.224  0.00  0.00     0.060 A 
ATOM      4  C17 ZIN A   1      19.051   2.141  11.220  0.00  0.00     0.093 A 
ATOM      5  N18 ZIN A   1      18.966   2.850  12.349  0.00  0.00    -0.258 NA
ATOM      6  C19 ZIN A   1      18.474   4.066  12.355  0.00  0.00     0.117 A 
ATOM      7  C20 ZIN A   1      18.017   4.678  11.190  0.00  0.00     0.020 A 
ATOM      8  C21 ZIN A   1      18.076   4.008  10.001  0.00  0.00     0.015 A 
ATOM      9  C22 ZIN A   1      18.604   2.702   9.998  0.00  0.00    -0.002 A 
ATOM     10  C23 ZIN A   1      18.700   1.958   8.812  0.00  0.00     0.050 A 
ENDROOT
BRANCH   3  11
ATOM     11  N6  ZIN A   1      20.028   0.261  12.415  0.00  0.00    -0.384 N 
ATOM     12  H28 ZIN A   1      20.959   0.347  12.675  0.00  0.00     0.160 HD
BRANCH  11  13
ATOM     13  C7  ZIN A   1      19.092  -0.468  13.273  0.00  0.00     0.077 C 
ATOM     14  C9  ZIN A   1      19.200   0.054  14.706  0.00  0.00     0.032 C 
BRANCH  13  15
ATOM     15  C10 ZIN A   1      19.432  -1.960  13.247  0.00  0.00     0.026 C 
BRANCH  15  16
ATOM     16  C11 ZIN A   1      18.508  -2.677  12.262  0.00  0.00     0.029 C 
BRANCH  16  17
ATOM     17  C12 ZIN A   1      19.346  -3.507  11.287  0.00  0.00     0.230 C 
BRANCH  17  18
ATOM     18  N13 ZIN A   1      20.767  -3.175  11.459  0.00  0.00    -0.079 N 
ATOM     19  H14 ZIN A   1      21.090  -2.654  10.658  0.00  0.00     0.274 HD
ATOM     20  H15 ZIN A   1      20.884  -2.618  12.293  0.00  0.00     0.274 HD
ATOM     21  H16 ZIN A   1      21.304  -4.026  11.545  0.00  0.00     0.274 HD
ENDBRANCH  17  18
ENDBRANCH  16  17
ENDBRANCH  15  16
ENDBRANCH  13  15
ENDBRANCH  11  13
ENDBRANCH   3  11
BRANCH   1  22
ATOM     22  O2  ZIN A   1      19.304  -0.037   7.696  0.00  0.00    -0.356 OA
ATOM     23  C1  ZIN A   1      18.948   0.630   6.484  0.00  0.00     0.210 C 
ENDBRANCH   1  22
TORSDOF 7
ENDMDL
MODEL 9
REMARK VINA RESULT:      -5.9      3.564      5.363
REMARK  7 active torsions:
REMARK  status: ('A' for Active; 'I' for Inactive)
REMARK    1  A    between atoms: O2_2  and  C3_3 
REMARK    2  A    between atoms: C5_5  and  N6_6 
REMARK    3  A    between atoms: N6_6  and  C7_7 
REMARK    4  A    between atoms: C7_7  and  C10_9 
REMARK    5  A    between atoms: C10_9  and  C11_10 
REMARK    6  A    between atoms: C11_10  and  C12_11 
REMARK    7  A    between atoms: C12_11  and  N13_12 
ROOT
ATOM      1  C3  ZIN A   1      18.776   0.782   8.953  0.00  0.00     0.071 A 
ATOM      2  C4  ZIN A   1      18.363   0.120  10.111  0.00  0.00     0.068 A 
ATOM      3  C5  ZIN A   1      17.859   0.824  11.182  0.00  0.00     0.060 A 
ATOM      4  C17 ZIN A   1      17.758   2.231  11.110  0.00  0.00     0.093 A 
ATOM      5  N18 ZIN A   1      17.273   2.938  12.135  0.00  0.00    -0.258 NA
ATOM      6  C19 ZIN A   1      17.176   4.244  12.077  0.00  0.00     0.117 A 
ATOM      7  C20 ZIN A   1      17.571   4.960  10.949  0.00  0.00     0.020 A 
ATOM      8  C21 ZIN A   1      18.076   4.298   9.866  0.00  0.00     0.015 A 
ATOM      9  C22 ZIN A   1      18.179   2.895   9.931  0.00  0.00    -0.002 A 
ATOM     10  C23 ZIN A   1      18.694   2.153   8.858  0.00  0.00     0.050 A 
ENDROOT
BRANCH   3  11
ATOM     11  N6  ZIN A   1      17.451   0.150  12.332  0.00  0.00    -0.384 N 
ATOM     12  H28 ZIN A   1      16.512  -0.050  12.469  0.00  0.00     0.160 HD
BRANCH  11  13
ATOM     13  C7  ZIN A   1      18.441  -0.256  13.332  0.00  0.00     0.077 C 
ATOM     14  C9  ZIN A   1      18.620  -1.774  13.285  0.00  0.00     0.032 C 
BRANCH  13  15
ATOM     15  C10 ZIN A   1      17.958   0.157  14.725  0.00  0.00     0.026 C 
BRANCH  15  16
ATOM     16  C11 ZIN A   1      18.331  -0.928  15.736  0.00  0.00     0.029 C 
BRANCH  16  17
ATOM     17  C12 ZIN A   1      17.226  -1.045  16.789  0.00  0.00     0.230 C 
BRANCH  17  18
ATOM     18  N13 ZIN A   1      16.632   0.279  17.023  0.00  0.00    -0.079 N 
ATOM     19  H14 ZIN A   1      16.423   0.715  16.137  0.00  0.00     0.274 HD
ATOM     20  H15 ZIN A   1      15.781   0.176  17.557  0.00  0.00     0.274 HD
ATOM     21  H16 ZIN A   1      17.284   0.854  17.536  0.00  0.00     0.274 HD
ENDBRANCH  17  18
ENDBRANCH  16  17
ENDBRANCH  15  16
ENDBRANCH  13  15
ENDBRANCH  11  13
ENDBRANCH   3  11
BRANCH   1  22
ATOM     22  O2  ZIN A   1      19.270   0.064   7.909  0.00  0.00    -0.356 OA
ATOM     23  C1  ZIN A   1      18.924   0.507   6.595  0.00  0.00     0.210 C 
ENDBRANCH   1  22
TORSDOF 7
ENDMDL
