MODEL 1
REMARK VINA RESULT:      -7.0      0.000      0.000
REMARK  7 active torsions:
REMARK  status: ('A' for Active; 'I' for Inactive)
REMARK    1  A    between atoms: C2_2  and  N4_4 
REMARK    2  A    between atoms: N4_4  and  C7_7 
REMARK    3  A    between atoms: C7_7  and  C8_8 
REMARK    4  A    between atoms: C8_8  and  O10_9 
REMARK    5  A    between atoms: C8_8  and  C11_10 
REMARK    6  A    between atoms: C11_10  and  O12_11 
REMARK    7  A    between atoms: O12_11  and  C13_12 
ROOT
ATOM      1  C11 ZIN A   1      19.469   0.218  10.368  0.00  0.00     0.209 C 
ENDROOT
BRANCH   1   2
ATOM      2  C8  ZIN A   1      20.381  -0.352  11.456  0.00  0.00     0.168 C 
BRANCH   2   3
ATOM      3  C7  ZIN A   1      19.810  -1.682  11.954  0.00  0.00     0.266 C 
BRANCH   3   4
ATOM      4  N4  ZIN A   1      20.460  -2.791  11.243  0.00  0.00    -0.069 N 
ATOM      5  H5  ZIN A   1      21.399  -2.910  11.594  0.00  0.00     0.277 HD
ATOM      6  H6  ZIN A   1      20.494  -2.584  10.256  0.00  0.00     0.277 HD
BRANCH   4   7
ATOM      7  C2  ZIN A   1      19.696  -4.026  11.459  0.00  0.00     0.178 C 
ATOM      8  C1  ZIN A   1      18.229  -3.678  11.723  0.00  0.00     0.039 C 
ATOM      9  C3  ZIN A   1      19.795  -4.912  10.215  0.00  0.00     0.039 C 
ENDBRANCH   4   7
ENDBRANCH   3   4
ENDBRANCH   2   3
BRANCH   2  10
ATOM     10  O10 ZIN A   1      21.687  -0.567  10.917  0.00  0.00    -0.392 OA
ATOM     11  H32 ZIN A   1      22.313   0.147  11.106  0.00  0.00     0.210 HD
ENDBRANCH   2  10
ENDBRANCH   1   2
BRANCH   1  12
ATOM     12  O12 ZIN A   1      19.211  -0.788   9.387  0.00  0.00    -0.348 OA
BRANCH  12  13
ATOM     13  C13 ZIN A   1      19.136  -0.383   8.093  0.00  0.00     0.080 A 
ATOM     14  C22 ZIN A   1      19.063   0.948   7.791  0.00  0.00     0.037 A 
ATOM     15  C21 ZIN A   1      18.992   1.379   6.470  0.00  0.00     0.004 A 
ATOM     16  C20 ZIN A   1      18.983   0.488   5.439  0.00  0.00     0.012 A 
ATOM     17  C19 ZIN A   1      19.050  -0.890   5.708  0.00  0.00    -0.023 A 
ATOM     18  C14 ZIN A   1      19.129  -1.333   7.051  0.00  0.00     0.007 A 
ATOM     19  C18 ZIN A   1      19.042  -1.836   4.669  0.00  0.00     0.012 A 
ATOM     20  C15 ZIN A   1      19.196  -2.710   7.319  0.00  0.00     0.015 A 
ATOM     21  C16 ZIN A   1      19.186  -3.598   6.288  0.00  0.00     0.001 A 
ATOM     22  C17 ZIN A   1      19.110  -3.163   4.966  0.00  0.00     0.001 A 
ENDBRANCH  12  13
ENDBRANCH   1  12
TORSDOF 7
ENDMDL
MODEL 2
REMARK VINA RESULT:      -6.9      4.860      9.053
REMARK  7 active torsions:
REMARK  status: ('A' for Active; 'I' for Inactive)
REMARK    1  A    between atoms: C2_2  and  N4_4 
REMARK    2  A    between atoms: N4_4  and  C7_7 
REMARK    3  A    between atoms: C7_7  and  C8_8 
REMARK    4  A    between atoms: C8_8  and  O10_9 
REMARK    5  A    between atoms: C8_8  and  C11_10 
REMARK    6  A    between atoms: C11_10  and  O12_11 
REMARK    7  A    between atoms: O12_11  and  C13_12 
ROOT
ATOM      1  C11 ZIN A   1      19.574  -0.287  12.807  0.00  0.00     0.209 C 
ENDROOT
BRANCH   1   2
ATOM      2  C8  ZIN A   1      20.410   0.286  11.661  0.00  0.00     0.168 C 
BRANCH   2   3
ATOM      3  C7  ZIN A   1      19.729   1.542  11.111  0.00  0.00     0.266 C 
BRANCH   3   4
ATOM      4  N4  ZIN A   1      20.325   2.733  11.731  0.00  0.00    -0.069 N 
ATOM      5  H5  ZIN A   1      21.142   3.011  11.207  0.00  0.00     0.277 HD
ATOM      6  H6  ZIN A   1      20.592   2.521  12.680  0.00  0.00     0.277 HD
BRANCH   4   7
ATOM      7  C2  ZIN A   1      19.346   3.828  11.729  0.00  0.00     0.178 C 
ATOM      8  C1  ZIN A   1      17.933   3.247  11.809  0.00  0.00     0.039 C 
ATOM      9  C3  ZIN A   1      19.594   4.737  12.935  0.00  0.00     0.039 C 
ENDBRANCH   4   7
ENDBRANCH   3   4
ENDBRANCH   2   3
BRANCH   2  10
ATOM     10  O10 ZIN A   1      21.712   0.624  12.144  0.00  0.00    -0.392 OA
ATOM     11  H32 ZIN A   1      21.714   1.011  13.031  0.00  0.00     0.210 HD
ENDBRANCH   2  10
ENDBRANCH   1   2
BRANCH   1  12
ATOM     12  O12 ZIN A   1      19.363   0.724  13.794  0.00  0.00    -0.348 OA
BRANCH  12  13
ATOM     13  C13 ZIN A   1      18.926   0.315  15.013  0.00  0.00     0.080 A 
ATOM     14  C22 ZIN A   1      18.473  -0.963  15.188  0.00  0.00     0.037 A 
ATOM     15  C21 ZIN A   1      18.028  -1.400  16.432  0.00  0.00     0.004 A 
ATOM     16  C20 ZIN A   1      18.021  -0.566  17.509  0.00  0.00     0.012 A 
ATOM     17  C19 ZIN A   1      18.473   0.757  17.369  0.00  0.00    -0.023 A 
ATOM     18  C14 ZIN A   1      18.933   1.205  16.105  0.00  0.00     0.007 A 
ATOM     19  C18 ZIN A   1      18.479   1.645  18.458  0.00  0.00     0.012 A 
ATOM     20  C15 ZIN A   1      19.384   2.528  15.966  0.00  0.00     0.015 A 
ATOM     21  C16 ZIN A   1      19.376   3.360  17.043  0.00  0.00     0.001 A 
ATOM     22  C17 ZIN A   1      18.924   2.920  18.286  0.00  0.00     0.001 A 
ENDBRANCH  12  13
ENDBRANCH   1  12
TORSDOF 7
ENDMDL
MODEL 3
REMARK VINA RESULT:      -6.7      1.954      4.073
REMARK  7 active torsions:
REMARK  status: ('A' for Active; 'I' for Inactive)
REMARK    1  A    between atoms: C2_2  and  N4_4 
REMARK    2  A    between atoms: N4_4  and  C7_7 
REMARK    3  A    between atoms: C7_7  and  C8_8 
REMARK    4  A    between atoms: C8_8  and  O10_9 
REMARK    5  A    between atoms: C8_8  and  C11_10 
REMARK    6  A    between atoms: C11_10  and  O12_11 
REMARK    7  A    between atoms: O12_11  and  C13_12 
ROOT
ATOM      1  C11 ZIN A   1      19.483  -1.388  10.923  0.00  0.00     0.209 C 
ENDROOT
BRANCH   1   2
ATOM      2  C8  ZIN A   1      20.492  -0.237  10.911  0.00  0.00     0.168 C 
BRANCH   2   3
ATOM      3  C7  ZIN A   1      20.274   0.643  12.144  0.00  0.00     0.266 C 
BRANCH   3   4
ATOM      4  N4  ZIN A   1      20.567   2.043  11.803  0.00  0.00    -0.069 N 
ATOM      5  H5  ZIN A   1      21.040   2.080  10.912  0.00  0.00     0.277 HD
ATOM      6  H6  ZIN A   1      21.158   2.445  12.514  0.00  0.00     0.277 HD
BRANCH   4   7
ATOM      7  C2  ZIN A   1      19.311   2.799  11.723  0.00  0.00     0.178 C 
ATOM      8  C1  ZIN A   1      19.496   4.166  12.386  0.00  0.00     0.039 C 
ATOM      9  C3  ZIN A   1      18.924   2.992  10.255  0.00  0.00     0.039 C 
ENDBRANCH   4   7
ENDBRANCH   3   4
ENDBRANCH   2   3
BRANCH   2  10
ATOM     10  O10 ZIN A   1      21.819  -0.767  10.932  0.00  0.00    -0.392 OA
ATOM     11  H32 ZIN A   1      21.925  -1.541  11.503  0.00  0.00     0.210 HD
ENDBRANCH   2  10
ENDBRANCH   1   2
BRANCH   1  12
ATOM     12  O12 ZIN A   1      18.543  -1.208   9.862  0.00  0.00    -0.348 OA
BRANCH  12  13
ATOM     13  C13 ZIN A   1      18.809  -1.837   8.688  0.00  0.00     0.080 A 
ATOM     14  C22 ZIN A   1      18.951  -3.197   8.653  0.00  0.00     0.037 A 
ATOM     15  C21 ZIN A   1      19.218  -3.857   7.457  0.00  0.00     0.004 A 
ATOM     16  C20 ZIN A   1      19.355  -3.169   6.290  0.00  0.00     0.012 A 
ATOM     17  C19 ZIN A   1      19.222  -1.770   6.285  0.00  0.00    -0.023 A 
ATOM     18  C14 ZIN A   1      18.945  -1.093   7.499  0.00  0.00     0.007 A 
ATOM     19  C18 ZIN A   1      19.359  -1.029   5.099  0.00  0.00     0.012 A 
ATOM     20  C15 ZIN A   1      18.813   0.305   7.493  0.00  0.00     0.015 A 
ATOM     21  C16 ZIN A   1      18.951   0.990   6.326  0.00  0.00     0.001 A 
ATOM     22  C17 ZIN A   1      19.223   0.326   5.132  0.00  0.00     0.001 A 
ENDBRANCH  12  13
ENDBRANCH   1  12
TORSDOF 7
ENDMDL
MODEL 4
REMARK VINA RESULT:      -6.6      4.501      8.726
REMARK  7 active torsions:
REMARK  status: ('A' for Active; 'I' for Inactive)
REMARK    1  A    between atoms: C2_2  and  N4_4 
REMARK    2  A    between atoms: N4_4  and  C7_7 
REMARK    3  A    between atoms: C7_7  and  C8_8 
REMARK    4  A    between atoms: C8_8  and  O10_9 
REMARK    5  A    between atoms: C8_8  and  C11_10 
REMARK    6  A    between atoms: C11_10  and  O12_11 
REMARK    7  A    between atoms: O12_11  and  C13_12 
ROOT
ATOM      1  C11 ZIN A   1      19.437  -0.269  12.700  0.00  0.00     0.209 C 
ENDROOT
BRANCH   1   2
ATOM      2  C8  ZIN A   1      20.411   0.258  11.643  0.00  0.00     0.168 C 
BRANCH   2   3
ATOM      3  C7  ZIN A   1      19.832   1.519  11.000  0.00  0.00     0.266 C 
BRANCH   3   4
ATOM      4  N4  ZIN A   1      18.367   1.414  10.949  0.00  0.00    -0.069 N 
ATOM      5  H5  ZIN A   1      17.957   2.176  11.469  0.00  0.00     0.277 HD
ATOM      6  H6  ZIN A   1      18.079   0.537  11.355  0.00  0.00     0.277 HD
BRANCH   4   7
ATOM      7  C2  ZIN A   1      17.919   1.478   9.552  0.00  0.00     0.178 C 
ATOM      8  C1  ZIN A   1      19.059   2.004   8.676  0.00  0.00     0.039 C 
ATOM      9  C3  ZIN A   1      17.517   0.079   9.080  0.00  0.00     0.039 C 
ENDBRANCH   4   7
ENDBRANCH   3   4
ENDBRANCH   2   3
BRANCH   2  10
ATOM     10  O10 ZIN A   1      21.661   0.570  12.263  0.00  0.00    -0.392 OA
ATOM     11  H32 ZIN A   1      21.828   1.518  12.357  0.00  0.00     0.210 HD
ENDBRANCH   2  10
ENDBRANCH   1   2
BRANCH   1  12
ATOM     12  O12 ZIN A   1      19.255   0.721  13.714  0.00  0.00    -0.348 OA
BRANCH  12  13
ATOM     13  C13 ZIN A   1      19.173   0.281  14.997  0.00  0.00     0.080 A 
ATOM     14  C22 ZIN A   1      19.113  -1.059  15.263  0.00  0.00     0.037 A 
ATOM     15  C21 ZIN A   1      19.035  -1.525  16.572  0.00  0.00     0.004 A 
ATOM     16  C20 ZIN A   1      19.007  -0.662  17.625  0.00  0.00     0.012 A 
ATOM     17  C19 ZIN A   1      19.061   0.723  17.393  0.00  0.00    -0.023 A 
ATOM     18  C14 ZIN A   1      19.145   1.203  16.062  0.00  0.00     0.007 A 
ATOM     19  C18 ZIN A   1      19.032   1.642  18.456  0.00  0.00     0.012 A 
ATOM     20  C15 ZIN A   1      19.199   2.587  15.832  0.00  0.00     0.015 A 
ATOM     21  C16 ZIN A   1      19.170   3.448  16.886  0.00  0.00     0.001 A 
ATOM     22  C17 ZIN A   1      19.087   2.977  18.194  0.00  0.00     0.001 A 
ENDBRANCH  12  13
ENDBRANCH   1  12
TORSDOF 7
ENDMDL
MODEL 5
REMARK VINA RESULT:      -6.5      4.387      8.181
REMARK  7 active torsions:
REMARK  status: ('A' for Active; 'I' for Inactive)
REMARK    1  A    between atoms: C2_2  and  N4_4 
REMARK    2  A    between atoms: N4_4  and  C7_7 
REMARK    3  A    between atoms: C7_7  and  C8_8 
REMARK    4  A    between atoms: C8_8  and  O10_9 
REMARK    5  A    between atoms: C8_8  and  C11_10 
REMARK    6  A    between atoms: C11_10  and  O12_11 
REMARK    7  A    between atoms: O12_11  and  C13_12 
ROOT
ATOM      1  C11 ZIN A   1      19.558   1.659  12.420  0.00  0.00     0.209 C 
ENDROOT
BRANCH   1   2
ATOM      2  C8  ZIN A   1      20.352   0.366  12.222  0.00  0.00     0.168 C 
BRANCH   2   3
ATOM      3  C7  ZIN A   1      19.940  -0.287  10.901  0.00  0.00     0.266 C 
BRANCH   3   4
ATOM      4  N4  ZIN A   1      18.743   0.383  10.376  0.00  0.00    -0.069 N 
ATOM      5  H5  ZIN A   1      18.695   1.322  10.744  0.00  0.00     0.277 HD
ATOM      6  H6  ZIN A   1      17.921  -0.130  10.655  0.00  0.00     0.277 HD
BRANCH   4   7
ATOM      7  C2  ZIN A   1      18.814   0.436   8.910  0.00  0.00     0.178 C 
ATOM      8  C1  ZIN A   1      17.462   0.033   8.319  0.00  0.00     0.039 C 
ATOM      9  C3  ZIN A   1      19.163   1.858   8.466  0.00  0.00     0.039 C 
ENDBRANCH   4   7
ENDBRANCH   3   4
ENDBRANCH   2   3
BRANCH   2  10
ATOM     10  O10 ZIN A   1      21.749   0.667  12.190  0.00  0.00    -0.392 OA
ATOM     11  H32 ZIN A   1      21.985   1.491  12.638  0.00  0.00     0.210 HD
ENDBRANCH   2  10
ENDBRANCH   1   2
BRANCH   1  12
ATOM     12  O12 ZIN A   1      18.549   1.450  13.410  0.00  0.00    -0.348 OA
BRANCH  12  13
ATOM     13  C13 ZIN A   1      18.775   1.977  14.642  0.00  0.00     0.080 A 
ATOM     14  C22 ZIN A   1      18.876   3.331  14.803  0.00  0.00     0.037 A 
ATOM     15  C21 ZIN A   1      19.101   3.886  16.059  0.00  0.00     0.004 A 
ATOM     16  C20 ZIN A   1      19.238   3.099  17.162  0.00  0.00     0.012 A 
ATOM     17  C19 ZIN A   1      19.148   1.702  17.037  0.00  0.00    -0.023 A 
ATOM     18  C14 ZIN A   1      18.913   1.132  15.761  0.00  0.00     0.007 A 
ATOM     19  C18 ZIN A   1      19.285   0.860  18.153  0.00  0.00     0.012 A 
ATOM     20  C15 ZIN A   1      18.822  -0.264  15.637  0.00  0.00     0.015 A 
ATOM     21  C16 ZIN A   1      18.960  -1.049  16.740  0.00  0.00     0.001 A 
ATOM     22  C17 ZIN A   1      19.191  -0.489  17.995  0.00  0.00     0.001 A 
ENDBRANCH  12  13
ENDBRANCH   1  12
TORSDOF 7
ENDMDL
MODEL 6
REMARK VINA RESULT:      -6.4      3.054      4.269
REMARK  7 active torsions:
REMARK  status: ('A' for Active; 'I' for Inactive)
REMARK    1  A    between atoms: C2_2  and  N4_4 
REMARK    2  A    between atoms: N4_4  and  C7_7 
REMARK    3  A    between atoms: C7_7  and  C8_8 
REMARK    4  A    between atoms: C8_8  and  O10_9 
REMARK    5  A    between atoms: C8_8  and  C11_10 
REMARK    6  A    between atoms: C11_10  and  O12_11 
REMARK    7  A    between atoms: O12_11  and  C13_12 
ROOT
ATOM      1  C11 ZIN A   1      16.952  -0.153  12.434  0.00  0.00     0.209 C 
ENDROOT
BRANCH   1   2
ATOM      2  C8  ZIN A   1      18.039  -1.221  12.297  0.00  0.00     0.168 C 
BRANCH   2   3
ATOM      3  C7  ZIN A   1      18.668  -1.486  13.666  0.00  0.00     0.266 C 
BRANCH   3   4
ATOM      4  N4  ZIN A   1      18.136  -0.526  14.643  0.00  0.00    -0.069 N 
ATOM      5  H5  ZIN A   1      17.278  -0.128  14.290  0.00  0.00     0.277 HD
ATOM      6  H6  ZIN A   1      18.810   0.209  14.794  0.00  0.00     0.277 HD
BRANCH   4   7
ATOM      7  C2  ZIN A   1      17.870  -1.216  15.912  0.00  0.00     0.178 C 
ATOM      8  C1  ZIN A   1      19.195  -1.537  16.605  0.00  0.00     0.039 C 
ATOM      9  C3  ZIN A   1      17.026  -0.315  16.816  0.00  0.00     0.039 C 
ENDBRANCH   4   7
ENDBRANCH   3   4
ENDBRANCH   2   3
BRANCH   2  10
ATOM     10  O10 ZIN A   1      17.459  -2.428  11.797  0.00  0.00    -0.392 OA
ATOM     11  H32 ZIN A   1      17.483  -3.165  12.423  0.00  0.00     0.210 HD
ENDBRANCH   2  10
ENDBRANCH   1   2
BRANCH   1  12
ATOM     12  O12 ZIN A   1      16.527   0.264  11.135  0.00  0.00    -0.348 OA
BRANCH  12  13
ATOM     13  C13 ZIN A   1      17.362   1.085  10.447  0.00  0.00     0.080 A 
ATOM     14  C22 ZIN A   1      17.801   2.250  11.011  0.00  0.00     0.037 A 
ATOM     15  C21 ZIN A   1      18.661   3.099  10.321  0.00  0.00     0.004 A 
ATOM     16  C20 ZIN A   1      19.083   2.800   9.061  0.00  0.00     0.012 A 
ATOM     17  C19 ZIN A   1      18.649   1.615   8.443  0.00  0.00    -0.023 A 
ATOM     18  C14 ZIN A   1      17.777   0.744   9.144  0.00  0.00     0.007 A 
ATOM     19  C18 ZIN A   1      19.063   1.276   7.144  0.00  0.00     0.012 A 
ATOM     20  C15 ZIN A   1      17.344  -0.440   8.526  0.00  0.00     0.015 A 
ATOM     21  C16 ZIN A   1      17.766  -0.736   7.266  0.00  0.00     0.001 A 
ATOM     22  C17 ZIN A   1      18.623   0.119   6.577  0.00  0.00     0.001 A 
ENDBRANCH  12  13
ENDBRANCH   1  12
TORSDOF 7
ENDMDL
MODEL 7
REMARK VINA RESULT:      -6.4      1.549      2.259
REMARK  7 active torsions:
REMARK  status: ('A' for Active; 'I' for Inactive)
REMARK    1  A    between atoms: C2_2  and  N4_4 
REMARK    2  A    between atoms: N4_4  and  C7_7 
REMARK    3  A    between atoms: C7_7  and  C8_8 
REMARK    4  A    between atoms: C8_8  and  O10_9 
REMARK    5  A    between atoms: C8_8  and  C11_10 
REMARK    6  A    between atoms: C11_10  and  O12_11 
REMARK    7  A    between atoms: O12_11  and  C13_12 
ROOT
ATOM      1  C11 ZIN A   1      18.854  -1.763  10.966  0.00  0.00     0.209 C 
ENDROOT
BRANCH   1   2
ATOM      2  C8  ZIN A   1      19.417  -2.912  11.806  0.00  0.00     0.168 C 
BRANCH   2   3
ATOM      3  C7  ZIN A   1      18.630  -4.191  11.511  0.00  0.00     0.266 C 
BRANCH   3   4
ATOM      4  N4  ZIN A   1      17.681  -3.941  10.417  0.00  0.00    -0.069 N 
ATOM      5  H5  ZIN A   1      17.952  -3.104   9.923  0.00  0.00     0.277 HD
ATOM      6  H6  ZIN A   1      16.754  -3.822  10.797  0.00  0.00     0.277 HD
BRANCH   4   7
ATOM      7  C2  ZIN A   1      17.690  -5.081   9.492  0.00  0.00     0.178 C 
ATOM      8  C1  ZIN A   1      19.110  -5.300   8.966  0.00  0.00     0.039 C 
ATOM      9  C3  ZIN A   1      17.217  -6.338  10.226  0.00  0.00     0.039 C 
ENDBRANCH   4   7
ENDBRANCH   3   4
ENDBRANCH   2   3
BRANCH   2  10
ATOM     10  O10 ZIN A   1      20.793  -3.112  11.477  0.00  0.00    -0.392 OA
ATOM     11  H32 ZIN A   1      21.409  -2.646  12.060  0.00  0.00     0.210 HD
ENDBRANCH   2  10
ENDBRANCH   1   2
BRANCH   1  12
ATOM     12  O12 ZIN A   1      19.417  -1.813   9.654  0.00  0.00    -0.348 OA
BRANCH  12  13
ATOM     13  C13 ZIN A   1      19.288  -0.701   8.885  0.00  0.00     0.080 A 
ATOM     14  C22 ZIN A   1      19.231   0.535   9.466  0.00  0.00     0.037 A 
ATOM     15  C21 ZIN A   1      19.105   1.685   8.692  0.00  0.00     0.004 A 
ATOM     16  C20 ZIN A   1      19.024   1.612   7.334  0.00  0.00     0.012 A 
ATOM     17  C19 ZIN A   1      19.072   0.360   6.699  0.00  0.00    -0.023 A 
ATOM     18  C14 ZIN A   1      19.206  -0.813   7.483  0.00  0.00     0.007 A 
ATOM     19  C18 ZIN A   1      18.990   0.248   5.300  0.00  0.00     0.012 A 
ATOM     20  C15 ZIN A   1      19.254  -2.065   6.847  0.00  0.00     0.015 A 
ATOM     21  C16 ZIN A   1      19.172  -2.135   5.490  0.00  0.00     0.001 A 
ATOM     22  C17 ZIN A   1      19.041  -0.982   4.719  0.00  0.00     0.001 A 
ENDBRANCH  12  13
ENDBRANCH   1  12
TORSDOF 7
ENDMDL
MODEL 8
REMARK VINA RESULT:      -6.4      5.094      6.726
REMARK  7 active torsions:
REMARK  status: ('A' for Active; 'I' for Inactive)
REMARK    1  A    between atoms: C2_2  and  N4_4 
REMARK    2  A    between atoms: N4_4  and  C7_7 
REMARK    3  A    between atoms: C7_7  and  C8_8 
REMARK    4  A    between atoms: C8_8  and  O10_9 
REMARK    5  A    between atoms: C8_8  and  C11_10 
REMARK    6  A    between atoms: C11_10  and  O12_11 
REMARK    7  A    between atoms: O12_11  and  C13_12 
ROOT
ATOM      1  C11 ZIN A   1      18.863   4.311  14.957  0.00  0.00     0.209 C 
ENDROOT
BRANCH   1   2
ATOM      2  C8  ZIN A   1      19.447   3.755  16.258  0.00  0.00     0.168 C 
BRANCH   2   3
ATOM      3  C7  ZIN A   1      19.407   2.226  16.222  0.00  0.00     0.266 C 
BRANCH   3   4
ATOM      4  N4  ZIN A   1      18.116   1.758  16.745  0.00  0.00    -0.069 N 
ATOM      5  H5  ZIN A   1      17.403   1.883  16.042  0.00  0.00     0.277 HD
ATOM      6  H6  ZIN A   1      17.874   2.289  17.567  0.00  0.00     0.277 HD
BRANCH   4   7
ATOM      7  C2  ZIN A   1      18.216   0.334  17.093  0.00  0.00     0.178 C 
ATOM      8  C1  ZIN A   1      18.524   0.194  18.585  0.00  0.00     0.039 C 
ATOM      9  C3  ZIN A   1      16.890  -0.363  16.777  0.00  0.00     0.039 C 
ENDBRANCH   4   7
ENDBRANCH   3   4
ENDBRANCH   2   3
BRANCH   2  10
ATOM     10  O10 ZIN A   1      20.800   4.193  16.398  0.00  0.00    -0.392 OA
ATOM     11  H32 ZIN A   1      21.222   4.441  15.563  0.00  0.00     0.210 HD
ENDBRANCH   2  10
ENDBRANCH   1   2
BRANCH   1  12
ATOM     12  O12 ZIN A   1      17.960   3.357  14.396  0.00  0.00    -0.348 OA
BRANCH  12  13
ATOM     13  C13 ZIN A   1      17.931   3.259  13.041  0.00  0.00     0.080 A 
ATOM     14  C22 ZIN A   1      18.108   4.371  12.266  0.00  0.00     0.037 A 
ATOM     15  C21 ZIN A   1      18.087   4.285  10.877  0.00  0.00     0.004 A 
ATOM     16  C20 ZIN A   1      17.879   3.095  10.250  0.00  0.00     0.012 A 
ATOM     17  C19 ZIN A   1      17.686   1.929  11.010  0.00  0.00    -0.023 A 
ATOM     18  C14 ZIN A   1      17.712   2.010  12.425  0.00  0.00     0.007 A 
ATOM     19  C18 ZIN A   1      17.468   0.685  10.396  0.00  0.00     0.012 A 
ATOM     20  C15 ZIN A   1      17.519   0.845  13.185  0.00  0.00     0.015 A 
ATOM     21  C16 ZIN A   1      17.311  -0.343  12.555  0.00  0.00     0.001 A 
ATOM     22  C17 ZIN A   1      17.285  -0.424  11.165  0.00  0.00     0.001 A 
ENDBRANCH  12  13
ENDBRANCH   1  12
TORSDOF 7
ENDMDL
MODEL 9
REMARK VINA RESULT:      -6.4      2.946      5.293
REMARK  7 active torsions:
REMARK  status: ('A' for Active; 'I' for Inactive)
REMARK    1  A    between atoms: C2_2  and  N4_4 
REMARK    2  A    between atoms: N4_4  and  C7_7 
REMARK    3  A    between atoms: C7_7  and  C8_8 
REMARK    4  A    between atoms: C8_8  and  O10_9 
REMARK    5  A    between atoms: C8_8  and  C11_10 
REMARK    6  A    between atoms: C11_10  and  O12_11 
REMARK    7  A    between atoms: O12_11  and  C13_12 
ROOT
ATOM      1  C11 ZIN A   1      20.012  -1.449  11.109  0.00  0.00     0.209 C 
ENDROOT
BRANCH   1   2
ATOM      2  C8  ZIN A   1      19.530  -2.579  12.021  0.00  0.00     0.168 C 
BRANCH   2   3
ATOM      3  C7  ZIN A   1      18.824  -1.984  13.241  0.00  0.00     0.266 C 
BRANCH   3   4
ATOM      4  N4  ZIN A   1      19.823  -1.406  14.151  0.00  0.00    -0.069 N 
ATOM      5  H5  ZIN A   1      20.438  -0.797  13.631  0.00  0.00     0.277 HD
ATOM      6  H6  ZIN A   1      20.362  -2.147  14.573  0.00  0.00     0.277 HD
BRANCH   4   7
ATOM      7  C2  ZIN A   1      19.142  -0.635  15.199  0.00  0.00     0.178 C 
ATOM      8  C1  ZIN A   1      17.759  -0.209  14.701  0.00  0.00     0.039 C 
ATOM      9  C3  ZIN A   1      18.990  -1.501  16.452  0.00  0.00     0.039 C 
ENDBRANCH   4   7
ENDBRANCH   3   4
ENDBRANCH   2   3
BRANCH   2  10
ATOM     10  O10 ZIN A   1      18.619  -3.414  11.303  0.00  0.00    -0.392 OA
ATOM     11  H32 ZIN A   1      18.395  -3.085  10.421  0.00  0.00     0.210 HD
ENDBRANCH   2  10
ENDBRANCH   1   2
BRANCH   1  12
ATOM     12  O12 ZIN A   1      19.365  -0.230  11.479  0.00  0.00    -0.348 OA
BRANCH  12  13
ATOM     13  C13 ZIN A   1      19.198   0.700  10.504  0.00  0.00     0.080 A 
ATOM     14  C22 ZIN A   1      19.588   0.431   9.222  0.00  0.00     0.037 A 
ATOM     15  C21 ZIN A   1      19.417   1.372   8.210  0.00  0.00     0.004 A 
ATOM     16  C20 ZIN A   1      18.867   2.590   8.469  0.00  0.00     0.012 A 
ATOM     17  C19 ZIN A   1      18.458   2.908   9.775  0.00  0.00    -0.023 A 
ATOM     18  C14 ZIN A   1      18.625   1.951  10.808  0.00  0.00     0.007 A 
ATOM     19  C18 ZIN A   1      17.888   4.156  10.078  0.00  0.00     0.012 A 
ATOM     20  C15 ZIN A   1      18.216   2.270  12.113  0.00  0.00     0.015 A 
ATOM     21  C16 ZIN A   1      17.667   3.488  12.370  0.00  0.00     0.001 A 
ATOM     22  C17 ZIN A   1      17.503   4.429  11.355  0.00  0.00     0.001 A 
ENDBRANCH  12  13
ENDBRANCH   1  12
TORSDOF 7
ENDMDL
