MODEL 1
REMARK VINA RESULT:      -7.6      0.000      0.000
REMARK  3 active torsions:
REMARK  status: ('A' for Active; 'I' for Inactive)
REMARK    1  A    between atoms: N5_5  and  C7_7 
REMARK    2  A    between atoms: C7_7  and  C9_8 
REMARK    3  A    between atoms: C7_7  and  C15_14 
ROOT
ATOM      1  C7  <0> d   1      19.407  -1.440  12.105  0.00  0.00     0.254 C 
ENDROOT
BRANCH   1   2
ATOM      2  N5  <0> d   1      18.968  -0.488  11.076  0.00  0.00    -0.055 N 
ATOM      3  C4  <0> d   1      19.152  -1.083   9.746  0.00  0.00     0.266 C 
ATOM      4  C3  <0> d   1      18.677  -0.099   8.675  0.00  0.00     0.299 C 
ATOM      5  N2  <0> d   1      19.450   1.148   8.783  0.00  0.00     0.087 N 
ATOM      6  C1  <0> d   1      19.062   2.100   7.734  0.00  0.00     0.310 C 
ATOM      7  C23 <0> d   1      19.296   1.743  10.118  0.00  0.00     0.299 C 
ATOM      8  C22 <0> d   1      19.765   0.743  11.176  0.00  0.00     0.266 C 
ATOM      9  H6  <0> d   1      17.993  -0.268  11.215  0.00  0.00     0.281 HD
ENDBRANCH   1   2
BRANCH   1  10
ATOM     10  C9  <0> d   1      18.880  -2.813  11.776  0.00  0.00    -0.023 A 
ATOM     11  C14 <0> d   1      17.517  -3.035  11.724  0.00  0.00     0.009 A 
ATOM     12  C13 <0> d   1      17.034  -4.294  11.418  0.00  0.00     0.001 A 
ATOM     13  C12 <0> d   1      17.914  -5.332  11.172  0.00  0.00     0.000 A 
ATOM     14  C11 <0> d   1      19.277  -5.110  11.229  0.00  0.00     0.001 A 
ATOM     15  C10 <0> d   1      19.760  -3.850  11.531  0.00  0.00     0.009 A 
ENDBRANCH   1  10
BRANCH   1  16
ATOM     16  C15 <0> d   1      18.880  -1.007  13.448  0.00  0.00    -0.023 A 
ATOM     17  C21 <0> d   1      19.425  -1.531  14.605  0.00  0.00     0.011 A 
ATOM     18  C20 <0> d   1      18.946  -1.129  15.838  0.00  0.00     0.024 A 
ATOM     19  C18 <0> d   1      17.913  -0.213  15.913  0.00  0.00     0.034 A 
ATOM     20  C17 <0> d   1      17.364   0.307  14.754  0.00  0.00     0.024 A 
ATOM     21 Cl19 <0> d   1      17.305   0.285  17.461  0.00  0.00    -0.084 Cl
ATOM     22  C16 <0> d   1      17.847  -0.091  13.522  0.00  0.00     0.011 A 
ENDBRANCH   1  16
TORSDOF 3
ENDMDL
MODEL 2
REMARK VINA RESULT:      -7.5      2.607      5.745
REMARK  3 active torsions:
REMARK  status: ('A' for Active; 'I' for Inactive)
REMARK    1  A    between atoms: N5_5  and  C7_7 
REMARK    2  A    between atoms: C7_7  and  C9_8 
REMARK    3  A    between atoms: C7_7  and  C15_14 
ROOT
ATOM      1  C7  <0> d   1      19.554  -0.868  12.025  0.00  0.00     0.254 C 
ENDROOT
BRANCH   1   2
ATOM      2  N5  <0> d   1      18.946  -0.362  13.262  0.00  0.00    -0.055 N 
ATOM      3  C4  <0> d   1      19.792   0.700  13.825  0.00  0.00     0.266 C 
ATOM      4  C3  <0> d   1      19.149   1.240  15.104  0.00  0.00     0.299 C 
ATOM      5  N2  <0> d   1      18.999   0.145  16.074  0.00  0.00     0.087 N 
ATOM      6  C1  <0> d   1      18.437   0.636  17.339  0.00  0.00     0.310 C 
ATOM      7  C23 <0> d   1      18.176  -0.937  15.516  0.00  0.00     0.299 C 
ATOM      8  C22 <0> d   1      18.826  -1.459  14.233  0.00  0.00     0.266 C 
ATOM      9  H6  <0> d   1      18.030   0.009  13.060  0.00  0.00     0.281 HD
ENDBRANCH   1   2
BRANCH   1  10
ATOM     10  C9  <0> d   1      19.240   0.073  10.890  0.00  0.00    -0.023 A 
ATOM     11  C14 <0> d   1      18.283   1.056  11.052  0.00  0.00     0.009 A 
ATOM     12  C13 <0> d   1      17.998   1.921  10.012  0.00  0.00     0.001 A 
ATOM     13  C12 <0> d   1      18.664   1.797   8.807  0.00  0.00     0.000 A 
ATOM     14  C11 <0> d   1      19.618   0.810   8.644  0.00  0.00     0.001 A 
ATOM     15  C10 <0> d   1      19.906  -0.053   9.685  0.00  0.00     0.009 A 
ENDBRANCH   1  10
BRANCH   1  16
ATOM     16  C15 <0> d   1      18.999  -2.234  11.714  0.00  0.00    -0.023 A 
ATOM     17  C21 <0> d   1      17.636  -2.407  11.560  0.00  0.00     0.011 A 
ATOM     18  C20 <0> d   1      17.127  -3.659  11.269  0.00  0.00     0.024 A 
ATOM     19  C18 <0> d   1      17.981  -4.740  11.144  0.00  0.00     0.034 A 
ATOM     20  C17 <0> d   1      19.345  -4.567  11.303  0.00  0.00     0.024 A 
ATOM     21 Cl19 <0> d   1      17.342  -6.314  10.786  0.00  0.00    -0.084 Cl
ATOM     22  C16 <0> d   1      19.853  -3.314  11.588  0.00  0.00     0.011 A 
ENDBRANCH   1  16
TORSDOF 3
ENDMDL
MODEL 3
REMARK VINA RESULT:      -7.5      3.629      5.869
REMARK  3 active torsions:
REMARK  status: ('A' for Active; 'I' for Inactive)
REMARK    1  A    between atoms: N5_5  and  C7_7 
REMARK    2  A    between atoms: C7_7  and  C9_8 
REMARK    3  A    between atoms: C7_7  and  C15_14 
ROOT
ATOM      1  C7  <0> d   1      17.684   0.505  10.231  0.00  0.00     0.254 C 
ENDROOT
BRANCH   1   2
ATOM      2  N5  <0> d   1      18.376   1.649  10.838  0.00  0.00    -0.055 N 
ATOM      3  C4  <0> d   1      18.455   1.459  12.293  0.00  0.00     0.266 C 
ATOM      4  C3  <0> d   1      19.193   2.642  12.923  0.00  0.00     0.299 C 
ATOM      5  N2  <0> d   1      18.474   3.886  12.613  0.00  0.00     0.087 N 
ATOM      6  C1  <0> d   1      19.121   5.041  13.250  0.00  0.00     0.310 C 
ATOM      7  C23 <0> d   1      18.365   4.078  11.160  0.00  0.00     0.299 C 
ATOM      8  C22 <0> d   1      17.634   2.883  10.544  0.00  0.00     0.266 C 
ATOM      9  H6  <0> d   1      19.308   1.719  10.457  0.00  0.00     0.281 HD
ENDBRANCH   1   2
BRANCH   1  10
ATOM     10  C9  <0> d   1      18.188  -0.773  10.849  0.00  0.00    -0.023 A 
ATOM     11  C14 <0> d   1      19.517  -1.127  10.717  0.00  0.00     0.009 A 
ATOM     12  C13 <0> d   1      19.980  -2.298  11.288  0.00  0.00     0.001 A 
ATOM     13  C12 <0> d   1      19.112  -3.119  11.984  0.00  0.00     0.000 A 
ATOM     14  C11 <0> d   1      17.782  -2.766  12.112  0.00  0.00     0.001 A 
ATOM     15  C10 <0> d   1      17.319  -1.594  11.544  0.00  0.00     0.009 A 
ENDBRANCH   1  10
BRANCH   1  16
ATOM     16  C15 <0> d   1      17.950   0.486   8.748  0.00  0.00    -0.023 A 
ATOM     17  C21 <0> d   1      17.198  -0.329   7.922  0.00  0.00     0.011 A 
ATOM     18  C20 <0> d   1      17.438  -0.343   6.560  0.00  0.00     0.024 A 
ATOM     19  C18 <0> d   1      18.437   0.450   6.027  0.00  0.00     0.034 A 
ATOM     20  C17 <0> d   1      19.193   1.262   6.855  0.00  0.00     0.024 A 
ATOM     21 Cl19 <0> d   1      18.744   0.428   4.318  0.00  0.00    -0.084 Cl
ATOM     22  C16 <0> d   1      18.949   1.279   8.215  0.00  0.00     0.011 A 
ENDBRANCH   1  16
TORSDOF 3
ENDMDL
MODEL 4
REMARK VINA RESULT:      -7.4      1.218      1.706
REMARK  3 active torsions:
REMARK  status: ('A' for Active; 'I' for Inactive)
REMARK    1  A    between atoms: N5_5  and  C7_7 
REMARK    2  A    between atoms: C7_7  and  C9_8 
REMARK    3  A    between atoms: C7_7  and  C15_14 
ROOT
ATOM      1  C7  <0> d   1      19.223  -2.039  11.031  0.00  0.00     0.254 C 
ENDROOT
BRANCH   1   2
ATOM      2  N5  <0> d   1      18.789  -1.150   9.945  0.00  0.00    -0.055 N 
ATOM      3  C4  <0> d   1      18.460  -1.950   8.757  0.00  0.00     0.266 C 
ATOM      4  C3  <0> d   1      17.990  -1.025   7.633  0.00  0.00     0.299 C 
ATOM      5  N2  <0> d   1      19.056  -0.064   7.315  0.00  0.00     0.087 N 
ATOM      6  C1  <0> d   1      18.664   0.806   6.199  0.00  0.00     0.310 C 
ATOM      7  C23 <0> d   1      19.415   0.728   8.501  0.00  0.00     0.299 C 
ATOM      8  C22 <0> d   1      19.872  -0.211   9.618  0.00  0.00     0.266 C 
ATOM      9  H6  <0> d   1      17.974  -0.632  10.239  0.00  0.00     0.281 HD
ENDBRANCH   1   2
BRANCH   1  10
ATOM     10  C9  <0> d   1      18.576  -3.390  10.862  0.00  0.00    -0.023 A 
ATOM     11  C14 <0> d   1      19.286  -4.430  10.295  0.00  0.00     0.009 A 
ATOM     12  C13 <0> d   1      18.694  -5.670  10.145  0.00  0.00     0.001 A 
ATOM     13  C12 <0> d   1      17.389  -5.867  10.555  0.00  0.00     0.000 A 
ATOM     14  C11 <0> d   1      16.677  -4.825  11.118  0.00  0.00     0.001 A 
ATOM     15  C10 <0> d   1      17.270  -3.585  11.272  0.00  0.00     0.009 A 
ENDBRANCH   1  10
BRANCH   1  16
ATOM     16  C15 <0> d   1      18.816  -1.449  12.356  0.00  0.00    -0.023 A 
ATOM     17  C21 <0> d   1      19.420  -1.885  13.520  0.00  0.00     0.011 A 
ATOM     18  C20 <0> d   1      19.052  -1.339  14.736  0.00  0.00     0.024 A 
ATOM     19  C18 <0> d   1      18.071  -0.365  14.788  0.00  0.00     0.034 A 
ATOM     20  C17 <0> d   1      17.464   0.067  13.622  0.00  0.00     0.024 A 
ATOM     21 Cl19 <0> d   1      17.603   0.315  16.315  0.00  0.00    -0.084 Cl
ATOM     22  C16 <0> d   1      17.837  -0.474  12.407  0.00  0.00     0.011 A 
ENDBRANCH   1  16
TORSDOF 3
ENDMDL
MODEL 5
REMARK VINA RESULT:      -7.4      3.625      7.099
REMARK  3 active torsions:
REMARK  status: ('A' for Active; 'I' for Inactive)
REMARK    1  A    between atoms: N5_5  and  C7_7 
REMARK    2  A    between atoms: C7_7  and  C9_8 
REMARK    3  A    between atoms: C7_7  and  C15_14 
ROOT
ATOM      1  C7  <0> d   1      19.187   1.717  11.161  0.00  0.00     0.254 C 
ENDROOT
BRANCH   1   2
ATOM      2  N5  <0> d   1      18.766   0.732  12.166  0.00  0.00    -0.055 N 
ATOM      3  C4  <0> d   1      18.044   1.414  13.249  0.00  0.00     0.266 C 
ATOM      4  C3  <0> d   1      17.589   0.385  14.285  0.00  0.00     0.299 C 
ATOM      5  N2  <0> d   1      18.763  -0.317  14.823  0.00  0.00     0.087 N 
ATOM      6  C1  <0> d   1      18.372  -1.275  15.866  0.00  0.00     0.310 C 
ATOM      7  C23 <0> d   1      19.511  -0.984  13.747  0.00  0.00     0.299 C 
ATOM      8  C22 <0> d   1      19.949   0.056  12.715  0.00  0.00     0.266 C 
ATOM      9  H6  <0> d   1      18.160   0.050  11.735  0.00  0.00     0.281 HD
ENDBRANCH   1   2
BRANCH   1  10
ATOM     10  C9  <0> d   1      18.541   3.046  11.458  0.00  0.00    -0.023 A 
ATOM     11  C14 <0> d   1      17.384   3.414  10.799  0.00  0.00     0.009 A 
ATOM     12  C13 <0> d   1      16.789   4.631  11.076  0.00  0.00     0.001 A 
ATOM     13  C12 <0> d   1      17.356   5.483  12.006  0.00  0.00     0.000 A 
ATOM     14  C11 <0> d   1      18.516   5.115  12.662  0.00  0.00     0.001 A 
ATOM     15  C10 <0> d   1      19.109   3.897  12.388  0.00  0.00     0.009 A 
ENDBRANCH   1  10
BRANCH   1  16
ATOM     16  C15 <0> d   1      18.767   1.250   9.792  0.00  0.00    -0.023 A 
ATOM     17  C21 <0> d   1      17.762   0.310   9.660  0.00  0.00     0.011 A 
ATOM     18  C20 <0> d   1      17.373  -0.115   8.404  0.00  0.00     0.024 A 
ATOM     19  C18 <0> d   1      17.998   0.392   7.278  0.00  0.00     0.034 A 
ATOM     20  C17 <0> d   1      19.007   1.329   7.411  0.00  0.00     0.024 A 
ATOM     21 Cl19 <0> d   1      17.515  -0.147   5.700  0.00  0.00    -0.084 Cl
ATOM     22  C16 <0> d   1      19.392   1.757   8.667  0.00  0.00     0.011 A 
ENDBRANCH   1  16
TORSDOF 3
ENDMDL
MODEL 6
REMARK VINA RESULT:      -7.3      3.127      5.324
REMARK  3 active torsions:
REMARK  status: ('A' for Active; 'I' for Inactive)
REMARK    1  A    between atoms: N5_5  and  C7_7 
REMARK    2  A    between atoms: C7_7  and  C9_8 
REMARK    3  A    between atoms: C7_7  and  C15_14 
ROOT
ATOM      1  C7  <0> d   1      17.743  -0.627  11.140  0.00  0.00     0.254 C 
ENDROOT
BRANCH   1   2
ATOM      2  N5  <0> d   1      18.362   0.246  12.146  0.00  0.00    -0.055 N 
ATOM      3  C4  <0> d   1      18.278  -0.393  13.467  0.00  0.00     0.266 C 
ATOM      4  C3  <0> d   1      18.940   0.508  14.512  0.00  0.00     0.299 C 
ATOM      5  N2  <0> d   1      18.258   1.810  14.534  0.00  0.00     0.087 N 
ATOM      6  C1  <0> d   1      18.828   2.685  15.567  0.00  0.00     0.310 C 
ATOM      7  C23 <0> d   1      18.311   2.451  13.212  0.00  0.00     0.299 C 
ATOM      8  C22 <0> d   1      17.656   1.533  12.178  0.00  0.00     0.266 C 
ATOM      9  H6  <0> d   1      19.331   0.400  11.908  0.00  0.00     0.281 HD
ENDBRANCH   1   2
BRANCH   1  10
ATOM     10  C9  <0> d   1      18.256  -2.034  11.311  0.00  0.00    -0.023 A 
ATOM     11  C14 <0> d   1      17.367  -3.082  11.450  0.00  0.00     0.009 A 
ATOM     12  C13 <0> d   1      17.837  -4.372  11.603  0.00  0.00     0.001 A 
ATOM     13  C12 <0> d   1      19.199  -4.614  11.625  0.00  0.00     0.000 A 
ATOM     14  C11 <0> d   1      20.088  -3.565  11.490  0.00  0.00     0.001 A 
ATOM     15  C10 <0> d   1      19.618  -2.274  11.334  0.00  0.00     0.009 A 
ENDBRANCH   1  10
BRANCH   1  16
ATOM     16  C15 <0> d   1      18.091  -0.130   9.761  0.00  0.00    -0.023 A 
ATOM     17  C21 <0> d   1      17.333  -0.522   8.674  0.00  0.00     0.011 A 
ATOM     18  C20 <0> d   1      17.648  -0.061   7.409  0.00  0.00     0.024 A 
ATOM     19  C18 <0> d   1      18.729   0.783   7.230  0.00  0.00     0.034 A 
ATOM     20  C17 <0> d   1      19.491   1.170   8.318  0.00  0.00     0.024 A 
ATOM     21 Cl19 <0> d   1      19.130   1.356   5.641  0.00  0.00    -0.084 Cl
ATOM     22  C16 <0> d   1      19.172   0.714   9.583  0.00  0.00     0.011 A 
ENDBRANCH   1  16
TORSDOF 3
ENDMDL
MODEL 7
REMARK VINA RESULT:      -7.3      2.748      3.911
REMARK  3 active torsions:
REMARK  status: ('A' for Active; 'I' for Inactive)
REMARK    1  A    between atoms: N5_5  and  C7_7 
REMARK    2  A    between atoms: C7_7  and  C9_8 
REMARK    3  A    between atoms: C7_7  and  C15_14 
ROOT
ATOM      1  C7  <0> d   1      19.525   0.311   9.954  0.00  0.00     0.254 C 
ENDROOT
BRANCH   1   2
ATOM      2  N5  <0> d   1      18.947   0.222   8.606  0.00  0.00    -0.055 N 
ATOM      3  C4  <0> d   1      19.312  -1.066   8.000  0.00  0.00     0.266 C 
ATOM      4  C3  <0> d   1      18.694  -1.167   6.604  0.00  0.00     0.299 C 
ATOM      5  N2  <0> d   1      19.186  -0.059   5.773  0.00  0.00     0.087 N 
ATOM      6  C1  <0> d   1      18.659  -0.153   4.405  0.00  0.00     0.310 C 
ATOM      7  C23 <0> d   1      18.849   1.238   6.379  0.00  0.00     0.299 C 
ATOM      8  C22 <0> d   1      19.465   1.318   7.777  0.00  0.00     0.266 C 
ATOM      9  H6  <0> d   1      17.942   0.292   8.666  0.00  0.00     0.281 HD
ENDBRANCH   1   2
BRANCH   1  10
ATOM     10  C9  <0> d   1      19.096  -0.884  10.765  0.00  0.00    -0.023 A 
ATOM     11  C14 <0> d   1      20.046  -1.731  11.302  0.00  0.00     0.009 A 
ATOM     12  C13 <0> d   1      19.652  -2.825  12.050  0.00  0.00     0.001 A 
ATOM     13  C12 <0> d   1      18.307  -3.077  12.253  0.00  0.00     0.000 A 
ATOM     14  C11 <0> d   1      17.358  -2.231  11.711  0.00  0.00     0.001 A 
ATOM     15  C10 <0> d   1      17.751  -1.135  10.966  0.00  0.00     0.009 A 
ENDBRANCH   1  10
BRANCH   1  16
ATOM     16  C15 <0> d   1      19.044   1.572  10.624  0.00  0.00    -0.023 A 
ATOM     17  C21 <0> d   1      19.774   2.124  11.660  0.00  0.00     0.011 A 
ATOM     18  C20 <0> d   1      19.336   3.285  12.271  0.00  0.00     0.024 A 
ATOM     19  C18 <0> d   1      18.163   3.886  11.854  0.00  0.00     0.034 A 
ATOM     20  C17 <0> d   1      17.431   3.330  10.820  0.00  0.00     0.024 A 
ATOM     21 Cl19 <0> d   1      17.609   5.339  12.626  0.00  0.00    -0.084 Cl
ATOM     22  C16 <0> d   1      17.872   2.173  10.205  0.00  0.00     0.011 A 
ENDBRANCH   1  16
TORSDOF 3
ENDMDL
MODEL 8
REMARK VINA RESULT:      -7.3      2.774      5.116
REMARK  3 active torsions:
REMARK  status: ('A' for Active; 'I' for Inactive)
REMARK    1  A    between atoms: N5_5  and  C7_7 
REMARK    2  A    between atoms: C7_7  and  C9_8 
REMARK    3  A    between atoms: C7_7  and  C15_14 
ROOT
ATOM      1  C7  <0> d   1      18.987   0.413  10.037  0.00  0.00     0.254 C 
ENDROOT
BRANCH   1   2
ATOM      2  N5  <0> d   1      18.194   1.385  10.801  0.00  0.00    -0.055 N 
ATOM      3  C4  <0> d   1      18.184   2.673  10.094  0.00  0.00     0.266 C 
ATOM      4  C3  <0> d   1      17.342   3.680  10.881  0.00  0.00     0.299 C 
ATOM      5  N2  <0> d   1      17.912   3.845  12.226  0.00  0.00     0.087 N 
ATOM      6  C1  <0> d   1      17.164   4.849  12.995  0.00  0.00     0.310 C 
ATOM      7  C23 <0> d   1      17.952   2.559  12.937  0.00  0.00     0.299 C 
ATOM      8  C22 <0> d   1      18.788   1.562  12.133  0.00  0.00     0.266 C 
ATOM      9  H6  <0> d   1      17.248   1.046  10.897  0.00  0.00     0.281 HD
ENDBRANCH   1   2
BRANCH   1  10
ATOM     10  C9  <0> d   1      18.592   0.474   8.583  0.00  0.00    -0.023 A 
ATOM     11  C14 <0> d   1      19.396   1.136   7.676  0.00  0.00     0.009 A 
ATOM     12  C13 <0> d   1      19.035   1.189   6.343  0.00  0.00     0.001 A 
ATOM     13  C12 <0> d   1      17.866   0.586   5.918  0.00  0.00     0.000 A 
ATOM     14  C11 <0> d   1      17.059  -0.073   6.827  0.00  0.00     0.001 A 
ATOM     15  C10 <0> d   1      17.421  -0.128   8.160  0.00  0.00     0.009 A 
ENDBRANCH   1  10
BRANCH   1  16
ATOM     16  C15 <0> d   1      18.731  -0.973  10.569  0.00  0.00    -0.023 A 
ATOM     17  C21 <0> d   1      19.710  -1.944  10.465  0.00  0.00     0.011 A 
ATOM     18  C20 <0> d   1      19.479  -3.214  10.959  0.00  0.00     0.024 A 
ATOM     19  C18 <0> d   1      18.263  -3.517  11.546  0.00  0.00     0.034 A 
ATOM     20  C17 <0> d   1      17.282  -2.546  11.644  0.00  0.00     0.024 A 
ATOM     21 Cl19 <0> d   1      17.969  -5.114  12.159  0.00  0.00    -0.084 Cl
ATOM     22  C16 <0> d   1      17.517  -1.275  11.156  0.00  0.00     0.011 A 
ENDBRANCH   1  16
TORSDOF 3
ENDMDL
MODEL 9
REMARK VINA RESULT:      -7.2      1.668      4.494
REMARK  3 active torsions:
REMARK  status: ('A' for Active; 'I' for Inactive)
REMARK    1  A    between atoms: N5_5  and  C7_7 
REMARK    2  A    between atoms: C7_7  and  C9_8 
REMARK    3  A    between atoms: C7_7  and  C15_14 
ROOT
ATOM      1  C7  <0> d   1      17.809  -0.519  12.441  0.00  0.00     0.254 C 
ENDROOT
BRANCH   1   2
ATOM      2  N5  <0> d   1      18.527  -1.627  11.796  0.00  0.00    -0.055 N 
ATOM      3  C4  <0> d   1      18.406  -1.505  10.337  0.00  0.00     0.266 C 
ATOM      4  C3  <0> d   1      19.170  -2.648   9.665  0.00  0.00     0.299 C 
ATOM      5  N2  <0> d   1      18.616  -3.934  10.113  0.00  0.00     0.087 N 
ATOM      6  C1  <0> d   1      19.287  -5.057   9.445  0.00  0.00     0.310 C 
ATOM      7  C23 <0> d   1      18.707  -4.060  11.575  0.00  0.00     0.299 C 
ATOM      8  C22 <0> d   1      17.948  -2.905  12.231  0.00  0.00     0.266 C 
ATOM      9  H6  <0> d   1      19.501  -1.593  12.057  0.00  0.00     0.281 HD
ENDBRANCH   1   2
BRANCH   1  10
ATOM     10  C9  <0> d   1      18.232   0.785  11.817  0.00  0.00    -0.023 A 
ATOM     11  C14 <0> d   1      19.511   1.267  12.022  0.00  0.00     0.009 A 
ATOM     12  C13 <0> d   1      19.900   2.462  11.446  0.00  0.00     0.001 A 
ATOM     13  C12 <0> d   1      19.007   3.179  10.671  0.00  0.00     0.000 A 
ATOM     14  C11 <0> d   1      17.727   2.699  10.470  0.00  0.00     0.001 A 
ATOM     15  C10 <0> d   1      17.339   1.502  11.043  0.00  0.00     0.009 A 
ENDBRANCH   1  10
BRANCH   1  16
ATOM     16  C15 <0> d   1      18.131  -0.501  13.913  0.00  0.00    -0.023 A 
ATOM     17  C21 <0> d   1      19.126  -1.320  14.412  0.00  0.00     0.011 A 
ATOM     18  C20 <0> d   1      19.427  -1.299  15.762  0.00  0.00     0.024 A 
ATOM     19  C18 <0> d   1      18.723  -0.466  16.613  0.00  0.00     0.034 A 
ATOM     20  C17 <0> d   1      17.724   0.350  16.113  0.00  0.00     0.024 A 
ATOM     21 Cl19 <0> d   1      19.094  -0.445  18.309  0.00  0.00    -0.084 Cl
ATOM     22  C16 <0> d   1      17.428   0.332  14.763  0.00  0.00     0.011 A 
ENDBRANCH   1  16
TORSDOF 3
ENDMDL
