MODEL 1
REMARK VINA RESULT:      -6.5      0.000      0.000
REMARK  5 active torsions:
REMARK  status: ('A' for Active; 'I' for Inactive)
REMARK    1  A    between atoms: C2_2  and  C3_3 
REMARK    2  A    between atoms: C3_3  and  C4_4 
REMARK    3  A    between atoms: C4_4  and  C5_5 
REMARK    4  A    between atoms: C5_5  and  C8_7 
REMARK    5  A    between atoms: C9_8  and  C10_9 
ROOT
ATOM      1  C4  ZIN A   1      19.036   0.741  11.199  0.00  0.00     0.141 A 
ATOM      2  C12 ZIN A   1      17.537   0.678  11.422  0.00  0.00     0.267 A 
ATOM      3  O13 ZIN A   1      16.874   1.688  11.527  0.00  0.00    -0.270 OA
ATOM      4  N14 ZIN A   1      16.967  -0.543  11.499  0.00  0.00    -0.157 NA
ATOM      5  C15 ZIN A   1      17.684  -1.667  11.384  0.00  0.00     0.353 A 
ATOM      6  O16 ZIN A   1      17.090  -2.724  11.465  0.00  0.00    -0.244 OA
ATOM      7  N17 ZIN A   1      19.006  -1.713  11.187  0.00  0.00    -0.272 N 
ATOM      8  C18 ZIN A   1      19.665  -3.017  11.080  0.00  0.00     0.164 C 
ATOM      9  C19 ZIN A   1      19.752  -0.592  11.083  0.00  0.00     0.247 A 
ATOM     10  O20 ZIN A   1      20.950  -0.648  10.905  0.00  0.00    -0.271 OA
ENDROOT
BRANCH   1  11
ATOM     11  C3  ZIN A   1      19.659   1.516  12.361  0.00  0.00     0.057 C 
BRANCH  11  12
ATOM     12  C2  ZIN A   1      19.542   0.705  13.626  0.00  0.00    -0.035 C 
ATOM     13  C1  ZIN A   1      19.173   1.283  14.743  0.00  0.00     0.007 C 
ENDBRANCH  11  12
ENDBRANCH   1  11
BRANCH   1  14
ATOM     14  C5  ZIN A   1      19.289   1.530   9.914  0.00  0.00     0.088 C 
ATOM     15  C7  ZIN A   1      18.816   2.973  10.098  0.00  0.00     0.025 C 
BRANCH  14  16
ATOM     16  C8  ZIN A   1      18.549   0.909   8.803  0.00  0.00    -0.100 C 
ATOM     17  C9  ZIN A   1      17.960   0.412   7.916  0.00  0.00    -0.106 C 
BRANCH  17  18
ATOM     18  C10 ZIN A   1      17.220  -0.209   6.805  0.00  0.00     0.089 C 
ATOM     19  C11 ZIN A   1      17.982   0.015   5.498  0.00  0.00     0.018 C 
ENDBRANCH  17  18
ENDBRANCH  14  16
ENDBRANCH   1  14
TORSDOF 5
ENDMDL
MODEL 2
REMARK VINA RESULT:      -6.4      1.693      4.231
REMARK  5 active torsions:
REMARK  status: ('A' for Active; 'I' for Inactive)
REMARK    1  A    between atoms: C2_2  and  C3_3 
REMARK    2  A    between atoms: C3_3  and  C4_4 
REMARK    3  A    between atoms: C4_4  and  C5_5 
REMARK    4  A    between atoms: C5_5  and  C8_7 
REMARK    5  A    between atoms: C9_8  and  C10_9 
ROOT
ATOM      1  C4  ZIN A   1      18.395  -0.816  10.432  0.00  0.00     0.141 A 
ATOM      2  C12 ZIN A   1      19.823  -0.316  10.332  0.00  0.00     0.267 A 
ATOM      3  O13 ZIN A   1      20.389  -0.237   9.262  0.00  0.00    -0.270 OA
ATOM      4  N14 ZIN A   1      20.441   0.040  11.479  0.00  0.00    -0.157 NA
ATOM      5  C15 ZIN A   1      19.832  -0.041  12.667  0.00  0.00     0.353 A 
ATOM      6  O16 ZIN A   1      20.463   0.300  13.647  0.00  0.00    -0.244 OA
ATOM      7  N17 ZIN A   1      18.578  -0.468  12.854  0.00  0.00    -0.272 N 
ATOM      8  C18 ZIN A   1      18.034  -0.505  14.214  0.00  0.00     0.164 C 
ATOM      9  C19 ZIN A   1      17.799  -0.868  11.826  0.00  0.00     0.247 A 
ATOM     10  O20 ZIN A   1      16.664  -1.254  12.011  0.00  0.00    -0.271 OA
ENDROOT
BRANCH   1  11
ATOM     11  C3  ZIN A   1      18.342  -2.226   9.839  0.00  0.00     0.057 C 
BRANCH  11  12
ATOM     12  C2  ZIN A   1      19.231  -3.142  10.641  0.00  0.00    -0.035 C 
ATOM     13  C1  ZIN A   1      19.127  -4.441  10.503  0.00  0.00     0.007 C 
ENDBRANCH  11  12
ENDBRANCH   1  11
BRANCH   1  14
ATOM     14  C5  ZIN A   1      17.515   0.092   9.572  0.00  0.00     0.088 C 
ATOM     15  C7  ZIN A   1      17.848  -0.124   8.095  0.00  0.00     0.025 C 
BRANCH  14  16
ATOM     16  C8  ZIN A   1      17.763   1.498   9.931  0.00  0.00    -0.100 C 
ATOM     17  C9  ZIN A   1      17.962   2.620  10.216  0.00  0.00    -0.106 C 
BRANCH  17  18
ATOM     18  C10 ZIN A   1      18.210   4.026  10.575  0.00  0.00     0.089 C 
ATOM     19  C11 ZIN A   1      16.876   4.733  10.817  0.00  0.00     0.018 C 
ENDBRANCH  17  18
ENDBRANCH  14  16
ENDBRANCH   1  14
TORSDOF 5
ENDMDL
MODEL 3
REMARK VINA RESULT:      -6.3      1.895      5.412
REMARK  5 active torsions:
REMARK  status: ('A' for Active; 'I' for Inactive)
REMARK    1  A    between atoms: C2_2  and  C3_3 
REMARK    2  A    between atoms: C3_3  and  C4_4 
REMARK    3  A    between atoms: C4_4  and  C5_5 
REMARK    4  A    between atoms: C5_5  and  C8_7 
REMARK    5  A    between atoms: C9_8  and  C10_9 
ROOT
ATOM      1  C4  ZIN A   1      19.094  -0.496  11.562  0.00  0.00     0.141 A 
ATOM      2  C12 ZIN A   1      17.592  -0.424  11.366  0.00  0.00     0.267 A 
ATOM      3  O13 ZIN A   1      16.931  -1.426  11.192  0.00  0.00    -0.270 OA
ATOM      4  N14 ZIN A   1      17.017   0.798  11.395  0.00  0.00    -0.157 NA
ATOM      5  C15 ZIN A   1      17.731   1.912  11.587  0.00  0.00     0.353 A 
ATOM      6  O16 ZIN A   1      17.132   2.969  11.598  0.00  0.00    -0.244 OA
ATOM      7  N17 ZIN A   1      19.056   1.948  11.768  0.00  0.00    -0.272 N 
ATOM      8  C18 ZIN A   1      19.712   3.243  11.967  0.00  0.00     0.164 C 
ATOM      9  C19 ZIN A   1      19.807   0.827  11.771  0.00  0.00     0.247 A 
ATOM     10  O20 ZIN A   1      21.008   0.874  11.936  0.00  0.00    -0.271 OA
ENDROOT
BRANCH   1  11
ATOM     11  C3  ZIN A   1      19.702  -1.175  10.333  0.00  0.00     0.057 C 
BRANCH  11  12
ATOM     12  C2  ZIN A   1      19.530  -0.283   9.130  0.00  0.00    -0.035 C 
ATOM     13  C1  ZIN A   1      19.169  -0.798   7.980  0.00  0.00     0.007 C 
ENDBRANCH  11  12
ENDBRANCH   1  11
BRANCH   1  14
ATOM     14  C5  ZIN A   1      19.370  -1.383  12.777  0.00  0.00     0.088 C 
ATOM     15  C7  ZIN A   1      18.887  -2.806  12.492  0.00  0.00     0.025 C 
BRANCH  14  16
ATOM     16  C8  ZIN A   1      18.656  -0.847  13.947  0.00  0.00    -0.100 C 
ATOM     17  C9  ZIN A   1      18.086  -0.419  14.881  0.00  0.00    -0.106 C 
BRANCH  17  18
ATOM     18  C10 ZIN A   1      17.372   0.117  16.051  0.00  0.00     0.089 C 
ATOM     19  C11 ZIN A   1      17.011  -1.029  16.997  0.00  0.00     0.018 C 
ENDBRANCH  17  18
ENDBRANCH  14  16
ENDBRANCH   1  14
TORSDOF 5
ENDMDL
MODEL 4
REMARK VINA RESULT:      -6.2      1.935      4.308
REMARK  5 active torsions:
REMARK  status: ('A' for Active; 'I' for Inactive)
REMARK    1  A    between atoms: C2_2  and  C3_3 
REMARK    2  A    between atoms: C3_3  and  C4_4 
REMARK    3  A    between atoms: C4_4  and  C5_5 
REMARK    4  A    between atoms: C5_5  and  C8_7 
REMARK    5  A    between atoms: C9_8  and  C10_9 
ROOT
ATOM      1  C4  ZIN A   1      18.276   0.108  12.546  0.00  0.00     0.141 A 
ATOM      2  C12 ZIN A   1      19.770   0.275  12.345  0.00  0.00     0.267 A 
ATOM      3  O13 ZIN A   1      20.530   0.317  13.288  0.00  0.00    -0.270 OA
ATOM      4  N14 ZIN A   1      20.221   0.374  11.076  0.00  0.00    -0.157 NA
ATOM      5  C15 ZIN A   1      19.396   0.329  10.025  0.00  0.00     0.353 A 
ATOM      6  O16 ZIN A   1      19.888   0.425   8.918  0.00  0.00    -0.244 OA
ATOM      7  N17 ZIN A   1      18.069   0.185  10.102  0.00  0.00    -0.272 N 
ATOM      8  C18 ZIN A   1      17.283   0.151   8.866  0.00  0.00     0.164 C 
ATOM      9  C19 ZIN A   1      17.430   0.070  11.286  0.00  0.00     0.247 A 
ATOM     10  O20 ZIN A   1      16.226  -0.060  11.342  0.00  0.00    -0.271 OA
ENDROOT
BRANCH   1  11
ATOM     11  C3  ZIN A   1      17.780   1.265  13.416  0.00  0.00     0.057 C 
BRANCH  11  12
ATOM     12  C2  ZIN A   1      17.952   2.564  12.671  0.00  0.00    -0.035 C 
ATOM     13  C1  ZIN A   1      18.519   3.587  13.261  0.00  0.00     0.007 C 
ENDBRANCH  11  12
ENDBRANCH   1  11
BRANCH   1  14
ATOM     14  C5  ZIN A   1      18.045  -1.194  13.313  0.00  0.00     0.088 C 
ATOM     15  C7  ZIN A   1      18.575  -1.047  14.741  0.00  0.00     0.025 C 
BRANCH  14  16
ATOM     16  C8  ZIN A   1      18.753  -2.294  12.638  0.00  0.00    -0.100 C 
ATOM     17  C9  ZIN A   1      19.318  -3.171  12.098  0.00  0.00    -0.106 C 
BRANCH  17  18
ATOM     18  C10 ZIN A   1      20.026  -4.270  11.422  0.00  0.00     0.089 C 
ATOM     19  C11 ZIN A   1      19.268  -4.661  10.152  0.00  0.00     0.018 C 
ENDBRANCH  17  18
ENDBRANCH  14  16
ENDBRANCH   1  14
TORSDOF 5
ENDMDL
MODEL 5
REMARK VINA RESULT:      -5.9      1.591      2.654
REMARK  5 active torsions:
REMARK  status: ('A' for Active; 'I' for Inactive)
REMARK    1  A    between atoms: C2_2  and  C3_3 
REMARK    2  A    between atoms: C3_3  and  C4_4 
REMARK    3  A    between atoms: C4_4  and  C5_5 
REMARK    4  A    between atoms: C5_5  and  C8_7 
REMARK    5  A    between atoms: C9_8  and  C10_9 
ROOT
ATOM      1  C4  ZIN A   1      18.465  -0.095  11.200  0.00  0.00     0.141 A 
ATOM      2  C12 ZIN A   1      17.086  -0.610  11.567  0.00  0.00     0.267 A 
ATOM      3  O13 ZIN A   1      16.130   0.135  11.618  0.00  0.00    -0.270 OA
ATOM      4  N14 ZIN A   1      16.962  -1.927  11.833  0.00  0.00    -0.157 NA
ATOM      5  C15 ZIN A   1      18.006  -2.762  11.780  0.00  0.00     0.353 A 
ATOM      6  O16 ZIN A   1      17.804  -3.932  12.034  0.00  0.00    -0.244 OA
ATOM      7  N17 ZIN A   1      19.256  -2.402  11.467  0.00  0.00    -0.272 N 
ATOM      8  C18 ZIN A   1      20.307  -3.423  11.447  0.00  0.00     0.164 C 
ATOM      9  C19 ZIN A   1      19.578  -1.125  11.169  0.00  0.00     0.247 A 
ATOM     10  O20 ZIN A   1      20.716  -0.813  10.888  0.00  0.00    -0.271 OA
ENDROOT
BRANCH   1  11
ATOM     11  C3  ZIN A   1      18.850   0.993  12.204  0.00  0.00     0.057 C 
BRANCH  11  12
ATOM     12  C2  ZIN A   1      18.957   0.390  13.581  0.00  0.00    -0.035 C 
ATOM     13  C1  ZIN A   1      19.279   1.144  14.603  0.00  0.00     0.007 C 
ENDBRANCH  11  12
ENDBRANCH   1  11
BRANCH   1  14
ATOM     14  C5  ZIN A   1      18.375   0.550   9.816  0.00  0.00     0.088 C 
ATOM     15  C7  ZIN A   1      19.670   0.288   9.045  0.00  0.00     0.025 C 
BRANCH  14  16
ATOM     16  C8  ZIN A   1      18.175   2.001   9.962  0.00  0.00    -0.100 C 
ATOM     17  C9  ZIN A   1      18.016   3.159  10.077  0.00  0.00    -0.106 C 
BRANCH  17  18
ATOM     18  C10 ZIN A   1      17.815   4.610  10.223  0.00  0.00     0.089 C 
ATOM     19  C11 ZIN A   1      16.685   4.871  11.219  0.00  0.00     0.018 C 
ENDBRANCH  17  18
ENDBRANCH  14  16
ENDBRANCH   1  14
TORSDOF 5
ENDMDL
MODEL 6
REMARK VINA RESULT:      -5.9      1.885      3.823
REMARK  5 active torsions:
REMARK  status: ('A' for Active; 'I' for Inactive)
REMARK    1  A    between atoms: C2_2  and  C3_3 
REMARK    2  A    between atoms: C3_3  and  C4_4 
REMARK    3  A    between atoms: C4_4  and  C5_5 
REMARK    4  A    between atoms: C5_5  and  C8_7 
REMARK    5  A    between atoms: C9_8  and  C10_9 
ROOT
ATOM      1  C4  ZIN A   1      18.426  -0.838  12.166  0.00  0.00     0.141 A 
ATOM      2  C12 ZIN A   1      19.789  -0.750  11.506  0.00  0.00     0.267 A 
ATOM      3  O13 ZIN A   1      20.347  -1.740  11.081  0.00  0.00    -0.270 OA
ATOM      4  N14 ZIN A   1      20.358   0.470  11.408  0.00  0.00    -0.157 NA
ATOM      5  C15 ZIN A   1      19.756   1.571  11.871  0.00  0.00     0.353 A 
ATOM      6  O16 ZIN A   1      20.340   2.628  11.741  0.00  0.00    -0.244 OA
ATOM      7  N17 ZIN A   1      18.558   1.594  12.465  0.00  0.00    -0.272 N 
ATOM      8  C18 ZIN A   1      18.016   2.875  12.926  0.00  0.00     0.164 C 
ATOM      9  C19 ZIN A   1      17.834   0.470  12.655  0.00  0.00     0.247 A 
ATOM     10  O20 ZIN A   1      16.749   0.505  13.196  0.00  0.00    -0.271 OA
ENDROOT
BRANCH   1  11
ATOM     11  C3  ZIN A   1      18.535  -1.787  13.361  0.00  0.00     0.057 C 
BRANCH  11  12
ATOM     12  C2  ZIN A   1      19.415  -1.168  14.416  0.00  0.00    -0.035 C 
ATOM     13  C1  ZIN A   1      19.103  -1.289  15.683  0.00  0.00     0.007 C 
ENDBRANCH  11  12
ENDBRANCH   1  11
BRANCH   1  14
ATOM     14  C5  ZIN A   1      17.453  -1.454  11.159  0.00  0.00     0.088 C 
ATOM     15  C7  ZIN A   1      17.720  -2.956  11.044  0.00  0.00     0.025 C 
BRANCH  14  16
ATOM     16  C8  ZIN A   1      17.640  -0.819   9.844  0.00  0.00    -0.100 C 
ATOM     17  C9  ZIN A   1      17.791  -0.313   8.795  0.00  0.00    -0.106 C 
BRANCH  17  18
ATOM     18  C10 ZIN A   1      17.978   0.321   7.480  0.00  0.00     0.089 C 
ATOM     19  C11 ZIN A   1      19.073   1.384   7.578  0.00  0.00     0.018 C 
ENDBRANCH  17  18
ENDBRANCH  14  16
ENDBRANCH   1  14
TORSDOF 5
ENDMDL
MODEL 7
REMARK VINA RESULT:      -5.9      1.638      3.523
REMARK  5 active torsions:
REMARK  status: ('A' for Active; 'I' for Inactive)
REMARK    1  A    between atoms: C2_2  and  C3_3 
REMARK    2  A    between atoms: C3_3  and  C4_4 
REMARK    3  A    between atoms: C4_4  and  C5_5 
REMARK    4  A    between atoms: C5_5  and  C8_7 
REMARK    5  A    between atoms: C9_8  and  C10_9 
ROOT
ATOM      1  C4  ZIN A   1      18.818   0.821  10.637  0.00  0.00     0.141 A 
ATOM      2  C12 ZIN A   1      20.052   0.112  11.162  0.00  0.00     0.267 A 
ATOM      3  O13 ZIN A   1      20.763  -0.539  10.427  0.00  0.00    -0.270 OA
ATOM      4  N14 ZIN A   1      20.329   0.233  12.478  0.00  0.00    -0.157 NA
ATOM      5  C15 ZIN A   1      19.555   0.948  13.302  0.00  0.00     0.353 A 
ATOM      6  O16 ZIN A   1      19.880   1.004  14.471  0.00  0.00    -0.244 OA
ATOM      7  N17 ZIN A   1      18.451   1.606  12.933  0.00  0.00    -0.272 N 
ATOM      8  C18 ZIN A   1      17.696   2.352  13.943  0.00  0.00     0.164 C 
ATOM      9  C19 ZIN A   1      18.011   1.603  11.657  0.00  0.00     0.247 A 
ATOM     10  O20 ZIN A   1      17.007   2.204  11.336  0.00  0.00    -0.271 OA
ENDROOT
BRANCH   1  11
ATOM     11  C3  ZIN A   1      17.899  -0.227  10.006  0.00  0.00     0.057 C 
BRANCH  11  12
ATOM     12  C2  ZIN A   1      17.376  -1.148  11.077  0.00  0.00    -0.035 C 
ATOM     13  C1  ZIN A   1      17.596  -2.438  10.996  0.00  0.00     0.007 C 
ENDBRANCH  11  12
ENDBRANCH   1  11
BRANCH   1  14
ATOM     14  C5  ZIN A   1      19.260   1.787   9.538  0.00  0.00     0.088 C 
ATOM     15  C7  ZIN A   1      18.624   3.158   9.776  0.00  0.00     0.025 C 
BRANCH  14  16
ATOM     16  C8  ZIN A   1      18.834   1.269   8.228  0.00  0.00    -0.100 C 
ATOM     17  C9  ZIN A   1      18.493   0.855   7.183  0.00  0.00    -0.106 C 
BRANCH  17  18
ATOM     18  C10 ZIN A   1      18.066   0.337   5.873  0.00  0.00     0.089 C 
ATOM     19  C11 ZIN A   1      19.292   0.136   4.980  0.00  0.00     0.018 C 
ENDBRANCH  17  18
ENDBRANCH  14  16
ENDBRANCH   1  14
TORSDOF 5
ENDMDL
MODEL 8
REMARK VINA RESULT:      -5.9      1.744      2.842
REMARK  5 active torsions:
REMARK  status: ('A' for Active; 'I' for Inactive)
REMARK    1  A    between atoms: C2_2  and  C3_3 
REMARK    2  A    between atoms: C3_3  and  C4_4 
REMARK    3  A    between atoms: C4_4  and  C5_5 
REMARK    4  A    between atoms: C5_5  and  C8_7 
REMARK    5  A    between atoms: C9_8  and  C10_9 
ROOT
ATOM      1  C4  ZIN A   1      17.860   0.457  10.581  0.00  0.00     0.141 A 
ATOM      2  C12 ZIN A   1      16.879   0.145  11.695  0.00  0.00     0.267 A 
ATOM      3  O13 ZIN A   1      15.686   0.081  11.482  0.00  0.00    -0.270 OA
ATOM      4  N14 ZIN A   1      17.382  -0.058  12.931  0.00  0.00    -0.157 NA
ATOM      5  C15 ZIN A   1      18.694   0.008  13.181  0.00  0.00     0.353 A 
ATOM      6  O16 ZIN A   1      19.059  -0.190  14.323  0.00  0.00    -0.244 OA
ATOM      7  N17 ZIN A   1      19.633   0.275  12.267  0.00  0.00    -0.272 N 
ATOM      8  C18 ZIN A   1      21.038   0.317  12.681  0.00  0.00     0.164 C 
ATOM      9  C19 ZIN A   1      19.325   0.508  10.974  0.00  0.00     0.247 A 
ATOM     10  O20 ZIN A   1      20.186   0.750  10.155  0.00  0.00    -0.271 OA
ENDROOT
BRANCH   1  11
ATOM     11  C3  ZIN A   1      17.482   1.811   9.977  0.00  0.00     0.057 C 
BRANCH  11  12
ATOM     12  C2  ZIN A   1      17.776   2.904  10.971  0.00  0.00    -0.035 C 
ATOM     13  C1  ZIN A   1      17.351   4.123  10.748  0.00  0.00     0.007 C 
ENDBRANCH  11  12
ENDBRANCH   1  11
BRANCH   1  14
ATOM     14  C5  ZIN A   1      17.696  -0.608   9.496  0.00  0.00     0.088 C 
ATOM     15  C7  ZIN A   1      18.506  -1.850   9.871  0.00  0.00     0.025 C 
BRANCH  14  16
ATOM     16  C8  ZIN A   1      18.178  -0.078   8.210  0.00  0.00    -0.100 C 
ATOM     17  C9  ZIN A   1      18.564   0.346   7.185  0.00  0.00    -0.106 C 
BRANCH  17  18
ATOM     18  C10 ZIN A   1      19.046   0.877   5.899  0.00  0.00     0.089 C 
ATOM     19  C11 ZIN A   1      19.242  -0.275   4.913  0.00  0.00     0.018 C 
ENDBRANCH  17  18
ENDBRANCH  14  16
ENDBRANCH   1  14
TORSDOF 5
ENDMDL
MODEL 9
REMARK VINA RESULT:      -5.8      1.875      3.916
REMARK  5 active torsions:
REMARK  status: ('A' for Active; 'I' for Inactive)
REMARK    1  A    between atoms: C2_2  and  C3_3 
REMARK    2  A    between atoms: C3_3  and  C4_4 
REMARK    3  A    between atoms: C4_4  and  C5_5 
REMARK    4  A    between atoms: C5_5  and  C8_7 
REMARK    5  A    between atoms: C9_8  and  C10_9 
ROOT
ATOM      1  C4  ZIN A   1      18.734   1.194  10.634  0.00  0.00     0.141 A 
ATOM      2  C12 ZIN A   1      17.399   0.480  10.731  0.00  0.00     0.267 A 
ATOM      3  O13 ZIN A   1      16.806   0.119   9.737  0.00  0.00    -0.270 OA
ATOM      4  N14 ZIN A   1      16.896   0.261  11.965  0.00  0.00    -0.157 NA
ATOM      5  C15 ZIN A   1      17.539   0.652  13.071  0.00  0.00     0.353 A 
ATOM      6  O16 ZIN A   1      17.013   0.414  14.140  0.00  0.00    -0.244 OA
ATOM      7  N17 ZIN A   1      18.716   1.286  13.086  0.00  0.00    -0.272 N 
ATOM      8  C18 ZIN A   1      19.308   1.657  14.375  0.00  0.00     0.164 C 
ATOM      9  C19 ZIN A   1      19.376   1.594  11.950  0.00  0.00     0.247 A 
ATOM     10  O20 ZIN A   1      20.444   2.169  11.978  0.00  0.00    -0.271 OA
ENDROOT
BRANCH   1  11
ATOM     11  C3  ZIN A   1      18.539   2.458   9.796  0.00  0.00     0.057 C 
BRANCH  11  12
ATOM     12  C2  ZIN A   1      17.630   3.411  10.529  0.00  0.00    -0.035 C 
ATOM     13  C1  ZIN A   1      17.607   4.679  10.199  0.00  0.00     0.007 C 
ENDBRANCH  11  12
ENDBRANCH   1  11
BRANCH   1  14
ATOM     14  C5  ZIN A   1      19.706   0.277   9.890  0.00  0.00     0.088 C 
ATOM     15  C7  ZIN A   1      19.228   0.087   8.450  0.00  0.00     0.025 C 
BRANCH  14  16
ATOM     16  C8  ZIN A   1      19.764  -1.029  10.565  0.00  0.00    -0.100 C 
ATOM     17  C9  ZIN A   1      19.810  -2.072  11.105  0.00  0.00    -0.106 C 
BRANCH  17  18
ATOM     18  C10 ZIN A   1      19.868  -3.378  11.780  0.00  0.00     0.089 C 
ATOM     19  C11 ZIN A   1      19.789  -4.495  10.738  0.00  0.00     0.018 C 
ENDBRANCH  17  18
ENDBRANCH  14  16
ENDBRANCH   1  14
TORSDOF 5
ENDMDL
