MODEL 1
REMARK VINA RESULT:      -8.2      0.000      0.000
REMARK  5 active torsions:
REMARK  status: ('A' for Active; 'I' for Inactive)
REMARK    1  A    between atoms: O2_2  and  C3_3 
REMARK    2  A    between atoms: C4_4  and  O5_5 
REMARK    3  A    between atoms: C9_9  and  N10_10 
REMARK    4  A    between atoms: C12_12  and  N13_13 
REMARK       I    between atoms: N16_16  and  C17_17 
REMARK    5  A    between atoms: C17_17  and  C19_19 
ROOT
ATOM      1  C3  ZIN A   1      18.315   0.170  16.243  0.00  0.00     0.103 A 
ATOM      2  C4  ZIN A   1      19.110   1.268  15.889  0.00  0.00     0.102 A 
ATOM      3  C7  ZIN A   1      19.679   1.347  14.650  0.00  0.00     0.057 A 
ATOM      4  C8  ZIN A   1      19.467   0.322  13.722  0.00  0.00     0.041 A 
ATOM      5  C9  ZIN A   1      20.036   0.356  12.425  0.00  0.00     0.137 A 
ATOM      6  N11 ZIN A   1      19.791  -0.652  11.601  0.00  0.00    -0.200 NA
ATOM      7  C12 ZIN A   1      19.031  -1.680  11.971  0.00  0.00     0.206 A 
ATOM      8  N26 ZIN A   1      18.477  -1.765  13.166  0.00  0.00    -0.217 NA
ATOM      9  C27 ZIN A   1      18.665  -0.793  14.072  0.00  0.00     0.077 A 
ATOM     10  C28 ZIN A   1      18.096  -0.856  15.350  0.00  0.00     0.072 A 
ENDROOT
BRANCH   7  11
ATOM     11  N13 ZIN A   1      18.812  -2.703  11.065  0.00  0.00    -0.248 NA
ATOM     12  C25 ZIN A   1      18.546  -2.169   9.722  0.00  0.00     0.118 C 
ATOM     13  C24 ZIN A   1      18.134  -3.315   8.793  0.00  0.00     0.141 C 
ATOM     14  N16 ZIN A   1      19.166  -4.360   8.853  0.00  0.00    -0.344 N 
ATOM     15  C15 ZIN A   1      19.585  -4.850  10.176  0.00  0.00     0.141 C 
ATOM     16  C17 ZIN A   1      19.714  -4.857   7.727  0.00  0.00     0.277 C 
ATOM     17  C14 ZIN A   1      19.941  -3.643  11.050  0.00  0.00     0.118 C 
ATOM     18  O18 ZIN A   1      20.652  -5.629   7.796  0.00  0.00    -0.265 OA
BRANCH  16  19
ATOM     19  C19 ZIN A   1      19.181  -4.466   6.417  0.00  0.00     0.142 A 
ATOM     20  O23 ZIN A   1      19.531  -3.369   5.715  0.00  0.00    -0.317 OA
ATOM     21  C22 ZIN A   1      18.841  -3.338   4.567  0.00  0.00     0.143 A 
ATOM     22  C21 ZIN A   1      18.029  -4.418   4.518  0.00  0.00     0.027 A 
ATOM     23  C20 ZIN A   1      18.239  -5.145   5.699  0.00  0.00     0.045 A 
ENDBRANCH  16  19
ENDBRANCH   7  11
BRANCH   5  24
ATOM     24  N10 ZIN A   1      20.826   1.416  12.029  0.00  0.00    -0.383 N 
ATOM     25  H36 ZIN A   1      21.568   1.702  12.584  0.00  0.00     0.157 HD
ATOM     26  H37 ZIN A   1      20.639   1.874  11.195  0.00  0.00     0.157 HD
ENDBRANCH   5  24
BRANCH   1  27
ATOM     27  O2  ZIN A   1      17.761   0.112  17.481  0.00  0.00    -0.353 OA
ATOM     28  C1  ZIN A   1      18.622  -0.251  18.562  0.00  0.00     0.210 C 
ENDBRANCH   1  27
BRANCH   2  29
ATOM     29  O5  ZIN A   1      19.317   2.267  16.790  0.00  0.00    -0.353 OA
ATOM     30  C6  ZIN A   1      19.396   3.598  16.275  0.00  0.00     0.210 C 
ENDBRANCH   2  29
TORSDOF 5
ENDMDL
MODEL 2
REMARK VINA RESULT:      -8.2      2.411      3.002
REMARK  5 active torsions:
REMARK  status: ('A' for Active; 'I' for Inactive)
REMARK    1  A    between atoms: O2_2  and  C3_3 
REMARK    2  A    between atoms: C4_4  and  O5_5 
REMARK    3  A    between atoms: C9_9  and  N10_10 
REMARK    4  A    between atoms: C12_12  and  N13_13 
REMARK       I    between atoms: N16_16  and  C17_17 
REMARK    5  A    between atoms: C17_17  and  C19_19 
ROOT
ATOM      1  C3  ZIN A   1      19.116   1.823  16.435  0.00  0.00     0.103 A 
ATOM      2  C4  ZIN A   1      18.837   3.189  16.294  0.00  0.00     0.102 A 
ATOM      3  C7  ZIN A   1      18.351   3.683  15.117  0.00  0.00     0.057 A 
ATOM      4  C8  ZIN A   1      18.128   2.818  14.040  0.00  0.00     0.041 A 
ATOM      5  C9  ZIN A   1      17.626   3.281  12.798  0.00  0.00     0.137 A 
ATOM      6  N11 ZIN A   1      17.443   2.402  11.825  0.00  0.00    -0.200 NA
ATOM      7  C12 ZIN A   1      17.719   1.112  11.995  0.00  0.00     0.206 A 
ATOM      8  N26 ZIN A   1      18.188   0.625  13.128  0.00  0.00    -0.217 NA
ATOM      9  C27 ZIN A   1      18.409   1.436  14.175  0.00  0.00     0.077 A 
ATOM     10  C28 ZIN A   1      18.912   0.951  15.388  0.00  0.00     0.072 A 
ENDROOT
BRANCH   7  11
ATOM     11  N13 ZIN A   1      17.505   0.243  10.938  0.00  0.00    -0.248 NA
ATOM     12  C25 ZIN A   1      17.777   0.902   9.653  0.00  0.00     0.118 C 
ATOM     13  C24 ZIN A   1      17.358  -0.028   8.509  0.00  0.00     0.141 C 
ATOM     14  N16 ZIN A   1      18.023  -1.326   8.695  0.00  0.00    -0.344 N 
ATOM     15  C15 ZIN A   1      17.909  -1.985  10.006  0.00  0.00     0.141 C 
ATOM     16  C17 ZIN A   1      18.716  -1.899   7.691  0.00  0.00     0.277 C 
ATOM     17  C14 ZIN A   1      18.306  -0.978  11.091  0.00  0.00     0.118 C 
ATOM     18  O18 ZIN A   1      19.362  -2.910   7.897  0.00  0.00    -0.265 OA
BRANCH  16  19
ATOM     19  C19 ZIN A   1      18.694  -1.303   6.351  0.00  0.00     0.142 A 
ATOM     20  O23 ZIN A   1      19.422  -0.244   5.943  0.00  0.00    -0.317 OA
ATOM     21  C22 ZIN A   1      19.144   0.018   4.660  0.00  0.00     0.143 A 
ATOM     22  C21 ZIN A   1      18.222  -0.870   4.224  0.00  0.00     0.027 A 
ATOM     23  C20 ZIN A   1      17.928  -1.720   5.301  0.00  0.00     0.045 A 
ENDBRANCH  16  19
ENDBRANCH   7  11
BRANCH   5  24
ATOM     24  N10 ZIN A   1      17.336   4.617  12.609  0.00  0.00    -0.383 N 
ATOM     25  H36 ZIN A   1      16.588   4.877  12.051  0.00  0.00     0.157 HD
ATOM     26  H37 ZIN A   1      17.882   5.296  13.037  0.00  0.00     0.157 HD
ENDBRANCH   5  24
BRANCH   1  27
ATOM     27  O2  ZIN A   1      19.600   1.355  17.615  0.00  0.00    -0.353 OA
ATOM     28  C1  ZIN A   1      19.226   0.027  17.989  0.00  0.00     0.210 C 
ENDBRANCH   1  27
BRANCH   2  29
ATOM     29  O5  ZIN A   1      19.052   4.032  17.340  0.00  0.00    -0.353 OA
ATOM     30  C6  ZIN A   1      18.058   5.030  17.583  0.00  0.00     0.210 C 
ENDBRANCH   2  29
TORSDOF 5
ENDMDL
MODEL 3
REMARK VINA RESULT:      -8.1      2.486      9.963
REMARK  5 active torsions:
REMARK  status: ('A' for Active; 'I' for Inactive)
REMARK    1  A    between atoms: O2_2  and  C3_3 
REMARK    2  A    between atoms: C4_4  and  O5_5 
REMARK    3  A    between atoms: C9_9  and  N10_10 
REMARK    4  A    between atoms: C12_12  and  N13_13 
REMARK       I    between atoms: N16_16  and  C17_17 
REMARK    5  A    between atoms: C17_17  and  C19_19 
ROOT
ATOM      1  C3  ZIN A   1      18.500  -0.466   6.730  0.00  0.00     0.103 A 
ATOM      2  C4  ZIN A   1      19.287  -1.565   7.098  0.00  0.00     0.102 A 
ATOM      3  C7  ZIN A   1      19.779  -1.677   8.367  0.00  0.00     0.057 A 
ATOM      4  C8  ZIN A   1      19.494  -0.685   9.313  0.00  0.00     0.041 A 
ATOM      5  C9  ZIN A   1      19.981  -0.754  10.641  0.00  0.00     0.137 A 
ATOM      6  N11 ZIN A   1      19.669   0.224  11.479  0.00  0.00    -0.200 NA
ATOM      7  C12 ZIN A   1      18.919   1.253  11.094  0.00  0.00     0.206 A 
ATOM      8  N26 ZIN A   1      18.439   1.369   9.871  0.00  0.00    -0.217 NA
ATOM      9  C27 ZIN A   1      18.698   0.430   8.948  0.00  0.00     0.077 A 
ATOM     10  C28 ZIN A   1      18.209   0.527   7.639  0.00  0.00     0.072 A 
ENDROOT
BRANCH   7  11
ATOM     11  N13 ZIN A   1      18.628   2.243  12.017  0.00  0.00    -0.248 NA
ATOM     12  C25 ZIN A   1      18.539   1.687  13.374  0.00  0.00     0.118 C 
ATOM     13  C24 ZIN A   1      18.042   2.773  14.335  0.00  0.00     0.141 C 
ATOM     14  N16 ZIN A   1      18.913   3.950  14.200  0.00  0.00    -0.344 N 
ATOM     15  C15 ZIN A   1      19.160   4.483  12.851  0.00  0.00     0.141 C 
ATOM     16  C17 ZIN A   1      19.468   4.527  15.284  0.00  0.00     0.277 C 
ATOM     17  C14 ZIN A   1      19.614   3.330  11.950  0.00  0.00     0.118 C 
ATOM     18  O18 ZIN A   1      20.283   5.421  15.148  0.00  0.00    -0.265 OA
BRANCH  16  19
ATOM     19  C19 ZIN A   1      19.093   4.076  16.629  0.00  0.00     0.142 A 
ATOM     20  O23 ZIN A   1      19.681   3.081  17.324  0.00  0.00    -0.317 OA
ATOM     21  C22 ZIN A   1      19.076   2.951  18.511  0.00  0.00     0.143 A 
ATOM     22  C21 ZIN A   1      18.080   3.861  18.594  0.00  0.00     0.027 A 
ATOM     23  C20 ZIN A   1      18.083   4.586  17.393  0.00  0.00     0.045 A 
ENDBRANCH  16  19
ENDBRANCH   7  11
BRANCH   5  24
ATOM     24  N10 ZIN A   1      20.761  -1.816  11.052  0.00  0.00    -0.383 N 
ATOM     25  H36 ZIN A   1      20.722  -2.660  10.576  0.00  0.00     0.157 HD
ATOM     26  H37 ZIN A   1      21.348  -1.717  11.817  0.00  0.00     0.157 HD
ENDBRANCH   5  24
BRANCH   1  27
ATOM     27  O2  ZIN A   1      18.023  -0.376   5.461  0.00  0.00    -0.353 OA
ATOM     28  C1  ZIN A   1      18.916   0.128   4.466  0.00  0.00     0.210 C 
ENDBRANCH   1  27
BRANCH   2  29
ATOM     29  O5  ZIN A   1      19.565  -2.531   6.181  0.00  0.00    -0.353 OA
ATOM     30  C6  ZIN A   1      19.671  -3.872   6.664  0.00  0.00     0.210 C 
ENDBRANCH   2  29
TORSDOF 5
ENDMDL
MODEL 4
REMARK VINA RESULT:      -8.0      2.117      3.238
REMARK  5 active torsions:
REMARK  status: ('A' for Active; 'I' for Inactive)
REMARK    1  A    between atoms: O2_2  and  C3_3 
REMARK    2  A    between atoms: C4_4  and  O5_5 
REMARK    3  A    between atoms: C9_9  and  N10_10 
REMARK    4  A    between atoms: C12_12  and  N13_13 
REMARK       I    between atoms: N16_16  and  C17_17 
REMARK    5  A    between atoms: C17_17  and  C19_19 
ROOT
ATOM      1  C3  ZIN A   1      18.935   3.597  14.985  0.00  0.00     0.103 A 
ATOM      2  C4  ZIN A   1      19.278   2.779  16.069  0.00  0.00     0.102 A 
ATOM      3  C7  ZIN A   1      19.252   1.418  15.951  0.00  0.00     0.057 A 
ATOM      4  C8  ZIN A   1      18.879   0.833  14.735  0.00  0.00     0.041 A 
ATOM      5  C9  ZIN A   1      18.834  -0.572  14.563  0.00  0.00     0.137 A 
ATOM      6  N11 ZIN A   1      18.471  -1.051  13.383  0.00  0.00    -0.200 NA
ATOM      7  C12 ZIN A   1      18.151  -0.244  12.375  0.00  0.00     0.206 A 
ATOM      8  N26 ZIN A   1      18.174   1.072  12.479  0.00  0.00    -0.217 NA
ATOM      9  C27 ZIN A   1      18.530   1.655  13.635  0.00  0.00     0.077 A 
ATOM     10  C28 ZIN A   1      18.558   3.047  13.779  0.00  0.00     0.072 A 
ENDROOT
BRANCH   7  11
ATOM     11  N13 ZIN A   1      17.779  -0.806  11.166  0.00  0.00    -0.248 NA
ATOM     12  C25 ZIN A   1      18.154   0.064  10.044  0.00  0.00     0.118 C 
ATOM     13  C24 ZIN A   1      17.569  -0.502   8.746  0.00  0.00     0.141 C 
ATOM     14  N16 ZIN A   1      17.993  -1.904   8.615  0.00  0.00    -0.344 N 
ATOM     15  C15 ZIN A   1      17.773  -2.807   9.755  0.00  0.00     0.141 C 
ATOM     16  C17 ZIN A   1      18.566  -2.350   7.479  0.00  0.00     0.277 C 
ATOM     17  C14 ZIN A   1      18.351  -2.150  11.013  0.00  0.00     0.118 C 
ATOM     18  O18 ZIN A   1      19.023  -3.477   7.431  0.00  0.00    -0.265 OA
BRANCH  16  19
ATOM     19  C19 ZIN A   1      18.640  -1.477   6.303  0.00  0.00     0.142 A 
ATOM     20  O23 ZIN A   1      19.449  -0.407   6.161  0.00  0.00    -0.317 OA
ATOM     21  C22 ZIN A   1      19.245   0.147   4.958  0.00  0.00     0.143 A 
ATOM     22  C21 ZIN A   1      18.292  -0.559   4.310  0.00  0.00     0.027 A 
ATOM     23  C20 ZIN A   1      17.899  -1.601   5.164  0.00  0.00     0.045 A 
ENDBRANCH  16  19
ENDBRANCH   7  11
BRANCH   5  24
ATOM     24  N10 ZIN A   1      19.163  -1.421  15.601  0.00  0.00    -0.383 N 
ATOM     25  H36 ZIN A   1      20.054  -1.399  15.982  0.00  0.00     0.157 HD
ATOM     26  H37 ZIN A   1      18.501  -2.038  15.948  0.00  0.00     0.157 HD
ENDBRANCH   5  24
BRANCH   1  27
ATOM     27  O2  ZIN A   1      18.967   4.948  15.126  0.00  0.00    -0.353 OA
ATOM     28  C1  ZIN A   1      19.982   5.652  14.408  0.00  0.00     0.210 C 
ENDBRANCH   1  27
BRANCH   2  29
ATOM     29  O5  ZIN A   1      19.642   3.345  17.251  0.00  0.00    -0.353 OA
ATOM     30  C6  ZIN A   1      18.882   2.980  18.406  0.00  0.00     0.210 C 
ENDBRANCH   2  29
TORSDOF 5
ENDMDL
MODEL 5
REMARK VINA RESULT:      -7.9      2.130      9.220
REMARK  5 active torsions:
REMARK  status: ('A' for Active; 'I' for Inactive)
REMARK    1  A    between atoms: O2_2  and  C3_3 
REMARK    2  A    between atoms: C4_4  and  O5_5 
REMARK    3  A    between atoms: C9_9  and  N10_10 
REMARK    4  A    between atoms: C12_12  and  N13_13 
REMARK       I    between atoms: N16_16  and  C17_17 
REMARK    5  A    between atoms: C17_17  and  C19_19 
ROOT
ATOM      1  C3  ZIN A   1      19.173  -3.375   8.172  0.00  0.00     0.103 A 
ATOM      2  C4  ZIN A   1      19.392  -2.566   7.049  0.00  0.00     0.102 A 
ATOM      3  C7  ZIN A   1      19.274  -1.207   7.134  0.00  0.00     0.057 A 
ATOM      4  C8  ZIN A   1      18.931  -0.616   8.356  0.00  0.00     0.041 A 
ATOM      5  C9  ZIN A   1      18.795   0.787   8.496  0.00  0.00     0.137 A 
ATOM      6  N11 ZIN A   1      18.468   1.274   9.684  0.00  0.00    -0.200 NA
ATOM      7  C12 ZIN A   1      18.267   0.475  10.728  0.00  0.00     0.206 A 
ATOM      8  N26 ZIN A   1      18.379  -0.838  10.656  0.00  0.00    -0.217 NA
ATOM      9  C27 ZIN A   1      18.708  -1.428   9.495  0.00  0.00     0.077 A 
ATOM     10  C28 ZIN A   1      18.829  -2.818   9.384  0.00  0.00     0.072 A 
ENDROOT
BRANCH   7  11
ATOM     11  N13 ZIN A   1      17.926   1.044  11.943  0.00  0.00    -0.248 NA
ATOM     12  C25 ZIN A   1      18.151   0.101  13.047  0.00  0.00     0.118 C 
ATOM     13  C24 ZIN A   1      17.596   0.698  14.345  0.00  0.00     0.141 C 
ATOM     14  N16 ZIN A   1      18.188   2.031  14.536  0.00  0.00    -0.344 N 
ATOM     15  C15 ZIN A   1      18.122   2.988  13.420  0.00  0.00     0.141 C 
ATOM     16  C17 ZIN A   1      18.772   2.368  15.702  0.00  0.00     0.277 C 
ATOM     17  C14 ZIN A   1      18.656   2.300  12.159  0.00  0.00     0.118 C 
ATOM     18  O18 ZIN A   1      19.365   3.426  15.802  0.00  0.00    -0.265 OA
BRANCH  16  19
ATOM     19  C19 ZIN A   1      18.696   1.459  16.851  0.00  0.00     0.142 A 
ATOM     20  O23 ZIN A   1      19.502   0.401  17.078  0.00  0.00    -0.317 OA
ATOM     21  C22 ZIN A   1      19.139  -0.195  18.221  0.00  0.00     0.143 A 
ATOM     22  C21 ZIN A   1      18.085   0.470  18.744  0.00  0.00     0.027 A 
ATOM     23  C20 ZIN A   1      17.794   1.530  17.872  0.00  0.00     0.045 A 
ENDBRANCH  16  19
ENDBRANCH   7  11
BRANCH   5  24
ATOM     24  N10 ZIN A   1      19.000   1.627   7.420  0.00  0.00    -0.383 N 
ATOM     25  H36 ZIN A   1      18.662   2.535   7.441  0.00  0.00     0.157 HD
ATOM     26  H37 ZIN A   1      19.483   1.307   6.642  0.00  0.00     0.157 HD
ENDBRANCH   5  24
BRANCH   1  27
ATOM     27  O2  ZIN A   1      19.295  -4.723   8.062  0.00  0.00    -0.353 OA
ATOM     28  C1  ZIN A   1      19.852  -5.418   9.179  0.00  0.00     0.210 C 
ENDBRANCH   1  27
BRANCH   2  29
ATOM     29  O5  ZIN A   1      19.726  -3.138   5.861  0.00  0.00    -0.353 OA
ATOM     30  C6  ZIN A   1      18.708  -3.191   4.858  0.00  0.00     0.210 C 
ENDBRANCH   2  29
TORSDOF 5
ENDMDL
MODEL 6
REMARK VINA RESULT:      -7.9      3.520      9.484
REMARK  5 active torsions:
REMARK  status: ('A' for Active; 'I' for Inactive)
REMARK    1  A    between atoms: O2_2  and  C3_3 
REMARK    2  A    between atoms: C4_4  and  O5_5 
REMARK    3  A    between atoms: C9_9  and  N10_10 
REMARK    4  A    between atoms: C12_12  and  N13_13 
REMARK       I    between atoms: N16_16  and  C17_17 
REMARK    5  A    between atoms: C17_17  and  C19_19 
ROOT
ATOM      1  C3  ZIN A   1      18.727  -2.635   9.663  0.00  0.00     0.103 A 
ATOM      2  C4  ZIN A   1      18.793  -2.578   8.264  0.00  0.00     0.102 A 
ATOM      3  C7  ZIN A   1      18.882  -1.378   7.618  0.00  0.00     0.057 A 
ATOM      4  C8  ZIN A   1      18.910  -0.191   8.360  0.00  0.00     0.041 A 
ATOM      5  C9  ZIN A   1      19.001   1.078   7.737  0.00  0.00     0.137 A 
ATOM      6  N11 ZIN A   1      19.020   2.157   8.505  0.00  0.00    -0.200 NA
ATOM      7  C12 ZIN A   1      18.956   2.066   9.831  0.00  0.00     0.206 A 
ATOM      8  N26 ZIN A   1      18.870   0.911  10.464  0.00  0.00    -0.217 NA
ATOM      9  C27 ZIN A   1      18.843  -0.240   9.774  0.00  0.00     0.077 A 
ATOM     10  C28 ZIN A   1      18.746  -1.481  10.416  0.00  0.00     0.072 A 
ENDROOT
BRANCH   7  11
ATOM     11  N13 ZIN A   1      18.981   3.231  10.579  0.00  0.00    -0.248 NA
ATOM     12  C25 ZIN A   1      17.641   3.558  11.086  0.00  0.00     0.118 C 
ATOM     13  C24 ZIN A   1      17.675   4.939  11.750  0.00  0.00     0.141 C 
ATOM     14  N16 ZIN A   1      18.742   4.944  12.762  0.00  0.00    -0.344 N 
ATOM     15  C15 ZIN A   1      20.084   4.496  12.361  0.00  0.00     0.141 C 
ATOM     16  C17 ZIN A   1      18.497   5.350  14.024  0.00  0.00     0.277 C 
ATOM     17  C14 ZIN A   1      19.956   3.133  11.673  0.00  0.00     0.118 C 
ATOM     18  O18 ZIN A   1      19.355   5.232  14.879  0.00  0.00    -0.265 OA
BRANCH  16  19
ATOM     19  C19 ZIN A   1      17.195   5.933  14.367  0.00  0.00     0.142 A 
ATOM     20  O23 ZIN A   1      16.043   5.253  14.539  0.00  0.00    -0.317 OA
ATOM     21  C22 ZIN A   1      15.062   6.111  14.845  0.00  0.00     0.143 A 
ATOM     22  C21 ZIN A   1      15.570   7.363  14.867  0.00  0.00     0.027 A 
ATOM     23  C20 ZIN A   1      16.936   7.259  14.562  0.00  0.00     0.045 A 
ENDBRANCH  16  19
ENDBRANCH   7  11
BRANCH   5  24
ATOM     24  N10 ZIN A   1      19.067   1.187   6.363  0.00  0.00    -0.383 N 
ATOM     25  H36 ZIN A   1      18.533   0.603   5.804  0.00  0.00     0.157 HD
ATOM     26  H37 ZIN A   1      19.649   1.849   5.958  0.00  0.00     0.157 HD
ENDBRANCH   5  24
BRANCH   1  27
ATOM     27  O2  ZIN A   1      18.637  -3.840  10.283  0.00  0.00    -0.353 OA
ATOM     28  C1  ZIN A   1      19.800  -4.305  10.971  0.00  0.00     0.210 C 
ENDBRANCH   1  27
BRANCH   2  29
ATOM     29  O5  ZIN A   1      18.767  -3.731   7.542  0.00  0.00    -0.353 OA
ATOM     30  C6  ZIN A   1      19.912  -4.016   6.735  0.00  0.00     0.210 C 
ENDBRANCH   2  29
TORSDOF 5
ENDMDL
MODEL 7
REMARK VINA RESULT:      -7.7      1.978      9.585
REMARK  5 active torsions:
REMARK  status: ('A' for Active; 'I' for Inactive)
REMARK    1  A    between atoms: O2_2  and  C3_3 
REMARK    2  A    between atoms: C4_4  and  O5_5 
REMARK    3  A    between atoms: C9_9  and  N10_10 
REMARK    4  A    between atoms: C12_12  and  N13_13 
REMARK       I    between atoms: N16_16  and  C17_17 
REMARK    5  A    between atoms: C17_17  and  C19_19 
ROOT
ATOM      1  C3  ZIN A   1      19.172  -1.977   6.693  0.00  0.00     0.103 A 
ATOM      2  C4  ZIN A   1      18.844  -3.315   6.946  0.00  0.00     0.102 A 
ATOM      3  C7  ZIN A   1      18.315  -3.687   8.150  0.00  0.00     0.057 A 
ATOM      4  C8  ZIN A   1      18.098  -2.723   9.141  0.00  0.00     0.041 A 
ATOM      5  C9  ZIN A   1      17.554  -3.058  10.405  0.00  0.00     0.137 A 
ATOM      6  N11 ZIN A   1      17.379  -2.091  11.293  0.00  0.00    -0.200 NA
ATOM      7  C12 ZIN A   1      17.703  -0.830  11.017  0.00  0.00     0.206 A 
ATOM      8  N26 ZIN A   1      18.213  -0.461   9.858  0.00  0.00    -0.217 NA
ATOM      9  C27 ZIN A   1      18.429  -1.368   8.892  0.00  0.00     0.077 A 
ATOM     10  C28 ZIN A   1      18.975  -1.009   7.654  0.00  0.00     0.072 A 
ENDROOT
BRANCH   7  11
ATOM     11  N13 ZIN A   1      17.495   0.135  11.988  0.00  0.00    -0.248 NA
ATOM     12  C25 ZIN A   1      17.907  -0.353  13.311  0.00  0.00     0.118 C 
ATOM     13  C24 ZIN A   1      17.497   0.668  14.378  0.00  0.00     0.141 C 
ATOM     14  N16 ZIN A   1      18.043   1.981  14.001  0.00  0.00    -0.344 N 
ATOM     15  C15 ZIN A   1      17.786   2.477  12.640  0.00  0.00     0.141 C 
ATOM     16  C17 ZIN A   1      18.757   2.711  14.881  0.00  0.00     0.277 C 
ATOM     17  C14 ZIN A   1      18.185   1.385  11.642  0.00  0.00     0.118 C 
ATOM     18  O18 ZIN A   1      19.305   3.735  14.517  0.00  0.00    -0.265 OA
BRANCH  16  19
ATOM     19  C19 ZIN A   1      18.875   2.271  16.275  0.00  0.00     0.142 A 
ATOM     20  O23 ZIN A   1      19.307   1.062  16.690  0.00  0.00    -0.317 OA
ATOM     21  C22 ZIN A   1      19.283   1.018  18.028  0.00  0.00     0.143 A 
ATOM     22  C21 ZIN A   1      18.826   2.201  18.495  0.00  0.00     0.027 A 
ATOM     23  C20 ZIN A   1      18.562   3.010  17.379  0.00  0.00     0.045 A 
ENDBRANCH  16  19
ENDBRANCH   7  11
BRANCH   5  24
ATOM     24  N10 ZIN A   1      17.215  -4.362  10.704  0.00  0.00    -0.383 N 
ATOM     25  H36 ZIN A   1      16.658  -4.870  10.094  0.00  0.00     0.157 HD
ATOM     26  H37 ZIN A   1      17.535  -4.770  11.524  0.00  0.00     0.157 HD
ENDBRANCH   5  24
BRANCH   1  27
ATOM     27  O2  ZIN A   1      19.698  -1.630   5.489  0.00  0.00    -0.353 OA
ATOM     28  C1  ZIN A   1      19.388  -0.326   4.996  0.00  0.00     0.210 C 
ENDBRANCH   1  27
BRANCH   2  29
ATOM     29  O5  ZIN A   1      19.053  -4.253   5.984  0.00  0.00    -0.353 OA
ATOM     30  C6  ZIN A   1      17.935  -4.601   5.164  0.00  0.00     0.210 C 
ENDBRANCH   2  29
TORSDOF 5
ENDMDL
MODEL 8
REMARK VINA RESULT:      -7.7      2.237      9.300
REMARK  5 active torsions:
REMARK  status: ('A' for Active; 'I' for Inactive)
REMARK    1  A    between atoms: O2_2  and  C3_3 
REMARK    2  A    between atoms: C4_4  and  O5_5 
REMARK    3  A    between atoms: C9_9  and  N10_10 
REMARK    4  A    between atoms: C12_12  and  N13_13 
REMARK       I    between atoms: N16_16  and  C17_17 
REMARK    5  A    between atoms: C17_17  and  C19_19 
ROOT
ATOM      1  C3  ZIN A   1      17.805  -6.619   7.465  0.00  0.00     0.103 A 
ATOM      2  C4  ZIN A   1      18.214  -6.208   6.190  0.00  0.00     0.102 A 
ATOM      3  C7  ZIN A   1      18.529  -4.901   5.945  0.00  0.00     0.057 A 
ATOM      4  C8  ZIN A   1      18.442  -3.961   6.979  0.00  0.00     0.041 A 
ATOM      5  C9  ZIN A   1      18.756  -2.595   6.776  0.00  0.00     0.137 A 
ATOM      6  N11 ZIN A   1      18.649  -1.764   7.802  0.00  0.00    -0.200 NA
ATOM      7  C12 ZIN A   1      18.257  -2.190   9.000  0.00  0.00     0.206 A 
ATOM      8  N26 ZIN A   1      17.951  -3.450   9.246  0.00  0.00    -0.217 NA
ATOM      9  C27 ZIN A   1      18.028  -4.369   8.271  0.00  0.00     0.077 A 
ATOM     10  C28 ZIN A   1      17.705  -5.712   8.498  0.00  0.00     0.072 A 
ENDROOT
BRANCH   7  11
ATOM     11  N13 ZIN A   1      18.165  -1.272  10.033  0.00  0.00    -0.248 NA
ATOM     12  C25 ZIN A   1      17.657  -1.907  11.257  0.00  0.00     0.118 C 
ATOM     13  C24 ZIN A   1      17.399  -0.831  12.316  0.00  0.00     0.141 C 
ATOM     14  N16 ZIN A   1      18.627  -0.042  12.489  0.00  0.00    -0.344 N 
ATOM     15  C15 ZIN A   1      19.272   0.514  11.289  0.00  0.00     0.141 C 
ATOM     16  C17 ZIN A   1      19.148   0.169  13.714  0.00  0.00     0.277 C 
ATOM     17  C14 ZIN A   1      19.457  -0.615  10.270  0.00  0.00     0.118 C 
ATOM     18  O18 ZIN A   1      20.229   0.716  13.830  0.00  0.00    -0.265 OA
BRANCH  16  19
ATOM     19  C19 ZIN A   1      18.413  -0.264  14.908  0.00  0.00     0.142 A 
ATOM     20  O23 ZIN A   1      17.436   0.427  15.530  0.00  0.00    -0.317 OA
ATOM     21  C22 ZIN A   1      16.995  -0.277  16.581  0.00  0.00     0.143 A 
ATOM     22  C21 ZIN A   1      17.692  -1.433  16.654  0.00  0.00     0.027 A 
ATOM     23  C20 ZIN A   1      18.603  -1.433  15.587  0.00  0.00     0.045 A 
ENDBRANCH  16  19
ENDBRANCH   7  11
BRANCH   5  24
ATOM     24  N10 ZIN A   1      19.164  -2.141   5.538  0.00  0.00    -0.383 N 
ATOM     25  H36 ZIN A   1      19.967  -2.500   5.130  0.00  0.00     0.157 HD
ATOM     26  H37 ZIN A   1      18.647  -1.462   5.077  0.00  0.00     0.157 HD
ENDBRANCH   5  24
BRANCH   1  27
ATOM     27  O2  ZIN A   1      17.495  -7.923   7.684  0.00  0.00    -0.353 OA
ATOM     28  C1  ZIN A   1      16.108  -8.262   7.734  0.00  0.00     0.210 C 
ENDBRANCH   1  27
BRANCH   2  29
ATOM     29  O5  ZIN A   1      18.300  -7.120   5.184  0.00  0.00    -0.353 OA
ATOM     30  C6  ZIN A   1      17.279  -7.082   4.185  0.00  0.00     0.210 C 
ENDBRANCH   2  29
TORSDOF 5
ENDMDL
MODEL 9
REMARK VINA RESULT:      -7.7      2.463      3.906
REMARK  5 active torsions:
REMARK  status: ('A' for Active; 'I' for Inactive)
REMARK    1  A    between atoms: O2_2  and  C3_3 
REMARK    2  A    between atoms: C4_4  and  O5_5 
REMARK    3  A    between atoms: C9_9  and  N10_10 
REMARK    4  A    between atoms: C12_12  and  N13_13 
REMARK       I    between atoms: N16_16  and  C17_17 
REMARK    5  A    between atoms: C17_17  and  C19_19 
ROOT
ATOM      1  C3  ZIN A   1      18.920   1.749  17.131  0.00  0.00     0.103 A 
ATOM      2  C4  ZIN A   1      18.656   3.118  17.265  0.00  0.00     0.102 A 
ATOM      3  C7  ZIN A   1      18.608   3.930  16.167  0.00  0.00     0.057 A 
ATOM      4  C8  ZIN A   1      18.824   3.391  14.894  0.00  0.00     0.041 A 
ATOM      5  C9  ZIN A   1      18.786   4.190  13.725  0.00  0.00     0.137 A 
ATOM      6  N11 ZIN A   1      19.002   3.608  12.556  0.00  0.00    -0.200 NA
ATOM      7  C12 ZIN A   1      19.250   2.304  12.466  0.00  0.00     0.206 A 
ATOM      8  N26 ZIN A   1      19.299   1.512  13.520  0.00  0.00    -0.217 NA
ATOM      9  C27 ZIN A   1      19.093   2.007  14.751  0.00  0.00     0.077 A 
ATOM     10  C28 ZIN A   1      19.143   1.194  15.889  0.00  0.00     0.072 A 
ENDROOT
BRANCH   7  11
ATOM     11  N13 ZIN A   1      19.468   1.755  11.214  0.00  0.00    -0.248 NA
ATOM     12  C25 ZIN A   1      19.356   0.290  11.255  0.00  0.00     0.118 C 
ATOM     13  C24 ZIN A   1      19.778  -0.289   9.901  0.00  0.00     0.141 C 
ATOM     14  N16 ZIN A   1      18.990   0.366   8.846  0.00  0.00    -0.344 N 
ATOM     15  C15 ZIN A   1      18.943   1.836   8.823  0.00  0.00     0.141 C 
ATOM     16  C17 ZIN A   1      18.329  -0.362   7.924  0.00  0.00     0.277 C 
ATOM     17  C14 ZIN A   1      18.553   2.331  10.220  0.00  0.00     0.118 C 
ATOM     18  O18 ZIN A   1      17.583   0.188   7.136  0.00  0.00    -0.265 OA
BRANCH  16  19
ATOM     19  C19 ZIN A   1      18.507  -1.817   7.872  0.00  0.00     0.142 A 
ATOM     20  O23 ZIN A   1      17.830  -2.724   8.606  0.00  0.00    -0.317 OA
ATOM     21  C22 ZIN A   1      18.256  -3.955   8.292  0.00  0.00     0.143 A 
ATOM     22  C21 ZIN A   1      19.223  -3.855   7.353  0.00  0.00     0.027 A 
ATOM     23  C20 ZIN A   1      19.390  -2.489   7.079  0.00  0.00     0.045 A 
ENDBRANCH  16  19
ENDBRANCH   7  11
BRANCH   5  24
ATOM     24  N10 ZIN A   1      18.530   5.544  13.805  0.00  0.00    -0.383 N 
ATOM     25  H36 ZIN A   1      18.673   6.112  13.032  0.00  0.00     0.157 HD
ATOM     26  H37 ZIN A   1      18.206   5.927  14.635  0.00  0.00     0.157 HD
ENDBRANCH   5  24
BRANCH   1  27
ATOM     27  O2  ZIN A   1      18.965   0.962  18.236  0.00  0.00    -0.353 OA
ATOM     28  C1  ZIN A   1      19.272  -0.419  18.038  0.00  0.00     0.210 C 
ENDBRANCH   1  27
BRANCH   2  29
ATOM     29  O5  ZIN A   1      18.444   3.645  18.501  0.00  0.00    -0.353 OA
ATOM     30  C6  ZIN A   1      17.267   4.437  18.676  0.00  0.00     0.210 C 
ENDBRANCH   2  29
TORSDOF 5
ENDMDL
