MODEL 1
REMARK VINA RESULT:      -8.6      0.000      0.000
REMARK  4 active torsions:
REMARK  status: ('A' for Active; 'I' for Inactive)
REMARK    1  A    between atoms: O2_2  and  C3_3 
REMARK    2  A    between atoms: C4_4  and  N5_5 
REMARK    3  A    between atoms: N20_19  and  C21_20 
REMARK    4  A    between atoms: C25_24  and  C26_25 
ROOT
ATOM      1  C3  <0> d   1      18.730  -0.628  10.229  0.00  0.00     0.125 A 
ATOM      2  C4  <0> d   1      18.905   0.685   9.812  0.00  0.00     0.105 A 
ATOM      3  C15 <0> d   1      19.225   0.969   8.483  0.00  0.00     0.146 A 
ATOM      4  F16 <0> d   1      19.392   2.252   8.093  0.00  0.00    -0.204 F 
ATOM      5  C17 <0> d   1      19.370  -0.042   7.576  0.00  0.00     0.062 A 
ATOM      6  C18 <0> d   1      19.197  -1.369   7.979  0.00  0.00     0.048 A 
ATOM      7  C19 <0> d   1      18.881  -1.670   9.316  0.00  0.00     0.085 A 
ATOM      8  N20 <0> d   1      18.710  -2.981   9.714  0.00  0.00    -0.348 N 
ATOM      9  C24 <0> d   1      18.831  -4.014   8.873  0.00  0.00     0.114 A 
ATOM     10  C25 <0> d   1      19.139  -3.843   7.537  0.00  0.00     0.107 A 
ATOM     11  C29 <0> d   1      19.347  -2.479   7.023  0.00  0.00     0.203 A 
ATOM     12  O30 <0> d   1      19.620  -2.277   5.852  0.00  0.00    -0.286 OA
ENDROOT
BRANCH   2  13
ATOM     13  N5  <0> d   1      18.760   1.728  10.729  0.00  0.00    -0.372 N 
ATOM     14  C14 <0> d   1      17.573   2.598  10.704  0.00  0.00     0.155 C 
ATOM     15  C11 <0> d   1      18.034   4.055  10.709  0.00  0.00     0.199 C 
ATOM     16  N8  <0> d   1      18.929   4.281  11.851  0.00  0.00    -0.068 N 
ATOM     17  C13 <0> d   1      16.817   4.975  10.824  0.00  0.00     0.041 C 
ATOM     18  C7  <0> d   1      20.150   3.480  11.696  0.00  0.00     0.252 C 
ATOM     19  H9  <0> d   1      18.459   4.016  12.703  0.00  0.00     0.277 HD
ATOM     20  H10 <0> d   1      19.173   5.260  11.894  0.00  0.00     0.277 HD
ATOM     21  C6  <0> d   1      19.791   1.991  11.744  0.00  0.00     0.150 C 
ENDBRANCH   2  13
BRANCH   1  22
ATOM     22  O2  <0> d   1      18.419  -0.897  11.527  0.00  0.00    -0.351 OA
ATOM     23  C1  <0> d   1      17.088  -0.593  11.952  0.00  0.00     0.210 C 
ENDBRANCH   1  22
BRANCH   8  24
ATOM     24  C21 <0> d   1      18.380  -3.251  11.115  0.00  0.00     0.090 A 
ATOM     25  C23 <0> d   1      18.606  -4.673  11.632  0.00  0.00     0.028 A 
ATOM     26  C22 <0> d   1      17.183  -4.162  11.396  0.00  0.00     0.028 A 
ENDBRANCH   8  24
BRANCH  10  27
ATOM     27  C26 <0> d   1      19.263  -5.002   6.647  0.00  0.00     0.214 C 
ATOM     28  O27 <0> d   1      20.180  -5.799   6.802  0.00  0.00    -0.644 OA
ATOM     29  O28 <0> d   1      18.449  -5.174   5.750  0.00  0.00    -0.644 OA
ENDBRANCH  10  27
TORSDOF 4
ENDMDL
MODEL 2
REMARK VINA RESULT:      -8.2      1.335      1.569
REMARK  4 active torsions:
REMARK  status: ('A' for Active; 'I' for Inactive)
REMARK    1  A    between atoms: O2_2  and  C3_3 
REMARK    2  A    between atoms: C4_4  and  N5_5 
REMARK    3  A    between atoms: N20_19  and  C21_20 
REMARK    4  A    between atoms: C25_24  and  C26_25 
ROOT
ATOM      1  C3  <0> d   1      18.894   0.511  10.830  0.00  0.00     0.125 A 
ATOM      2  C4  <0> d   1      18.780   1.871  10.580  0.00  0.00     0.105 A 
ATOM      3  C15 <0> d   1      18.768   2.353   9.270  0.00  0.00     0.146 A 
ATOM      4  F16 <0> d   1      18.657   3.680   9.043  0.00  0.00    -0.204 F 
ATOM      5  C17 <0> d   1      18.868   1.489   8.216  0.00  0.00     0.062 A 
ATOM      6  C18 <0> d   1      18.983   0.116   8.449  0.00  0.00     0.048 A 
ATOM      7  C19 <0> d   1      19.003  -0.381   9.764  0.00  0.00     0.085 A 
ATOM      8  N20 <0> d   1      19.117  -1.738   9.995  0.00  0.00    -0.348 N 
ATOM      9  C24 <0> d   1      19.211  -2.635   9.007  0.00  0.00     0.114 A 
ATOM     10  C25 <0> d   1      19.203  -2.265   7.675  0.00  0.00     0.107 A 
ATOM     11  C29 <0> d   1      19.092  -0.838   7.332  0.00  0.00     0.203 A 
ATOM     12  O30 <0> d   1      19.080  -0.462   6.173  0.00  0.00    -0.286 OA
ENDROOT
BRANCH   2  13
ATOM     13  N5  <0> d   1      18.677   2.765  11.648  0.00  0.00    -0.372 N 
ATOM     14  C14 <0> d   1      17.379   3.348  12.025  0.00  0.00     0.155 C 
ATOM     15  C11 <0> d   1      17.538   4.864  12.137  0.00  0.00     0.199 C 
ATOM     16  N8  <0> d   1      18.634   5.175  13.063  0.00  0.00    -0.068 N 
ATOM     17  C13 <0> d   1      16.238   5.477  12.661  0.00  0.00     0.041 C 
ATOM     18  C7  <0> d   1      19.906   4.682  12.516  0.00  0.00     0.252 C 
ATOM     19  H9  <0> d   1      18.458   4.732  13.952  0.00  0.00     0.277 HD
ATOM     20  H10 <0> d   1      18.689   6.174  13.191  0.00  0.00     0.277 HD
ATOM     21  C6  <0> d   1      19.863   3.153  12.426  0.00  0.00     0.150 C 
ENDBRANCH   2  13
BRANCH   1  22
ATOM     22  O2  <0> d   1      18.906   0.049  12.110  0.00  0.00    -0.351 OA
ATOM     23  C1  <0> d   1      17.657   0.031  12.806  0.00  0.00     0.210 C 
ENDBRANCH   1  22
BRANCH   8  24
ATOM     24  C21 <0> d   1      19.133  -2.216  11.379  0.00  0.00     0.090 A 
ATOM     25  C23 <0> d   1      19.762  -3.584  11.647  0.00  0.00     0.028 A 
ATOM     26  C22 <0> d   1      18.243  -3.412  11.724  0.00  0.00     0.028 A 
ENDBRANCH   8  24
BRANCH  10  27
ATOM     27  C26 <0> d   1      19.309  -3.279   6.620  0.00  0.00     0.214 C 
ATOM     28  O27 <0> d   1      20.397  -3.768   6.347  0.00  0.00    -0.644 OA
ATOM     29  O28 <0> d   1      18.307  -3.637   6.014  0.00  0.00    -0.644 OA
ENDBRANCH  10  27
TORSDOF 4
ENDMDL
MODEL 3
REMARK VINA RESULT:      -7.9      2.556      6.698
REMARK  4 active torsions:
REMARK  status: ('A' for Active; 'I' for Inactive)
REMARK    1  A    between atoms: O2_2  and  C3_3 
REMARK    2  A    between atoms: C4_4  and  N5_5 
REMARK    3  A    between atoms: N20_19  and  C21_20 
REMARK    4  A    between atoms: C25_24  and  C26_25 
ROOT
ATOM      1  C3  <0> d   1      18.826  -1.963   8.409  0.00  0.00     0.125 A 
ATOM      2  C4  <0> d   1      19.078  -2.022   7.045  0.00  0.00     0.105 A 
ATOM      3  C15 <0> d   1      19.191  -0.850   6.295  0.00  0.00     0.146 A 
ATOM      4  F16 <0> d   1      19.435  -0.922   4.968  0.00  0.00    -0.204 F 
ATOM      5  C17 <0> d   1      19.056   0.370   6.895  0.00  0.00     0.062 A 
ATOM      6  C18 <0> d   1      18.803   0.447   8.267  0.00  0.00     0.048 A 
ATOM      7  C19 <0> d   1      18.680  -0.726   9.033  0.00  0.00     0.085 A 
ATOM      8  N20 <0> d   1      18.430  -0.650  10.390  0.00  0.00    -0.348 N 
ATOM      9  C24 <0> d   1      18.296   0.513  11.037  0.00  0.00     0.114 A 
ATOM     10  C25 <0> d   1      18.396   1.730  10.390  0.00  0.00     0.107 A 
ATOM     11  C29 <0> d   1      18.654   1.749   8.941  0.00  0.00     0.203 A 
ATOM     12  O30 <0> d   1      18.751   2.796   8.326  0.00  0.00    -0.286 OA
ENDROOT
BRANCH   2  13
ATOM     13  N5  <0> d   1      19.217  -3.262   6.419  0.00  0.00    -0.372 N 
ATOM     14  C14 <0> d   1      18.210  -3.743   5.460  0.00  0.00     0.155 C 
ATOM     15  C11 <0> d   1      17.800  -5.162   5.852  0.00  0.00     0.199 C 
ATOM     16  N8  <0> d   1      18.997  -6.008   5.951  0.00  0.00    -0.068 N 
ATOM     17  C13 <0> d   1      16.858  -5.734   4.791  0.00  0.00     0.041 C 
ATOM     18  C7  <0> d   1      19.859  -5.529   7.040  0.00  0.00     0.252 C 
ATOM     19  H9  <0> d   1      19.505  -5.973   5.081  0.00  0.00     0.277 HD
ATOM     20  H10 <0> d   1      18.718  -6.959   6.138  0.00  0.00     0.277 HD
ATOM     21  C6  <0> d   1      20.373  -4.126   6.702  0.00  0.00     0.150 C 
ENDBRANCH   2  13
BRANCH   1  22
ATOM     22  O2  <0> d   1      18.716  -3.110   9.134  0.00  0.00    -0.351 OA
ATOM     23  C1  <0> d   1      17.455  -3.784   9.096  0.00  0.00     0.210 C 
ENDBRANCH   1  22
BRANCH   8  24
ATOM     24  C21 <0> d   1      18.310  -1.895  11.151  0.00  0.00     0.090 A 
ATOM     25  C23 <0> d   1      17.953  -1.784  12.634  0.00  0.00     0.028 A 
ATOM     26  C22 <0> d   1      19.372  -2.177  12.217  0.00  0.00     0.028 A 
ENDBRANCH   8  24
BRANCH  10  27
ATOM     27  C26 <0> d   1      18.241   2.984  11.136  0.00  0.00     0.214 C 
ATOM     28  O27 <0> d   1      19.229   3.572  11.557  0.00  0.00    -0.644 OA
ATOM     29  O28 <0> d   1      17.124   3.443  11.335  0.00  0.00    -0.644 OA
ENDBRANCH  10  27
TORSDOF 4
ENDMDL
MODEL 4
REMARK VINA RESULT:      -7.7      3.258      4.720
REMARK  4 active torsions:
REMARK  status: ('A' for Active; 'I' for Inactive)
REMARK    1  A    between atoms: O2_2  and  C3_3 
REMARK    2  A    between atoms: C4_4  and  N5_5 
REMARK    3  A    between atoms: N20_19  and  C21_20 
REMARK    4  A    between atoms: C25_24  and  C26_25 
ROOT
ATOM      1  C3  <0> d   1      18.003   1.858  13.544  0.00  0.00     0.125 A 
ATOM      2  C4  <0> d   1      17.870   2.919  12.659  0.00  0.00     0.105 A 
ATOM      3  C15 <0> d   1      17.730   2.686  11.289  0.00  0.00     0.146 A 
ATOM      4  F16 <0> d   1      17.602   3.730  10.440  0.00  0.00    -0.204 F 
ATOM      5  C17 <0> d   1      17.720   1.409  10.804  0.00  0.00     0.062 A 
ATOM      6  C18 <0> d   1      17.852   0.330  11.681  0.00  0.00     0.048 A 
ATOM      7  C19 <0> d   1      18.001   0.551  13.062  0.00  0.00     0.085 A 
ATOM      8  N20 <0> d   1      18.131  -0.516  13.929  0.00  0.00    -0.348 N 
ATOM      9  C24 <0> d   1      18.122  -1.789  13.517  0.00  0.00     0.114 A 
ATOM     10  C25 <0> d   1      17.982  -2.130  12.185  0.00  0.00     0.107 A 
ATOM     11  C29 <0> d   1      17.844  -1.058  11.185  0.00  0.00     0.203 A 
ATOM     12  O30 <0> d   1      17.719  -1.307   9.999  0.00  0.00    -0.286 OA
ENDROOT
BRANCH   2  13
ATOM     13  N5  <0> d   1      17.878   4.229  13.142  0.00  0.00    -0.372 N 
ATOM     14  C14 <0> d   1      19.116   5.025  13.151  0.00  0.00     0.155 C 
ATOM     15  C11 <0> d   1      19.305   5.623  14.544  0.00  0.00     0.199 C 
ATOM     16  N8  <0> d   1      18.100   6.371  14.923  0.00  0.00    -0.068 N 
ATOM     17  C13 <0> d   1      20.510   6.565  14.538  0.00  0.00     0.041 C 
ATOM     18  C7  <0> d   1      16.957   5.455  15.036  0.00  0.00     0.252 C 
ATOM     19  H9  <0> d   1      17.903   7.068  14.221  0.00  0.00     0.277 HD
ATOM     20  H10 <0> d   1      18.255   6.824  15.811  0.00  0.00     0.277 HD
ATOM     21  C6  <0> d   1      16.651   4.852  13.661  0.00  0.00     0.150 C 
ENDBRANCH   2  13
BRANCH   1  22
ATOM     22  O2  <0> d   1      18.140   2.093  14.877  0.00  0.00    -0.351 OA
ATOM     23  C1  <0> d   1      19.464   2.339  15.360  0.00  0.00     0.210 C 
ENDBRANCH   1  22
BRANCH   8  24
ATOM     24  C21 <0> d   1      18.283  -0.243  15.360  0.00  0.00     0.090 A 
ATOM     25  C23 <0> d   1      18.792  -1.382  16.245  0.00  0.00     0.028 A 
ATOM     26  C22 <0> d   1      17.325  -0.952  16.320  0.00  0.00     0.028 A 
ENDBRANCH   8  24
BRANCH  10  27
ATOM     27  C26 <0> d   1      17.978  -3.538  11.773  0.00  0.00     0.214 C 
ATOM     28  O27 <0> d   1      19.033  -4.149  11.668  0.00  0.00    -0.644 OA
ATOM     29  O28 <0> d   1      16.918  -4.101  11.535  0.00  0.00    -0.644 OA
ENDBRANCH  10  27
TORSDOF 4
ENDMDL
MODEL 5
REMARK VINA RESULT:      -7.7      3.701      8.483
REMARK  4 active torsions:
REMARK  status: ('A' for Active; 'I' for Inactive)
REMARK    1  A    between atoms: O2_2  and  C3_3 
REMARK    2  A    between atoms: C4_4  and  N5_5 
REMARK    3  A    between atoms: N20_19  and  C21_20 
REMARK    4  A    between atoms: C25_24  and  C26_25 
ROOT
ATOM      1  C3  <0> d   1      18.427   0.801  12.371  0.00  0.00     0.125 A 
ATOM      2  C4  <0> d   1      18.838  -0.451  12.807  0.00  0.00     0.105 A 
ATOM      3  C15 <0> d   1      19.256  -0.639  14.126  0.00  0.00     0.146 A 
ATOM      4  F16 <0> d   1      19.654  -1.864  14.536  0.00  0.00    -0.204 F 
ATOM      5  C17 <0> d   1      19.263   0.407  15.005  0.00  0.00     0.062 A 
ATOM      6  C18 <0> d   1      18.851   1.673  14.582  0.00  0.00     0.048 A 
ATOM      7  C19 <0> d   1      18.435   1.879  13.255  0.00  0.00     0.085 A 
ATOM      8  N20 <0> d   1      18.028   3.131  12.837  0.00  0.00    -0.348 N 
ATOM      9  C24 <0> d   1      18.005   4.193  13.650  0.00  0.00     0.114 A 
ATOM     10  C25 <0> d   1      18.392   4.114  14.975  0.00  0.00     0.107 A 
ATOM     11  C29 <0> d   1      18.849   2.820  15.508  0.00  0.00     0.203 A 
ATOM     12  O30 <0> d   1      19.200   2.699  16.669  0.00  0.00    -0.286 OA
ENDROOT
BRANCH   2  13
ATOM     13  N5  <0> d   1      18.836  -1.529  11.920  0.00  0.00    -0.372 N 
ATOM     14  C14 <0> d   1      17.601  -2.282  11.647  0.00  0.00     0.155 C 
ATOM     15  C11 <0> d   1      17.889  -3.773  11.815  0.00  0.00     0.199 C 
ATOM     16  N8  <0> d   1      19.029  -4.149  10.969  0.00  0.00    -0.068 N 
ATOM     17  C13 <0> d   1      16.658  -4.581  11.402  0.00  0.00     0.041 C 
ATOM     18  C7  <0> d   1      20.241  -3.457  11.426  0.00  0.00     0.252 C 
ATOM     19  H9  <0> d   1      18.837  -3.893  10.013  0.00  0.00     0.277 HD
ATOM     20  H10 <0> d   1      19.171  -5.147  11.026  0.00  0.00     0.277 HD
ATOM     21  C6  <0> d   1      20.068  -1.947  11.234  0.00  0.00     0.150 C 
ENDBRANCH   2  13
BRANCH   1  22
ATOM     22  O2  <0> d   1      18.022   0.978  11.084  0.00  0.00    -0.351 OA
ATOM     23  C1  <0> d   1      19.042   1.025  10.083  0.00  0.00     0.210 C 
ENDBRANCH   1  22
BRANCH   8  24
ATOM     24  C21 <0> d   1      17.600   3.302  11.447  0.00  0.00     0.090 A 
ATOM     25  C23 <0> d   1      18.169   4.494  10.676  0.00  0.00     0.028 A 
ATOM     26  C22 <0> d   1      16.707   4.502  11.125  0.00  0.00     0.028 A 
ENDBRANCH   8  24
BRANCH  10  27
ATOM     27  C26 <0> d   1      18.353   5.302  15.834  0.00  0.00     0.214 C 
ATOM     28  O27 <0> d   1      17.348   5.555  16.485  0.00  0.00    -0.644 OA
ATOM     29  O28 <0> d   1      19.328   6.040  15.900  0.00  0.00    -0.644 OA
ENDBRANCH  10  27
TORSDOF 4
ENDMDL
MODEL 6
REMARK VINA RESULT:      -7.7      3.622      5.156
REMARK  4 active torsions:
REMARK  status: ('A' for Active; 'I' for Inactive)
REMARK    1  A    between atoms: O2_2  and  C3_3 
REMARK    2  A    between atoms: C4_4  and  N5_5 
REMARK    3  A    between atoms: N20_19  and  C21_20 
REMARK    4  A    between atoms: C25_24  and  C26_25 
ROOT
ATOM      1  C3  <0> d   1      18.719   2.076  14.529  0.00  0.00     0.125 A 
ATOM      2  C4  <0> d   1      18.812   3.282  13.847  0.00  0.00     0.105 A 
ATOM      3  C15 <0> d   1      19.078   3.302  12.477  0.00  0.00     0.146 A 
ATOM      4  F16 <0> d   1      19.166   4.483  11.827  0.00  0.00    -0.204 F 
ATOM      5  C17 <0> d   1      19.250   2.134  11.790  0.00  0.00     0.062 A 
ATOM      6  C18 <0> d   1      19.159   0.911  12.461  0.00  0.00     0.048 A 
ATOM      7  C19 <0> d   1      18.898   0.877  13.842  0.00  0.00     0.085 A 
ATOM      8  N20 <0> d   1      18.808  -0.331  14.505  0.00  0.00    -0.348 N 
ATOM      9  C24 <0> d   1      18.959  -1.508  13.888  0.00  0.00     0.114 A 
ATOM     10  C25 <0> d   1      19.220  -1.601  12.534  0.00  0.00     0.107 A 
ATOM     11  C29 <0> d   1      19.340  -0.364  11.745  0.00  0.00     0.203 A 
ATOM     12  O30 <0> d   1      19.569  -0.393  10.549  0.00  0.00    -0.286 OA
ENDROOT
BRANCH   2  13
ATOM     13  N5  <0> d   1      18.638   4.483  14.538  0.00  0.00    -0.372 N 
ATOM     14  C14 <0> d   1      17.292   5.017  14.802  0.00  0.00     0.155 C 
ATOM     15  C11 <0> d   1      17.250   6.479  14.359  0.00  0.00     0.199 C 
ATOM     16  N8  <0> d   1      18.335   7.220  15.012  0.00  0.00    -0.068 N 
ATOM     17  C13 <0> d   1      15.904   7.093  14.750  0.00  0.00     0.041 C 
ATOM     18  C7  <0> d   1      19.635   6.707  14.560  0.00  0.00     0.252 C 
ATOM     19  H9  <0> d   1      18.262   7.111  16.012  0.00  0.00     0.277 HD
ATOM     20  H10 <0> d   1      18.261   8.198  14.775  0.00  0.00     0.277 HD
ATOM     21  C6  <0> d   1      19.795   5.253  15.018  0.00  0.00     0.150 C 
ENDBRANCH   2  13
BRANCH   1  22
ATOM     22  O2  <0> d   1      18.459   2.065  15.866  0.00  0.00    -0.351 OA
ATOM     23  C1  <0> d   1      19.531   2.432  16.738  0.00  0.00     0.210 C 
ENDBRANCH   1  22
BRANCH   8  24
ATOM     24  C21 <0> d   1      18.533  -0.323  15.944  0.00  0.00     0.090 A 
ATOM     25  C23 <0> d   1      18.889  -1.581  16.737  0.00  0.00     0.028 A 
ATOM     26  C22 <0> d   1      17.423  -1.243  16.456  0.00  0.00     0.028 A 
ENDBRANCH   8  24
BRANCH  10  27
ATOM     27  C26 <0> d   1      19.380  -2.911  11.895  0.00  0.00     0.214 C 
ATOM     28  O27 <0> d   1      20.488  -3.424  11.816  0.00  0.00    -0.644 OA
ATOM     29  O28 <0> d   1      18.403  -3.492  11.440  0.00  0.00    -0.644 OA
ENDBRANCH  10  27
TORSDOF 4
ENDMDL
MODEL 7
REMARK VINA RESULT:      -7.4      2.604      6.693
REMARK  4 active torsions:
REMARK  status: ('A' for Active; 'I' for Inactive)
REMARK    1  A    between atoms: O2_2  and  C3_3 
REMARK    2  A    between atoms: C4_4  and  N5_5 
REMARK    3  A    between atoms: N20_19  and  C21_20 
REMARK    4  A    between atoms: C25_24  and  C26_25 
ROOT
ATOM      1  C3  <0> d   1      18.873  -1.986  10.026  0.00  0.00     0.125 A 
ATOM      2  C4  <0> d   1      18.897  -2.374   8.694  0.00  0.00     0.105 A 
ATOM      3  C15 <0> d   1      19.003  -1.420   7.680  0.00  0.00     0.146 A 
ATOM      4  F16 <0> d   1      19.025  -1.813   6.388  0.00  0.00    -0.204 F 
ATOM      5  C17 <0> d   1      19.086  -0.092   7.988  0.00  0.00     0.062 A 
ATOM      6  C18 <0> d   1      19.064   0.316   9.325  0.00  0.00     0.048 A 
ATOM      7  C19 <0> d   1      18.950  -0.634  10.355  0.00  0.00     0.085 A 
ATOM      8  N20 <0> d   1      18.929  -0.231  11.676  0.00  0.00    -0.348 N 
ATOM      9  C24 <0> d   1      19.014   1.052  12.042  0.00  0.00     0.114 A 
ATOM     10  C25 <0> d   1      19.128   2.075  11.120  0.00  0.00     0.107 A 
ATOM     11  C29 <0> d   1      19.152   1.742   9.686  0.00  0.00     0.203 A 
ATOM     12  O30 <0> d   1      19.252   2.607   8.834  0.00  0.00    -0.286 OA
ENDROOT
BRANCH   2  13
ATOM     13  N5  <0> d   1      18.813  -3.729   8.365  0.00  0.00    -0.372 N 
ATOM     14  C14 <0> d   1      17.533  -4.450   8.450  0.00  0.00     0.155 C 
ATOM     15  C11 <0> d   1      17.746  -5.734   9.251  0.00  0.00     0.199 C 
ATOM     16  N8  <0> d   1      18.841  -6.508   8.653  0.00  0.00    -0.068 N 
ATOM     17  C13 <0> d   1      16.463  -6.566   9.233  0.00  0.00     0.041 C 
ATOM     18  C7  <0> d   1      20.100  -5.760   8.760  0.00  0.00     0.252 C 
ATOM     19  H9  <0> d   1      18.636  -6.682   7.680  0.00  0.00     0.277 HD
ATOM     20  H10 <0> d   1      18.931  -7.388   9.138  0.00  0.00     0.277 HD
ATOM     21  C6  <0> d   1      20.002  -4.476   7.929  0.00  0.00     0.150 C 
ENDBRANCH   2  13
BRANCH   1  22
ATOM     22  O2  <0> d   1      18.768  -2.922  11.009  0.00  0.00    -0.351 OA
ATOM     23  C1  <0> d   1      19.973  -3.576  11.414  0.00  0.00     0.210 C 
ENDBRANCH   1  22
BRANCH   8  24
ATOM     24  C21 <0> d   1      18.811  -1.253  12.719  0.00  0.00     0.090 A 
ATOM     25  C23 <0> d   1      18.110  -0.855  14.019  0.00  0.00     0.028 A 
ATOM     26  C22 <0> d   1      19.627  -1.054  13.998  0.00  0.00     0.028 A 
ENDBRANCH   8  24
BRANCH  10  27
ATOM     27  C26 <0> d   1      19.218   3.470  11.562  0.00  0.00     0.214 C 
ATOM     28  O27 <0> d   1      20.304   3.951  11.858  0.00  0.00    -0.644 OA
ATOM     29  O28 <0> d   1      18.206   4.155  11.633  0.00  0.00    -0.644 OA
ENDBRANCH  10  27
TORSDOF 4
ENDMDL
MODEL 8
REMARK VINA RESULT:      -7.4      3.875      6.031
REMARK  4 active torsions:
REMARK  status: ('A' for Active; 'I' for Inactive)
REMARK    1  A    between atoms: O2_2  and  C3_3 
REMARK    2  A    between atoms: C4_4  and  N5_5 
REMARK    3  A    between atoms: N20_19  and  C21_20 
REMARK    4  A    between atoms: C25_24  and  C26_25 
ROOT
ATOM      1  C3  <0> d   1      18.717   2.690  13.705  0.00  0.00     0.125 A 
ATOM      2  C4  <0> d   1      18.872   3.099  15.023  0.00  0.00     0.105 A 
ATOM      3  C15 <0> d   1      19.136   2.165  16.027  0.00  0.00     0.146 A 
ATOM      4  F16 <0> d   1      19.284   2.578  17.305  0.00  0.00    -0.204 F 
ATOM      5  C17 <0> d   1      19.246   0.837  15.724  0.00  0.00     0.062 A 
ATOM      6  C18 <0> d   1      19.093   0.410  14.403  0.00  0.00     0.048 A 
ATOM      7  C19 <0> d   1      18.820   1.339  13.383  0.00  0.00     0.085 A 
ATOM      8  N20 <0> d   1      18.669   0.916  12.076  0.00  0.00    -0.348 N 
ATOM      9  C24 <0> d   1      18.772  -0.368  11.715  0.00  0.00     0.114 A 
ATOM     10  C25 <0> d   1      19.037  -1.370  12.628  0.00  0.00     0.107 A 
ATOM     11  C29 <0> d   1      19.206  -1.015  14.047  0.00  0.00     0.203 A 
ATOM     12  O30 <0> d   1      19.441  -1.863  14.891  0.00  0.00    -0.286 OA
ENDROOT
BRANCH   2  13
ATOM     13  N5  <0> d   1      18.762   4.452  15.346  0.00  0.00    -0.372 N 
ATOM     14  C14 <0> d   1      17.449   5.115  15.394  0.00  0.00     0.155 C 
ATOM     15  C11 <0> d   1      17.516   6.395  14.563  0.00  0.00     0.199 C 
ATOM     16  N8  <0> d   1      18.632   7.226  15.032  0.00  0.00    -0.068 N 
ATOM     17  C13 <0> d   1      16.206   7.171  14.711  0.00  0.00     0.041 C 
ATOM     18  C7  <0> d   1      19.905   6.533  14.795  0.00  0.00     0.252 C 
ATOM     19  H9  <0> d   1      18.526   7.405  16.019  0.00  0.00     0.277 HD
ATOM     20  H10 <0> d   1      18.629   8.102  14.531  0.00  0.00     0.277 HD
ATOM     21  C6  <0> d   1      19.956   5.258  15.644  0.00  0.00     0.150 C 
ENDBRANCH   2  13
BRANCH   1  22
ATOM     22  O2  <0> d   1      18.459   3.606  12.732  0.00  0.00    -0.351 OA
ATOM     23  C1  <0> d   1      19.570   4.355  12.233  0.00  0.00     0.210 C 
ENDBRANCH   1  22
BRANCH   8  24
ATOM     24  C21 <0> d   1      18.387   1.915  11.044  0.00  0.00     0.090 A 
ATOM     25  C23 <0> d   1      17.752   1.425   9.742  0.00  0.00     0.028 A 
ATOM     26  C22 <0> d   1      19.219   1.860   9.761  0.00  0.00     0.028 A 
ENDBRANCH   8  24
BRANCH  10  27
ATOM     27  C26 <0> d   1      19.142  -2.767  12.192  0.00  0.00     0.214 C 
ATOM     28  O27 <0> d   1      20.211  -3.204  11.788  0.00  0.00    -0.644 OA
ATOM     29  O28 <0> d   1      18.159  -3.496  12.233  0.00  0.00    -0.644 OA
ENDBRANCH  10  27
TORSDOF 4
ENDMDL
MODEL 9
REMARK VINA RESULT:      -7.4      3.322      7.053
REMARK  4 active torsions:
REMARK  status: ('A' for Active; 'I' for Inactive)
REMARK    1  A    between atoms: O2_2  and  C3_3 
REMARK    2  A    between atoms: C4_4  and  N5_5 
REMARK    3  A    between atoms: N20_19  and  C21_20 
REMARK    4  A    between atoms: C25_24  and  C26_25 
ROOT
ATOM      1  C3  <0> d   1      18.518   0.662  11.313  0.00  0.00     0.125 A 
ATOM      2  C4  <0> d   1      18.499   1.266  10.064  0.00  0.00     0.105 A 
ATOM      3  C15 <0> d   1      18.602   2.654   9.946  0.00  0.00     0.146 A 
ATOM      4  F16 <0> d   1      18.582   3.227   8.723  0.00  0.00    -0.204 F 
ATOM      5  C17 <0> d   1      18.723   3.434  11.061  0.00  0.00     0.062 A 
ATOM      6  C18 <0> d   1      18.744   2.842  12.326  0.00  0.00     0.048 A 
ATOM      7  C19 <0> d   1      18.634   1.447  12.459  0.00  0.00     0.085 A 
ATOM      8  N20 <0> d   1      18.656   0.862  13.710  0.00  0.00    -0.348 N 
ATOM      9  C24 <0> d   1      18.779   1.570  14.839  0.00  0.00     0.114 A 
ATOM     10  C25 <0> d   1      18.893   2.947  14.834  0.00  0.00     0.107 A 
ATOM     11  C29 <0> d   1      18.874   3.659  13.545  0.00  0.00     0.203 A 
ATOM     12  O30 <0> d   1      18.971   4.873  13.489  0.00  0.00    -0.286 OA
ENDROOT
BRANCH   2  13
ATOM     13  N5  <0> d   1      18.376   0.480   8.916  0.00  0.00    -0.372 N 
ATOM     14  C14 <0> d   1      19.402   0.513   7.862  0.00  0.00     0.155 C 
ATOM     15  C11 <0> d   1      18.714   0.733   6.516  0.00  0.00     0.199 C 
ATOM     16  N8  <0> d   1      17.679  -0.290   6.322  0.00  0.00    -0.068 N 
ATOM     17  C13 <0> d   1      19.747   0.632   5.392  0.00  0.00     0.041 C 
ATOM     18  C7  <0> d   1      16.627  -0.135   7.335  0.00  0.00     0.252 C 
ATOM     19  H9  <0> d   1      18.093  -1.206   6.407  0.00  0.00     0.277 HD
ATOM     20  H10 <0> d   1      17.277  -0.188   5.403  0.00  0.00     0.277 HD
ATOM     21  C6  <0> d   1      17.215  -0.402   8.725  0.00  0.00     0.150 C 
ENDBRANCH   2  13
BRANCH   1  22
ATOM     22  O2  <0> d   1      18.417  -0.691  11.421  0.00  0.00    -0.351 OA
ATOM     23  C1  <0> d   1      19.555  -1.461  11.026  0.00  0.00     0.210 C 
ENDBRANCH   1  22
BRANCH   8  24
ATOM     24  C21 <0> d   1      18.540  -0.595  13.805  0.00  0.00     0.090 A 
ATOM     25  C23 <0> d   1      18.225  -1.190  15.179  0.00  0.00     0.028 A 
ATOM     26  C22 <0> d   1      19.627  -1.340  14.584  0.00  0.00     0.028 A 
ENDBRANCH   8  24
BRANCH  10  27
ATOM     27  C26 <0> d   1      19.026   3.688  16.093  0.00  0.00     0.214 C 
ATOM     28  O27 <0> d   1      18.095   4.367  16.505  0.00  0.00    -0.644 OA
ATOM     29  O28 <0> d   1      20.068   3.625  16.732  0.00  0.00    -0.644 OA
ENDBRANCH  10  27
TORSDOF 4
ENDMDL
