MODEL 1
REMARK VINA RESULT:      -3.7      0.000      0.000
REMARK  5 active torsions:
REMARK  status: ('A' for Active; 'I' for Inactive)
REMARK    1  A    between atoms: S2_2  and  C3_3 
REMARK    2  A    between atoms: C3_3  and  C4_4 
REMARK    3  A    between atoms: C4_4  and  C5_5 
REMARK    4  A    between atoms: C5_5  and  N7_6 
REMARK    5  A    between atoms: C5_5  and  C11_10 
ROOT
ATOM      1  C5  <0> d   1      17.864   0.833  17.469  0.00  0.00     0.284 C 
ENDROOT
BRANCH   1   2
ATOM      2  C4  <0> d   1      17.446  -0.408  16.677  0.00  0.00     0.054 C 
BRANCH   2   3
ATOM      3  C3  <0> d   1      17.665  -0.159  15.184  0.00  0.00     0.076 C 
BRANCH   3   4
ATOM      4  S2  <0> d   1      19.169  -1.017  14.641  0.00  0.00    -0.173 SA
ATOM      5  C1  <0> d   1      20.031   0.248  13.667  0.00  0.00     0.089 C 
ENDBRANCH   3   4
ENDBRANCH   2   3
ENDBRANCH   1   2
BRANCH   1   6
ATOM      6  N7  <0> d   1      18.015   1.971  16.551  0.00  0.00    -0.065 N 
ATOM      7  H8  <0> d   1      18.200   2.809  17.082  0.00  0.00     0.275 HD
ATOM      8  H9  <0> d   1      18.783   1.795  15.921  0.00  0.00     0.275 HD
ATOM      9  H10 <0> d   1      17.165   2.090  16.020  0.00  0.00     0.275 HD
ENDBRANCH   1   6
BRANCH   1  10
ATOM     10  C11 <0> d   1      19.176   0.569  18.162  0.00  0.00     0.204 C 
ATOM     11  O12 <0> d   1      19.838   1.499  18.589  0.00  0.00    -0.646 OA
ATOM     12  O13 <0> d   1      19.575  -0.575  18.295  0.00  0.00    -0.646 OA
ENDBRANCH   1  10
TORSDOF 5
ENDMDL
MODEL 2
REMARK VINA RESULT:      -3.7      8.882     10.306
REMARK  5 active torsions:
REMARK  status: ('A' for Active; 'I' for Inactive)
REMARK    1  A    between atoms: S2_2  and  C3_3 
REMARK    2  A    between atoms: C3_3  and  C4_4 
REMARK    3  A    between atoms: C4_4  and  C5_5 
REMARK    4  A    between atoms: C5_5  and  N7_6 
REMARK    5  A    between atoms: C5_5  and  C11_10 
ROOT
ATOM      1  C5  <0> d   1      18.248   0.137   5.900  0.00  0.00     0.284 C 
ENDROOT
BRANCH   1   2
ATOM      2  C4  <0> d   1      18.913   1.080   6.905  0.00  0.00     0.054 C 
BRANCH   2   3
ATOM      3  C3  <0> d   1      18.424   0.749   8.316  0.00  0.00     0.076 C 
BRANCH   3   4
ATOM      4  S2  <0> d   1      19.742  -0.099   9.230  0.00  0.00    -0.173 SA
ATOM      5  C1  <0> d   1      18.981  -1.689   9.661  0.00  0.00     0.089 C 
ENDBRANCH   3   4
ENDBRANCH   2   3
ENDBRANCH   1   2
BRANCH   1   6
ATOM      6  N7  <0> d   1      17.057  -0.469   6.512  0.00  0.00    -0.065 N 
ATOM      7  H8  <0> d   1      16.848   0.004   7.379  0.00  0.00     0.275 HD
ATOM      8  H9  <0> d   1      16.274  -0.380   5.882  0.00  0.00     0.275 HD
ATOM      9  H10 <0> d   1      17.233  -1.445   6.695  0.00  0.00     0.275 HD
ENDBRANCH   1   6
BRANCH   1  10
ATOM     10  C11 <0> d   1      19.219  -0.948   5.511  0.00  0.00     0.204 C 
ATOM     11  O12 <0> d   1      19.968  -0.784   4.562  0.00  0.00    -0.646 OA
ATOM     12  O13 <0> d   1      19.257  -1.989   6.144  0.00  0.00    -0.646 OA
ENDBRANCH   1  10
TORSDOF 5
ENDMDL
MODEL 3
REMARK VINA RESULT:      -3.7      8.912     10.376
REMARK  5 active torsions:
REMARK  status: ('A' for Active; 'I' for Inactive)
REMARK    1  A    between atoms: S2_2  and  C3_3 
REMARK    2  A    between atoms: C3_3  and  C4_4 
REMARK    3  A    between atoms: C4_4  and  C5_5 
REMARK    4  A    between atoms: C5_5  and  N7_6 
REMARK    5  A    between atoms: C5_5  and  C11_10 
ROOT
ATOM      1  C5  <0> d   1      18.237   0.080   5.883  0.00  0.00     0.284 C 
ENDROOT
BRANCH   1   2
ATOM      2  C4  <0> d   1      18.898   1.148   6.757  0.00  0.00     0.054 C 
BRANCH   2   3
ATOM      3  C3  <0> d   1      18.707   0.790   8.232  0.00  0.00     0.076 C 
BRANCH   3   4
ATOM      4  S2  <0> d   1      19.024   2.254   9.256  0.00  0.00    -0.173 SA
ATOM      5  C1  <0> d   1      17.718   2.164  10.512  0.00  0.00     0.089 C 
ENDBRANCH   3   4
ENDBRANCH   2   3
ENDBRANCH   1   2
BRANCH   1   6
ATOM      6  N7  <0> d   1      17.124  -0.535   6.619  0.00  0.00    -0.065 N 
ATOM      7  H8  <0> d   1      16.435  -0.875   5.964  0.00  0.00     0.275 HD
ATOM      8  H9  <0> d   1      17.470  -1.303   7.173  0.00  0.00     0.275 HD
ATOM      9  H10 <0> d   1      16.701   0.153   7.224  0.00  0.00     0.275 HD
ENDBRANCH   1   6
BRANCH   1  10
ATOM     10  C11 <0> d   1      19.251  -0.978   5.530  0.00  0.00     0.204 C 
ATOM     11  O12 <0> d   1      19.351  -1.981   6.218  0.00  0.00    -0.646 OA
ATOM     12  O13 <0> d   1      19.971  -0.832   4.558  0.00  0.00    -0.646 OA
ENDBRANCH   1  10
TORSDOF 5
ENDMDL
MODEL 4
REMARK VINA RESULT:      -3.6      6.711      7.596
REMARK  5 active torsions:
REMARK  status: ('A' for Active; 'I' for Inactive)
REMARK    1  A    between atoms: S2_2  and  C3_3 
REMARK    2  A    between atoms: C3_3  and  C4_4 
REMARK    3  A    between atoms: C4_4  and  C5_5 
REMARK    4  A    between atoms: C5_5  and  N7_6 
REMARK    5  A    between atoms: C5_5  and  C11_10 
ROOT
ATOM      1  C5  <0> d   1      19.014   2.698  10.243  0.00  0.00     0.284 C 
ENDROOT
BRANCH   1   2
ATOM      2  C4  <0> d   1      18.993   2.153   8.814  0.00  0.00     0.054 C 
BRANCH   2   3
ATOM      3  C3  <0> d   1      19.560   0.732   8.801  0.00  0.00     0.076 C 
BRANCH   3   4
ATOM      4  S2  <0> d   1      18.672  -0.263   7.571  0.00  0.00    -0.173 SA
ATOM      5  C1  <0> d   1      18.898   0.684   6.040  0.00  0.00     0.089 C 
ENDBRANCH   3   4
ENDBRANCH   2   3
ENDBRANCH   1   2
BRANCH   1   6
ATOM      6  N7  <0> d   1      19.908   1.875  11.068  0.00  0.00    -0.065 N 
ATOM      7  H8  <0> d   1      20.822   2.302  11.101  0.00  0.00     0.275 HD
ATOM      8  H9  <0> d   1      19.535   1.805  12.003  0.00  0.00     0.275 HD
ATOM      9  H10 <0> d   1      19.983   0.953  10.666  0.00  0.00     0.275 HD
ENDBRANCH   1   6
BRANCH   1  10
ATOM     10  C11 <0> d   1      17.620   2.656  10.817  0.00  0.00     0.204 C 
ATOM     11  O12 <0> d   1      17.148   1.596  11.194  0.00  0.00    -0.646 OA
ATOM     12  O13 <0> d   1      16.965   3.680  10.903  0.00  0.00    -0.646 OA
ENDBRANCH   1  10
TORSDOF 5
ENDMDL
MODEL 5
REMARK VINA RESULT:      -3.5      5.509      6.174
REMARK  5 active torsions:
REMARK  status: ('A' for Active; 'I' for Inactive)
REMARK    1  A    between atoms: S2_2  and  C3_3 
REMARK    2  A    between atoms: C3_3  and  C4_4 
REMARK    3  A    between atoms: C4_4  and  C5_5 
REMARK    4  A    between atoms: C5_5  and  N7_6 
REMARK    5  A    between atoms: C5_5  and  C11_10 
ROOT
ATOM      1  C5  <0> d   1      20.168   0.369  12.490  0.00  0.00     0.284 C 
ENDROOT
BRANCH   1   2
ATOM      2  C4  <0> d   1      19.355   1.664  12.550  0.00  0.00     0.054 C 
BRANCH   2   3
ATOM      3  C3  <0> d   1      19.858   2.633  11.478  0.00  0.00     0.076 C 
BRANCH   3   4
ATOM      4  S2  <0> d   1      18.551   2.911  10.251  0.00  0.00    -0.173 SA
ATOM      5  C1  <0> d   1      19.163   2.020   8.794  0.00  0.00     0.089 C 
ENDBRANCH   3   4
ENDBRANCH   2   3
ENDBRANCH   1   2
BRANCH   1   6
ATOM      6  N7  <0> d   1      21.561   0.682  12.141  0.00  0.00    -0.065 N 
ATOM      7  H8  <0> d   1      21.969  -0.102  11.655  0.00  0.00     0.275 HD
ATOM      8  H9  <0> d   1      21.584   1.496  11.546  0.00  0.00     0.275 HD
ATOM      9  H10 <0> d   1      22.086   0.865  12.983  0.00  0.00     0.275 HD
ENDBRANCH   1   6
BRANCH   1  10
ATOM     10  C11 <0> d   1      19.581  -0.545  11.446  0.00  0.00     0.204 C 
ATOM     11  O12 <0> d   1      20.274  -0.944  10.525  0.00  0.00    -0.646 OA
ATOM     12  O13 <0> d   1      18.413  -0.886  11.521  0.00  0.00    -0.646 OA
ENDBRANCH   1  10
TORSDOF 5
ENDMDL
MODEL 6
REMARK VINA RESULT:      -3.5      4.326      5.531
REMARK  5 active torsions:
REMARK  status: ('A' for Active; 'I' for Inactive)
REMARK    1  A    between atoms: S2_2  and  C3_3 
REMARK    2  A    between atoms: C3_3  and  C4_4 
REMARK    3  A    between atoms: C4_4  and  C5_5 
REMARK    4  A    between atoms: C5_5  and  N7_6 
REMARK    5  A    between atoms: C5_5  and  C11_10 
ROOT
ATOM      1  C5  <0> d   1      20.233   0.276  12.082  0.00  0.00     0.284 C 
ENDROOT
BRANCH   1   2
ATOM      2  C4  <0> d   1      20.055  -0.887  11.103  0.00  0.00     0.054 C 
BRANCH   2   3
ATOM      3  C3  <0> d   1      20.092  -0.356   9.668  0.00  0.00     0.076 C 
BRANCH   3   4
ATOM      4  S2  <0> d   1      19.018   1.100   9.534  0.00  0.00    -0.173 SA
ATOM      5  C1  <0> d   1      19.140   1.536   7.777  0.00  0.00     0.089 C 
ENDBRANCH   3   4
ENDBRANCH   2   3
ENDBRANCH   1   2
BRANCH   1   6
ATOM      6  N7  <0> d   1      21.655   0.638  12.157  0.00  0.00    -0.065 N 
ATOM      7  H8  <0> d   1      21.782   1.575  11.804  0.00  0.00     0.275 HD
ATOM      8  H9  <0> d   1      21.962   0.595  13.117  0.00  0.00     0.275 HD
ATOM      9  H10 <0> d   1      22.196  -0.007  11.602  0.00  0.00     0.275 HD
ENDBRANCH   1   6
BRANCH   1  10
ATOM     10  C11 <0> d   1      19.746  -0.137  13.447  0.00  0.00     0.204 C 
ATOM     11  O12 <0> d   1      19.740   0.668  14.362  0.00  0.00    -0.646 OA
ATOM     12  O13 <0> d   1      19.358  -1.277  13.636  0.00  0.00    -0.646 OA
ENDBRANCH   1  10
TORSDOF 5
ENDMDL
MODEL 7
REMARK VINA RESULT:      -3.4      4.183      5.043
REMARK  5 active torsions:
REMARK  status: ('A' for Active; 'I' for Inactive)
REMARK    1  A    between atoms: S2_2  and  C3_3 
REMARK    2  A    between atoms: C3_3  and  C4_4 
REMARK    3  A    between atoms: C4_4  and  C5_5 
REMARK    4  A    between atoms: C5_5  and  N7_6 
REMARK    5  A    between atoms: C5_5  and  C11_10 
ROOT
ATOM      1  C5  <0> d   1      20.130   0.855  12.403  0.00  0.00     0.284 C 
ENDROOT
BRANCH   1   2
ATOM      2  C4  <0> d   1      19.269   0.121  11.372  0.00  0.00     0.054 C 
BRANCH   2   3
ATOM      3  C3  <0> d   1      18.021   0.951  11.067  0.00  0.00     0.076 C 
BRANCH   3   4
ATOM      4  S2  <0> d   1      18.464   2.334   9.980  0.00  0.00    -0.173 SA
ATOM      5  C1  <0> d   1      17.544   3.726  10.694  0.00  0.00     0.089 C 
ENDBRANCH   3   4
ENDBRANCH   2   3
ENDBRANCH   1   2
BRANCH   1   6
ATOM      6  N7  <0> d   1      21.550   0.595  12.129  0.00  0.00    -0.065 N 
ATOM      7  H8  <0> d   1      21.634  -0.214  11.531  0.00  0.00     0.275 HD
ATOM      8  H9  <0> d   1      21.956   1.396  11.670  0.00  0.00     0.275 HD
ATOM      9  H10 <0> d   1      22.034   0.423  12.997  0.00  0.00     0.275 HD
ENDBRANCH   1   6
BRANCH   1  10
ATOM     10  C11 <0> d   1      19.786   0.363  13.785  0.00  0.00     0.204 C 
ATOM     11  O12 <0> d   1      19.518   1.161  14.667  0.00  0.00    -0.646 OA
ATOM     12  O13 <0> d   1      19.776  -0.833  14.022  0.00  0.00    -0.646 OA
ENDBRANCH   1  10
TORSDOF 5
ENDMDL
MODEL 8
REMARK VINA RESULT:      -3.4      2.761      2.876
REMARK  5 active torsions:
REMARK  status: ('A' for Active; 'I' for Inactive)
REMARK    1  A    between atoms: S2_2  and  C3_3 
REMARK    2  A    between atoms: C3_3  and  C4_4 
REMARK    3  A    between atoms: C4_4  and  C5_5 
REMARK    4  A    between atoms: C5_5  and  N7_6 
REMARK    5  A    between atoms: C5_5  and  C11_10 
ROOT
ATOM      1  C5  <0> d   1      18.856   0.945  16.570  0.00  0.00     0.284 C 
ENDROOT
BRANCH   1   2
ATOM      2  C4  <0> d   1      19.204   2.364  16.116  0.00  0.00     0.054 C 
BRANCH   2   3
ATOM      3  C3  <0> d   1      18.725   2.571  14.678  0.00  0.00     0.076 C 
BRANCH   3   4
ATOM      4  S2  <0> d   1      18.340   4.324  14.415  0.00  0.00    -0.173 SA
ATOM      5  C1  <0> d   1      19.470   4.794  13.076  0.00  0.00     0.089 C 
ENDBRANCH   3   4
ENDBRANCH   2   3
ENDBRANCH   1   2
BRANCH   1   6
ATOM      6  N7  <0> d   1      17.399   0.758  16.518  0.00  0.00    -0.065 N 
ATOM      7  H8  <0> d   1      17.189  -0.228  16.461  0.00  0.00     0.275 HD
ATOM      8  H9  <0> d   1      16.981   1.144  17.351  0.00  0.00     0.275 HD
ATOM      9  H10 <0> d   1      17.029   1.228  15.706  0.00  0.00     0.275 HD
ENDBRANCH   1   6
BRANCH   1  10
ATOM     10  C11 <0> d   1      19.339   0.737  17.983  0.00  0.00     0.204 C 
ATOM     11  O12 <0> d   1      19.791   1.675  18.617  0.00  0.00    -0.646 OA
ATOM     12  O13 <0> d   1      19.278  -0.369  18.491  0.00  0.00    -0.646 OA
ENDBRANCH   1  10
TORSDOF 5
ENDMDL
MODEL 9
REMARK VINA RESULT:      -3.4      4.046      5.227
REMARK  5 active torsions:
REMARK  status: ('A' for Active; 'I' for Inactive)
REMARK    1  A    between atoms: S2_2  and  C3_3 
REMARK    2  A    between atoms: C3_3  and  C4_4 
REMARK    3  A    between atoms: C4_4  and  C5_5 
REMARK    4  A    between atoms: C5_5  and  N7_6 
REMARK    5  A    between atoms: C5_5  and  C11_10 
ROOT
ATOM      1  C5  <0> d   1      20.192   0.424  12.364  0.00  0.00     0.284 C 
ENDROOT
BRANCH   1   2
ATOM      2  C4  <0> d   1      19.898   0.263  13.857  0.00  0.00     0.054 C 
BRANCH   2   3
ATOM      3  C3  <0> d   1      19.046  -0.989  14.076  0.00  0.00     0.076 C 
BRANCH   3   4
ATOM      4  S2  <0> d   1      18.764  -1.225  15.853  0.00  0.00    -0.173 SA
ATOM      5  C1  <0> d   1      17.441  -0.039  16.217  0.00  0.00     0.089 C 
ENDBRANCH   3   4
ENDBRANCH   2   3
ENDBRANCH   1   2
BRANCH   1   6
ATOM      6  N7  <0> d   1      21.636   0.607  12.166  0.00  0.00    -0.065 N 
ATOM      7  H8  <0> d   1      21.840   1.591  12.072  0.00  0.00     0.275 HD
ATOM      8  H9  <0> d   1      22.134   0.234  12.960  0.00  0.00     0.275 HD
ATOM      9  H10 <0> d   1      21.925   0.123  11.329  0.00  0.00     0.275 HD
ENDBRANCH   1   6
BRANCH   1  10
ATOM     10  C11 <0> d   1      19.455   1.628  11.835  0.00  0.00     0.204 C 
ATOM     11  O12 <0> d   1      19.290   1.763  10.634  0.00  0.00    -0.646 OA
ATOM     12  O13 <0> d   1      19.025   2.468  12.606  0.00  0.00    -0.646 OA
ENDBRANCH   1  10
TORSDOF 5
ENDMDL
