MODEL 1
REMARK VINA RESULT:     -11.0      0.000      0.000
REMARK  7 active torsions:
REMARK  status: ('A' for Active; 'I' for Inactive)
REMARK    1  A    between atoms: N4_4  and  C5_5 
REMARK    2  A    between atoms: C7_7  and  N8_8 
REMARK       I    between atoms: N8_8  and  C9_9 
REMARK    3  A    between atoms: C9_9  and  C11_11 
REMARK    4  A    between atoms: C16_16  and  N17_17 
REMARK    5  A    between atoms: N17_17  and  C18_18 
REMARK    6  A    between atoms: C22_22  and  C23_23 
REMARK    7  A    between atoms: C32_32  and  C33_33 
ROOT
ATOM      1  C11 ZIN A   1      18.439  -4.089  11.038  0.00  0.00     0.034 A 
ATOM      2  C12 ZIN A   1      17.600  -5.144  11.400  0.00  0.00     0.018 A 
ATOM      3  C13 ZIN A   1      17.323  -6.147  10.494  0.00  0.00     0.010 A 
ATOM      4  C14 ZIN A   1      17.876  -6.114   9.228  0.00  0.00    -0.035 A 
ATOM      5  C15 ZIN A   1      17.568  -7.214   8.245  0.00  0.00     0.050 C 
ATOM      6  C16 ZIN A   1      18.712  -5.068   8.857  0.00  0.00     0.056 A 
ATOM      7  C30 ZIN A   1      18.992  -4.052   9.758  0.00  0.00     0.047 A 
ENDROOT
BRANCH   1   8
ATOM      8  C9  ZIN A   1      18.737  -3.013  12.006  0.00  0.00     0.256 C 
ATOM      9  N8  ZIN A   1      17.732  -2.311  12.565  0.00  0.00    -0.323 N 
ATOM     10  H46 ZIN A   1      16.811  -2.566  12.399  0.00  0.00     0.169 HD
ATOM     11  O10 ZIN A   1      19.891  -2.760  12.299  0.00  0.00    -0.267 OA
BRANCH   9  12
ATOM     12  C7  ZIN A   1      18.015  -1.214  13.385  0.00  0.00     0.037 A 
ATOM     13  C6  ZIN A   1      18.001   0.070  12.855  0.00  0.00     0.059 A 
ATOM     14  C5  ZIN A   1      18.282   1.156  13.671  0.00  0.00     0.042 A 
ATOM     15  C37 ZIN A   1      18.583   0.956  15.012  0.00  0.00     0.046 A 
ATOM     16  C32 ZIN A   1      18.591  -0.321  15.537  0.00  0.00     0.052 A 
ATOM     17  C31 ZIN A   1      18.311  -1.406  14.728  0.00  0.00     0.046 A 
BRANCH  14  18
ATOM     18  N4  ZIN A   1      18.269   2.454  13.140  0.00  0.00    -0.317 N 
ATOM     19  C3  ZIN A   1      17.675   2.850  11.969  0.00  0.00     0.122 A 
ATOM     20  C2  ZIN A   1      17.904   4.171  11.843  0.00  0.00     0.022 A 
ATOM     21  C1  ZIN A   1      17.440   5.044  10.706  0.00  0.00     0.069 C 
ATOM     22  N39 ZIN A   1      18.623   4.575  12.902  0.00  0.00    -0.354 N 
ATOM     23  C38 ZIN A   1      18.842   3.557  13.689  0.00  0.00     0.188 A 
ATOM     24  H40 ZIN A   1      18.925   5.482  13.062  0.00  0.00     0.166 HD
ENDBRANCH  14  18
BRANCH  16  25
ATOM     25  C33 ZIN A   1      18.912  -0.534  16.994  0.00  0.00     0.417 C 
ATOM     26  F34 ZIN A   1      19.679  -1.694  17.138  0.00  0.00    -0.166 F 
ATOM     27  F35 ZIN A   1      19.632   0.564  17.478  0.00  0.00    -0.166 F 
ATOM     28  F36 ZIN A   1      17.722  -0.668  17.719  0.00  0.00    -0.166 F 
ENDBRANCH  16  25
ENDBRANCH   9  12
ENDBRANCH   1   8
BRANCH   6  29
ATOM     29  N17 ZIN A   1      19.268  -5.037   7.574  0.00  0.00    -0.188 N 
ATOM     30  H52 ZIN A   1      19.723  -5.820   7.224  0.00  0.00     0.184 HD
BRANCH  29  31
ATOM     31  C18 ZIN A   1      19.170  -3.890   6.803  0.00  0.00     0.727 A 
ATOM     32  N29 ZIN A   1      19.190  -2.709   7.401  0.00  0.00    -0.062 NA
ATOM     33  C22 ZIN A   1      19.102  -1.588   6.688  0.00  0.00     0.089 A 
ATOM     34  C21 ZIN A   1      18.978  -1.677   5.299  0.00  0.00     0.053 A 
ATOM     35  C20 ZIN A   1      18.956  -2.932   4.718  0.00  0.00     0.139 A 
ATOM     36  N19 ZIN A   1      19.053  -4.004   5.489  0.00  0.00    -0.075 NA
BRANCH  33  37
ATOM     37  C23 ZIN A   1      19.131  -0.266   7.358  0.00  0.00     0.011 A 
ATOM     38  C28 ZIN A   1      19.416  -0.167   8.719  0.00  0.00     0.130 A 
ATOM     39  N27 ZIN A   1      19.446   1.008   9.314  0.00  0.00    -0.272 NA
ATOM     40  C26 ZIN A   1      19.201   2.126   8.660  0.00  0.00     0.116 A 
ATOM     41  C25 ZIN A   1      18.905   2.112   7.309  0.00  0.00     0.020 A 
ATOM     42  C24 ZIN A   1      18.865   0.902   6.637  0.00  0.00     0.017 A 
ENDBRANCH  33  37
ENDBRANCH  29  31
ENDBRANCH   6  29
TORSDOF 7
ENDMDL
MODEL 2
REMARK VINA RESULT:     -11.0      2.875      7.871
REMARK  7 active torsions:
REMARK  status: ('A' for Active; 'I' for Inactive)
REMARK    1  A    between atoms: N4_4  and  C5_5 
REMARK    2  A    between atoms: C7_7  and  N8_8 
REMARK       I    between atoms: N8_8  and  C9_9 
REMARK    3  A    between atoms: C9_9  and  C11_11 
REMARK    4  A    between atoms: C16_16  and  N17_17 
REMARK    5  A    between atoms: N17_17  and  C18_18 
REMARK    6  A    between atoms: C22_22  and  C23_23 
REMARK    7  A    between atoms: C32_32  and  C33_33 
ROOT
ATOM      1  C11 ZIN A   1      18.666  -0.793  14.949  0.00  0.00     0.034 A 
ATOM      2  C12 ZIN A   1      18.854  -1.582  16.085  0.00  0.00     0.018 A 
ATOM      3  C13 ZIN A   1      18.797  -1.012  17.339  0.00  0.00     0.010 A 
ATOM      4  C14 ZIN A   1      18.551   0.341  17.478  0.00  0.00    -0.035 A 
ATOM      5  C15 ZIN A   1      18.490   0.957  18.852  0.00  0.00     0.050 C 
ATOM      6  C16 ZIN A   1      18.363   1.137  16.354  0.00  0.00     0.056 A 
ATOM      7  C30 ZIN A   1      18.424   0.574  15.088  0.00  0.00     0.047 A 
ENDROOT
BRANCH   1   8
ATOM      8  C9  ZIN A   1      18.727  -1.402  13.604  0.00  0.00     0.256 C 
ATOM      9  N8  ZIN A   1      17.632  -1.416  12.819  0.00  0.00    -0.323 N 
ATOM     10  H46 ZIN A   1      16.827  -0.953  13.101  0.00  0.00     0.169 HD
ATOM     11  O10 ZIN A   1      19.767  -1.892  13.204  0.00  0.00    -0.267 OA
BRANCH   9  12
ATOM     12  C7  ZIN A   1      17.652  -2.100  11.600  0.00  0.00     0.037 A 
ATOM     13  C6  ZIN A   1      17.811  -1.396  10.413  0.00  0.00     0.059 A 
ATOM     14  C5  ZIN A   1      17.831  -2.078   9.204  0.00  0.00     0.042 A 
ATOM     15  C37 ZIN A   1      17.686  -3.459   9.185  0.00  0.00     0.046 A 
ATOM     16  C32 ZIN A   1      17.534  -4.156  10.368  0.00  0.00     0.052 A 
ATOM     17  C31 ZIN A   1      17.513  -3.481  11.573  0.00  0.00     0.046 A 
BRANCH  14  18
ATOM     18  N4  ZIN A   1      17.990  -1.371   8.003  0.00  0.00    -0.317 N 
ATOM     19  C3  ZIN A   1      18.816  -1.709   6.962  0.00  0.00     0.122 A 
ATOM     20  C2  ZIN A   1      18.658  -0.763   6.016  0.00  0.00     0.022 A 
ATOM     21  C1  ZIN A   1      19.365  -0.715   4.687  0.00  0.00     0.069 C 
ATOM     22  N39 ZIN A   1      17.766   0.133   6.465  0.00  0.00    -0.354 N 
ATOM     23  C38 ZIN A   1      17.354  -0.224   7.651  0.00  0.00     0.188 A 
ATOM     24  H40 ZIN A   1      17.468   0.919   5.981  0.00  0.00     0.166 HD
ENDBRANCH  14  18
BRANCH  16  25
ATOM     25  C33 ZIN A   1      17.383  -5.655  10.342  0.00  0.00     0.417 C 
ATOM     26  F34 ZIN A   1      16.221  -5.995   9.641  0.00  0.00    -0.166 F 
ATOM     27  F35 ZIN A   1      18.492  -6.226   9.711  0.00  0.00    -0.166 F 
ATOM     28  F36 ZIN A   1      17.294  -6.136  11.654  0.00  0.00    -0.166 F 
ENDBRANCH  16  25
ENDBRANCH   9  12
ENDBRANCH   1   8
BRANCH   6  29
ATOM     29  N17 ZIN A   1      18.116   2.506  16.498  0.00  0.00    -0.188 N 
ATOM     30  H52 ZIN A   1      17.578   2.826  17.240  0.00  0.00     0.184 HD
BRANCH  29  31
ATOM     31  C18 ZIN A   1      18.639   3.405  15.583  0.00  0.00     0.727 A 
ATOM     32  N29 ZIN A   1      18.494   3.165  14.290  0.00  0.00    -0.062 NA
ATOM     33  C22 ZIN A   1      18.981   4.012  13.385  0.00  0.00     0.089 A 
ATOM     34  C21 ZIN A   1      19.659   5.154  13.822  0.00  0.00     0.053 A 
ATOM     35  C20 ZIN A   1      19.792   5.360  15.183  0.00  0.00     0.139 A 
ATOM     36  N19 ZIN A   1      19.278   4.478  16.026  0.00  0.00    -0.075 NA
BRANCH  33  37
ATOM     37  C23 ZIN A   1      18.812   3.745  11.936  0.00  0.00     0.011 A 
ATOM     38  C28 ZIN A   1      19.432   2.648  11.341  0.00  0.00     0.130 A 
ATOM     39  N27 ZIN A   1      19.278   2.407  10.055  0.00  0.00    -0.272 NA
ATOM     40  C26 ZIN A   1      18.549   3.189   9.283  0.00  0.00     0.116 A 
ATOM     41  C25 ZIN A   1      17.906   4.301   9.797  0.00  0.00     0.020 A 
ATOM     42  C24 ZIN A   1      18.033   4.593  11.144  0.00  0.00     0.017 A 
ENDBRANCH  33  37
ENDBRANCH  29  31
ENDBRANCH   6  29
TORSDOF 7
ENDMDL
MODEL 3
REMARK VINA RESULT:     -10.8      4.072     10.002
REMARK  7 active torsions:
REMARK  status: ('A' for Active; 'I' for Inactive)
REMARK    1  A    between atoms: N4_4  and  C5_5 
REMARK    2  A    between atoms: C7_7  and  N8_8 
REMARK       I    between atoms: N8_8  and  C9_9 
REMARK    3  A    between atoms: C9_9  and  C11_11 
REMARK    4  A    between atoms: C16_16  and  N17_17 
REMARK    5  A    between atoms: N17_17  and  C18_18 
REMARK    6  A    between atoms: C22_22  and  C23_23 
REMARK    7  A    between atoms: C32_32  and  C33_33 
ROOT
ATOM      1  C11 ZIN A   1      18.053   3.711  11.298  0.00  0.00     0.034 A 
ATOM      2  C12 ZIN A   1      16.931   4.490  11.009  0.00  0.00     0.018 A 
ATOM      3  C13 ZIN A   1      16.561   5.512  11.859  0.00  0.00     0.010 A 
ATOM      4  C14 ZIN A   1      17.300   5.770  12.998  0.00  0.00    -0.035 A 
ATOM      5  C15 ZIN A   1      16.889   6.888  13.922  0.00  0.00     0.050 C 
ATOM      6  C16 ZIN A   1      18.418   5.000  13.297  0.00  0.00     0.056 A 
ATOM      7  C30 ZIN A   1      18.794   3.968  12.451  0.00  0.00     0.047 A 
ENDROOT
BRANCH   1   8
ATOM      8  C9  ZIN A   1      18.450   2.616  10.389  0.00  0.00     0.256 C 
ATOM      9  N8  ZIN A   1      17.521   1.762   9.915  0.00  0.00    -0.323 N 
ATOM     10  H46 ZIN A   1      16.581   1.915  10.101  0.00  0.00     0.169 HD
ATOM     11  O10 ZIN A   1      19.616   2.485  10.068  0.00  0.00    -0.267 OA
BRANCH   9  12
ATOM     12  C7  ZIN A   1      17.911   0.654   9.156  0.00  0.00     0.037 A 
ATOM     13  C6  ZIN A   1      17.957  -0.605   9.739  0.00  0.00     0.059 A 
ATOM     14  C5  ZIN A   1      18.344  -1.702   8.983  0.00  0.00     0.042 A 
ATOM     15  C37 ZIN A   1      18.690  -1.536   7.648  0.00  0.00     0.046 A 
ATOM     16  C32 ZIN A   1      18.637  -0.283   7.070  0.00  0.00     0.052 A 
ATOM     17  C31 ZIN A   1      18.253   0.812   7.819  0.00  0.00     0.046 A 
BRANCH  14  18
ATOM     18  N4  ZIN A   1      18.393  -2.976   9.569  0.00  0.00    -0.317 N 
ATOM     19  C3  ZIN A   1      17.624  -3.423  10.613  0.00  0.00     0.122 A 
ATOM     20  C2  ZIN A   1      17.995  -4.695  10.853  0.00  0.00     0.022 A 
ATOM     21  C1  ZIN A   1      17.423  -5.597  11.915  0.00  0.00     0.069 C 
ATOM     22  N39 ZIN A   1      18.968  -5.018   9.987  0.00  0.00    -0.354 N 
ATOM     23  C38 ZIN A   1      19.210  -3.999   9.208  0.00  0.00     0.188 A 
ATOM     24  H40 ZIN A   1      19.415  -5.877   9.941  0.00  0.00     0.166 HD
ENDBRANCH  14  18
BRANCH  16  25
ATOM     25  C33 ZIN A   1      19.008  -0.109   5.620  0.00  0.00     0.417 C 
ATOM     26  F34 ZIN A   1      17.850  -0.136   4.835  0.00  0.00    -0.166 F 
ATOM     27  F35 ZIN A   1      19.658   1.118   5.448  0.00  0.00    -0.166 F 
ATOM     28  F36 ZIN A   1      19.861  -1.147   5.228  0.00  0.00    -0.166 F 
ENDBRANCH  16  25
ENDBRANCH   9  12
ENDBRANCH   1   8
BRANCH   6  29
ATOM     29  N17 ZIN A   1      19.161   5.264  14.452  0.00  0.00    -0.188 N 
ATOM     30  H52 ZIN A   1      19.864   5.933  14.434  0.00  0.00     0.184 HD
BRANCH  29  31
ATOM     31  C18 ZIN A   1      18.895   4.570  15.621  0.00  0.00     0.727 A 
ATOM     32  N29 ZIN A   1      19.034   3.254  15.634  0.00  0.00    -0.062 NA
ATOM     33  C22 ZIN A   1      18.790   2.558  16.743  0.00  0.00     0.089 A 
ATOM     34  C21 ZIN A   1      18.375   3.238  17.892  0.00  0.00     0.053 A 
ATOM     35  C20 ZIN A   1      18.237   4.613  17.829  0.00  0.00     0.139 A 
ATOM     36  N19 ZIN A   1      18.502   5.240  16.694  0.00  0.00    -0.075 NA
BRANCH  33  37
ATOM     37  C23 ZIN A   1      18.952   1.085  16.758  0.00  0.00     0.011 A 
ATOM     38  C28 ZIN A   1      19.249   0.416  17.945  0.00  0.00     0.130 A 
ATOM     39  N27 ZIN A   1      19.388  -0.894  17.960  0.00  0.00    -0.272 NA
ATOM     40  C26 ZIN A   1      19.263  -1.620  16.866  0.00  0.00     0.116 A 
ATOM     41  C25 ZIN A   1      18.975  -1.031  15.648  0.00  0.00     0.020 A 
ATOM     42  C24 ZIN A   1      18.815   0.342  15.581  0.00  0.00     0.017 A 
ENDBRANCH  33  37
ENDBRANCH  29  31
ENDBRANCH   6  29
TORSDOF 7
ENDMDL
MODEL 4
REMARK VINA RESULT:     -10.6      2.086      4.992
REMARK  7 active torsions:
REMARK  status: ('A' for Active; 'I' for Inactive)
REMARK    1  A    between atoms: N4_4  and  C5_5 
REMARK    2  A    between atoms: C7_7  and  N8_8 
REMARK       I    between atoms: N8_8  and  C9_9 
REMARK    3  A    between atoms: C9_9  and  C11_11 
REMARK    4  A    between atoms: C16_16  and  N17_17 
REMARK    5  A    between atoms: N17_17  and  C18_18 
REMARK    6  A    between atoms: C22_22  and  C23_23 
REMARK    7  A    between atoms: C32_32  and  C33_33 
ROOT
ATOM      1  C11 ZIN A   1      18.452   1.154   9.157  0.00  0.00     0.034 A 
ATOM      2  C12 ZIN A   1      19.008   2.193   8.410  0.00  0.00     0.018 A 
ATOM      3  C13 ZIN A   1      19.235   2.028   7.059  0.00  0.00     0.010 A 
ATOM      4  C14 ZIN A   1      18.912   0.836   6.440  0.00  0.00    -0.035 A 
ATOM      5  C15 ZIN A   1      19.163   0.663   4.963  0.00  0.00     0.050 C 
ATOM      6  C16 ZIN A   1      18.358  -0.206   7.174  0.00  0.00     0.056 A 
ATOM      7  C30 ZIN A   1      18.131  -0.052   8.533  0.00  0.00     0.047 A 
ENDROOT
BRANCH   1   8
ATOM      8  C9  ZIN A   1      18.208   1.328  10.604  0.00  0.00     0.256 C 
ATOM      9  N8  ZIN A   1      19.246   1.368  11.463  0.00  0.00    -0.323 N 
ATOM     10  H46 ZIN A   1      20.155   1.367  11.125  0.00  0.00     0.169 HD
ATOM     11  O10 ZIN A   1      17.070   1.437  11.020  0.00  0.00    -0.267 OA
BRANCH   9  12
ATOM     12  C7  ZIN A   1      19.013   1.408  12.841  0.00  0.00     0.037 A 
ATOM     13  C6  ZIN A   1      18.998   2.627  13.506  0.00  0.00     0.059 A 
ATOM     14  C5  ZIN A   1      18.766   2.664  14.874  0.00  0.00     0.042 A 
ATOM     15  C37 ZIN A   1      18.558   1.482  15.574  0.00  0.00     0.046 A 
ATOM     16  C32 ZIN A   1      18.568   0.272  14.908  0.00  0.00     0.052 A 
ATOM     17  C31 ZIN A   1      18.798   0.231  13.546  0.00  0.00     0.046 A 
BRANCH  14  18
ATOM     18  N4  ZIN A   1      18.751   3.893  15.550  0.00  0.00    -0.317 N 
ATOM     19  C3  ZIN A   1      18.156   5.051  15.121  0.00  0.00     0.122 A 
ATOM     20  C2  ZIN A   1      18.382   5.980  16.070  0.00  0.00     0.022 A 
ATOM     21  C1  ZIN A   1      17.915   7.412  16.035  0.00  0.00     0.069 C 
ATOM     22  N39 ZIN A   1      19.099   5.411  17.051  0.00  0.00    -0.354 N 
ATOM     23  C38 ZIN A   1      19.321   4.159  16.753  0.00  0.00     0.188 A 
ATOM     24  H40 ZIN A   1      19.400   5.857  17.857  0.00  0.00     0.166 HD
ENDBRANCH  14  18
BRANCH  16  25
ATOM     25  C33 ZIN A   1      18.336  -1.007  15.669  0.00  0.00     0.417 C 
ATOM     26  F34 ZIN A   1      17.106  -0.940  16.331  0.00  0.00    -0.166 F 
ATOM     27  F35 ZIN A   1      18.328  -2.086  14.779  0.00  0.00    -0.166 F 
ATOM     28  F36 ZIN A   1      19.361  -1.184  16.607  0.00  0.00    -0.166 F 
ENDBRANCH  16  25
ENDBRANCH   9  12
ENDBRANCH   1   8
BRANCH   6  29
ATOM     29  N17 ZIN A   1      18.034  -1.412   6.544  0.00  0.00    -0.188 N 
ATOM     30  H52 ZIN A   1      17.416  -1.418   5.796  0.00  0.00     0.184 HD
BRANCH  29  31
ATOM     31  C18 ZIN A   1      18.595  -2.599   6.987  0.00  0.00     0.727 A 
ATOM     32  N29 ZIN A   1      18.183  -3.118   8.133  0.00  0.00    -0.062 NA
ATOM     33  C22 ZIN A   1      18.699  -4.259   8.584  0.00  0.00     0.089 A 
ATOM     34  C21 ZIN A   1      19.691  -4.897   7.835  0.00  0.00     0.053 A 
ATOM     35  C20 ZIN A   1      20.096  -4.315   6.647  0.00  0.00     0.139 A 
ATOM     36  N19 ZIN A   1      19.535  -3.181   6.257  0.00  0.00    -0.075 NA
BRANCH  33  37
ATOM     37  C23 ZIN A   1      18.232  -4.842   9.865  0.00  0.00     0.011 A 
ATOM     38  C28 ZIN A   1      17.700  -6.130   9.905  0.00  0.00     0.130 A 
ATOM     39  N27 ZIN A   1      17.290  -6.651  11.044  0.00  0.00    -0.272 NA
ATOM     40  C26 ZIN A   1      17.353  -5.981  12.178  0.00  0.00     0.116 A 
ATOM     41  C25 ZIN A   1      17.863  -4.696  12.221  0.00  0.00     0.020 A 
ATOM     42  C24 ZIN A   1      18.312  -4.107  11.052  0.00  0.00     0.017 A 
ENDBRANCH  33  37
ENDBRANCH  29  31
ENDBRANCH   6  29
TORSDOF 7
ENDMDL
MODEL 5
REMARK VINA RESULT:     -10.5      2.841      6.034
REMARK  7 active torsions:
REMARK  status: ('A' for Active; 'I' for Inactive)
REMARK    1  A    between atoms: N4_4  and  C5_5 
REMARK    2  A    between atoms: C7_7  and  N8_8 
REMARK       I    between atoms: N8_8  and  C9_9 
REMARK    3  A    between atoms: C9_9  and  C11_11 
REMARK    4  A    between atoms: C16_16  and  N17_17 
REMARK    5  A    between atoms: N17_17  and  C18_18 
REMARK    6  A    between atoms: C22_22  and  C23_23 
REMARK    7  A    between atoms: C32_32  and  C33_33 
ROOT
ATOM      1  C11 ZIN A   1      18.711  -0.022   8.217  0.00  0.00     0.034 A 
ATOM      2  C12 ZIN A   1      18.392   0.599   7.009  0.00  0.00     0.018 A 
ATOM      3  C13 ZIN A   1      18.552  -0.080   5.819  0.00  0.00     0.010 A 
ATOM      4  C14 ZIN A   1      19.027  -1.378   5.817  0.00  0.00    -0.035 A 
ATOM      5  C15 ZIN A   1      19.200  -2.114   4.513  0.00  0.00     0.050 C 
ATOM      6  C16 ZIN A   1      19.350  -2.006   7.015  0.00  0.00     0.056 A 
ATOM      7  C30 ZIN A   1      19.197  -1.330   8.215  0.00  0.00     0.047 A 
ENDROOT
BRANCH   1   8
ATOM      8  C9  ZIN A   1      18.540   0.704   9.493  0.00  0.00     0.256 C 
ATOM      9  N8  ZIN A   1      19.598   0.900  10.304  0.00  0.00    -0.323 N 
ATOM     10  H46 ZIN A   1      20.487   0.641  10.014  0.00  0.00     0.169 HD
ATOM     11  O10 ZIN A   1      17.444   1.125   9.811  0.00  0.00    -0.267 OA
BRANCH   9  12
ATOM     12  C7  ZIN A   1      19.416   1.476  11.565  0.00  0.00     0.037 A 
ATOM     13  C6  ZIN A   1      19.334   0.669  12.692  0.00  0.00     0.059 A 
ATOM     14  C5  ZIN A   1      19.153   1.244  13.941  0.00  0.00     0.042 A 
ATOM     15  C37 ZIN A   1      19.049   2.624  14.061  0.00  0.00     0.046 A 
ATOM     16  C32 ZIN A   1      19.137   3.425  12.939  0.00  0.00     0.052 A 
ATOM     17  C31 ZIN A   1      19.316   2.856  11.692  0.00  0.00     0.046 A 
BRANCH  14  18
ATOM     18  N4  ZIN A   1      19.069   0.432  15.082  0.00  0.00    -0.317 N 
ATOM     19  C3  ZIN A   1      18.950   0.859  16.380  0.00  0.00     0.122 A 
ATOM     20  C2  ZIN A   1      18.901  -0.244  17.150  0.00  0.00     0.022 A 
ATOM     21  C1  ZIN A   1      18.772  -0.269  18.651  0.00  0.00     0.069 C 
ATOM     22  N39 ZIN A   1      18.994  -1.318  16.351  0.00  0.00    -0.354 N 
ATOM     23  C38 ZIN A   1      19.088  -0.926  15.109  0.00  0.00     0.188 A 
ATOM     24  H40 ZIN A   1      18.984  -2.241  16.648  0.00  0.00     0.166 HD
ENDBRANCH  14  18
BRANCH  16  25
ATOM     25  C33 ZIN A   1      19.028   4.921  13.073  0.00  0.00     0.417 C 
ATOM     26  F34 ZIN A   1      18.871   5.259  14.421  0.00  0.00    -0.166 F 
ATOM     27  F35 ZIN A   1      20.190   5.521  12.575  0.00  0.00    -0.166 F 
ATOM     28  F36 ZIN A   1      17.922   5.376  12.346  0.00  0.00    -0.166 F 
ENDBRANCH  16  25
ENDBRANCH   9  12
ENDBRANCH   1   8
BRANCH   6  29
ATOM     29  N17 ZIN A   1      19.832  -3.319   7.009  0.00  0.00    -0.188 N 
ATOM     30  H52 ZIN A   1      20.652  -3.532   6.535  0.00  0.00     0.184 HD
BRANCH  29  31
ATOM     31  C18 ZIN A   1      19.140  -4.315   7.679  0.00  0.00     0.727 A 
ATOM     32  N29 ZIN A   1      17.915  -4.625   7.284  0.00  0.00    -0.062 NA
ATOM     33  C22 ZIN A   1      17.225  -5.580   7.904  0.00  0.00     0.089 A 
ATOM     34  C21 ZIN A   1      17.810  -6.245   8.985  0.00  0.00     0.053 A 
ATOM     35  C20 ZIN A   1      19.090  -5.884   9.366  0.00  0.00     0.139 A 
ATOM     36  N19 ZIN A   1      19.719  -4.928   8.701  0.00  0.00    -0.075 NA
BRANCH  33  37
ATOM     37  C23 ZIN A   1      15.855  -5.929   7.458  0.00  0.00     0.011 A 
ATOM     38  C28 ZIN A   1      15.593  -6.191   6.114  0.00  0.00     0.130 A 
ATOM     39  N27 ZIN A   1      14.377  -6.507   5.717  0.00  0.00    -0.272 NA
ATOM     40  C26 ZIN A   1      13.366  -6.578   6.561  0.00  0.00     0.116 A 
ATOM     41  C25 ZIN A   1      13.543  -6.327   7.910  0.00  0.00     0.020 A 
ATOM     42  C24 ZIN A   1      14.803  -5.996   8.377  0.00  0.00     0.017 A 
ENDBRANCH  33  37
ENDBRANCH  29  31
ENDBRANCH   6  29
TORSDOF 7
ENDMDL
MODEL 6
REMARK VINA RESULT:     -10.5      2.258      4.884
REMARK  7 active torsions:
REMARK  status: ('A' for Active; 'I' for Inactive)
REMARK    1  A    between atoms: N4_4  and  C5_5 
REMARK    2  A    between atoms: C7_7  and  N8_8 
REMARK       I    between atoms: N8_8  and  C9_9 
REMARK    3  A    between atoms: C9_9  and  C11_11 
REMARK    4  A    between atoms: C16_16  and  N17_17 
REMARK    5  A    between atoms: N17_17  and  C18_18 
REMARK    6  A    between atoms: C22_22  and  C23_23 
REMARK    7  A    between atoms: C32_32  and  C33_33 
ROOT
ATOM      1  C11 ZIN A   1      18.765  -0.289  10.040  0.00  0.00     0.034 A 
ATOM      2  C12 ZIN A   1      18.091   0.641   9.246  0.00  0.00     0.018 A 
ATOM      3  C13 ZIN A   1      17.929   0.408   7.896  0.00  0.00     0.010 A 
ATOM      4  C14 ZIN A   1      18.430  -0.746   7.324  0.00  0.00    -0.035 A 
ATOM      5  C15 ZIN A   1      18.249  -0.993   5.848  0.00  0.00     0.050 C 
ATOM      6  C16 ZIN A   1      19.104  -1.678   8.105  0.00  0.00     0.056 A 
ATOM      7  C30 ZIN A   1      19.276  -1.450   9.461  0.00  0.00     0.047 A 
ENDROOT
BRANCH   1   8
ATOM      8  C9  ZIN A   1      18.939  -0.041  11.486  0.00  0.00     0.256 C 
ATOM      9  N8  ZIN A   1      17.880   0.306  12.244  0.00  0.00    -0.323 N 
ATOM     10  H46 ZIN A   1      16.990   0.311  11.859  0.00  0.00     0.169 HD
ATOM     11  O10 ZIN A   1      20.040  -0.150  11.994  0.00  0.00    -0.267 OA
BRANCH   9  12
ATOM     12  C7  ZIN A   1      18.064   0.661  13.584  0.00  0.00     0.037 A 
ATOM     13  C6  ZIN A   1      18.336   1.980  13.921  0.00  0.00     0.059 A 
ATOM     14  C5  ZIN A   1      18.517   2.328  15.252  0.00  0.00     0.042 A 
ATOM     15  C37 ZIN A   1      18.434   1.356  16.241  0.00  0.00     0.046 A 
ATOM     16  C32 ZIN A   1      18.158   0.046  15.902  0.00  0.00     0.052 A 
ATOM     17  C31 ZIN A   1      17.976  -0.305  14.578  0.00  0.00     0.046 A 
BRANCH  14  18
ATOM     18  N4  ZIN A   1      18.793   3.660  15.597  0.00  0.00    -0.317 N 
ATOM     19  C3  ZIN A   1      18.140   4.773  15.135  0.00  0.00     0.122 A 
ATOM     20  C2  ZIN A   1      18.723   5.838  15.720  0.00  0.00     0.022 A 
ATOM     21  C1  ZIN A   1      18.339   7.280  15.514  0.00  0.00     0.069 C 
ATOM     22  N39 ZIN A   1      19.709   5.392  16.514  0.00  0.00    -0.354 N 
ATOM     23  C38 ZIN A   1      19.756   4.089  16.453  0.00  0.00     0.188 A 
ATOM     24  H40 ZIN A   1      20.290   5.950  17.053  0.00  0.00     0.166 HD
ENDBRANCH  14  18
BRANCH  16  25
ATOM     25  C33 ZIN A   1      18.062  -1.004  16.978  0.00  0.00     0.417 C 
ATOM     26  F34 ZIN A   1      18.305  -0.419  18.225  0.00  0.00    -0.166 F 
ATOM     27  F35 ZIN A   1      16.781  -1.566  16.969  0.00  0.00    -0.166 F 
ATOM     28  F36 ZIN A   1      19.011  -2.005  16.739  0.00  0.00    -0.166 F 
ENDBRANCH  16  25
ENDBRANCH   9  12
ENDBRANCH   1   8
BRANCH   6  29
ATOM     29  N17 ZIN A   1      19.611  -2.844   7.522  0.00  0.00    -0.188 N 
ATOM     30  H52 ZIN A   1      20.323  -2.787   6.865  0.00  0.00     0.184 HD
BRANCH  29  31
ATOM     31  C18 ZIN A   1      19.097  -4.080   7.882  0.00  0.00     0.727 A 
ATOM     32  N29 ZIN A   1      17.858  -4.387   7.536  0.00  0.00    -0.062 NA
ATOM     33  C22 ZIN A   1      17.336  -5.568   7.863  0.00  0.00     0.089 A 
ATOM     34  C21 ZIN A   1      18.115  -6.475   8.587  0.00  0.00     0.053 A 
ATOM     35  C20 ZIN A   1      19.403  -6.108   8.932  0.00  0.00     0.139 A 
ATOM     36  N19 ZIN A   1      19.858  -4.919   8.569  0.00  0.00    -0.075 NA
BRANCH  33  37
ATOM     37  C23 ZIN A   1      15.949  -5.913   7.469  0.00  0.00     0.011 A 
ATOM     38  C28 ZIN A   1      15.644  -6.222   6.145  0.00  0.00     0.130 A 
ATOM     39  N27 ZIN A   1      14.413  -6.534   5.795  0.00  0.00    -0.272 NA
ATOM     40  C26 ZIN A   1      13.426  -6.557   6.670  0.00  0.00     0.116 A 
ATOM     41  C25 ZIN A   1      13.646  -6.258   8.002  0.00  0.00     0.020 A 
ATOM     42  C24 ZIN A   1      14.924  -5.928   8.420  0.00  0.00     0.017 A 
ENDBRANCH  33  37
ENDBRANCH  29  31
ENDBRANCH   6  29
TORSDOF 7
ENDMDL
MODEL 7
REMARK VINA RESULT:     -10.1      1.702      2.520
REMARK  7 active torsions:
REMARK  status: ('A' for Active; 'I' for Inactive)
REMARK    1  A    between atoms: N4_4  and  C5_5 
REMARK    2  A    between atoms: C7_7  and  N8_8 
REMARK       I    between atoms: N8_8  and  C9_9 
REMARK    3  A    between atoms: C9_9  and  C11_11 
REMARK    4  A    between atoms: C16_16  and  N17_17 
REMARK    5  A    between atoms: N17_17  and  C18_18 
REMARK    6  A    between atoms: C22_22  and  C23_23 
REMARK    7  A    between atoms: C32_32  and  C33_33 
ROOT
ATOM      1  C11 ZIN A   1      18.010  -5.038   9.579  0.00  0.00     0.034 A 
ATOM      2  C12 ZIN A   1      17.385  -6.131  10.183  0.00  0.00     0.018 A 
ATOM      3  C13 ZIN A   1      17.033  -7.230   9.427  0.00  0.00     0.010 A 
ATOM      4  C14 ZIN A   1      17.298  -7.255   8.071  0.00  0.00    -0.035 A 
ATOM      5  C15 ZIN A   1      16.910  -8.459   7.252  0.00  0.00     0.050 C 
ATOM      6  C16 ZIN A   1      17.919  -6.173   7.459  0.00  0.00     0.056 A 
ATOM      7  C30 ZIN A   1      18.272  -5.062   8.210  0.00  0.00     0.047 A 
ENDROOT
BRANCH   1   8
ATOM      8  C9  ZIN A   1      18.389  -3.861  10.387  0.00  0.00     0.256 C 
ATOM      9  N8  ZIN A   1      17.436  -3.113  10.978  0.00  0.00    -0.323 N 
ATOM     10  H46 ZIN A   1      16.508  -3.395  10.944  0.00  0.00     0.169 HD
ATOM     11  O10 ZIN A   1      19.561  -3.564  10.520  0.00  0.00    -0.267 OA
BRANCH   9  12
ATOM     12  C7  ZIN A   1      17.782  -1.930  11.638  0.00  0.00     0.037 A 
ATOM     13  C6  ZIN A   1      17.786  -0.726  10.948  0.00  0.00     0.059 A 
ATOM     14  C5  ZIN A   1      18.130   0.446  11.607  0.00  0.00     0.042 A 
ATOM     15  C37 ZIN A   1      18.476   0.409  12.951  0.00  0.00     0.046 A 
ATOM     16  C32 ZIN A   1      18.465  -0.790  13.637  0.00  0.00     0.052 A 
ATOM     17  C31 ZIN A   1      18.123  -1.959  12.984  0.00  0.00     0.046 A 
BRANCH  14  18
ATOM     18  N4  ZIN A   1      18.136   1.665  10.912  0.00  0.00    -0.317 N 
ATOM     19  C3  ZIN A   1      17.573   2.843  11.330  0.00  0.00     0.122 A 
ATOM     20  C2  ZIN A   1      17.812   3.753  10.366  0.00  0.00     0.022 A 
ATOM     21  C1  ZIN A   1      17.380   5.196  10.385  0.00  0.00     0.069 C 
ATOM     22  N39 ZIN A   1      18.497   3.150   9.382  0.00  0.00    -0.354 N 
ATOM     23  C38 ZIN A   1      18.702   1.901   9.701  0.00  0.00     0.188 A 
ATOM     24  H40 ZIN A   1      18.798   3.577   8.565  0.00  0.00     0.166 HD
ENDBRANCH  14  18
BRANCH  16  25
ATOM     25  C33 ZIN A   1      18.835  -0.824  15.097  0.00  0.00     0.417 C 
ATOM     26  F34 ZIN A   1      17.719  -1.200  15.852  0.00  0.00    -0.166 F 
ATOM     27  F35 ZIN A   1      19.866  -1.749  15.296  0.00  0.00    -0.166 F 
ATOM     28  F36 ZIN A   1      19.264   0.446  15.499  0.00  0.00    -0.166 F 
ENDBRANCH  16  25
ENDBRANCH   9  12
ENDBRANCH   1   8
BRANCH   6  29
ATOM     29  N17 ZIN A   1      18.184  -6.202   6.086  0.00  0.00    -0.188 N 
ATOM     30  H52 ZIN A   1      18.681  -6.943   5.704  0.00  0.00     0.184 HD
BRANCH  29  31
ATOM     31  C18 ZIN A   1      17.738  -5.173   5.272  0.00  0.00     0.727 A 
ATOM     32  N29 ZIN A   1      18.110  -3.932   5.541  0.00  0.00    -0.062 NA
ATOM     33  C22 ZIN A   1      17.702  -2.922   4.775  0.00  0.00     0.089 A 
ATOM     34  C21 ZIN A   1      16.866  -3.191   3.688  0.00  0.00     0.053 A 
ATOM     35  C20 ZIN A   1      16.498  -4.503   3.449  0.00  0.00     0.139 A 
ATOM     36  N19 ZIN A   1      16.946  -5.458   4.249  0.00  0.00    -0.075 NA
BRANCH  33  37
ATOM     37  C23 ZIN A   1      18.124  -1.533   5.074  0.00  0.00     0.011 A 
ATOM     38  C28 ZIN A   1      19.258  -0.991   4.471  0.00  0.00     0.130 A 
ATOM     39  N27 ZIN A   1      19.631   0.245   4.732  0.00  0.00    -0.272 NA
ATOM     40  C26 ZIN A   1      18.962   1.011   5.572  0.00  0.00     0.116 A 
ATOM     41  C25 ZIN A   1      17.829   0.545   6.215  0.00  0.00     0.020 A 
ATOM     42  C24 ZIN A   1      17.394  -0.745   5.970  0.00  0.00     0.017 A 
ENDBRANCH  33  37
ENDBRANCH  29  31
ENDBRANCH   6  29
TORSDOF 7
ENDMDL
MODEL 8
REMARK VINA RESULT:      -9.6      1.681      2.467
REMARK  7 active torsions:
REMARK  status: ('A' for Active; 'I' for Inactive)
REMARK    1  A    between atoms: N4_4  and  C5_5 
REMARK    2  A    between atoms: C7_7  and  N8_8 
REMARK       I    between atoms: N8_8  and  C9_9 
REMARK    3  A    between atoms: C9_9  and  C11_11 
REMARK    4  A    between atoms: C16_16  and  N17_17 
REMARK    5  A    between atoms: N17_17  and  C18_18 
REMARK    6  A    between atoms: C22_22  and  C23_23 
REMARK    7  A    between atoms: C32_32  and  C33_33 
ROOT
ATOM      1  C11 ZIN A   1      18.671  -2.442  11.540  0.00  0.00     0.034 A 
ATOM      2  C12 ZIN A   1      18.671  -3.796  11.882  0.00  0.00     0.018 A 
ATOM      3  C13 ZIN A   1      18.932  -4.751  10.921  0.00  0.00     0.010 A 
ATOM      4  C14 ZIN A   1      19.196  -4.374   9.618  0.00  0.00    -0.035 A 
ATOM      5  C15 ZIN A   1      19.479  -5.424   8.575  0.00  0.00     0.050 C 
ATOM      6  C16 ZIN A   1      19.197  -3.029   9.266  0.00  0.00     0.056 A 
ATOM      7  C30 ZIN A   1      18.931  -2.062  10.223  0.00  0.00     0.047 A 
ENDROOT
BRANCH   1   8
ATOM      8  C9  ZIN A   1      18.392  -1.418  12.567  0.00  0.00     0.256 C 
ATOM      9  N8  ZIN A   1      19.403  -0.888  13.283  0.00  0.00    -0.323 N 
ATOM     10  H46 ZIN A   1      20.321  -1.115  13.068  0.00  0.00     0.169 HD
ATOM     11  O10 ZIN A   1      17.249  -1.051  12.766  0.00  0.00    -0.267 OA
BRANCH   9  12
ATOM     12  C7  ZIN A   1      19.130  -0.011  14.338  0.00  0.00     0.037 A 
ATOM     13  C6  ZIN A   1      18.879   1.330  14.079  0.00  0.00     0.059 A 
ATOM     14  C5  ZIN A   1      18.609   2.197  15.127  0.00  0.00     0.042 A 
ATOM     15  C37 ZIN A   1      18.596   1.722  16.433  0.00  0.00     0.046 A 
ATOM     16  C32 ZIN A   1      18.841   0.387  16.687  0.00  0.00     0.052 A 
ATOM     17  C31 ZIN A   1      19.111  -0.480  15.645  0.00  0.00     0.046 A 
BRANCH  14  18
ATOM     18  N4  ZIN A   1      18.355   3.552  14.870  0.00  0.00    -0.317 N 
ATOM     19  C3  ZIN A   1      17.398   4.056  14.028  0.00  0.00     0.122 A 
ATOM     20  C2  ZIN A   1      17.501   5.398  14.080  0.00  0.00     0.022 A 
ATOM     21  C1  ZIN A   1      16.650   6.380  13.318  0.00  0.00     0.069 C 
ATOM     22  N39 ZIN A   1      18.497   5.710  14.924  0.00  0.00    -0.354 N 
ATOM     23  C38 ZIN A   1      19.012   4.612  15.408  0.00  0.00     0.188 A 
ATOM     24  H40 ZIN A   1      18.784   6.609  15.145  0.00  0.00     0.166 HD
ENDBRANCH  14  18
BRANCH  16  25
ATOM     25  C33 ZIN A   1      18.821  -0.125  18.104  0.00  0.00     0.417 C 
ATOM     26  F34 ZIN A   1      19.654  -1.244  18.208  0.00  0.00    -0.166 F 
ATOM     27  F35 ZIN A   1      19.276   0.877  18.969  0.00  0.00    -0.166 F 
ATOM     28  F36 ZIN A   1      17.513  -0.482  18.452  0.00  0.00    -0.166 F 
ENDBRANCH  16  25
ENDBRANCH   9  12
ENDBRANCH   1   8
BRANCH   6  29
ATOM     29  N17 ZIN A   1      19.463  -2.652   7.946  0.00  0.00    -0.188 N 
ATOM     30  H52 ZIN A   1      19.808  -3.303   7.315  0.00  0.00     0.184 HD
BRANCH  29  31
ATOM     31  C18 ZIN A   1      19.233  -1.347   7.538  0.00  0.00     0.727 A 
ATOM     32  N29 ZIN A   1      19.199  -0.386   8.446  0.00  0.00    -0.062 NA
ATOM     33  C22 ZIN A   1      18.985   0.878   8.086  0.00  0.00     0.089 A 
ATOM     34  C21 ZIN A   1      18.786   1.173   6.735  0.00  0.00     0.053 A 
ATOM     35  C20 ZIN A   1      18.824   0.135   5.822  0.00  0.00     0.139 A 
ATOM     36  N19 ZIN A   1      19.047  -1.097   6.250  0.00  0.00    -0.075 NA
BRANCH  33  37
ATOM     37  C23 ZIN A   1      18.952   1.956   9.104  0.00  0.00     0.011 A 
ATOM     38  C28 ZIN A   1      18.161   3.087   8.914  0.00  0.00     0.130 A 
ATOM     39  N27 ZIN A   1      18.127   4.043   9.821  0.00  0.00    -0.272 NA
ATOM     40  C26 ZIN A   1      18.840   3.976  10.928  0.00  0.00     0.116 A 
ATOM     41  C25 ZIN A   1      19.655   2.889  11.189  0.00  0.00     0.020 A 
ATOM     42  C24 ZIN A   1      19.720   1.857  10.269  0.00  0.00     0.017 A 
ENDBRANCH  33  37
ENDBRANCH  29  31
ENDBRANCH   6  29
TORSDOF 7
ENDMDL
MODEL 9
REMARK VINA RESULT:      -9.5      2.007      3.788
REMARK  7 active torsions:
REMARK  status: ('A' for Active; 'I' for Inactive)
REMARK    1  A    between atoms: N4_4  and  C5_5 
REMARK    2  A    between atoms: C7_7  and  N8_8 
REMARK       I    between atoms: N8_8  and  C9_9 
REMARK    3  A    between atoms: C9_9  and  C11_11 
REMARK    4  A    between atoms: C16_16  and  N17_17 
REMARK    5  A    between atoms: N17_17  and  C18_18 
REMARK    6  A    between atoms: C22_22  and  C23_23 
REMARK    7  A    between atoms: C32_32  and  C33_33 
ROOT
ATOM      1  C11 ZIN A   1      18.494  -3.815  10.646  0.00  0.00     0.034 A 
ATOM      2  C12 ZIN A   1      17.639  -4.844  11.046  0.00  0.00     0.018 A 
ATOM      3  C13 ZIN A   1      17.434  -5.930  10.220  0.00  0.00     0.010 A 
ATOM      4  C14 ZIN A   1      18.072  -6.005   8.996  0.00  0.00    -0.035 A 
ATOM      5  C15 ZIN A   1      17.841  -7.195   8.100  0.00  0.00     0.050 C 
ATOM      6  C16 ZIN A   1      18.924  -4.986   8.589  0.00  0.00     0.056 A 
ATOM      7  C30 ZIN A   1      19.134  -3.888   9.409  0.00  0.00     0.047 A 
ENDROOT
BRANCH   1   8
ATOM      8  C9  ZIN A   1      18.716  -2.651  11.529  0.00  0.00     0.256 C 
ATOM      9  N8  ZIN A   1      18.060  -2.559  12.703  0.00  0.00    -0.323 N 
ATOM     10  H46 ZIN A   1      17.507  -3.296  13.008  0.00  0.00     0.169 HD
ATOM     11  O10 ZIN A   1      19.492  -1.775  11.197  0.00  0.00    -0.267 OA
BRANCH   9  12
ATOM     12  C7  ZIN A   1      18.174  -1.403  13.480  0.00  0.00     0.037 A 
ATOM     13  C6  ZIN A   1      18.004  -0.155  12.897  0.00  0.00     0.059 A 
ATOM     14  C5  ZIN A   1      18.118   0.991  13.672  0.00  0.00     0.042 A 
ATOM     15  C37 ZIN A   1      18.408   0.885  15.026  0.00  0.00     0.046 A 
ATOM     16  C32 ZIN A   1      18.570  -0.358  15.604  0.00  0.00     0.052 A 
ATOM     17  C31 ZIN A   1      18.458  -1.501  14.836  0.00  0.00     0.046 A 
BRANCH  14  18
ATOM     18  N4  ZIN A   1      17.948   2.254  13.086  0.00  0.00    -0.317 N 
ATOM     19  C3  ZIN A   1      17.647   3.421  13.739  0.00  0.00     0.122 A 
ATOM     20  C2  ZIN A   1      17.578   4.386  12.801  0.00  0.00     0.022 A 
ATOM     21  C1  ZIN A   1      17.272   5.840  13.050  0.00  0.00     0.069 C 
ATOM     22  N39 ZIN A   1      17.822   3.827  11.606  0.00  0.00    -0.354 N 
ATOM     23  C38 ZIN A   1      18.052   2.551  11.765  0.00  0.00     0.188 A 
ATOM     24  H40 ZIN A   1      17.834   4.297  10.759  0.00  0.00     0.166 HD
ENDBRANCH  14  18
BRANCH  16  25
ATOM     25  C33 ZIN A   1      18.879  -0.468  17.075  0.00  0.00     0.417 C 
ATOM     26  F34 ZIN A   1      17.684  -0.549  17.798  0.00  0.00    -0.166 F 
ATOM     27  F35 ZIN A   1      19.643  -1.617  17.307  0.00  0.00    -0.166 F 
ATOM     28  F36 ZIN A   1      19.598   0.660  17.486  0.00  0.00    -0.166 F 
ENDBRANCH  16  25
ENDBRANCH   9  12
ENDBRANCH   1   8
BRANCH   6  29
ATOM     29  N17 ZIN A   1      19.567  -5.065   7.349  0.00  0.00    -0.188 N 
ATOM     30  H52 ZIN A   1      20.337  -5.645   7.238  0.00  0.00     0.184 HD
BRANCH  29  31
ATOM     31  C18 ZIN A   1      19.105  -4.314   6.279  0.00  0.00     0.727 A 
ATOM     32  N29 ZIN A   1      18.110  -4.785   5.545  0.00  0.00    -0.062 NA
ATOM     33  C22 ZIN A   1      17.640  -4.086   4.514  0.00  0.00     0.089 A 
ATOM     34  C21 ZIN A   1      18.222  -2.852   4.211  0.00  0.00     0.053 A 
ATOM     35  C20 ZIN A   1      19.264  -2.403   5.002  0.00  0.00     0.139 A 
ATOM     36  N19 ZIN A   1      19.676  -3.148   6.015  0.00  0.00    -0.075 NA
BRANCH  33  37
ATOM     37  C23 ZIN A   1      16.521  -4.611   3.696  0.00  0.00     0.011 A 
ATOM     38  C28 ZIN A   1      16.047  -3.894   2.599  0.00  0.00     0.130 A 
ATOM     39  N27 ZIN A   1      15.056  -4.363   1.868  0.00  0.00    -0.272 NA
ATOM     40  C26 ZIN A   1      14.470  -5.511   2.145  0.00  0.00     0.116 A 
ATOM     41  C25 ZIN A   1      14.878  -6.279   3.220  0.00  0.00     0.020 A 
ATOM     42  C24 ZIN A   1      15.919  -5.832   4.016  0.00  0.00     0.017 A 
ENDBRANCH  33  37
ENDBRANCH  29  31
ENDBRANCH   6  29
TORSDOF 7
ENDMDL
