MODEL 1
REMARK VINA RESULT:      -7.6      0.000      0.000
REMARK  1 active torsions:
REMARK  status: ('A' for Active; 'I' for Inactive)
REMARK    1  A    between atoms: C19_17  and  O20_18 
ROOT
ATOM      1  C1  ZIN A   1      19.183  -0.680  14.414  0.00  0.00     0.270 C 
ATOM      2  N2  ZIN A   1      18.584  -0.849  13.084  0.00  0.00    -0.070 N 
ATOM      3  H3  ZIN A   1      18.271  -1.803  12.984  0.00  0.00     0.279 HD
ATOM      4  C4  ZIN A   1      17.430   0.045  12.965  0.00  0.00     0.236 C 
ATOM      5  C5  ZIN A   1      16.796  -0.110  11.577  0.00  0.00     0.042 C 
ATOM      6  C6  ZIN A   1      17.857   0.277  10.537  0.00  0.00    -0.005 C 
ATOM      7  C7  ZIN A   1      17.268   0.224   9.134  0.00  0.00     0.015 C 
ATOM      8  C8  ZIN A   1      18.348   0.583   8.110  0.00  0.00     0.001 C 
ATOM      9  C9  ZIN A   1      19.508  -0.406   8.226  0.00  0.00     0.001 C 
ATOM     10  C10 ZIN A   1      20.101  -0.338   9.635  0.00  0.00     0.008 C 
ATOM     11  C11 ZIN A   1      19.025  -0.704  10.659  0.00  0.00     0.030 C 
ATOM     12  C13 ZIN A   1      19.595  -0.574  12.072  0.00  0.00     0.197 C 
ATOM     13  C15 ZIN A   1      20.249   0.783  12.246  0.00  0.00     0.072 C 
ATOM     14  C16 ZIN A   1      19.424   1.897  11.660  0.00  0.00    -0.049 A 
ATOM     15  C17 ZIN A   1      19.799   3.203  11.955  0.00  0.00     0.010 A 
ATOM     16  C18 ZIN A   1      19.095   4.269  11.435  0.00  0.00     0.037 A 
ATOM     17  C19 ZIN A   1      18.003   4.040  10.611  0.00  0.00     0.066 A 
ATOM     18  C21 ZIN A   1      17.625   2.739  10.323  0.00  0.00     0.045 A 
ATOM     19  C22 ZIN A   1      18.333   1.672  10.854  0.00  0.00    -0.040 A 
ENDROOT
BRANCH  17  20
ATOM     20  O20 ZIN A   1      17.309   5.086  10.090  0.00  0.00    -0.361 OA
ATOM     21  H42 ZIN A   1      17.847   5.692   9.562  0.00  0.00     0.217 HD
ENDBRANCH  17  20
TORSDOF 1
ENDMDL
MODEL 2
REMARK VINA RESULT:      -7.3      1.506      3.815
REMARK  1 active torsions:
REMARK  status: ('A' for Active; 'I' for Inactive)
REMARK    1  A    between atoms: C19_17  and  O20_18 
ROOT
ATOM      1  C1  ZIN A   1      18.170  -0.964   8.007  0.00  0.00     0.270 C 
ATOM      2  N2  ZIN A   1      18.797  -1.167   9.320  0.00  0.00    -0.070 N 
ATOM      3  H3  ZIN A   1      19.096  -2.127   9.396  0.00  0.00     0.279 HD
ATOM      4  C4  ZIN A   1      19.970  -0.295   9.426  0.00  0.00     0.236 C 
ATOM      5  C5  ZIN A   1      20.634  -0.485  10.796  0.00  0.00     0.042 C 
ATOM      6  C6  ZIN A   1      19.604  -0.099  11.867  0.00  0.00    -0.005 C 
ATOM      7  C7  ZIN A   1      20.225  -0.188  13.255  0.00  0.00     0.015 C 
ATOM      8  C8  ZIN A   1      19.176   0.172  14.310  0.00  0.00     0.001 C 
ATOM      9  C9  ZIN A   1      17.996  -0.794  14.205  0.00  0.00     0.001 C 
ATOM     10  C10 ZIN A   1      17.371  -0.691  12.812  0.00  0.00     0.008 C 
ATOM     11  C11 ZIN A   1      18.416  -1.057  11.757  0.00  0.00     0.030 C 
ATOM     12  C13 ZIN A   1      17.816  -0.892  10.359  0.00  0.00     0.197 C 
ATOM     13  C15 ZIN A   1      17.182   0.479  10.225  0.00  0.00     0.072 C 
ATOM     14  C16 ZIN A   1      18.040   1.568  10.810  0.00  0.00    -0.049 A 
ATOM     15  C17 ZIN A   1      17.681   2.885  10.548  0.00  0.00     0.010 A 
ATOM     16  C18 ZIN A   1      18.416   3.929  11.068  0.00  0.00     0.037 A 
ATOM     17  C19 ZIN A   1      19.523   3.667  11.862  0.00  0.00     0.066 A 
ATOM     18  C21 ZIN A   1      19.884   2.354  12.119  0.00  0.00     0.045 A 
ATOM     19  C22 ZIN A   1      19.145   1.310  11.586  0.00  0.00    -0.040 A 
ENDROOT
BRANCH  17  20
ATOM     20  O20 ZIN A   1      20.248   4.691  12.385  0.00  0.00    -0.361 OA
ATOM     21  H42 ZIN A   1      19.741   5.277  12.964  0.00  0.00     0.217 HD
ENDBRANCH  17  20
TORSDOF 1
ENDMDL
MODEL 3
REMARK VINA RESULT:      -7.3      2.776      4.750
REMARK  1 active torsions:
REMARK  status: ('A' for Active; 'I' for Inactive)
REMARK    1  A    between atoms: C19_17  and  O20_18 
ROOT
ATOM      1  C1  ZIN A   1      18.892   3.044  11.041  0.00  0.00     0.270 C 
ATOM      2  N2  ZIN A   1      19.303   1.644  10.864  0.00  0.00    -0.070 N 
ATOM      3  H3  ZIN A   1      19.708   1.536   9.946  0.00  0.00     0.279 HD
ATOM      4  C4  ZIN A   1      20.313   1.314  11.872  0.00  0.00     0.236 C 
ATOM      5  C5  ZIN A   1      20.748  -0.148  11.708  0.00  0.00     0.042 C 
ATOM      6  C6  ZIN A   1      19.506  -1.027  11.914  0.00  0.00    -0.005 C 
ATOM      7  C7  ZIN A   1      19.882  -2.501  11.845  0.00  0.00     0.015 C 
ATOM      8  C8  ZIN A   1      18.628  -3.360  12.022  0.00  0.00     0.001 C 
ATOM      9  C9  ZIN A   1      17.623  -3.027  10.919  0.00  0.00     0.001 C 
ATOM     10  C10 ZIN A   1      17.241  -1.547  11.002  0.00  0.00     0.008 C 
ATOM     11  C11 ZIN A   1      18.493  -0.688  10.818  0.00  0.00     0.030 C 
ATOM     12  C13 ZIN A   1      18.128   0.791  10.966  0.00  0.00     0.197 C 
ATOM     13  C15 ZIN A   1      17.350   1.008  12.250  0.00  0.00     0.072 C 
ATOM     14  C16 ZIN A   1      17.942   0.257  13.412  0.00  0.00    -0.049 A 
ATOM     15  C17 ZIN A   1      17.462   0.553  14.683  0.00  0.00     0.010 A 
ATOM     16  C18 ZIN A   1      17.950  -0.111  15.789  0.00  0.00     0.037 A 
ATOM     17  C19 ZIN A   1      18.927  -1.084  15.636  0.00  0.00     0.066 A 
ATOM     18  C21 ZIN A   1      19.410  -1.374  14.370  0.00  0.00     0.045 A 
ATOM     19  C22 ZIN A   1      18.920  -0.697  13.263  0.00  0.00    -0.040 A 
ENDROOT
BRANCH  17  20
ATOM     20  O20 ZIN A   1      19.408  -1.748  16.719  0.00  0.00    -0.361 OA
ATOM     21  H42 ZIN A   1      19.148  -2.679  16.758  0.00  0.00     0.217 HD
ENDBRANCH  17  20
TORSDOF 1
ENDMDL
MODEL 4
REMARK VINA RESULT:      -7.0      2.146      3.372
REMARK  1 active torsions:
REMARK  status: ('A' for Active; 'I' for Inactive)
REMARK    1  A    between atoms: C19_17  and  O20_18 
ROOT
ATOM      1  C1  ZIN A   1      19.085   2.729  12.950  0.00  0.00     0.270 C 
ATOM      2  N2  ZIN A   1      18.602   1.343  12.879  0.00  0.00    -0.070 N 
ATOM      3  H3  ZIN A   1      18.419   1.012  13.814  0.00  0.00     0.279 HD
ATOM      4  C4  ZIN A   1      17.355   1.313  12.111  0.00  0.00     0.236 C 
ATOM      5  C5  ZIN A   1      16.840  -0.128  12.017  0.00  0.00     0.042 C 
ATOM      6  C6  ZIN A   1      17.911  -0.958  11.295  0.00  0.00    -0.005 C 
ATOM      7  C7  ZIN A   1      17.429  -2.388  11.095  0.00  0.00     0.015 C 
ATOM      8  C8  ZIN A   1      18.521  -3.206  10.401  0.00  0.00     0.001 C 
ATOM      9  C9  ZIN A   1      19.786  -3.198  11.260  0.00  0.00     0.001 C 
ATOM     10  C10 ZIN A   1      20.271  -1.759  11.447  0.00  0.00     0.008 C 
ATOM     11  C11 ZIN A   1      19.183  -0.942  12.146  0.00  0.00     0.030 C 
ATOM     12  C13 ZIN A   1      19.635   0.513  12.277  0.00  0.00     0.197 C 
ATOM     13  C15 ZIN A   1      20.101   1.035  10.931  0.00  0.00     0.072 C 
ATOM     14  C16 ZIN A   1      19.184   0.628   9.809  0.00  0.00    -0.049 A 
ATOM     15  C17 ZIN A   1      19.371   1.230   8.570  0.00  0.00     0.010 A 
ATOM     16  C18 ZIN A   1      18.576   0.889   7.497  0.00  0.00     0.037 A 
ATOM     17  C19 ZIN A   1      17.579  -0.063   7.651  0.00  0.00     0.066 A 
ATOM     18  C21 ZIN A   1      17.387  -0.658   8.887  0.00  0.00     0.045 A 
ATOM     19  C22 ZIN A   1      18.187  -0.305   9.964  0.00  0.00    -0.040 A 
ENDROOT
BRANCH  17  20
ATOM     20  O20 ZIN A   1      16.795  -0.410   6.596  0.00  0.00    -0.361 OA
ATOM     21  H42 ZIN A   1      16.063   0.200   6.432  0.00  0.00     0.217 HD
ENDBRANCH  17  20
TORSDOF 1
ENDMDL
MODEL 5
REMARK VINA RESULT:      -7.0      1.747      3.856
REMARK  1 active torsions:
REMARK  status: ('A' for Active; 'I' for Inactive)
REMARK    1  A    between atoms: C19_17  and  O20_18 
ROOT
ATOM      1  C1  ZIN A   1      18.503  -2.608  12.570  0.00  0.00     0.270 C 
ATOM      2  N2  ZIN A   1      19.052  -1.246  12.563  0.00  0.00    -0.070 N 
ATOM      3  H3  ZIN A   1      19.505  -1.071  13.448  0.00  0.00     0.279 HD
ATOM      4  C4  ZIN A   1      20.045  -1.139  11.492  0.00  0.00     0.236 C 
ATOM      5  C5  ZIN A   1      20.625   0.280  11.463  0.00  0.00     0.042 C 
ATOM      6  C6  ZIN A   1      19.465   1.249  11.190  0.00  0.00    -0.005 C 
ATOM      7  C7  ZIN A   1      19.983   2.676  11.067  0.00  0.00     0.015 C 
ATOM      8  C8  ZIN A   1      18.810   3.629  10.826  0.00  0.00     0.001 C 
ATOM      9  C9  ZIN A   1      17.825   3.530  11.991  0.00  0.00     0.001 C 
ATOM     10  C10 ZIN A   1      17.301   2.097  12.101  0.00  0.00     0.008 C 
ATOM     11  C11 ZIN A   1      18.472   1.144  12.349  0.00  0.00     0.030 C 
ATOM     12  C13 ZIN A   1      17.962  -0.297  12.394  0.00  0.00     0.197 C 
ATOM     13  C15 ZIN A   1      17.112  -0.586  11.171  0.00  0.00     0.072 C 
ATOM     14  C16 ZIN A   1      17.723  -0.041   9.908  0.00  0.00    -0.049 A 
ATOM     15  C17 ZIN A   1      17.164  -0.436   8.698  0.00  0.00     0.010 A 
ATOM     16  C18 ZIN A   1      17.665   0.041   7.505  0.00  0.00     0.037 A 
ATOM     17  C19 ZIN A   1      18.736   0.922   7.509  0.00  0.00     0.066 A 
ATOM     18  C21 ZIN A   1      19.298   1.311   8.714  0.00  0.00     0.045 A 
ATOM     19  C22 ZIN A   1      18.793   0.822   9.909  0.00  0.00    -0.040 A 
ENDROOT
BRANCH  17  20
ATOM     20  O20 ZIN A   1      19.231   1.402   6.338  0.00  0.00    -0.361 OA
ATOM     21  H42 ZIN A   1      18.616   1.338   5.594  0.00  0.00     0.217 HD
ENDBRANCH  17  20
TORSDOF 1
ENDMDL
MODEL 6
REMARK VINA RESULT:      -7.0      2.435      4.199
REMARK  1 active torsions:
REMARK  status: ('A' for Active; 'I' for Inactive)
REMARK    1  A    between atoms: C19_17  and  O20_18 
ROOT
ATOM      1  C1  ZIN A   1      18.986  -2.869  10.222  0.00  0.00     0.270 C 
ATOM      2  N2  ZIN A   1      18.543  -1.470  10.285  0.00  0.00    -0.070 N 
ATOM      3  H3  ZIN A   1      18.354  -1.144   9.349  0.00  0.00     0.279 HD
ATOM      4  C4  ZIN A   1      17.310  -1.396  11.072  0.00  0.00     0.236 C 
ATOM      5  C5  ZIN A   1      16.836   0.060  11.157  0.00  0.00     0.042 C 
ATOM      6  C6  ZIN A   1      17.942   0.867  11.853  0.00  0.00    -0.005 C 
ATOM      7  C7  ZIN A   1      17.503   2.312  12.044  0.00  0.00     0.015 C 
ATOM      8  C8  ZIN A   1      18.628   3.106  12.712  0.00  0.00     0.001 C 
ATOM      9  C9  ZIN A   1      19.879   3.054  11.833  0.00  0.00     0.001 C 
ATOM     10  C10 ZIN A   1      20.320   1.600  11.655  0.00  0.00     0.008 C 
ATOM     11  C11 ZIN A   1      19.199   0.806  10.982  0.00  0.00     0.030 C 
ATOM     12  C13 ZIN A   1      19.608  -0.663  10.861  0.00  0.00     0.197 C 
ATOM     13  C15 ZIN A   1      20.081  -1.183  12.205  0.00  0.00     0.072 C 
ATOM     14  C16 ZIN A   1      19.193  -0.738  13.336  0.00  0.00    -0.049 A 
ATOM     15  C17 ZIN A   1      19.384  -1.332  14.579  0.00  0.00     0.010 A 
ATOM     16  C18 ZIN A   1      18.616  -0.957  15.661  0.00  0.00     0.037 A 
ATOM     17  C19 ZIN A   1      17.643   0.021  15.512  0.00  0.00     0.066 A 
ATOM     18  C21 ZIN A   1      17.448   0.608  14.272  0.00  0.00     0.045 A 
ATOM     19  C22 ZIN A   1      18.220   0.221  13.187  0.00  0.00    -0.040 A 
ENDROOT
BRANCH  17  20
ATOM     20  O20 ZIN A   1      16.886   0.401  16.575  0.00  0.00    -0.361 OA
ATOM     21  H42 ZIN A   1      15.950   0.174  16.493  0.00  0.00     0.217 HD
ENDBRANCH  17  20
TORSDOF 1
ENDMDL
MODEL 7
REMARK VINA RESULT:      -6.9      2.898      4.676
REMARK  1 active torsions:
REMARK  status: ('A' for Active; 'I' for Inactive)
REMARK    1  A    between atoms: C19_17  and  O20_18 
ROOT
ATOM      1  C1  ZIN A   1      17.946   0.978  14.465  0.00  0.00     0.270 C 
ATOM      2  N2  ZIN A   1      18.660   1.101  13.187  0.00  0.00    -0.070 N 
ATOM      3  H3  ZIN A   1      19.018   2.040  13.101  0.00  0.00     0.279 HD
ATOM      4  C4  ZIN A   1      19.783   0.161  13.176  0.00  0.00     0.236 C 
ATOM      5  C5  ZIN A   1      20.535   0.268  11.845  0.00  0.00     0.042 C 
ATOM      6  C6  ZIN A   1      19.549  -0.094  10.725  0.00  0.00    -0.005 C 
ATOM      7  C7  ZIN A   1      20.254  -0.086   9.374  0.00  0.00     0.015 C 
ATOM      8  C8  ZIN A   1      19.249  -0.419   8.269  0.00  0.00     0.001 C 
ATOM      9  C9  ZIN A   1      18.124   0.617   8.275  0.00  0.00     0.001 C 
ATOM     10  C10 ZIN A   1      17.414   0.595   9.630  0.00  0.00     0.008 C 
ATOM     11  C11 ZIN A   1      18.416   0.934  10.735  0.00  0.00     0.030 C 
ATOM     12  C13 ZIN A   1      17.726   0.850  12.098  0.00  0.00     0.197 C 
ATOM     13  C15 ZIN A   1      17.005  -0.477  12.234  0.00  0.00     0.072 C 
ATOM     14  C16 ZIN A   1      17.830  -1.632  11.734  0.00  0.00    -0.049 A 
ATOM     15  C17 ZIN A   1      17.379  -2.917  12.013  0.00  0.00     0.010 A 
ATOM     16  C18 ZIN A   1      18.079  -4.018  11.568  0.00  0.00     0.037 A 
ATOM     17  C19 ZIN A   1      19.244  -3.847  10.835  0.00  0.00     0.066 A 
ATOM     18  C21 ZIN A   1      19.697  -2.566  10.562  0.00  0.00     0.045 A 
ATOM     19  C22 ZIN A   1      18.991  -1.463  11.019  0.00  0.00    -0.040 A 
ENDROOT
BRANCH  17  20
ATOM     20  O20 ZIN A   1      19.936  -4.927  10.387  0.00  0.00    -0.361 OA
ATOM     21  H42 ZIN A   1      20.066  -4.941   9.428  0.00  0.00     0.217 HD
ENDBRANCH  17  20
TORSDOF 1
ENDMDL
MODEL 8
REMARK VINA RESULT:      -6.8      3.054      5.330
REMARK  1 active torsions:
REMARK  status: ('A' for Active; 'I' for Inactive)
REMARK    1  A    between atoms: C19_17  and  O20_18 
ROOT
ATOM      1  C1  ZIN A   1      19.251   1.026   8.339  0.00  0.00     0.270 C 
ATOM      2  N2  ZIN A   1      18.662   1.093   9.683  0.00  0.00    -0.070 N 
ATOM      3  H3  ZIN A   1      18.349   2.036   9.857  0.00  0.00     0.279 HD
ATOM      4  C4  ZIN A   1      17.510   0.191   9.743  0.00  0.00     0.236 C 
ATOM      5  C5  ZIN A   1      16.886   0.240  11.143  0.00  0.00     0.042 C 
ATOM      6  C6  ZIN A   1      17.956  -0.222  12.143  0.00  0.00    -0.005 C 
ATOM      7  C7  ZIN A   1      17.377  -0.275  13.551  0.00  0.00     0.015 C 
ATOM      8  C8  ZIN A   1      18.465  -0.708  14.537  0.00  0.00     0.001 C 
ATOM      9  C9  ZIN A   1      19.624   0.289  14.487  0.00  0.00     0.001 C 
ATOM     10  C10 ZIN A   1      20.206   0.328  13.073  0.00  0.00     0.008 C 
ATOM     11  C11 ZIN A   1      19.122   0.767  12.087  0.00  0.00     0.030 C 
ATOM     12  C13 ZIN A   1      19.681   0.745  10.663  0.00  0.00     0.197 C 
ATOM     13  C15 ZIN A   1      20.335  -0.595  10.383  0.00  0.00     0.072 C 
ATOM     14  C16 ZIN A   1      19.515  -1.751  10.890  0.00  0.00    -0.049 A 
ATOM     15  C17 ZIN A   1      19.890  -3.030  10.496  0.00  0.00     0.010 A 
ATOM     16  C18 ZIN A   1      19.191  -4.133  10.939  0.00  0.00     0.037 A 
ATOM     17  C19 ZIN A   1      18.105  -3.969  11.786  0.00  0.00     0.066 A 
ATOM     18  C21 ZIN A   1      17.728  -2.693  12.174  0.00  0.00     0.045 A 
ATOM     19  C22 ZIN A   1      18.431  -1.588  11.719  0.00  0.00    -0.040 A 
ENDROOT
BRANCH  17  20
ATOM     20  O20 ZIN A   1      17.416  -5.051  12.233  0.00  0.00    -0.361 OA
ATOM     21  H42 ZIN A   1      16.615  -4.831  12.729  0.00  0.00     0.217 HD
ENDBRANCH  17  20
TORSDOF 1
ENDMDL
MODEL 9
REMARK VINA RESULT:      -6.1      4.464      6.517
REMARK  1 active torsions:
REMARK  status: ('A' for Active; 'I' for Inactive)
REMARK    1  A    between atoms: C19_17  and  O20_18 
ROOT
ATOM      1  C1  ZIN A   1      18.691  -6.122   6.002  0.00  0.00     0.270 C 
ATOM      2  N2  ZIN A   1      18.870  -6.148   7.460  0.00  0.00    -0.070 N 
ATOM      3  H3  ZIN A   1      18.967  -7.106   7.761  0.00  0.00     0.279 HD
ATOM      4  C4  ZIN A   1      20.091  -5.416   7.802  0.00  0.00     0.236 C 
ATOM      5  C5  ZIN A   1      20.291  -5.424   9.323  0.00  0.00     0.042 C 
ATOM      6  C6  ZIN A   1      19.077  -4.726   9.953  0.00  0.00    -0.005 C 
ATOM      7  C7  ZIN A   1      19.248  -4.627  11.463  0.00  0.00     0.015 C 
ATOM      8  C8  ZIN A   1      18.016  -3.956  12.076  0.00  0.00     0.001 C 
ATOM      9  C9  ZIN A   1      16.770  -4.780  11.746  0.00  0.00     0.001 C 
ATOM     10  C10 ZIN A   1      16.600  -4.866  10.228  0.00  0.00     0.008 C 
ATOM     11  C11 ZIN A   1      17.827  -5.542   9.614  0.00  0.00     0.030 C 
ATOM     12  C13 ZIN A   1      17.692  -5.571   8.091  0.00  0.00     0.197 C 
ATOM     13  C15 ZIN A   1      17.363  -4.185   7.572  0.00  0.00     0.072 C 
ATOM     14  C16 ZIN A   1      18.188  -3.114   8.235  0.00  0.00    -0.049 A 
ATOM     15  C17 ZIN A   1      18.147  -1.836   7.689  0.00  0.00     0.010 A 
ATOM     16  C18 ZIN A   1      18.865  -0.807   8.259  0.00  0.00     0.037 A 
ATOM     17  C19 ZIN A   1      19.636  -1.044   9.388  0.00  0.00     0.066 A 
ATOM     18  C21 ZIN A   1      19.682  -2.319   9.928  0.00  0.00     0.045 A 
ATOM     19  C22 ZIN A   1      18.962  -3.351   9.345  0.00  0.00    -0.040 A 
ENDROOT
BRANCH  17  20
ATOM     20  O20 ZIN A   1      20.342  -0.033   9.960  0.00  0.00    -0.361 OA
ATOM     21  H42 ZIN A   1      20.068   0.176  10.863  0.00  0.00     0.217 HD
ENDBRANCH  17  20
TORSDOF 1
ENDMDL
