MODEL 1
REMARK VINA RESULT:      -5.6      0.000      0.000
REMARK  1 active torsions:
REMARK  status: ('A' for Active; 'I' for Inactive)
REMARK    1  A    between atoms: C7_7  and  C9_8 
ROOT
ATOM      1  C1  ZIN A   1      18.135  -1.799   8.022  0.00  0.00     0.270 C 
ATOM      2  N2  ZIN A   1      17.654  -0.418   7.883  0.00  0.00    -0.067 N 
ATOM      3  H3  ZIN A   1      16.888  -0.258   8.519  0.00  0.00     0.280 HD
ATOM      4  C4  ZIN A   1      17.204  -0.184   6.494  0.00  0.00     0.235 C 
ATOM      5  C5  ZIN A   1      18.423   0.460   5.787  0.00  0.00     0.030 C 
ATOM      6  C6  ZIN A   1      19.001   1.357   6.913  0.00  0.00     0.040 C 
ATOM      7  C7  ZIN A   1      18.750   0.522   8.183  0.00  0.00     0.222 C 
ENDROOT
BRANCH   7   8
ATOM      8  C9  ZIN A   1      18.353   1.426   9.321  0.00  0.00    -0.010 A 
ATOM      9  C14 ZIN A   1      17.556   0.953  10.346  0.00  0.00     0.125 A 
ATOM     10  N13 ZIN A   1      17.209   1.737  11.348  0.00  0.00    -0.273 NA
ATOM     11  C12 ZIN A   1      17.594   2.996  11.408  0.00  0.00     0.116 A 
ATOM     12  C11 ZIN A   1      18.386   3.541  10.416  0.00  0.00     0.020 A 
ATOM     13  C10 ZIN A   1      18.777   2.746   9.349  0.00  0.00     0.012 A 
ENDBRANCH   7   8
TORSDOF 1
ENDMDL
MODEL 2
REMARK VINA RESULT:      -5.4      1.573      4.459
REMARK  1 active torsions:
REMARK  status: ('A' for Active; 'I' for Inactive)
REMARK    1  A    between atoms: C7_7  and  C9_8 
ROOT
ATOM      1  C1  ZIN A   1      20.217   0.953  12.182  0.00  0.00     0.270 C 
ATOM      2  N2  ZIN A   1      19.853   1.825  11.057  0.00  0.00    -0.067 N 
ATOM      3  H3  ZIN A   1      20.449   1.628  10.267  0.00  0.00     0.280 HD
ATOM      4  C4  ZIN A   1      20.008   3.241  11.455  0.00  0.00     0.235 C 
ATOM      5  C5  ZIN A   1      18.590   3.683  11.900  0.00  0.00     0.030 C 
ATOM      6  C6  ZIN A   1      17.694   2.925  10.886  0.00  0.00     0.040 C 
ATOM      7  C7  ZIN A   1      18.445   1.595  10.686  0.00  0.00     0.222 C 
ENDROOT
BRANCH   7   8
ATOM      8  C9  ZIN A   1      18.359   1.169   9.244  0.00  0.00    -0.010 A 
ATOM      9  C14 ZIN A   1      17.503   0.152   8.864  0.00  0.00     0.125 A 
ATOM     10  N13 ZIN A   1      17.418  -0.223   7.603  0.00  0.00    -0.273 NA
ATOM     11  C12 ZIN A   1      18.146   0.344   6.661  0.00  0.00     0.116 A 
ATOM     12  C11 ZIN A   1      19.027   1.363   6.966  0.00  0.00     0.020 A 
ATOM     13  C10 ZIN A   1      19.141   1.789   8.281  0.00  0.00     0.012 A 
ENDBRANCH   7   8
TORSDOF 1
ENDMDL
MODEL 3
REMARK VINA RESULT:      -5.3      1.412      4.798
REMARK  1 active torsions:
REMARK  status: ('A' for Active; 'I' for Inactive)
REMARK    1  A    between atoms: C7_7  and  C9_8 
ROOT
ATOM      1  C1  ZIN A   1      16.913   4.972  10.780  0.00  0.00     0.270 C 
ATOM      2  N2  ZIN A   1      17.417   3.637  11.129  0.00  0.00    -0.067 N 
ATOM      3  H3  ZIN A   1      16.717   2.942  10.914  0.00  0.00     0.280 HD
ATOM      4  C4  ZIN A   1      17.741   3.587  12.571  0.00  0.00     0.235 C 
ATOM      5  C5  ZIN A   1      19.261   3.880  12.644  0.00  0.00     0.030 C 
ATOM      6  C6  ZIN A   1      19.782   3.144  11.382  0.00  0.00     0.040 C 
ATOM      7  C7  ZIN A   1      18.645   3.354  10.364  0.00  0.00     0.222 C 
ENDROOT
BRANCH   7   8
ATOM      8  C9  ZIN A   1      18.460   2.108   9.538  0.00  0.00    -0.010 A 
ATOM      9  C14 ZIN A   1      17.603   1.109   9.960  0.00  0.00     0.125 A 
ATOM     10  N13 ZIN A   1      17.432   0.019   9.239  0.00  0.00    -0.273 NA
ATOM     11  C12 ZIN A   1      18.072  -0.169   8.102  0.00  0.00     0.116 A 
ATOM     12  C11 ZIN A   1      18.949   0.783   7.620  0.00  0.00     0.020 A 
ATOM     13  C10 ZIN A   1      19.152   1.947   8.347  0.00  0.00     0.012 A 
ENDBRANCH   7   8
TORSDOF 1
ENDMDL
MODEL 4
REMARK VINA RESULT:      -5.3      1.913      4.755
REMARK  1 active torsions:
REMARK  status: ('A' for Active; 'I' for Inactive)
REMARK    1  A    between atoms: C7_7  and  C9_8 
ROOT
ATOM      1  C1  ZIN A   1      20.493  -0.497  10.499  0.00  0.00     0.270 C 
ATOM      2  N2  ZIN A   1      19.858   0.320   9.456  0.00  0.00    -0.067 N 
ATOM      3  H3  ZIN A   1      20.536   0.557   8.748  0.00  0.00     0.280 HD
ATOM      4  C4  ZIN A   1      19.311   1.556  10.056  0.00  0.00     0.235 C 
ATOM      5  C5  ZIN A   1      17.820   1.236  10.330  0.00  0.00     0.030 C 
ATOM      6  C6  ZIN A   1      17.455   0.366   9.099  0.00  0.00     0.040 C 
ATOM      7  C7  ZIN A   1      18.747  -0.433   8.844  0.00  0.00     0.222 C 
ENDROOT
BRANCH   7   8
ATOM      8  C9  ZIN A   1      18.979  -0.574   7.362  0.00  0.00    -0.010 A 
ATOM      9  C14 ZIN A   1      19.323  -1.798   6.821  0.00  0.00     0.125 A 
ATOM     10  N13 ZIN A   1      19.522  -1.930   5.524  0.00  0.00    -0.273 NA
ATOM     11  C12 ZIN A   1      19.414  -0.908   4.698  0.00  0.00     0.116 A 
ATOM     12  C11 ZIN A   1      19.079   0.347   5.168  0.00  0.00     0.020 A 
ATOM     13  C10 ZIN A   1      18.856   0.525   6.525  0.00  0.00     0.012 A 
ENDBRANCH   7   8
TORSDOF 1
ENDMDL
MODEL 5
REMARK VINA RESULT:      -5.3      1.507      4.487
REMARK  1 active torsions:
REMARK  status: ('A' for Active; 'I' for Inactive)
REMARK    1  A    between atoms: C7_7  and  C9_8 
ROOT
ATOM      1  C1  ZIN A   1      17.269  -0.182  10.567  0.00  0.00     0.270 C 
ATOM      2  N2  ZIN A   1      18.509   0.091   9.827  0.00  0.00    -0.067 N 
ATOM      3  H3  ZIN A   1      18.914  -0.777   9.510  0.00  0.00     0.280 HD
ATOM      4  C4  ZIN A   1      19.468   0.796  10.705  0.00  0.00     0.235 C 
ATOM      5  C5  ZIN A   1      19.268   2.299  10.381  0.00  0.00     0.030 C 
ATOM      6  C6  ZIN A   1      19.014   2.258   8.851  0.00  0.00     0.040 C 
ATOM      7  C7  ZIN A   1      18.216   0.953   8.668  0.00  0.00     0.222 C 
ENDROOT
BRANCH   7   8
ATOM      8  C9  ZIN A   1      18.643   0.266   7.397  0.00  0.00    -0.010 A 
ATOM      9  C14 ZIN A   1      18.855  -1.100   7.377  0.00  0.00     0.125 A 
ATOM     10  N13 ZIN A   1      19.223  -1.709   6.267  0.00  0.00    -0.273 NA
ATOM     11  C12 ZIN A   1      19.415  -1.047   5.143  0.00  0.00     0.116 A 
ATOM     12  C11 ZIN A   1      19.228   0.321   5.089  0.00  0.00     0.020 A 
ATOM     13  C10 ZIN A   1      18.835   0.997   6.234  0.00  0.00     0.012 A 
ENDBRANCH   7   8
TORSDOF 1
ENDMDL
MODEL 6
REMARK VINA RESULT:      -5.3      1.641      1.903
REMARK  1 active torsions:
REMARK  status: ('A' for Active; 'I' for Inactive)
REMARK    1  A    between atoms: C7_7  and  C9_8 
ROOT
ATOM      1  C1  ZIN A   1      18.904  -0.995   9.941  0.00  0.00     0.270 C 
ATOM      2  N2  ZIN A   1      18.246   0.260   9.554  0.00  0.00    -0.067 N 
ATOM      3  H3  ZIN A   1      17.619   0.556  10.287  0.00  0.00     0.280 HD
ATOM      4  C4  ZIN A   1      17.487   0.059   8.301  0.00  0.00     0.235 C 
ATOM      5  C5  ZIN A   1      18.444   0.534   7.178  0.00  0.00     0.030 C 
ATOM      6  C6  ZIN A   1      19.138   1.747   7.852  0.00  0.00     0.040 C 
ATOM      7  C7  ZIN A   1      19.263   1.302   9.322  0.00  0.00     0.222 C 
ENDROOT
BRANCH   7   8
ATOM      8  C9  ZIN A   1      19.014   2.475  10.235  0.00  0.00    -0.010 A 
ATOM      9  C14 ZIN A   1      19.675   2.572  11.445  0.00  0.00     0.125 A 
ATOM     10  N13 ZIN A   1      19.465   3.598  12.246  0.00  0.00    -0.273 NA
ATOM     11  C12 ZIN A   1      18.618   4.559  11.936  0.00  0.00     0.116 A 
ATOM     12  C11 ZIN A   1      17.916   4.526  10.747  0.00  0.00     0.020 A 
ATOM     13  C10 ZIN A   1      18.113   3.466   9.874  0.00  0.00     0.012 A 
ENDBRANCH   7   8
TORSDOF 1
ENDMDL
MODEL 7
REMARK VINA RESULT:      -5.1      5.113      6.881
REMARK  1 active torsions:
REMARK  status: ('A' for Active; 'I' for Inactive)
REMARK    1  A    between atoms: C7_7  and  C9_8 
ROOT
ATOM      1  C1  ZIN A   1      19.234   2.445  12.659  0.00  0.00     0.270 C 
ATOM      2  N2  ZIN A   1      19.770   1.341  13.467  0.00  0.00    -0.067 N 
ATOM      3  H3  ZIN A   1      20.429   1.701  14.141  0.00  0.00     0.280 HD
ATOM      4  C4  ZIN A   1      20.443   0.361  12.588  0.00  0.00     0.235 C 
ATOM      5  C5  ZIN A   1      19.371  -0.724  12.314  0.00  0.00     0.030 C 
ATOM      6  C6  ZIN A   1      18.647  -0.802  13.683  0.00  0.00     0.040 C 
ATOM      7  C7  ZIN A   1      18.667   0.660  14.169  0.00  0.00     0.222 C 
ENDROOT
BRANCH   7   8
ATOM      8  C9  ZIN A   1      18.903   0.702  15.657  0.00  0.00    -0.010 A 
ATOM      9  C14 ZIN A   1      19.217   1.894  16.282  0.00  0.00     0.125 A 
ATOM     10  N13 ZIN A   1      19.419   1.939  17.585  0.00  0.00    -0.273 NA
ATOM     11  C12 ZIN A   1      19.342   0.859  18.336  0.00  0.00     0.116 A 
ATOM     12  C11 ZIN A   1      19.039  -0.369  17.780  0.00  0.00     0.020 A 
ATOM     13  C10 ZIN A   1      18.814  -0.456  16.415  0.00  0.00     0.012 A 
ENDBRANCH   7   8
TORSDOF 1
ENDMDL
MODEL 8
REMARK VINA RESULT:      -5.1      4.594      7.212
REMARK  1 active torsions:
REMARK  status: ('A' for Active; 'I' for Inactive)
REMARK    1  A    between atoms: C7_7  and  C9_8 
ROOT
ATOM      1  C1  ZIN A   1      19.129   1.741  15.015  0.00  0.00     0.270 C 
ATOM      2  N2  ZIN A   1      18.319   0.516  14.983  0.00  0.00    -0.067 N 
ATOM      3  H3  ZIN A   1      17.577   0.614  14.307  0.00  0.00     0.280 HD
ATOM      4  C4  ZIN A   1      17.742   0.265  16.321  0.00  0.00     0.235 C 
ATOM      5  C5  ZIN A   1      18.723  -0.727  16.995  0.00  0.00     0.030 C 
ATOM      6  C6  ZIN A   1      19.133  -1.624  15.798  0.00  0.00     0.040 C 
ATOM      7  C7  ZIN A   1      19.171  -0.632  14.619  0.00  0.00     0.222 C 
ENDROOT
BRANCH   7   8
ATOM      8  C9  ZIN A   1      18.636  -1.293  13.375  0.00  0.00    -0.010 A 
ATOM      9  C14 ZIN A   1      17.476  -0.833  12.781  0.00  0.00     0.125 A 
ATOM     10  N13 ZIN A   1      17.005  -1.403  11.690  0.00  0.00    -0.273 NA
ATOM     11  C12 ZIN A   1      17.608  -2.433  11.130  0.00  0.00     0.116 A 
ATOM     12  C11 ZIN A   1      18.769  -2.952  11.671  0.00  0.00     0.020 A 
ATOM     13  C10 ZIN A   1      19.298  -2.375  12.816  0.00  0.00     0.012 A 
ENDBRANCH   7   8
TORSDOF 1
ENDMDL
MODEL 9
REMARK VINA RESULT:      -4.9      2.244      3.603
REMARK  1 active torsions:
REMARK  status: ('A' for Active; 'I' for Inactive)
REMARK    1  A    between atoms: C7_7  and  C9_8 
ROOT
ATOM      1  C1  ZIN A   1      18.877  -2.880   9.008  0.00  0.00     0.270 C 
ATOM      2  N2  ZIN A   1      19.118  -1.911  10.087  0.00  0.00    -0.067 N 
ATOM      3  H3  ZIN A   1      19.826  -1.252   9.801  0.00  0.00     0.280 HD
ATOM      4  C4  ZIN A   1      19.564  -2.623  11.304  0.00  0.00     0.235 C 
ATOM      5  C5  ZIN A   1      18.275  -2.820  12.141  0.00  0.00     0.030 C 
ATOM      6  C6  ZIN A   1      17.518  -1.494  11.867  0.00  0.00     0.040 C 
ATOM      7  C7  ZIN A   1      17.869  -1.193  10.397  0.00  0.00     0.222 C 
ENDROOT
BRANCH   7   8
ATOM      8  C9  ZIN A   1      18.070   0.289  10.211  0.00  0.00    -0.010 A 
ATOM      9  C14 ZIN A   1      17.377   1.193  10.994  0.00  0.00     0.125 A 
ATOM     10  N13 ZIN A   1      17.552   2.491  10.840  0.00  0.00    -0.273 NA
ATOM     11  C12 ZIN A   1      18.378   2.977   9.935  0.00  0.00     0.116 A 
ATOM     12  C11 ZIN A   1      19.100   2.134   9.112  0.00  0.00     0.020 A 
ATOM     13  C10 ZIN A   1      18.948   0.762   9.247  0.00  0.00     0.012 A 
ENDBRANCH   7   8
TORSDOF 1
ENDMDL
