MODEL 1
REMARK VINA RESULT:      -7.6      0.000      0.000
REMARK  2 active torsions:
REMARK  status: ('A' for Active; 'I' for Inactive)
REMARK    1  A    between atoms: C11_11  and  O12_12 
REMARK    2  A    between atoms: C17_16  and  O19_17 
ROOT
ATOM      1  C1  ZIN A   1      17.735  -3.523  11.388  0.00  0.00     0.270 C 
ATOM      2  N2  ZIN A   1      17.611  -2.195  10.770  0.00  0.00    -0.070 N 
ATOM      3  H3  ZIN A   1      17.006  -2.263   9.966  0.00  0.00     0.279 HD
ATOM      4  C4  ZIN A   1      18.935  -1.746  10.335  0.00  0.00     0.236 C 
ATOM      5  C5  ZIN A   1      19.895  -1.618  11.529  0.00  0.00     0.045 C 
ATOM      6  C6  ZIN A   1      19.256  -0.633  12.512  0.00  0.00     0.030 C 
ATOM      7  C7  ZIN A   1      18.996   0.662  11.783  0.00  0.00    -0.003 A 
ATOM      8  C8  ZIN A   1      17.854   1.016  11.105  0.00  0.00    -0.046 A 
ATOM      9  C9  ZIN A   1      17.873   2.266  10.512  0.00  0.00     0.011 A 
ATOM     10  C10 ZIN A   1      18.979   3.087  10.656  0.00  0.00     0.040 A 
ATOM     11  C11 ZIN A   1      20.106   2.736  11.397  0.00  0.00     0.099 A 
ATOM     12  C13 ZIN A   1      20.101   1.474  11.999  0.00  0.00     0.110 A 
ATOM     13  O14 ZIN A   1      20.976   0.853  12.824  0.00  0.00    -0.338 OA
ATOM     14  C15 ZIN A   1      20.216  -0.150  13.592  0.00  0.00     0.175 C 
ATOM     15  C17 ZIN A   1      19.501   0.693  14.654  0.00  0.00     0.171 C 
ATOM     16  C20 ZIN A   1      18.078   0.336  14.882  0.00  0.00     0.003 C 
ATOM     17  C21 ZIN A   1      17.353  -0.447  14.147  0.00  0.00    -0.020 C 
ATOM     18  C22 ZIN A   1      17.924  -1.191  12.957  0.00  0.00     0.055 C 
ATOM     19  C24 ZIN A   1      17.011  -1.268  11.743  0.00  0.00     0.200 C 
ATOM     20  C26 ZIN A   1      16.702   0.064  11.083  0.00  0.00     0.073 C 
ENDROOT
BRANCH  15  21
ATOM     21  O19 ZIN A   1      19.560   2.064  14.255  0.00  0.00    -0.389 OA
ATOM     22  H37 ZIN A   1      19.297   2.219  13.338  0.00  0.00     0.210 HD
ENDBRANCH  15  21
BRANCH  11  23
ATOM     23  O12 ZIN A   1      21.162   3.583  11.530  0.00  0.00    -0.358 OA
ATOM     24  H36 ZIN A   1      21.768   3.347  12.244  0.00  0.00     0.217 HD
ENDBRANCH  11  23
TORSDOF 2
ENDMDL
MODEL 2
REMARK VINA RESULT:      -7.3      2.393      4.763
REMARK  2 active torsions:
REMARK  status: ('A' for Active; 'I' for Inactive)
REMARK    1  A    between atoms: C11_11  and  O12_12 
REMARK    2  A    between atoms: C17_16  and  O19_17 
ROOT
ATOM      1  C1  ZIN A   1      17.758   3.502  11.884  0.00  0.00     0.270 C 
ATOM      2  N2  ZIN A   1      17.577   2.142  12.409  0.00  0.00    -0.070 N 
ATOM      3  H3  ZIN A   1      16.932   2.173  13.185  0.00  0.00     0.279 HD
ATOM      4  C4  ZIN A   1      18.867   1.638  12.881  0.00  0.00     0.236 C 
ATOM      5  C5  ZIN A   1      19.886   1.563  11.733  0.00  0.00     0.045 C 
ATOM      6  C6  ZIN A   1      19.281   0.656  10.658  0.00  0.00     0.030 C 
ATOM      7  C7  ZIN A   1      18.958  -0.676  11.289  0.00  0.00    -0.003 A 
ATOM      8  C8  ZIN A   1      17.776  -1.046  11.884  0.00  0.00    -0.046 A 
ATOM      9  C9  ZIN A   1      17.741  -2.331  12.398  0.00  0.00     0.011 A 
ATOM     10  C10 ZIN A   1      18.837  -3.166  12.258  0.00  0.00     0.040 A 
ATOM     11  C11 ZIN A   1      20.007  -2.794  11.599  0.00  0.00     0.099 A 
ATOM     12  C13 ZIN A   1      20.057  -1.498  11.078  0.00  0.00     0.110 A 
ATOM     13  O14 ZIN A   1      20.986  -0.846  10.340  0.00  0.00    -0.338 OA
ATOM     14  C15 ZIN A   1      20.286   0.220   9.599  0.00  0.00     0.175 C 
ATOM     15  C17 ZIN A   1      19.611  -0.540   8.452  0.00  0.00     0.171 C 
ATOM     16  C20 ZIN A   1      18.209  -0.138   8.175  0.00  0.00     0.003 C 
ATOM     17  C21 ZIN A   1      17.462   0.613   8.920  0.00  0.00    -0.020 C 
ATOM     18  C22 ZIN A   1      17.984   1.269  10.182  0.00  0.00     0.055 C 
ATOM     19  C24 ZIN A   1      17.011   1.291  11.350  0.00  0.00     0.200 C 
ATOM     20  C26 ZIN A   1      16.643  -0.073  11.908  0.00  0.00     0.073 C 
ENDROOT
BRANCH  15  21
ATOM     21  O19 ZIN A   1      19.623  -1.934   8.765  0.00  0.00    -0.389 OA
ATOM     22  H37 ZIN A   1      20.116  -2.476   8.134  0.00  0.00     0.210 HD
ENDBRANCH  15  21
BRANCH  11  23
ATOM     23  O12 ZIN A   1      21.052  -3.655  11.467  0.00  0.00    -0.358 OA
ATOM     24  H36 ZIN A   1      21.025  -4.186  10.659  0.00  0.00     0.217 HD
ENDBRANCH  11  23
TORSDOF 2
ENDMDL
MODEL 3
REMARK VINA RESULT:      -7.2      1.806      3.949
REMARK  2 active torsions:
REMARK  status: ('A' for Active; 'I' for Inactive)
REMARK    1  A    between atoms: C11_11  and  O12_12 
REMARK    2  A    between atoms: C17_16  and  O19_17 
ROOT
ATOM      1  C1  ZIN A   1      19.143  -1.960   7.957  0.00  0.00     0.270 C 
ATOM      2  N2  ZIN A   1      19.710  -1.826   9.306  0.00  0.00    -0.070 N 
ATOM      3  H3  ZIN A   1      20.479  -2.471   9.405  0.00  0.00     0.279 HD
ATOM      4  C4  ZIN A   1      18.679  -2.157  10.291  0.00  0.00     0.236 C 
ATOM      5  C5  ZIN A   1      17.485  -1.195  10.188  0.00  0.00     0.045 C 
ATOM      6  C6  ZIN A   1      18.034   0.220  10.395  0.00  0.00     0.030 C 
ATOM      7  C7  ZIN A   1      18.752   0.260  11.722  0.00  0.00    -0.003 A 
ATOM      8  C8  ZIN A   1      20.081   0.001  11.953  0.00  0.00    -0.046 A 
ATOM      9  C9  ZIN A   1      20.490   0.099  13.271  0.00  0.00     0.011 A 
ATOM     10  C10 ZIN A   1      19.589   0.478  14.253  0.00  0.00     0.040 A 
ATOM     11  C11 ZIN A   1      18.257   0.794  13.992  0.00  0.00     0.099 A 
ATOM     12  C13 ZIN A   1      17.830   0.697  12.665  0.00  0.00     0.110 A 
ATOM     13  O14 ZIN A   1      16.654   0.986  12.061  0.00  0.00    -0.338 OA
ATOM     14  C15 ZIN A   1      16.947   1.259  10.641  0.00  0.00     0.175 C 
ATOM     15  C17 ZIN A   1      17.516   2.682  10.671  0.00  0.00     0.171 C 
ATOM     16  C20 ZIN A   1      18.716   2.894   9.822  0.00  0.00     0.003 C 
ATOM     17  C21 ZIN A   1      19.425   1.975   9.248  0.00  0.00    -0.020 C 
ATOM     18  C22 ZIN A   1      19.047   0.509   9.311  0.00  0.00     0.055 C 
ATOM     19  C24 ZIN A   1      20.212  -0.454   9.481  0.00  0.00     0.200 C 
ATOM     20  C26 ZIN A   1      20.965  -0.330  10.795  0.00  0.00     0.073 C 
ENDROOT
BRANCH  15  21
ATOM     21  O19 ZIN A   1      17.862   3.002  12.021  0.00  0.00    -0.389 OA
ATOM     22  H37 ZIN A   1      18.116   3.925  12.154  0.00  0.00     0.210 HD
ENDBRANCH  15  21
BRANCH  11  23
ATOM     23  O12 ZIN A   1      17.412   1.182  14.985  0.00  0.00    -0.358 OA
ATOM     24  H36 ZIN A   1      16.821   0.481  15.294  0.00  0.00     0.217 HD
ENDBRANCH  11  23
TORSDOF 2
ENDMDL
MODEL 4
REMARK VINA RESULT:      -6.9      3.291      4.843
REMARK  2 active torsions:
REMARK  status: ('A' for Active; 'I' for Inactive)
REMARK    1  A    between atoms: C11_11  and  O12_12 
REMARK    2  A    between atoms: C17_16  and  O19_17 
ROOT
ATOM      1  C1  ZIN A   1      18.208  -0.863  14.382  0.00  0.00     0.270 C 
ATOM      2  N2  ZIN A   1      18.637  -0.208  13.139  0.00  0.00    -0.070 N 
ATOM      3  H3  ZIN A   1      18.942   0.730  13.351  0.00  0.00     0.279 HD
ATOM      4  C4  ZIN A   1      17.502  -0.144  12.218  0.00  0.00     0.236 C 
ATOM      5  C5  ZIN A   1      17.002  -1.552  11.856  0.00  0.00     0.045 C 
ATOM      6  C6  ZIN A   1      18.188  -2.302  11.243  0.00  0.00     0.030 C 
ATOM      7  C7  ZIN A   1      18.699  -1.503  10.069  0.00  0.00    -0.003 A 
ATOM      8  C8  ZIN A   1      19.669  -0.531  10.088  0.00  0.00    -0.046 A 
ATOM      9  C9  ZIN A   1      19.948   0.060   8.868  0.00  0.00     0.011 A 
ATOM     10  C10 ZIN A   1      19.294  -0.366   7.723  0.00  0.00     0.040 A 
ATOM     11  C11 ZIN A   1      18.354  -1.394   7.713  0.00  0.00     0.099 A 
ATOM     12  C13 ZIN A   1      18.061  -1.998   8.939  0.00  0.00     0.110 A 
ATOM     13  O14 ZIN A   1      17.270  -3.043   9.276  0.00  0.00    -0.338 OA
ATOM     14  C15 ZIN A   1      17.788  -3.594  10.541  0.00  0.00     0.175 C 
ATOM     15  C17 ZIN A   1      19.013  -4.401  10.093  0.00  0.00     0.171 C 
ATOM     16  C20 ZIN A   1      20.216  -4.237  10.947  0.00  0.00     0.003 C 
ATOM     17  C21 ZIN A   1      20.388  -3.348  11.874  0.00  0.00    -0.020 C 
ATOM     18  C22 ZIN A   1      19.295  -2.376  12.270  0.00  0.00     0.055 C 
ATOM     19  C24 ZIN A   1      19.765  -0.960  12.566  0.00  0.00     0.200 C 
ATOM     20  C26 ZIN A   1      20.350  -0.213  11.380  0.00  0.00     0.073 C 
ENDROOT
BRANCH  15  21
ATOM     21  O19 ZIN A   1      19.351  -4.006   8.763  0.00  0.00    -0.389 OA
ATOM     22  H37 ZIN A   1      20.113  -4.474   8.394  0.00  0.00     0.210 HD
ENDBRANCH  15  21
BRANCH  11  23
ATOM     23  O12 ZIN A   1      17.751  -1.793   6.561  0.00  0.00    -0.358 OA
ATOM     24  H36 ZIN A   1      17.281  -1.086   6.098  0.00  0.00     0.217 HD
ENDBRANCH  11  23
TORSDOF 2
ENDMDL
MODEL 5
REMARK VINA RESULT:      -6.8      1.487      3.874
REMARK  2 active torsions:
REMARK  status: ('A' for Active; 'I' for Inactive)
REMARK    1  A    between atoms: C11_11  and  O12_12 
REMARK    2  A    between atoms: C17_16  and  O19_17 
ROOT
ATOM      1  C1  ZIN A   1      18.300  -2.327   9.430  0.00  0.00     0.270 C 
ATOM      2  N2  ZIN A   1      18.481  -2.632  10.856  0.00  0.00    -0.070 N 
ATOM      3  H3  ZIN A   1      18.645  -3.622  10.961  0.00  0.00     0.279 HD
ATOM      4  C4  ZIN A   1      17.262  -2.270  11.580  0.00  0.00     0.236 C 
ATOM      5  C5  ZIN A   1      16.972  -0.766  11.458  0.00  0.00     0.045 C 
ATOM      6  C6  ZIN A   1      18.197  -0.029  12.006  0.00  0.00     0.030 C 
ATOM      7  C7  ZIN A   1      18.441  -0.502  13.418  0.00  0.00    -0.003 A 
ATOM      8  C8  ZIN A   1      19.231  -1.553  13.815  0.00  0.00    -0.046 A 
ATOM      9  C9  ZIN A   1      19.279  -1.786  15.178  0.00  0.00     0.011 A 
ATOM     10  C10 ZIN A   1      18.590  -0.957  16.049  0.00  0.00     0.040 A 
ATOM     11  C11 ZIN A   1      17.841   0.141  15.634  0.00  0.00     0.099 A 
ATOM     12  C13 ZIN A   1      17.781   0.386  14.259  0.00  0.00     0.110 A 
ATOM     13  O14 ZIN A   1      17.217   1.377  13.531  0.00  0.00    -0.338 OA
ATOM     14  C15 ZIN A   1      17.949   1.454  12.254  0.00  0.00     0.175 C 
ATOM     15  C17 ZIN A   1      19.238   2.191  12.636  0.00  0.00     0.171 C 
ATOM     16  C20 ZIN A   1      20.479   1.624  12.049  0.00  0.00     0.003 C 
ATOM     17  C21 ZIN A   1      20.595   0.485  11.442  0.00  0.00    -0.020 C 
ATOM     18  C22 ZIN A   1      19.401  -0.409  11.175  0.00  0.00     0.055 C 
ATOM     19  C24 ZIN A   1      19.654  -1.898  11.358  0.00  0.00     0.200 C 
ATOM     20  C26 ZIN A   1      19.979  -2.327  12.778  0.00  0.00     0.073 C 
ENDROOT
BRANCH  15  21
ATOM     21  O19 ZIN A   1      19.366   2.169  14.059  0.00  0.00    -0.389 OA
ATOM     22  H37 ZIN A   1      19.488   3.041  14.456  0.00  0.00     0.210 HD
ENDBRANCH  15  21
BRANCH  11  23
ATOM     23  O12 ZIN A   1      17.197   0.941  16.527  0.00  0.00    -0.358 OA
ATOM     24  H36 ZIN A   1      16.512   1.498  16.133  0.00  0.00     0.217 HD
ENDBRANCH  11  23
TORSDOF 2
ENDMDL
MODEL 6
REMARK VINA RESULT:      -6.8      2.841      4.256
REMARK  2 active torsions:
REMARK  status: ('A' for Active; 'I' for Inactive)
REMARK    1  A    between atoms: C11_11  and  O12_12 
REMARK    2  A    between atoms: C17_16  and  O19_17 
ROOT
ATOM      1  C1  ZIN A   1      19.214   1.348  15.186  0.00  0.00     0.270 C 
ATOM      2  N2  ZIN A   1      19.629   1.599  13.799  0.00  0.00    -0.070 N 
ATOM      3  H3  ZIN A   1      20.323   2.331  13.791  0.00  0.00     0.279 HD
ATOM      4  C4  ZIN A   1      18.466   2.036  13.025  0.00  0.00     0.236 C 
ATOM      5  C5  ZIN A   1      17.379   0.950  12.998  0.00  0.00     0.045 C 
ATOM      6  C6  ZIN A   1      18.018  -0.306  12.400  0.00  0.00     0.030 C 
ATOM      7  C7  ZIN A   1      18.577   0.046  11.044  0.00  0.00    -0.003 A 
ATOM      8  C8  ZIN A   1      19.844   0.497  10.762  0.00  0.00    -0.046 A 
ATOM      9  C9  ZIN A   1      20.104   0.758   9.428  0.00  0.00     0.011 A 
ATOM     10  C10 ZIN A   1      19.130   0.523   8.471  0.00  0.00     0.040 A 
ATOM     11  C11 ZIN A   1      17.869   0.009   8.768  0.00  0.00     0.099 A 
ATOM     12  C13 ZIN A   1      17.593  -0.256  10.112  0.00  0.00     0.110 A 
ATOM     13  O14 ZIN A   1      16.524  -0.808  10.733  0.00  0.00    -0.338 OA
ATOM     14  C15 ZIN A   1      17.002  -1.372  12.008  0.00  0.00     0.175 C 
ATOM     15  C17 ZIN A   1      17.684  -2.677  11.578  0.00  0.00     0.171 C 
ATOM     16  C20 ZIN A   1      18.987  -2.948  12.235  0.00  0.00     0.003 C 
ATOM     17  C21 ZIN A   1      19.677  -2.116  12.949  0.00  0.00    -0.020 C 
ATOM     18  C22 ZIN A   1      19.171  -0.728  13.282  0.00  0.00     0.055 C 
ATOM     19  C24 ZIN A   1      20.222   0.370  13.247  0.00  0.00     0.200 C 
ATOM     20  C26 ZIN A   1      20.825   0.643  11.879  0.00  0.00     0.073 C 
ENDROOT
BRANCH  15  21
ATOM     21  O19 ZIN A   1      17.896  -2.629  10.165  0.00  0.00    -0.389 OA
ATOM     22  H37 ZIN A   1      17.081  -2.616   9.645  0.00  0.00     0.210 HD
ENDBRANCH  15  21
BRANCH  11  23
ATOM     23  O12 ZIN A   1      16.950  -0.225   7.793  0.00  0.00    -0.358 OA
ATOM     24  H36 ZIN A   1      17.299  -0.713   7.034  0.00  0.00     0.217 HD
ENDBRANCH  11  23
TORSDOF 2
ENDMDL
MODEL 7
REMARK VINA RESULT:      -6.7      3.100      4.651
REMARK  2 active torsions:
REMARK  status: ('A' for Active; 'I' for Inactive)
REMARK    1  A    between atoms: C11_11  and  O12_12 
REMARK    2  A    between atoms: C17_16  and  O19_17 
ROOT
ATOM      1  C1  ZIN A   1      18.249   2.765  13.408  0.00  0.00     0.270 C 
ATOM      2  N2  ZIN A   1      18.405   2.963  11.960  0.00  0.00    -0.070 N 
ATOM      3  H3  ZIN A   1      18.496   3.950  11.772  0.00  0.00     0.279 HD
ATOM      4  C4  ZIN A   1      17.213   2.456  11.279  0.00  0.00     0.236 C 
ATOM      5  C5  ZIN A   1      17.033   0.949  11.528  0.00  0.00     0.045 C 
ATOM      6  C6  ZIN A   1      18.307   0.260  11.032  0.00  0.00     0.030 C 
ATOM      7  C7  ZIN A   1      18.513   0.630   9.584  0.00  0.00    -0.003 A 
ATOM      8  C8  ZIN A   1      19.223   1.699   9.095  0.00  0.00    -0.046 A 
ATOM      9  C9  ZIN A   1      19.251   1.820   7.716  0.00  0.00     0.011 A 
ATOM     10  C10 ZIN A   1      18.622   0.875   6.923  0.00  0.00     0.040 A 
ATOM     11  C11 ZIN A   1      17.955  -0.237   7.434  0.00  0.00     0.099 A 
ATOM     12  C13 ZIN A   1      17.917  -0.369   8.825  0.00  0.00     0.110 A 
ATOM     13  O14 ZIN A   1      17.427  -1.335   9.636  0.00  0.00    -0.338 OA
ATOM     14  C15 ZIN A   1      18.166  -1.253  10.910  0.00  0.00     0.175 C 
ATOM     15  C17 ZIN A   1      19.505  -1.924  10.579  0.00  0.00     0.171 C 
ATOM     16  C20 ZIN A   1      20.703  -1.223  11.106  0.00  0.00     0.003 C 
ATOM     17  C21 ZIN A   1      20.737  -0.032  11.616  0.00  0.00    -0.020 C 
ATOM     18  C22 ZIN A   1      19.482   0.793  11.818  0.00  0.00     0.055 C 
ATOM     19  C24 ZIN A   1      19.626   2.276  11.511  0.00  0.00     0.200 C 
ATOM     20  C26 ZIN A   1      19.916   2.608  10.057  0.00  0.00     0.073 C 
ENDROOT
BRANCH  15  21
ATOM     21  O19 ZIN A   1      19.627  -2.011   9.158  0.00  0.00    -0.389 OA
ATOM     22  H37 ZIN A   1      18.834  -1.738   8.678  0.00  0.00     0.210 HD
ENDBRANCH  15  21
BRANCH  11  23
ATOM     23  O12 ZIN A   1      17.369  -1.152   6.615  0.00  0.00    -0.358 OA
ATOM     24  H36 ZIN A   1      17.727  -1.161   5.717  0.00  0.00     0.217 HD
ENDBRANCH  11  23
TORSDOF 2
ENDMDL
MODEL 8
REMARK VINA RESULT:      -6.7      3.028      5.432
REMARK  2 active torsions:
REMARK  status: ('A' for Active; 'I' for Inactive)
REMARK    1  A    between atoms: C11_11  and  O12_12 
REMARK    2  A    between atoms: C17_16  and  O19_17 
ROOT
ATOM      1  C1  ZIN A   1      19.933   1.979  11.853  0.00  0.00     0.270 C 
ATOM      2  N2  ZIN A   1      19.317   0.715  12.277  0.00  0.00    -0.070 N 
ATOM      3  H3  ZIN A   1      19.106   0.766  13.262  0.00  0.00     0.279 HD
ATOM      4  C4  ZIN A   1      20.263  -0.378  12.047  0.00  0.00     0.236 C 
ATOM      5  C5  ZIN A   1      20.611  -0.505  10.555  0.00  0.00     0.045 C 
ATOM      6  C6  ZIN A   1      19.293  -0.729   9.808  0.00  0.00     0.030 C 
ATOM      7  C7  ZIN A   1      18.618  -1.944  10.393  0.00  0.00    -0.003 A 
ATOM      8  C8  ZIN A   1      17.721  -1.973  11.433  0.00  0.00    -0.046 A 
ATOM      9  C9  ZIN A   1      17.252  -3.226  11.786  0.00  0.00     0.011 A 
ATOM     10  C10 ZIN A   1      17.659  -4.345  11.078  0.00  0.00     0.040 A 
ATOM     11  C11 ZIN A   1      18.524  -4.292   9.987  0.00  0.00     0.099 A 
ATOM     12  C13 ZIN A   1      19.008  -3.032   9.623  0.00  0.00     0.110 A 
ATOM     13  O14 ZIN A   1      19.790  -2.616   8.600  0.00  0.00    -0.338 OA
ATOM     14  C15 ZIN A   1      19.487  -1.191   8.369  0.00  0.00     0.175 C 
ATOM     15  C17 ZIN A   1      18.159  -1.238   7.603  0.00  0.00     0.171 C 
ATOM     16  C20 ZIN A   1      17.146  -0.249   8.047  0.00  0.00     0.003 C 
ATOM     17  C21 ZIN A   1      17.196   0.478   9.118  0.00  0.00    -0.020 C 
ATOM     18  C22 ZIN A   1      18.394   0.462  10.047  0.00  0.00     0.055 C 
ATOM     19  C24 ZIN A   1      18.064   0.519  11.530  0.00  0.00     0.200 C 
ATOM     20  C26 ZIN A   1      17.309  -0.685  12.070  0.00  0.00     0.073 C 
ENDROOT
BRANCH  15  21
ATOM     21  O19 ZIN A   1      17.602  -2.546   7.747  0.00  0.00    -0.389 OA
ATOM     22  H37 ZIN A   1      17.971  -3.201   7.140  0.00  0.00     0.210 HD
ENDBRANCH  15  21
BRANCH  11  23
ATOM     23  O12 ZIN A   1      18.881  -5.415   9.308  0.00  0.00    -0.358 OA
ATOM     24  H36 ZIN A   1      19.622  -5.287   8.700  0.00  0.00     0.217 HD
ENDBRANCH  11  23
TORSDOF 2
ENDMDL
MODEL 9
REMARK VINA RESULT:      -6.7      4.139      5.994
REMARK  2 active torsions:
REMARK  status: ('A' for Active; 'I' for Inactive)
REMARK    1  A    between atoms: C11_11  and  O12_12 
REMARK    2  A    between atoms: C17_16  and  O19_17 
ROOT
ATOM      1  C1  ZIN A   1      17.377  -6.132  11.863  0.00  0.00     0.270 C 
ATOM      2  N2  ZIN A   1      17.902  -4.761  11.835  0.00  0.00    -0.070 N 
ATOM      3  H3  ZIN A   1      17.935  -4.402  12.778  0.00  0.00     0.279 HD
ATOM      4  C4  ZIN A   1      17.006  -3.923  11.037  0.00  0.00     0.236 C 
ATOM      5  C5  ZIN A   1      16.927  -4.423   9.586  0.00  0.00     0.045 C 
ATOM      6  C6  ZIN A   1      18.356  -4.413   9.033  0.00  0.00     0.030 C 
ATOM      7  C7  ZIN A   1      18.911  -3.018   9.180  0.00  0.00    -0.003 A 
ATOM      8  C8  ZIN A   1      19.609  -2.512  10.250  0.00  0.00    -0.046 A 
ATOM      9  C9  ZIN A   1      20.001  -1.190  10.138  0.00  0.00     0.011 A 
ATOM     10  C10 ZIN A   1      19.721  -0.476   8.984  0.00  0.00     0.040 A 
ATOM     11  C11 ZIN A   1      19.063  -1.022   7.884  0.00  0.00     0.099 A 
ATOM     12  C13 ZIN A   1      18.658  -2.356   7.985  0.00  0.00     0.110 A 
ATOM     13  O14 ZIN A   1      18.071  -3.201   7.105  0.00  0.00    -0.338 OA
ATOM     14  C15 ZIN A   1      18.418  -4.574   7.519  0.00  0.00     0.175 C 
ATOM     15  C17 ZIN A   1      19.860  -4.732   7.022  0.00  0.00     0.171 C 
ATOM     16  C20 ZIN A   1      20.784  -5.386   7.983  0.00  0.00     0.003 C 
ATOM     17  C21 ZIN A   1      20.548  -5.631   9.233  0.00  0.00    -0.020 C 
ATOM     18  C22 ZIN A   1      19.205  -5.340   9.872  0.00  0.00     0.055 C 
ATOM     19  C24 ZIN A   1      19.267  -4.781  11.284  0.00  0.00     0.200 C 
ATOM     20  C26 ZIN A   1      19.907  -3.409  11.407  0.00  0.00     0.073 C 
ENDROOT
BRANCH  15  21
ATOM     21  O19 ZIN A   1      20.377  -3.436   6.716  0.00  0.00    -0.389 OA
ATOM     22  H37 ZIN A   1      19.971  -3.023   5.941  0.00  0.00     0.210 HD
ENDBRANCH  15  21
BRANCH  11  23
ATOM     23  O12 ZIN A   1      18.827  -0.290   6.763  0.00  0.00    -0.358 OA
ATOM     24  H36 ZIN A   1      19.316   0.544   6.727  0.00  0.00     0.217 HD
ENDBRANCH  11  23
TORSDOF 2
ENDMDL
