MODEL 1
REMARK VINA RESULT:      -6.0      0.000      0.000
REMARK  7 active torsions:
REMARK  status: ('A' for Active; 'I' for Inactive)
REMARK    1  A    between atoms: C2_2  and  C3_3 
REMARK    2  A    between atoms: C3_3  and  N4_4 
REMARK    3  A    between atoms: N4_4  and  C6_6 
REMARK    4  A    between atoms: N4_4  and  C9_9 
REMARK    5  A    between atoms: C6_6  and  C7_7 
REMARK    6  A    between atoms: C9_9  and  C10_10 
REMARK    7  A    between atoms: C10_10  and  C11_11 
ROOT
ATOM      1  C11 ZIN A   1      17.541   0.821  10.307  0.00  0.00    -0.048 A 
ATOM      2  C12 ZIN A   1      17.882   2.142  10.539  0.00  0.00     0.008 A 
ATOM      3  C13 ZIN A   1      18.649   2.827   9.615  0.00  0.00     0.003 A 
ATOM      4  C14 ZIN A   1      19.078   2.200   8.462  0.00  0.00     0.030 A 
ATOM      5  C15 ZIN A   1      18.738   0.870   8.222  0.00  0.00     0.042 A 
ATOM      6  C16 ZIN A   1      17.971   0.192   9.161  0.00  0.00    -0.016 A 
ATOM      7  C17 ZIN A   1      17.775  -1.207   8.621  0.00  0.00     0.144 A 
ATOM      8  C18 ZIN A   1      18.517  -1.198   7.300  0.00  0.00     0.226 A 
ATOM      9  O19 ZIN A   1      18.618  -2.125   6.525  0.00  0.00    -0.273 OA
ATOM     10  N20 ZIN A   1      19.042   0.030   7.151  0.00  0.00    -0.326 N 
ATOM     11  H44 ZIN A   1      19.570   0.302   6.383  0.00  0.00     0.169 HD
ENDROOT
BRANCH   1  12
ATOM     12  C10 ZIN A   1      16.705   0.070  11.312  0.00  0.00     0.067 C 
BRANCH  12  13
ATOM     13  C9  ZIN A   1      17.455  -0.008  12.643  0.00  0.00     0.239 C 
BRANCH  13  14
ATOM     14  N4  ZIN A   1      18.694  -0.776  12.462  0.00  0.00    -0.071 N 
ATOM     15  H5  ZIN A   1      18.920  -0.824  11.480  0.00  0.00     0.279 HD
BRANCH  14  16
ATOM     16  C3  ZIN A   1      19.790  -0.118  13.184  0.00  0.00     0.234 C 
BRANCH  16  17
ATOM     17  C2  ZIN A   1      20.730   0.557  12.182  0.00  0.00     0.023 C 
ATOM     18  C1  ZIN A   1      20.980  -0.386  11.003  0.00  0.00     0.007 C 
ENDBRANCH  16  17
ENDBRANCH  14  16
BRANCH  14  19
ATOM     19  C6  ZIN A   1      18.509  -2.135  12.988  0.00  0.00     0.234 C 
BRANCH  19  20
ATOM     20  C7  ZIN A   1      18.401  -3.123  11.824  0.00  0.00     0.023 C 
ATOM     21  C8  ZIN A   1      19.764  -3.774  11.581  0.00  0.00     0.007 C 
ENDBRANCH  19  20
ENDBRANCH  14  19
ENDBRANCH  13  14
ENDBRANCH  12  13
ENDBRANCH   1  12
TORSDOF 7
ENDMDL
MODEL 2
REMARK VINA RESULT:      -6.0      3.141      5.738
REMARK  7 active torsions:
REMARK  status: ('A' for Active; 'I' for Inactive)
REMARK    1  A    between atoms: C2_2  and  C3_3 
REMARK    2  A    between atoms: C3_3  and  N4_4 
REMARK    3  A    between atoms: N4_4  and  C6_6 
REMARK    4  A    between atoms: N4_4  and  C9_9 
REMARK    5  A    between atoms: C6_6  and  C7_7 
REMARK    6  A    between atoms: C9_9  and  C10_10 
REMARK    7  A    between atoms: C10_10  and  C11_11 
ROOT
ATOM      1  C11 ZIN A   1      19.870   0.272  13.340  0.00  0.00    -0.048 A 
ATOM      2  C12 ZIN A   1      19.797  -0.965  13.957  0.00  0.00     0.008 A 
ATOM      3  C13 ZIN A   1      18.986  -1.134  15.064  0.00  0.00     0.003 A 
ATOM      4  C14 ZIN A   1      18.250  -0.076  15.558  0.00  0.00     0.030 A 
ATOM      5  C15 ZIN A   1      18.318   1.171  14.941  0.00  0.00     0.042 A 
ATOM      6  C16 ZIN A   1      19.140   1.330  13.833  0.00  0.00    -0.016 A 
ATOM      7  C17 ZIN A   1      18.998   2.771  13.399  0.00  0.00     0.144 A 
ATOM      8  C18 ZIN A   1      18.017   3.358  14.392  0.00  0.00     0.226 A 
ATOM      9  O19 ZIN A   1      17.613   4.501  14.416  0.00  0.00    -0.273 OA
ATOM     10  N20 ZIN A   1      17.680   2.375  15.244  0.00  0.00    -0.326 N 
ATOM     11  H44 ZIN A   1      17.060   2.487  15.982  0.00  0.00     0.169 HD
ENDROOT
BRANCH   1  12
ATOM     12  C10 ZIN A   1      20.751   0.461  12.132  0.00  0.00     0.067 C 
BRANCH  12  13
ATOM     13  C9  ZIN A   1      20.410  -0.597  11.080  0.00  0.00     0.239 C 
BRANCH  13  14
ATOM     14  N4  ZIN A   1      19.272  -0.136  10.274  0.00  0.00    -0.071 N 
ATOM     15  H5  ZIN A   1      18.807   0.622  10.751  0.00  0.00     0.279 HD
BRANCH  14  16
ATOM     16  C3  ZIN A   1      19.754   0.330   8.968  0.00  0.00     0.234 C 
BRANCH  16  17
ATOM     17  C2  ZIN A   1      18.925   1.535   8.518  0.00  0.00     0.023 C 
ATOM     18  C1  ZIN A   1      18.806   2.532   9.672  0.00  0.00     0.007 C 
ENDBRANCH  16  17
ENDBRANCH  14  16
BRANCH  14  19
ATOM     19  C6  ZIN A   1      18.328  -1.245  10.080  0.00  0.00     0.234 C 
BRANCH  19  20
ATOM     20  C7  ZIN A   1      17.391  -1.333  11.287  0.00  0.00     0.023 C 
ATOM     21  C8  ZIN A   1      16.673   0.006  11.474  0.00  0.00     0.007 C 
ENDBRANCH  19  20
ENDBRANCH  14  19
ENDBRANCH  13  14
ENDBRANCH  12  13
ENDBRANCH   1  12
TORSDOF 7
ENDMDL
MODEL 3
REMARK VINA RESULT:      -5.8      1.054      1.697
REMARK  7 active torsions:
REMARK  status: ('A' for Active; 'I' for Inactive)
REMARK    1  A    between atoms: C2_2  and  C3_3 
REMARK    2  A    between atoms: C3_3  and  N4_4 
REMARK    3  A    between atoms: N4_4  and  C6_6 
REMARK    4  A    between atoms: N4_4  and  C9_9 
REMARK    5  A    between atoms: C6_6  and  C7_7 
REMARK    6  A    between atoms: C9_9  and  C10_10 
REMARK    7  A    between atoms: C10_10  and  C11_11 
ROOT
ATOM      1  C11 ZIN A   1      17.527   0.739  10.494  0.00  0.00    -0.048 A 
ATOM      2  C12 ZIN A   1      17.785   2.074  10.752  0.00  0.00     0.008 A 
ATOM      3  C13 ZIN A   1      18.503   2.824   9.839  0.00  0.00     0.003 A 
ATOM      4  C14 ZIN A   1      18.965   2.249   8.673  0.00  0.00     0.030 A 
ATOM      5  C15 ZIN A   1      18.708   0.906   8.406  0.00  0.00     0.042 A 
ATOM      6  C16 ZIN A   1      17.990   0.162   9.333  0.00  0.00    -0.016 A 
ATOM      7  C17 ZIN A   1      17.879  -1.235   8.764  0.00  0.00     0.144 A 
ATOM      8  C18 ZIN A   1      18.613  -1.152   7.442  0.00  0.00     0.226 A 
ATOM      9  O19 ZIN A   1      18.769  -2.054   6.648  0.00  0.00    -0.273 OA
ATOM     10  N20 ZIN A   1      19.060   0.109   7.316  0.00  0.00    -0.326 N 
ATOM     11  H44 ZIN A   1      19.566   0.430   6.553  0.00  0.00     0.169 HD
ENDROOT
BRANCH   1  12
ATOM     12  C10 ZIN A   1      16.744  -0.084  11.485  0.00  0.00     0.067 C 
BRANCH  12  13
ATOM     13  C9  ZIN A   1      17.468  -0.082  12.833  0.00  0.00     0.239 C 
BRANCH  13  14
ATOM     14  N4  ZIN A   1      18.682  -0.904  12.738  0.00  0.00    -0.071 N 
ATOM     15  H5  ZIN A   1      19.277  -0.541  12.008  0.00  0.00     0.279 HD
BRANCH  14  16
ATOM     16  C3  ZIN A   1      19.400  -0.868  14.018  0.00  0.00     0.234 C 
BRANCH  16  17
ATOM     17  C2  ZIN A   1      18.428  -0.495  15.139  0.00  0.00     0.023 C 
ATOM     18  C1  ZIN A   1      18.498  -1.548  16.247  0.00  0.00     0.007 C 
ENDBRANCH  16  17
ENDBRANCH  14  16
BRANCH  14  19
ATOM     19  C6  ZIN A   1      18.310  -2.290  12.424  0.00  0.00     0.234 C 
BRANCH  19  20
ATOM     20  C7  ZIN A   1      19.517  -3.019  11.827  0.00  0.00     0.023 C 
ATOM     21  C8  ZIN A   1      19.103  -4.431  11.407  0.00  0.00     0.007 C 
ENDBRANCH  19  20
ENDBRANCH  14  19
ENDBRANCH  13  14
ENDBRANCH  12  13
ENDBRANCH   1  12
TORSDOF 7
ENDMDL
MODEL 4
REMARK VINA RESULT:      -5.8      1.383      1.986
REMARK  7 active torsions:
REMARK  status: ('A' for Active; 'I' for Inactive)
REMARK    1  A    between atoms: C2_2  and  C3_3 
REMARK    2  A    between atoms: C3_3  and  N4_4 
REMARK    3  A    between atoms: N4_4  and  C6_6 
REMARK    4  A    between atoms: N4_4  and  C9_9 
REMARK    5  A    between atoms: C6_6  and  C7_7 
REMARK    6  A    between atoms: C9_9  and  C10_10 
REMARK    7  A    between atoms: C10_10  and  C11_11 
ROOT
ATOM      1  C11 ZIN A   1      17.602   0.754  10.412  0.00  0.00    -0.048 A 
ATOM      2  C12 ZIN A   1      17.888   2.103  10.530  0.00  0.00     0.008 A 
ATOM      3  C13 ZIN A   1      18.612   2.742   9.541  0.00  0.00     0.003 A 
ATOM      4  C14 ZIN A   1      19.052   2.042   8.436  0.00  0.00     0.030 A 
ATOM      5  C15 ZIN A   1      18.767   0.684   8.309  0.00  0.00     0.042 A 
ATOM      6  C16 ZIN A   1      18.043   0.053   9.312  0.00  0.00    -0.016 A 
ATOM      7  C17 ZIN A   1      17.900  -1.392   8.890  0.00  0.00     0.144 A 
ATOM      8  C18 ZIN A   1      18.622  -1.459   7.561  0.00  0.00     0.226 A 
ATOM      9  O19 ZIN A   1      18.754  -2.440   6.861  0.00  0.00    -0.273 OA
ATOM     10  N20 ZIN A   1      19.092  -0.227   7.304  0.00  0.00    -0.326 N 
ATOM     11  H44 ZIN A   1      19.597   0.005   6.507  0.00  0.00     0.169 HD
ENDROOT
BRANCH   1  12
ATOM     12  C10 ZIN A   1      16.813   0.053  11.487  0.00  0.00     0.067 C 
BRANCH  12  13
ATOM     13  C9  ZIN A   1      17.261   0.559  12.861  0.00  0.00     0.239 C 
BRANCH  13  14
ATOM     14  N4  ZIN A   1      17.776  -0.567  13.652  0.00  0.00    -0.071 N 
ATOM     15  H5  ZIN A   1      17.185  -1.373  13.514  0.00  0.00     0.279 HD
BRANCH  14  16
ATOM     16  C3  ZIN A   1      19.144  -0.883  13.223  0.00  0.00     0.234 C 
BRANCH  16  17
ATOM     17  C2  ZIN A   1      20.016   0.369  13.333  0.00  0.00     0.023 C 
ATOM     18  C1  ZIN A   1      20.880   0.501  12.077  0.00  0.00     0.007 C 
ENDBRANCH  16  17
ENDBRANCH  14  16
BRANCH  14  19
ATOM     19  C6  ZIN A   1      17.782  -0.202  15.075  0.00  0.00     0.234 C 
BRANCH  19  20
ATOM     20  C7  ZIN A   1      18.181  -1.419  15.912  0.00  0.00     0.023 C 
ATOM     21  C8  ZIN A   1      19.087  -0.973  17.062  0.00  0.00     0.007 C 
ENDBRANCH  19  20
ENDBRANCH  14  19
ENDBRANCH  13  14
ENDBRANCH  12  13
ENDBRANCH   1  12
TORSDOF 7
ENDMDL
MODEL 5
REMARK VINA RESULT:      -5.7      1.600      2.405
REMARK  7 active torsions:
REMARK  status: ('A' for Active; 'I' for Inactive)
REMARK    1  A    between atoms: C2_2  and  C3_3 
REMARK    2  A    between atoms: C3_3  and  N4_4 
REMARK    3  A    between atoms: N4_4  and  C6_6 
REMARK    4  A    between atoms: N4_4  and  C9_9 
REMARK    5  A    between atoms: C6_6  and  C7_7 
REMARK    6  A    between atoms: C9_9  and  C10_10 
REMARK    7  A    between atoms: C10_10  and  C11_11 
ROOT
ATOM      1  C11 ZIN A   1      19.013  -0.347   9.081  0.00  0.00    -0.048 A 
ATOM      2  C12 ZIN A   1      18.881   0.904   9.658  0.00  0.00     0.008 A 
ATOM      3  C13 ZIN A   1      18.853   2.031   8.858  0.00  0.00     0.003 A 
ATOM      4  C14 ZIN A   1      18.957   1.916   7.486  0.00  0.00     0.030 A 
ATOM      5  C15 ZIN A   1      19.089   0.659   6.899  0.00  0.00     0.042 A 
ATOM      6  C16 ZIN A   1      19.121  -0.465   7.714  0.00  0.00    -0.016 A 
ATOM      7  C17 ZIN A   1      19.269  -1.655   6.793  0.00  0.00     0.144 A 
ATOM      8  C18 ZIN A   1      19.313  -1.044   5.408  0.00  0.00     0.226 A 
ATOM      9  O19 ZIN A   1      19.425  -1.644   4.360  0.00  0.00    -0.273 OA
ATOM     10  N20 ZIN A   1      19.207   0.287   5.559  0.00  0.00    -0.326 N 
ATOM     11  H44 ZIN A   1      19.208   0.917   4.821  0.00  0.00     0.169 HD
ENDROOT
BRANCH   1  12
ATOM     12  C10 ZIN A   1      19.043  -1.579   9.949  0.00  0.00     0.067 C 
BRANCH  12  13
ATOM     13  C9  ZIN A   1      20.050  -1.378  11.084  0.00  0.00     0.239 C 
BRANCH  13  14
ATOM     14  N4  ZIN A   1      19.860  -2.425  12.097  0.00  0.00    -0.071 N 
ATOM     15  H5  ZIN A   1      20.552  -2.318  12.824  0.00  0.00     0.279 HD
BRANCH  14  16
ATOM     16  C3  ZIN A   1      18.517  -2.307  12.678  0.00  0.00     0.234 C 
BRANCH  16  17
ATOM     17  C2  ZIN A   1      18.440  -1.041  13.534  0.00  0.00     0.023 C 
ATOM     18  C1  ZIN A   1      19.199  -1.263  14.844  0.00  0.00     0.007 C 
ENDBRANCH  16  17
ENDBRANCH  14  16
BRANCH  14  19
ATOM     19  C6  ZIN A   1      20.008  -3.745  11.470  0.00  0.00     0.234 C 
BRANCH  19  20
ATOM     20  C7  ZIN A   1      18.729  -4.558  11.686  0.00  0.00     0.023 C 
ATOM     21  C8  ZIN A   1      18.356  -5.275  10.386  0.00  0.00     0.007 C 
ENDBRANCH  19  20
ENDBRANCH  14  19
ENDBRANCH  13  14
ENDBRANCH  12  13
ENDBRANCH   1  12
TORSDOF 7
ENDMDL
MODEL 6
REMARK VINA RESULT:      -5.7      1.713      2.998
REMARK  7 active torsions:
REMARK  status: ('A' for Active; 'I' for Inactive)
REMARK    1  A    between atoms: C2_2  and  C3_3 
REMARK    2  A    between atoms: C3_3  and  N4_4 
REMARK    3  A    between atoms: N4_4  and  C6_6 
REMARK    4  A    between atoms: N4_4  and  C9_9 
REMARK    5  A    between atoms: C6_6  and  C7_7 
REMARK    6  A    between atoms: C9_9  and  C10_10 
REMARK    7  A    between atoms: C10_10  and  C11_11 
ROOT
ATOM      1  C11 ZIN A   1      19.147  -0.314   8.991  0.00  0.00    -0.048 A 
ATOM      2  C12 ZIN A   1      19.014   0.935   9.572  0.00  0.00     0.008 A 
ATOM      3  C13 ZIN A   1      18.955   2.062   8.774  0.00  0.00     0.003 A 
ATOM      4  C14 ZIN A   1      19.028   1.949   7.400  0.00  0.00     0.030 A 
ATOM      5  C15 ZIN A   1      19.162   0.694   6.809  0.00  0.00     0.042 A 
ATOM      6  C16 ZIN A   1      19.226  -0.429   7.622  0.00  0.00    -0.016 A 
ATOM      7  C17 ZIN A   1      19.367  -1.617   6.697  0.00  0.00     0.144 A 
ATOM      8  C18 ZIN A   1      19.372  -1.005   5.312  0.00  0.00     0.226 A 
ATOM      9  O19 ZIN A   1      19.467  -1.603   4.261  0.00  0.00    -0.273 OA
ATOM     10  N20 ZIN A   1      19.254   0.324   5.466  0.00  0.00    -0.326 N 
ATOM     11  H44 ZIN A   1      19.231   0.955   4.729  0.00  0.00     0.169 HD
ENDROOT
BRANCH   1  12
ATOM     12  C10 ZIN A   1      19.212  -1.546   9.857  0.00  0.00     0.067 C 
BRANCH  12  13
ATOM     13  C9  ZIN A   1      17.806  -1.898  10.348  0.00  0.00     0.239 C 
BRANCH  13  14
ATOM     14  N4  ZIN A   1      17.888  -2.463  11.702  0.00  0.00    -0.071 N 
ATOM     15  H5  ZIN A   1      17.062  -3.013  11.888  0.00  0.00     0.279 HD
BRANCH  14  16
ATOM     16  C3  ZIN A   1      19.077  -3.317  11.806  0.00  0.00     0.234 C 
BRANCH  16  17
ATOM     17  C2  ZIN A   1      18.710  -4.753  11.423  0.00  0.00     0.023 C 
ATOM     18  C1  ZIN A   1      17.381  -5.131  12.079  0.00  0.00     0.007 C 
ENDBRANCH  16  17
ENDBRANCH  14  16
BRANCH  14  19
ATOM     19  C6  ZIN A   1      17.981  -1.373  12.682  0.00  0.00     0.234 C 
BRANCH  19  20
ATOM     20  C7  ZIN A   1      19.204  -1.593  13.575  0.00  0.00     0.023 C 
ATOM     21  C8  ZIN A   1      18.838  -1.281  15.028  0.00  0.00     0.007 C 
ENDBRANCH  19  20
ENDBRANCH  14  19
ENDBRANCH  13  14
ENDBRANCH  12  13
ENDBRANCH   1  12
TORSDOF 7
ENDMDL
MODEL 7
REMARK VINA RESULT:      -5.7      4.049      7.151
REMARK  7 active torsions:
REMARK  status: ('A' for Active; 'I' for Inactive)
REMARK    1  A    between atoms: C2_2  and  C3_3 
REMARK    2  A    between atoms: C3_3  and  N4_4 
REMARK    3  A    between atoms: N4_4  and  C6_6 
REMARK    4  A    between atoms: N4_4  and  C9_9 
REMARK    5  A    between atoms: C6_6  and  C7_7 
REMARK    6  A    between atoms: C9_9  and  C10_10 
REMARK    7  A    between atoms: C10_10  and  C11_11 
ROOT
ATOM      1  C11 ZIN A   1      18.904   0.915  14.031  0.00  0.00    -0.048 A 
ATOM      2  C12 ZIN A   1      18.637  -0.325  13.478  0.00  0.00     0.008 A 
ATOM      3  C13 ZIN A   1      18.516  -1.432  14.298  0.00  0.00     0.003 A 
ATOM      4  C14 ZIN A   1      18.659  -1.307  15.665  0.00  0.00     0.030 A 
ATOM      5  C15 ZIN A   1      18.927  -0.061  16.228  0.00  0.00     0.042 A 
ATOM      6  C16 ZIN A   1      19.052   1.042  15.394  0.00  0.00    -0.016 A 
ATOM      7  C17 ZIN A   1      19.336   2.225  16.290  0.00  0.00     0.144 A 
ATOM      8  C18 ZIN A   1      19.349   1.635  17.685  0.00  0.00     0.226 A 
ATOM      9  O19 ZIN A   1      19.540   2.236  18.720  0.00  0.00    -0.273 OA
ATOM     10  N20 ZIN A   1      19.109   0.319  17.558  0.00  0.00    -0.326 N 
ATOM     11  H44 ZIN A   1      19.064  -0.297  18.308  0.00  0.00     0.169 HD
ENDROOT
BRANCH   1  12
ATOM     12  C10 ZIN A   1      19.037   2.125  13.141  0.00  0.00     0.067 C 
BRANCH  12  13
ATOM     13  C9  ZIN A   1      19.852   1.756  11.899  0.00  0.00     0.239 C 
BRANCH  13  14
ATOM     14  N4  ZIN A   1      19.714   2.817  10.892  0.00  0.00    -0.071 N 
ATOM     15  H5  ZIN A   1      20.629   3.117  10.592  0.00  0.00     0.279 HD
BRANCH  14  16
ATOM     16  C3  ZIN A   1      18.965   2.302   9.738  0.00  0.00     0.234 C 
BRANCH  16  17
ATOM     17  C2  ZIN A   1      19.179   0.791   9.624  0.00  0.00     0.023 C 
ATOM     18  C1  ZIN A   1      18.243   0.223   8.555  0.00  0.00     0.007 C 
ENDBRANCH  16  17
ENDBRANCH  14  16
BRANCH  14  19
ATOM     19  C6  ZIN A   1      18.992   3.955  11.475  0.00  0.00     0.234 C 
BRANCH  19  20
ATOM     20  C7  ZIN A   1      17.875   4.392  10.525  0.00  0.00     0.023 C 
ATOM     21  C8  ZIN A   1      16.710   4.965  11.336  0.00  0.00     0.007 C 
ENDBRANCH  19  20
ENDBRANCH  14  19
ENDBRANCH  13  14
ENDBRANCH  12  13
ENDBRANCH   1  12
TORSDOF 7
ENDMDL
MODEL 8
REMARK VINA RESULT:      -5.6      2.862      3.798
REMARK  7 active torsions:
REMARK  status: ('A' for Active; 'I' for Inactive)
REMARK    1  A    between atoms: C2_2  and  C3_3 
REMARK    2  A    between atoms: C3_3  and  N4_4 
REMARK    3  A    between atoms: N4_4  and  C6_6 
REMARK    4  A    between atoms: N4_4  and  C9_9 
REMARK    5  A    between atoms: C6_6  and  C7_7 
REMARK    6  A    between atoms: C9_9  and  C10_10 
REMARK    7  A    between atoms: C10_10  and  C11_11 
ROOT
ATOM      1  C11 ZIN A   1      17.466   0.726  10.489  0.00  0.00    -0.048 A 
ATOM      2  C12 ZIN A   1      17.824   0.296   9.223  0.00  0.00     0.008 A 
ATOM      3  C13 ZIN A   1      18.573   1.119   8.403  0.00  0.00     0.003 A 
ATOM      4  C14 ZIN A   1      18.966   2.369   8.839  0.00  0.00     0.030 A 
ATOM      5  C15 ZIN A   1      18.609   2.808  10.112  0.00  0.00     0.042 A 
ATOM      6  C16 ZIN A   1      17.852   1.974  10.924  0.00  0.00    -0.016 A 
ATOM      7  C17 ZIN A   1      17.633   2.723  12.219  0.00  0.00     0.144 A 
ATOM      8  C18 ZIN A   1      18.352   4.039  12.008  0.00  0.00     0.226 A 
ATOM      9  O19 ZIN A   1      18.433   4.951  12.803  0.00  0.00    -0.273 OA
ATOM     10  N20 ZIN A   1      18.880   4.007  10.773  0.00  0.00    -0.326 N 
ATOM     11  H44 ZIN A   1      19.396   4.733  10.386  0.00  0.00     0.169 HD
ENDROOT
BRANCH   1  12
ATOM     12  C10 ZIN A   1      16.650  -0.168  11.386  0.00  0.00     0.067 C 
BRANCH  12  13
ATOM     13  C9  ZIN A   1      17.409  -1.475  11.631  0.00  0.00     0.239 C 
BRANCH  13  14
ATOM     14  N4  ZIN A   1      18.596  -1.204  12.453  0.00  0.00    -0.071 N 
ATOM     15  H5  ZIN A   1      19.110  -0.430  12.058  0.00  0.00     0.279 HD
BRANCH  14  16
ATOM     16  C3  ZIN A   1      18.179  -0.868  13.820  0.00  0.00     0.234 C 
BRANCH  16  17
ATOM     17  C2  ZIN A   1      19.310  -1.202  14.796  0.00  0.00     0.023 C 
ATOM     18  C1  ZIN A   1      18.734  -1.383  16.202  0.00  0.00     0.007 C 
ENDBRANCH  16  17
ENDBRANCH  14  16
BRANCH  14  19
ATOM     19  C6  ZIN A   1      19.453  -2.397  12.483  0.00  0.00     0.234 C 
BRANCH  19  20
ATOM     20  C7  ZIN A   1      18.774  -3.532  11.713  0.00  0.00     0.023 C 
ATOM     21  C8  ZIN A   1      19.840  -4.435  11.090  0.00  0.00     0.007 C 
ENDBRANCH  19  20
ENDBRANCH  14  19
ENDBRANCH  13  14
ENDBRANCH  12  13
ENDBRANCH   1  12
TORSDOF 7
ENDMDL
MODEL 9
REMARK VINA RESULT:      -5.5      1.740      2.953
REMARK  7 active torsions:
REMARK  status: ('A' for Active; 'I' for Inactive)
REMARK    1  A    between atoms: C2_2  and  C3_3 
REMARK    2  A    between atoms: C3_3  and  N4_4 
REMARK    3  A    between atoms: N4_4  and  C6_6 
REMARK    4  A    between atoms: N4_4  and  C9_9 
REMARK    5  A    between atoms: C6_6  and  C7_7 
REMARK    6  A    between atoms: C9_9  and  C10_10 
REMARK    7  A    between atoms: C10_10  and  C11_11 
ROOT
ATOM      1  C11 ZIN A   1      19.868   1.437  11.454  0.00  0.00    -0.048 A 
ATOM      2  C12 ZIN A   1      19.447   2.697  11.840  0.00  0.00     0.008 A 
ATOM      3  C13 ZIN A   1      18.724   3.481  10.959  0.00  0.00     0.003 A 
ATOM      4  C14 ZIN A   1      18.421   3.013   9.697  0.00  0.00     0.030 A 
ATOM      5  C15 ZIN A   1      18.842   1.745   9.301  0.00  0.00     0.042 A 
ATOM      6  C16 ZIN A   1      19.572   0.970  10.193  0.00  0.00    -0.016 A 
ATOM      7  C17 ZIN A   1      19.874  -0.329   9.481  0.00  0.00     0.144 A 
ATOM      8  C18 ZIN A   1      19.230  -0.161   8.121  0.00  0.00     0.226 A 
ATOM      9  O19 ZIN A   1      19.227  -0.972   7.220  0.00  0.00    -0.273 OA
ATOM     10  N20 ZIN A   1      18.663   1.058   8.100  0.00  0.00    -0.326 N 
ATOM     11  H44 ZIN A   1      18.181   1.417   7.339  0.00  0.00     0.169 HD
ENDROOT
BRANCH   1  12
ATOM     12  C10 ZIN A   1      20.656   0.579  12.410  0.00  0.00     0.067 C 
BRANCH  12  13
ATOM     13  C9  ZIN A   1      19.885   0.443  13.726  0.00  0.00     0.239 C 
BRANCH  13  14
ATOM     14  N4  ZIN A   1      18.645  -0.310  13.490  0.00  0.00    -0.071 N 
ATOM     15  H5  ZIN A   1      18.310  -0.121  12.557  0.00  0.00     0.279 HD
BRANCH  14  16
ATOM     16  C3  ZIN A   1      18.909  -1.747  13.634  0.00  0.00     0.234 C 
BRANCH  16  17
ATOM     17  C2  ZIN A   1      18.517  -2.470  12.344  0.00  0.00     0.023 C 
ATOM     18  C1  ZIN A   1      19.722  -3.244  11.807  0.00  0.00     0.007 C 
ENDBRANCH  16  17
ENDBRANCH  14  16
BRANCH  14  19
ATOM     19  C6  ZIN A   1      17.630   0.102  14.469  0.00  0.00     0.234 C 
BRANCH  19  20
ATOM     20  C7  ZIN A   1      18.194  -0.050  15.883  0.00  0.00     0.023 C 
ATOM     21  C8  ZIN A   1      17.157  -0.738  16.774  0.00  0.00     0.007 C 
ENDBRANCH  19  20
ENDBRANCH  14  19
ENDBRANCH  13  14
ENDBRANCH  12  13
ENDBRANCH   1  12
TORSDOF 7
ENDMDL
