MODEL 1
REMARK VINA RESULT:      -7.9      0.000      0.000
REMARK  7 active torsions:
REMARK  status: ('A' for Active; 'I' for Inactive)
REMARK    1  A    between atoms: C3_3  and  C4_4 
REMARK    2  A    between atoms: C5_5  and  C6_6 
REMARK    3  A    between atoms: C12_12  and  N14_13 
REMARK       I    between atoms: N14_13  and  C15_14 
REMARK    4  A    between atoms: C15_14  and  C17_16 
REMARK    5  A    between atoms: C17_16  and  N19_17 
REMARK    6  A    between atoms: C17_16  and  C20_18 
REMARK    7  A    between atoms: C23_21  and  O24_22 
ROOT
ATOM      1  N14 ZIN A   1      19.777  -3.466  10.059  0.00  0.00    -0.343 N 
ATOM      2  C15 ZIN A   1      20.002  -2.656  11.112  0.00  0.00     0.256 C 
ATOM      3  O16 ZIN A   1      20.204  -3.130  12.210  0.00  0.00    -0.271 OA
ATOM      4  H36 ZIN A   1      19.615  -3.088   9.181  0.00  0.00     0.163 HD
ENDROOT
BRANCH   1   5
ATOM      5  C12 ZIN A   1      19.777  -4.920  10.242  0.00  0.00     0.210 C 
ATOM      6  C10 ZIN A   1      19.929  -5.709   8.962  0.00  0.00     0.251 C 
ATOM      7  N9  ZIN A   1      18.637  -5.982   8.821  0.00  0.00    -0.293 N 
ATOM      8  O11 ZIN A   1      20.898  -5.998   8.293  0.00  0.00    -0.271 OA
ATOM      9  C5  ZIN A   1      17.679  -6.367   7.877  0.00  0.00     0.122 C 
ATOM     10  C27 ZIN A   1      18.398  -5.555  10.227  0.00  0.00     0.187 C 
ATOM     11  C4  ZIN A   1      16.380  -6.046   8.065  0.00  0.00    -0.015 C 
ATOM     12  C30 ZIN A   1      15.777  -5.353   9.242  0.00  0.00     0.117 C 
ATOM     13  S29 ZIN A   1      16.998  -4.386  10.198  0.00  0.00    -0.136 SA
BRANCH   9  14
ATOM     14  C6  ZIN A   1      18.082  -7.116   6.685  0.00  0.00     0.227 C 
ATOM     15  O7  ZIN A   1      18.025  -8.340   6.683  0.00  0.00    -0.643 OA
ATOM     16  O8  ZIN A   1      18.475  -6.520   5.691  0.00  0.00    -0.643 OA
ENDBRANCH   9  14
BRANCH  11  17
ATOM     17  C3  ZIN A   1      15.462  -6.414   6.990  0.00  0.00     0.006 C 
ATOM     18  C2  ZIN A   1      14.148  -6.465   7.223  0.00  0.00    -0.030 C 
ATOM     19  C1  ZIN A   1      13.201  -6.845   6.114  0.00  0.00     0.036 C 
ENDBRANCH  11  17
ENDBRANCH   1   5
BRANCH   2  20
ATOM     20  C17 ZIN A   1      20.001  -1.160  10.925  0.00  0.00     0.342 C 
BRANCH  20  21
ATOM     21  N19 ZIN A   1      21.386  -0.674  10.861  0.00  0.00     0.096 N 
ATOM     22  H37 ZIN A   1      21.697  -0.594   9.905  0.00  0.00     0.314 HD
ATOM     23  H38 ZIN A   1      21.485   0.204  11.349  0.00  0.00     0.314 HD
ENDBRANCH  20  21
BRANCH  20  24
ATOM     24  C20 ZIN A   1      19.294  -0.508  12.085  0.00  0.00    -0.016 A 
ATOM     25  C26 ZIN A   1      20.022   0.169  13.045  0.00  0.00     0.012 A 
ATOM     26  C25 ZIN A   1      19.375   0.772  14.107  0.00  0.00     0.037 A 
ATOM     27  C23 ZIN A   1      17.995   0.688  14.215  0.00  0.00     0.065 A 
ATOM     28  C22 ZIN A   1      17.267   0.004  13.253  0.00  0.00     0.037 A 
ATOM     29  C21 ZIN A   1      17.918  -0.593  12.190  0.00  0.00     0.012 A 
BRANCH  27  30
ATOM     30  O24 ZIN A   1      17.357   1.275  15.261  0.00  0.00    -0.361 OA
ATOM     31  H41 ZIN A   1      16.425   1.030  15.341  0.00  0.00     0.217 HD
ENDBRANCH  27  30
ENDBRANCH  20  24
ENDBRANCH   2  20
TORSDOF 7
ENDMDL
MODEL 2
REMARK VINA RESULT:      -7.6      3.970      8.949
REMARK  7 active torsions:
REMARK  status: ('A' for Active; 'I' for Inactive)
REMARK    1  A    between atoms: C3_3  and  C4_4 
REMARK    2  A    between atoms: C5_5  and  C6_6 
REMARK    3  A    between atoms: C12_12  and  N14_13 
REMARK       I    between atoms: N14_13  and  C15_14 
REMARK    4  A    between atoms: C15_14  and  C17_16 
REMARK    5  A    between atoms: C17_16  and  N19_17 
REMARK    6  A    between atoms: C17_16  and  C20_18 
REMARK    7  A    between atoms: C23_21  and  O24_22 
ROOT
ATOM      1  N14 ZIN A   1      19.053  -0.699  10.616  0.00  0.00    -0.343 N 
ATOM      2  C15 ZIN A   1      18.821  -1.910  10.074  0.00  0.00     0.256 C 
ATOM      3  O16 ZIN A   1      19.473  -2.869  10.429  0.00  0.00    -0.271 OA
ATOM      4  H36 ZIN A   1      18.531   0.068  10.333  0.00  0.00     0.163 HD
ENDROOT
BRANCH   1   5
ATOM      5  C12 ZIN A   1      20.094  -0.540  11.635  0.00  0.00     0.210 C 
ATOM      6  C10 ZIN A   1      19.600  -0.668  13.057  0.00  0.00     0.251 C 
ATOM      7  N9  ZIN A   1      19.528   0.637  13.290  0.00  0.00    -0.293 N 
ATOM      8  O11 ZIN A   1      19.355  -1.633  13.750  0.00  0.00    -0.271 OA
ATOM      9  C5  ZIN A   1      18.935   1.585  14.130  0.00  0.00     0.122 C 
ATOM     10  C27 ZIN A   1      20.336   0.896  12.066  0.00  0.00     0.187 C 
ATOM     11  C4  ZIN A   1      18.752   2.851  13.694  0.00  0.00    -0.015 C 
ATOM     12  C30 ZIN A   1      19.180   3.433  12.387  0.00  0.00     0.117 C 
ATOM     13  S29 ZIN A   1      19.451   2.164  11.101  0.00  0.00    -0.136 SA
BRANCH   9  14
ATOM     14  C6  ZIN A   1      18.510   1.207  15.479  0.00  0.00     0.227 C 
ATOM     15  O7  ZIN A   1      19.219   1.476  16.442  0.00  0.00    -0.643 OA
ATOM     16  O8  ZIN A   1      17.447   0.623  15.645  0.00  0.00    -0.643 OA
ENDBRANCH   9  14
BRANCH  11  17
ATOM     17  C3  ZIN A   1      18.050   3.752  14.605  0.00  0.00     0.006 C 
ATOM     18  C2  ZIN A   1      17.301   4.744  14.117  0.00  0.00    -0.030 C 
ATOM     19  C1  ZIN A   1      16.577   5.673  15.057  0.00  0.00     0.036 C 
ENDBRANCH  11  17
ENDBRANCH   1   5
BRANCH   2  20
ATOM     20  C17 ZIN A   1      17.750  -2.074   9.025  0.00  0.00     0.342 C 
BRANCH  20  21
ATOM     21  N19 ZIN A   1      17.506  -3.504   8.794  0.00  0.00     0.096 N 
ATOM     22  H37 ZIN A   1      16.537  -3.736   8.949  0.00  0.00     0.314 HD
ATOM     23  H38 ZIN A   1      17.799  -3.776   7.867  0.00  0.00     0.314 HD
ENDBRANCH  20  21
BRANCH  20  24
ATOM     24  C20 ZIN A   1      18.200  -1.427   7.741  0.00  0.00    -0.016 A 
ATOM     25  C26 ZIN A   1      17.813  -0.132   7.449  0.00  0.00     0.012 A 
ATOM     26  C25 ZIN A   1      18.229   0.465   6.274  0.00  0.00     0.037 A 
ATOM     27  C23 ZIN A   1      19.027  -0.238   5.384  0.00  0.00     0.065 A 
ATOM     28  C22 ZIN A   1      19.409  -1.538   5.678  0.00  0.00     0.037 A 
ATOM     29  C21 ZIN A   1      18.995  -2.130   6.856  0.00  0.00     0.012 A 
BRANCH  27  30
ATOM     30  O24 ZIN A   1      19.433   0.345   4.226  0.00  0.00    -0.361 OA
ATOM     31  H41 ZIN A   1      19.656  -0.284   3.526  0.00  0.00     0.217 HD
ENDBRANCH  27  30
ENDBRANCH  20  24
ENDBRANCH   2  20
TORSDOF 7
ENDMDL
MODEL 3
REMARK VINA RESULT:      -7.6      3.231      8.962
REMARK  7 active torsions:
REMARK  status: ('A' for Active; 'I' for Inactive)
REMARK    1  A    between atoms: C3_3  and  C4_4 
REMARK    2  A    between atoms: C5_5  and  C6_6 
REMARK    3  A    between atoms: C12_12  and  N14_13 
REMARK       I    between atoms: N14_13  and  C15_14 
REMARK    4  A    between atoms: C15_14  and  C17_16 
REMARK    5  A    between atoms: C17_16  and  N19_17 
REMARK    6  A    between atoms: C17_16  and  C20_18 
REMARK    7  A    between atoms: C23_21  and  O24_22 
ROOT
ATOM      1  N14 ZIN A   1      18.386  -1.640  11.923  0.00  0.00    -0.343 N 
ATOM      2  C15 ZIN A   1      18.312  -2.936  11.561  0.00  0.00     0.256 C 
ATOM      3  O16 ZIN A   1      17.230  -3.468  11.430  0.00  0.00    -0.271 OA
ATOM      4  H36 ZIN A   1      19.251  -1.214  12.028  0.00  0.00     0.163 HD
ENDROOT
BRANCH   1   5
ATOM      5  C12 ZIN A   1      17.159  -0.874  12.158  0.00  0.00     0.210 C 
ATOM      6  C10 ZIN A   1      16.983   0.316  11.244  0.00  0.00     0.251 C 
ATOM      7  N9  ZIN A   1      17.412   1.219  12.119  0.00  0.00    -0.293 N 
ATOM      8  O11 ZIN A   1      16.584   0.415  10.103  0.00  0.00    -0.271 OA
ATOM      9  C5  ZIN A   1      17.925   2.517  12.216  0.00  0.00     0.122 C 
ATOM     10  C27 ZIN A   1      17.290   0.213  13.210  0.00  0.00     0.187 C 
ATOM     11  C4  ZIN A   1      18.694   2.860  13.271  0.00  0.00    -0.015 C 
ATOM     12  C30 ZIN A   1      19.042   2.019  14.455  0.00  0.00     0.117 C 
ATOM     13  S29 ZIN A   1      18.865   0.229  14.128  0.00  0.00    -0.136 SA
BRANCH   9  14
ATOM     14  C6  ZIN A   1      17.629   3.502  11.174  0.00  0.00     0.227 C 
ATOM     15  O7  ZIN A   1      16.647   4.226  11.277  0.00  0.00    -0.643 OA
ATOM     16  O8  ZIN A   1      18.365   3.603  10.200  0.00  0.00    -0.643 OA
ENDBRANCH   9  14
BRANCH  11  17
ATOM     17  C3  ZIN A   1      19.256   4.209  13.250  0.00  0.00     0.006 C 
ATOM     18  C2  ZIN A   1      19.377   4.900  14.386  0.00  0.00    -0.030 C 
ATOM     19  C1  ZIN A   1      19.956   6.291  14.363  0.00  0.00     0.036 C 
ENDBRANCH  11  17
ENDBRANCH   1   5
BRANCH   2  20
ATOM     20  C17 ZIN A   1      19.574  -3.725  11.320  0.00  0.00     0.342 C 
BRANCH  20  21
ATOM     21  N19 ZIN A   1      20.733  -2.826  11.395  0.00  0.00     0.096 N 
ATOM     22  H37 ZIN A   1      21.434  -3.192  12.022  0.00  0.00     0.314 HD
ATOM     23  H38 ZIN A   1      21.121  -2.657  10.478  0.00  0.00     0.314 HD
ENDBRANCH  20  21
BRANCH  20  24
ATOM     24  C20 ZIN A   1      19.517  -4.359   9.954  0.00  0.00    -0.016 A 
ATOM     25  C26 ZIN A   1      19.254  -3.580   8.843  0.00  0.00     0.012 A 
ATOM     26  C25 ZIN A   1      19.206  -4.159   7.588  0.00  0.00     0.037 A 
ATOM     27  C23 ZIN A   1      19.414  -5.523   7.447  0.00  0.00     0.065 A 
ATOM     28  C22 ZIN A   1      19.675  -6.302   8.564  0.00  0.00     0.037 A 
ATOM     29  C21 ZIN A   1      19.725  -5.718   9.815  0.00  0.00     0.012 A 
BRANCH  27  30
ATOM     30  O24 ZIN A   1      19.363  -6.094   6.215  0.00  0.00    -0.361 OA
ATOM     31  H41 ZIN A   1      19.974  -6.835   6.100  0.00  0.00     0.217 HD
ENDBRANCH  27  30
ENDBRANCH  20  24
ENDBRANCH   2  20
TORSDOF 7
ENDMDL
MODEL 4
REMARK VINA RESULT:      -7.6      3.438      8.218
REMARK  7 active torsions:
REMARK  status: ('A' for Active; 'I' for Inactive)
REMARK    1  A    between atoms: C3_3  and  C4_4 
REMARK    2  A    between atoms: C5_5  and  C6_6 
REMARK    3  A    between atoms: C12_12  and  N14_13 
REMARK       I    between atoms: N14_13  and  C15_14 
REMARK    4  A    between atoms: C15_14  and  C17_16 
REMARK    5  A    between atoms: C17_16  and  N19_17 
REMARK    6  A    between atoms: C17_16  and  C20_18 
REMARK    7  A    between atoms: C23_21  and  O24_22 
ROOT
ATOM      1  N14 ZIN A   1      18.774  -0.744   7.524  0.00  0.00    -0.343 N 
ATOM      2  C15 ZIN A   1      18.459  -1.052   6.251  0.00  0.00     0.256 C 
ATOM      3  O16 ZIN A   1      17.446  -0.609   5.752  0.00  0.00    -0.271 OA
ATOM      4  H36 ZIN A   1      19.584  -1.097   7.924  0.00  0.00     0.163 HD
ENDROOT
BRANCH   1   5
ATOM      5  C12 ZIN A   1      17.891   0.127   8.306  0.00  0.00     0.210 C 
ATOM      6  C10 ZIN A   1      18.611   1.041   9.270  0.00  0.00     0.251 C 
ATOM      7  N9  ZIN A   1      18.403   0.290  10.345  0.00  0.00    -0.293 N 
ATOM      8  O11 ZIN A   1      19.182   2.100   9.116  0.00  0.00    -0.271 OA
ATOM      9  C5  ZIN A   1      18.873   0.049  11.640  0.00  0.00     0.122 C 
ATOM     10  C27 ZIN A   1      17.381  -0.492   9.596  0.00  0.00     0.187 C 
ATOM     11  C4  ZIN A   1      18.680  -1.159  12.213  0.00  0.00    -0.015 C 
ATOM     12  C30 ZIN A   1      17.933  -2.323  11.651  0.00  0.00     0.117 C 
ATOM     13  S29 ZIN A   1      17.781  -2.255   9.830  0.00  0.00    -0.136 SA
BRANCH   9  14
ATOM     14  C6  ZIN A   1      19.575   1.104  12.375  0.00  0.00     0.227 C 
ATOM     15  O7  ZIN A   1      20.794   1.189  12.308  0.00  0.00    -0.643 OA
ATOM     16  O8  ZIN A   1      18.941   1.901  13.054  0.00  0.00    -0.643 OA
ENDBRANCH   9  14
BRANCH  11  17
ATOM     17  C3  ZIN A   1      19.276  -1.350  13.534  0.00  0.00     0.006 C 
ATOM     18  C2  ZIN A   1      18.509  -1.302  14.625  0.00  0.00    -0.030 C 
ATOM     19  C1  ZIN A   1      19.123  -1.500  15.987  0.00  0.00     0.036 C 
ENDBRANCH  11  17
ENDBRANCH   1   5
BRANCH   2  20
ATOM     20  C17 ZIN A   1      19.366  -1.948   5.447  0.00  0.00     0.342 C 
BRANCH  20  21
ATOM     21  N19 ZIN A   1      19.099  -1.756   4.015  0.00  0.00     0.096 N 
ATOM     22  H37 ZIN A   1      18.306  -1.150   3.873  0.00  0.00     0.314 HD
ATOM     23  H38 ZIN A   1      19.915  -1.401   3.539  0.00  0.00     0.314 HD
ENDBRANCH  20  21
BRANCH  20  24
ATOM     24  C20 ZIN A   1      19.111  -3.386   5.817  0.00  0.00    -0.016 A 
ATOM     25  C26 ZIN A   1      19.968  -4.038   6.683  0.00  0.00     0.012 A 
ATOM     26  C25 ZIN A   1      19.733  -5.355   7.028  0.00  0.00     0.037 A 
ATOM     27  C23 ZIN A   1      18.641  -6.025   6.498  0.00  0.00     0.065 A 
ATOM     28  C22 ZIN A   1      17.784  -5.370   5.626  0.00  0.00     0.037 A 
ATOM     29  C21 ZIN A   1      18.021  -4.052   5.288  0.00  0.00     0.012 A 
BRANCH  27  30
ATOM     30  O24 ZIN A   1      18.410  -7.322   6.832  0.00  0.00    -0.361 OA
ATOM     31  H41 ZIN A   1      19.178  -7.899   6.721  0.00  0.00     0.217 HD
ENDBRANCH  27  30
ENDBRANCH  20  24
ENDBRANCH   2  20
TORSDOF 7
ENDMDL
MODEL 5
REMARK VINA RESULT:      -7.5      5.519      7.663
REMARK  7 active torsions:
REMARK  status: ('A' for Active; 'I' for Inactive)
REMARK    1  A    between atoms: C3_3  and  C4_4 
REMARK    2  A    between atoms: C5_5  and  C6_6 
REMARK    3  A    between atoms: C12_12  and  N14_13 
REMARK       I    between atoms: N14_13  and  C15_14 
REMARK    4  A    between atoms: C15_14  and  C17_16 
REMARK    5  A    between atoms: C17_16  and  N19_17 
REMARK    6  A    between atoms: C17_16  and  C20_18 
REMARK    7  A    between atoms: C23_21  and  O24_22 
ROOT
ATOM      1  N14 ZIN A   1      18.980   1.530  15.576  0.00  0.00    -0.343 N 
ATOM      2  C15 ZIN A   1      18.749   1.832  16.869  0.00  0.00     0.256 C 
ATOM      3  O16 ZIN A   1      17.903   1.225  17.491  0.00  0.00    -0.271 OA
ATOM      4  H36 ZIN A   1      19.656   2.014  15.078  0.00  0.00     0.163 HD
ENDROOT
BRANCH   1   5
ATOM      5  C12 ZIN A   1      18.208   0.469  14.922  0.00  0.00     0.210 C 
ATOM      6  C10 ZIN A   1      19.027  -0.445  14.042  0.00  0.00     0.251 C 
ATOM      7  N9  ZIN A   1      18.703   0.146  12.899  0.00  0.00    -0.293 N 
ATOM      8  O11 ZIN A   1      19.737  -1.397  14.293  0.00  0.00    -0.271 OA
ATOM      9  C5  ZIN A   1      19.114   0.299  11.570  0.00  0.00     0.122 C 
ATOM     10  C27 ZIN A   1      17.598   0.867  13.590  0.00  0.00     0.187 C 
ATOM     11  C4  ZIN A   1      18.753   1.400  10.875  0.00  0.00    -0.015 C 
ATOM     12  C30 ZIN A   1      17.866   2.512  11.330  0.00  0.00     0.117 C 
ATOM     13  S29 ZIN A   1      17.756   2.630  13.151  0.00  0.00    -0.136 SA
BRANCH   9  14
ATOM     14  C6  ZIN A   1      19.938  -0.730  10.934  0.00  0.00     0.227 C 
ATOM     15  O7  ZIN A   1      19.406  -1.689  10.389  0.00  0.00    -0.643 OA
ATOM     16  O8  ZIN A   1      21.158  -0.632  10.945  0.00  0.00    -0.643 OA
ENDBRANCH   9  14
BRANCH  11  17
ATOM     17  C3  ZIN A   1      19.295   1.517   9.523  0.00  0.00     0.006 C 
ATOM     18  C2  ZIN A   1      18.512   1.284   8.468  0.00  0.00    -0.030 C 
ATOM     19  C1  ZIN A   1      19.072   1.405   7.074  0.00  0.00     0.036 C 
ENDBRANCH  11  17
ENDBRANCH   1   5
BRANCH   2  20
ATOM     20  C17 ZIN A   1      19.542   2.923  17.541  0.00  0.00     0.342 C 
BRANCH  20  21
ATOM     21  N19 ZIN A   1      19.128   3.034  18.946  0.00  0.00     0.096 N 
ATOM     22  H37 ZIN A   1      19.344   3.947  19.316  0.00  0.00     0.314 HD
ATOM     23  H38 ZIN A   1      18.146   2.825  19.052  0.00  0.00     0.314 HD
ENDBRANCH  20  21
BRANCH  20  24
ATOM     24  C20 ZIN A   1      19.292   4.232  16.839  0.00  0.00    -0.016 A 
ATOM     25  C26 ZIN A   1      20.311   4.840  16.129  0.00  0.00     0.012 A 
ATOM     26  C25 ZIN A   1      20.082   6.038  15.479  0.00  0.00     0.037 A 
ATOM     27  C23 ZIN A   1      18.832   6.636  15.548  0.00  0.00     0.065 A 
ATOM     28  C22 ZIN A   1      17.813   6.026  16.265  0.00  0.00     0.037 A 
ATOM     29  C21 ZIN A   1      18.045   4.826  16.909  0.00  0.00     0.012 A 
BRANCH  27  30
ATOM     30  O24 ZIN A   1      18.607   7.817  14.915  0.00  0.00    -0.361 OA
ATOM     31  H41 ZIN A   1      19.406   8.338  14.760  0.00  0.00     0.217 HD
ENDBRANCH  27  30
ENDBRANCH  20  24
ENDBRANCH   2  20
TORSDOF 7
ENDMDL
MODEL 6
REMARK VINA RESULT:      -7.5      3.153      4.733
REMARK  7 active torsions:
REMARK  status: ('A' for Active; 'I' for Inactive)
REMARK    1  A    between atoms: C3_3  and  C4_4 
REMARK    2  A    between atoms: C5_5  and  C6_6 
REMARK    3  A    between atoms: C12_12  and  N14_13 
REMARK       I    between atoms: N14_13  and  C15_14 
REMARK    4  A    between atoms: C15_14  and  C17_16 
REMARK    5  A    between atoms: C17_16  and  N19_17 
REMARK    6  A    between atoms: C17_16  and  C20_18 
REMARK    7  A    between atoms: C23_21  and  O24_22 
ROOT
ATOM      1  N14 ZIN A   1      19.059   0.556  12.130  0.00  0.00    -0.343 N 
ATOM      2  C15 ZIN A   1      19.075   1.831  12.564  0.00  0.00     0.256 C 
ATOM      3  O16 ZIN A   1      19.971   2.575  12.226  0.00  0.00    -0.271 OA
ATOM      4  H36 ZIN A   1      18.342  -0.040  12.400  0.00  0.00     0.163 HD
ENDROOT
BRANCH   1   5
ATOM      5  C12 ZIN A   1      20.125   0.068  11.250  0.00  0.00     0.210 C 
ATOM      6  C10 ZIN A   1      19.757   0.036   9.785  0.00  0.00     0.251 C 
ATOM      7  N9  ZIN A   1      19.479  -1.261   9.746  0.00  0.00    -0.293 N 
ATOM      8  O11 ZIN A   1      19.729   0.900   8.933  0.00  0.00    -0.271 OA
ATOM      9  C5  ZIN A   1      18.790  -2.229   9.007  0.00  0.00     0.122 C 
ATOM     10  C27 ZIN A   1      20.146  -1.439  11.066  0.00  0.00     0.187 C 
ATOM     11  C4  ZIN A   1      18.364  -3.360   9.610  0.00  0.00    -0.015 C 
ATOM     12  C30 ZIN A   1      18.596  -3.779  11.025  0.00  0.00     0.117 C 
ATOM     13  S29 ZIN A   1      18.992  -2.374  12.124  0.00  0.00    -0.136 SA
BRANCH   9  14
ATOM     14  C6  ZIN A   1      18.530  -2.017   7.582  0.00  0.00     0.227 C 
ATOM     15  O7  ZIN A   1      17.640  -1.253   7.230  0.00  0.00    -0.643 OA
ATOM     16  O8  ZIN A   1      19.203  -2.602   6.743  0.00  0.00    -0.643 OA
ENDBRANCH   9  14
BRANCH  11  17
ATOM     17  C3  ZIN A   1      17.581  -4.277   8.784  0.00  0.00     0.006 C 
ATOM     18  C2  ZIN A   1      16.613  -5.012   9.337  0.00  0.00    -0.030 C 
ATOM     19  C1  ZIN A   1      15.806  -5.957   8.484  0.00  0.00     0.036 C 
ENDBRANCH  11  17
ENDBRANCH   1   5
BRANCH   2  20
ATOM     20  C17 ZIN A   1      17.979   2.333  13.469  0.00  0.00     0.342 C 
BRANCH  20  21
ATOM     21  N19 ZIN A   1      17.696   3.741  13.160  0.00  0.00     0.096 N 
ATOM     22  H37 ZIN A   1      16.913   4.079  13.699  0.00  0.00     0.314 HD
ATOM     23  H38 ZIN A   1      18.512   4.316  13.309  0.00  0.00     0.314 HD
ENDBRANCH  20  21
BRANCH  20  24
ATOM     24  C20 ZIN A   1      18.419   2.213  14.905  0.00  0.00    -0.016 A 
ATOM     25  C26 ZIN A   1      18.334   0.995  15.553  0.00  0.00     0.012 A 
ATOM     26  C25 ZIN A   1      18.742   0.882  16.869  0.00  0.00     0.037 A 
ATOM     27  C23 ZIN A   1      19.228   1.993  17.542  0.00  0.00     0.065 A 
ATOM     28  C22 ZIN A   1      19.308   3.215  16.890  0.00  0.00     0.037 A 
ATOM     29  C21 ZIN A   1      18.904   3.322  15.574  0.00  0.00     0.012 A 
BRANCH  27  30
ATOM     30  O24 ZIN A   1      19.625   1.885  18.837  0.00  0.00    -0.361 OA
ATOM     31  H41 ZIN A   1      18.900   1.937  19.476  0.00  0.00     0.217 HD
ENDBRANCH  27  30
ENDBRANCH  20  24
ENDBRANCH   2  20
TORSDOF 7
ENDMDL
MODEL 7
REMARK VINA RESULT:      -7.4      3.161      3.673
REMARK  7 active torsions:
REMARK  status: ('A' for Active; 'I' for Inactive)
REMARK    1  A    between atoms: C3_3  and  C4_4 
REMARK    2  A    between atoms: C5_5  and  C6_6 
REMARK    3  A    between atoms: C12_12  and  N14_13 
REMARK       I    between atoms: N14_13  and  C15_14 
REMARK    4  A    between atoms: C15_14  and  C17_16 
REMARK    5  A    between atoms: C17_16  and  N19_17 
REMARK    6  A    between atoms: C17_16  and  C20_18 
REMARK    7  A    between atoms: C23_21  and  O24_22 
ROOT
ATOM      1  N14 ZIN A   1      19.692  -1.730  10.658  0.00  0.00    -0.343 N 
ATOM      2  C15 ZIN A   1      19.454  -0.746  11.548  0.00  0.00     0.256 C 
ATOM      3  O16 ZIN A   1      18.492  -0.812  12.283  0.00  0.00    -0.271 OA
ATOM      4  H36 ZIN A   1      20.461  -1.678  10.070  0.00  0.00     0.163 HD
ENDROOT
BRANCH   1   5
ATOM      5  C12 ZIN A   1      18.787  -2.880  10.580  0.00  0.00     0.210 C 
ATOM      6  C10 ZIN A   1      19.399  -4.114   9.959  0.00  0.00     0.251 C 
ATOM      7  N9  ZIN A   1      18.866  -3.935   8.756  0.00  0.00    -0.293 N 
ATOM      8  O11 ZIN A   1      20.126  -4.976  10.405  0.00  0.00    -0.271 OA
ATOM      9  C5  ZIN A   1      19.010  -4.294   7.411  0.00  0.00     0.122 C 
ATOM     10  C27 ZIN A   1      17.933  -2.923   9.325  0.00  0.00     0.187 C 
ATOM     11  C4  ZIN A   1      18.538  -3.479   6.442  0.00  0.00    -0.015 C 
ATOM     12  C30 ZIN A   1      17.780  -2.204   6.615  0.00  0.00     0.117 C 
ATOM     13  S29 ZIN A   1      18.034  -1.447   8.259  0.00  0.00    -0.136 SA
BRANCH   9  14
ATOM     14  C6  ZIN A   1      19.672  -5.549   7.054  0.00  0.00     0.227 C 
ATOM     15  O7  ZIN A   1      20.893  -5.631   7.094  0.00  0.00    -0.643 OA
ATOM     16  O8  ZIN A   1      19.004  -6.519   6.715  0.00  0.00    -0.643 OA
ENDBRANCH   9  14
BRANCH  11  17
ATOM     17  C3  ZIN A   1      18.805  -3.891   5.066  0.00  0.00     0.006 C 
ATOM     18  C2  ZIN A   1      17.790  -4.108   4.226  0.00  0.00    -0.030 C 
ATOM     19  C1  ZIN A   1      18.066  -4.533   2.806  0.00  0.00     0.036 C 
ENDBRANCH  11  17
ENDBRANCH   1   5
BRANCH   2  20
ATOM     20  C17 ZIN A   1      20.385   0.437  11.628  0.00  0.00     0.342 C 
BRANCH  20  21
ATOM     21  N19 ZIN A   1      20.854   0.597  13.011  0.00  0.00     0.096 N 
ATOM     22  H37 ZIN A   1      20.079   0.614  13.656  0.00  0.00     0.314 HD
ATOM     23  H38 ZIN A   1      21.513  -0.127  13.256  0.00  0.00     0.314 HD
ENDBRANCH  20  21
BRANCH  20  24
ATOM     24  C20 ZIN A   1      19.653   1.683  11.199  0.00  0.00    -0.016 A 
ATOM     25  C26 ZIN A   1      19.195   1.800   9.900  0.00  0.00     0.012 A 
ATOM     26  C25 ZIN A   1      18.519   2.939   9.505  0.00  0.00     0.037 A 
ATOM     27  C23 ZIN A   1      18.309   3.968  10.411  0.00  0.00     0.065 A 
ATOM     28  C22 ZIN A   1      18.774   3.849  11.712  0.00  0.00     0.037 A 
ATOM     29  C21 ZIN A   1      19.445   2.707  12.103  0.00  0.00     0.012 A 
BRANCH  27  30
ATOM     30  O24 ZIN A   1      17.649   5.092  10.024  0.00  0.00    -0.361 OA
ATOM     31  H41 ZIN A   1      18.059   5.550   9.277  0.00  0.00     0.217 HD
ENDBRANCH  27  30
ENDBRANCH  20  24
ENDBRANCH   2  20
TORSDOF 7
ENDMDL
MODEL 8
REMARK VINA RESULT:      -7.4      3.894      5.826
REMARK  7 active torsions:
REMARK  status: ('A' for Active; 'I' for Inactive)
REMARK    1  A    between atoms: C3_3  and  C4_4 
REMARK    2  A    between atoms: C5_5  and  C6_6 
REMARK    3  A    between atoms: C12_12  and  N14_13 
REMARK       I    between atoms: N14_13  and  C15_14 
REMARK    4  A    between atoms: C15_14  and  C17_16 
REMARK    5  A    between atoms: C17_16  and  N19_17 
REMARK    6  A    between atoms: C17_16  and  C20_18 
REMARK    7  A    between atoms: C23_21  and  O24_22 
ROOT
ATOM      1  N14 ZIN A   1      18.379   1.982  10.843  0.00  0.00    -0.343 N 
ATOM      2  C15 ZIN A   1      18.207   3.215  11.360  0.00  0.00     0.256 C 
ATOM      3  O16 ZIN A   1      17.093   3.688  11.442  0.00  0.00    -0.271 OA
ATOM      4  H36 ZIN A   1      19.269   1.603  10.777  0.00  0.00     0.163 HD
ENDROOT
BRANCH   1   5
ATOM      5  C12 ZIN A   1      17.220   1.214  10.380  0.00  0.00     0.210 C 
ATOM      6  C10 ZIN A   1      16.873   0.026  11.246  0.00  0.00     0.251 C 
ATOM      7  N9  ZIN A   1      17.462  -0.878  10.472  0.00  0.00    -0.293 N 
ATOM      8  O11 ZIN A   1      16.263  -0.071  12.290  0.00  0.00    -0.271 OA
ATOM      9  C5  ZIN A   1      17.985  -2.176  10.479  0.00  0.00     0.122 C 
ATOM     10  C27 ZIN A   1      17.550   0.124   9.375  0.00  0.00     0.187 C 
ATOM     11  C4  ZIN A   1      18.942  -2.522   9.591  0.00  0.00    -0.015 C 
ATOM     12  C30 ZIN A   1      19.509  -1.683   8.493  0.00  0.00     0.117 C 
ATOM     13  S29 ZIN A   1      19.272   0.108   8.775  0.00  0.00    -0.136 SA
BRANCH   9  14
ATOM     14  C6  ZIN A   1      17.496  -3.159  11.448  0.00  0.00     0.227 C 
ATOM     15  O7  ZIN A   1      17.996  -3.219  12.564  0.00  0.00    -0.643 OA
ATOM     16  O8  ZIN A   1      16.587  -3.920  11.142  0.00  0.00    -0.643 OA
ENDBRANCH   9  14
BRANCH  11  17
ATOM     17  C3  ZIN A   1      19.490  -3.870   9.723  0.00  0.00     0.006 C 
ATOM     18  C2  ZIN A   1      19.359  -4.744   8.723  0.00  0.00    -0.030 C 
ATOM     19  C1  ZIN A   1      19.924  -6.135   8.859  0.00  0.00     0.036 C 
ENDBRANCH  11  17
ENDBRANCH   1   5
BRANCH   2  20
ATOM     20  C17 ZIN A   1      19.399   4.005  11.836  0.00  0.00     0.342 C 
BRANCH  20  21
ATOM     21  N19 ZIN A   1      20.626   3.237  11.587  0.00  0.00     0.096 N 
ATOM     22  H37 ZIN A   1      21.072   3.534  10.732  0.00  0.00     0.314 HD
ATOM     23  H38 ZIN A   1      21.261   3.305  12.369  0.00  0.00     0.314 HD
ENDBRANCH  20  21
BRANCH  20  24
ATOM     24  C20 ZIN A   1      19.266   4.275  13.312  0.00  0.00    -0.016 A 
ATOM     25  C26 ZIN A   1      19.593   5.520  13.818  0.00  0.00     0.012 A 
ATOM     26  C25 ZIN A   1      19.467   5.771  15.171  0.00  0.00     0.037 A 
ATOM     27  C23 ZIN A   1      19.022   4.771  16.023  0.00  0.00     0.065 A 
ATOM     28  C22 ZIN A   1      18.699   3.522  15.513  0.00  0.00     0.037 A 
ATOM     29  C21 ZIN A   1      18.822   3.277  14.159  0.00  0.00     0.012 A 
BRANCH  27  30
ATOM     30  O24 ZIN A   1      18.902   5.014  17.354  0.00  0.00    -0.361 OA
ATOM     31  H41 ZIN A   1      18.570   4.262  17.863  0.00  0.00     0.217 HD
ENDBRANCH  27  30
ENDBRANCH  20  24
ENDBRANCH   2  20
TORSDOF 7
ENDMDL
MODEL 9
REMARK VINA RESULT:      -7.2      4.195      9.782
REMARK  7 active torsions:
REMARK  status: ('A' for Active; 'I' for Inactive)
REMARK    1  A    between atoms: C3_3  and  C4_4 
REMARK    2  A    between atoms: C5_5  and  C6_6 
REMARK    3  A    between atoms: C12_12  and  N14_13 
REMARK       I    between atoms: N14_13  and  C15_14 
REMARK    4  A    between atoms: C15_14  and  C17_16 
REMARK    5  A    between atoms: C17_16  and  N19_17 
REMARK    6  A    between atoms: C17_16  and  C20_18 
REMARK    7  A    between atoms: C23_21  and  O24_22 
ROOT
ATOM      1  N14 ZIN A   1      18.904   0.763  10.569  0.00  0.00    -0.343 N 
ATOM      2  C15 ZIN A   1      19.157  -0.479  10.109  0.00  0.00     0.256 C 
ATOM      3  O16 ZIN A   1      20.244  -0.984  10.293  0.00  0.00    -0.271 OA
ATOM      4  H36 ZIN A   1      18.035   1.168  10.422  0.00  0.00     0.163 HD
ENDROOT
BRANCH   1   5
ATOM      5  C12 ZIN A   1      19.944   1.501  11.291  0.00  0.00     0.210 C 
ATOM      6  C10 ZIN A   1      19.811   1.454  12.795  0.00  0.00     0.251 C 
ATOM      7  N9  ZIN A   1      19.237   2.645  12.915  0.00  0.00    -0.293 N 
ATOM      8  O11 ZIN A   1      20.123   0.616  13.615  0.00  0.00    -0.271 OA
ATOM      9  C5  ZIN A   1      18.457   3.422  13.780  0.00  0.00     0.122 C 
ATOM     10  C27 ZIN A   1      19.628   2.970  11.516  0.00  0.00     0.187 C 
ATOM     11  C4  ZIN A   1      17.683   4.410  13.283  0.00  0.00    -0.015 C 
ATOM     12  C30 ZIN A   1      17.585   4.863  11.863  0.00  0.00     0.117 C 
ATOM     13  S29 ZIN A   1      18.134   3.588  10.674  0.00  0.00    -0.136 SA
BRANCH   9  14
ATOM     14  C6  ZIN A   1      18.479   3.163  15.220  0.00  0.00     0.227 C 
ATOM     15  O7  ZIN A   1      19.103   3.907  15.967  0.00  0.00    -0.643 OA
ATOM     16  O8  ZIN A   1      17.873   2.203  15.679  0.00  0.00    -0.643 OA
ENDBRANCH   9  14
BRANCH  11  17
ATOM     17  C3  ZIN A   1      16.839   5.115  14.246  0.00  0.00     0.006 C 
ATOM     18  C2  ZIN A   1      16.549   6.405  14.060  0.00  0.00    -0.030 C 
ATOM     19  C1  ZIN A   1      15.679   7.132  15.053  0.00  0.00     0.036 C 
ENDBRANCH  11  17
ENDBRANCH   1   5
BRANCH   2  20
ATOM     20  C17 ZIN A   1      18.088  -1.239   9.365  0.00  0.00     0.342 C 
BRANCH  20  21
ATOM     21  N19 ZIN A   1      17.910  -2.560   9.981  0.00  0.00     0.096 N 
ATOM     22  H37 ZIN A   1      17.331  -2.500  10.805  0.00  0.00     0.314 HD
ATOM     23  H38 ZIN A   1      17.529  -3.220   9.319  0.00  0.00     0.314 HD
ENDBRANCH  20  21
BRANCH  20  24
ATOM     24  C20 ZIN A   1      18.500  -1.407   7.926  0.00  0.00    -0.016 A 
ATOM     25  C26 ZIN A   1      18.854  -2.656   7.451  0.00  0.00     0.012 A 
ATOM     26  C25 ZIN A   1      19.227  -2.813   6.129  0.00  0.00     0.037 A 
ATOM     27  C23 ZIN A   1      19.256  -1.715   5.282  0.00  0.00     0.065 A 
ATOM     28  C22 ZIN A   1      18.904  -0.462   5.763  0.00  0.00     0.037 A 
ATOM     29  C21 ZIN A   1      18.528  -0.311   7.083  0.00  0.00     0.012 A 
BRANCH  27  30
ATOM     30  O24 ZIN A   1      19.627  -1.866   3.984  0.00  0.00    -0.361 OA
ATOM     31  H41 ZIN A   1      19.481  -1.081   3.439  0.00  0.00     0.217 HD
ENDBRANCH  27  30
ENDBRANCH  20  24
ENDBRANCH   2  20
TORSDOF 7
ENDMDL
