MODEL 1
REMARK VINA RESULT:      -7.2      0.000      0.000
REMARK  9 active torsions:
REMARK  status: ('A' for Active; 'I' for Inactive)
REMARK    1  A    between atoms: C2_2  and  C3_3 
REMARK    2  A    between atoms: C3_3  and  C4_4 
REMARK    3  A    between atoms: C4_4  and  C5_5 
REMARK    4  A    between atoms: C5_5  and  O6_6 
REMARK    5  A    between atoms: O6_6  and  C7_7 
REMARK       I    between atoms: C7_7  and  N9_9 
REMARK    6  A    between atoms: N9_9  and  C10_10 
REMARK    7  A    between atoms: N14_14  and  C15_15 
REMARK    8  A    between atoms: C21_19  and  O23_20 
REMARK    9  A    between atoms: C24_21  and  O26_22 
ROOT
ATOM      1  C10 ZIN A   1      18.353  -2.813   8.883  0.00  0.00     0.177 A 
ATOM      2  N11 ZIN A   1      19.100  -3.580   9.663  0.00  0.00    -0.173 NA
ATOM      3  C12 ZIN A   1      19.561  -3.124  10.827  0.00  0.00     0.352 A 
ATOM      4  O13 ZIN A   1      20.246  -3.851  11.527  0.00  0.00    -0.244 OA
ATOM      5  N14 ZIN A   1      19.281  -1.875  11.244  0.00  0.00    -0.275 N 
ATOM      6  C27 ZIN A   1      18.517  -1.048  10.476  0.00  0.00     0.145 A 
ATOM      7  C28 ZIN A   1      18.045  -1.497   9.286  0.00  0.00     0.178 A 
ATOM      8  F29 ZIN A   1      17.285  -0.700   8.504  0.00  0.00    -0.201 F 
ENDROOT
BRANCH   1   9
ATOM      9  N9  ZIN A   1      17.881  -3.298   7.677  0.00  0.00    -0.284 N 
ATOM     10  C7  ZIN A   1      18.705  -3.376   6.613  0.00  0.00     0.366 C 
ATOM     11  O8  ZIN A   1      19.863  -3.020   6.715  0.00  0.00    -0.238 OA
ATOM     12  H41 ZIN A   1      16.957  -3.582   7.596  0.00  0.00     0.172 HD
BRANCH  10  13
ATOM     13  O6  ZIN A   1      18.246  -3.848   5.439  0.00  0.00    -0.304 OA
BRANCH  13  14
ATOM     14  C5  ZIN A   1      18.434  -3.005   4.272  0.00  0.00     0.180 C 
BRANCH  14  15
ATOM     15  C4  ZIN A   1      17.531  -1.775   4.380  0.00  0.00     0.027 C 
BRANCH  15  16
ATOM     16  C3  ZIN A   1      18.391  -0.512   4.436  0.00  0.00     0.002 C 
BRANCH  16  17
ATOM     17  C2  ZIN A   1      17.893   0.397   5.561  0.00  0.00    -0.004 C 
ATOM     18  C1  ZIN A   1      19.090   0.974   6.319  0.00  0.00     0.005 C 
ENDBRANCH  16  17
ENDBRANCH  15  16
ENDBRANCH  14  15
ENDBRANCH  13  14
ENDBRANCH  10  13
ENDBRANCH   1   9
BRANCH   5  19
ATOM     19  C15 ZIN A   1      19.802  -1.402  12.529  0.00  0.00     0.264 C 
ATOM     20  C24 ZIN A   1      20.015   0.123  12.479  0.00  0.00     0.198 C 
ATOM     21  C21 ZIN A   1      19.124   0.666  13.628  0.00  0.00     0.179 C 
ATOM     22  C18 ZIN A   1      18.950  -0.588  14.522  0.00  0.00     0.151 C 
ATOM     23  O17 ZIN A   1      18.848  -1.669  13.571  0.00  0.00    -0.356 OA
ATOM     24  C20 ZIN A   1      17.672  -0.484  15.358  0.00  0.00     0.042 C 
BRANCH  20  25
ATOM     25  O26 ZIN A   1      21.386   0.452  12.712  0.00  0.00    -0.388 OA
ATOM     26  H46 ZIN A   1      21.554   0.848  13.577  0.00  0.00     0.210 HD
ENDBRANCH  20  25
BRANCH  21  27
ATOM     27  O23 ZIN A   1      19.790   1.711  14.338  0.00  0.00    -0.390 OA
ATOM     28  H45 ZIN A   1      19.342   1.982  15.151  0.00  0.00     0.210 HD
ENDBRANCH  21  27
ENDBRANCH   5  19
TORSDOF 9
ENDMDL
MODEL 2
REMARK VINA RESULT:      -7.1      1.721      2.420
REMARK  9 active torsions:
REMARK  status: ('A' for Active; 'I' for Inactive)
REMARK    1  A    between atoms: C2_2  and  C3_3 
REMARK    2  A    between atoms: C3_3  and  C4_4 
REMARK    3  A    between atoms: C4_4  and  C5_5 
REMARK    4  A    between atoms: C5_5  and  O6_6 
REMARK    5  A    between atoms: O6_6  and  C7_7 
REMARK       I    between atoms: C7_7  and  N9_9 
REMARK    6  A    between atoms: N9_9  and  C10_10 
REMARK    7  A    between atoms: N14_14  and  C15_15 
REMARK    8  A    between atoms: C21_19  and  O23_20 
REMARK    9  A    between atoms: C24_21  and  O26_22 
ROOT
ATOM      1  C10 ZIN A   1      19.401  -2.010  10.369  0.00  0.00     0.177 A 
ATOM      2  N11 ZIN A   1      20.146  -0.930  10.551  0.00  0.00    -0.173 NA
ATOM      3  C12 ZIN A   1      20.244  -0.365  11.753  0.00  0.00     0.352 A 
ATOM      4  O13 ZIN A   1      20.938   0.629  11.894  0.00  0.00    -0.244 OA
ATOM      5  N14 ZIN A   1      19.591  -0.873  12.815  0.00  0.00    -0.275 N 
ATOM      6  C27 ZIN A   1      18.812  -1.982  12.678  0.00  0.00     0.145 A 
ATOM      7  C28 ZIN A   1      18.699  -2.565  11.459  0.00  0.00     0.178 A 
ATOM      8  F29 ZIN A   1      17.933  -3.666  11.293  0.00  0.00    -0.201 F 
ENDROOT
BRANCH   1   9
ATOM      9  N9  ZIN A   1      19.307  -2.587   9.116  0.00  0.00    -0.284 N 
ATOM     10  C7  ZIN A   1      18.359  -2.172   8.252  0.00  0.00     0.366 C 
ATOM     11  O8  ZIN A   1      17.588  -1.290   8.575  0.00  0.00    -0.238 OA
ATOM     12  H41 ZIN A   1      19.923  -3.291   8.858  0.00  0.00     0.172 HD
BRANCH  10  13
ATOM     13  O6  ZIN A   1      18.267  -2.734   7.032  0.00  0.00    -0.304 OA
BRANCH  13  14
ATOM     14  C5  ZIN A   1      19.415  -2.592   6.154  0.00  0.00     0.180 C 
BRANCH  14  15
ATOM     15  C4  ZIN A   1      18.978  -1.930   4.846  0.00  0.00     0.027 C 
BRANCH  15  16
ATOM     16  C3  ZIN A   1      19.404  -0.461   4.850  0.00  0.00     0.002 C 
BRANCH  16  17
ATOM     17  C2  ZIN A   1      18.299   0.390   5.479  0.00  0.00    -0.004 C 
ATOM     18  C1  ZIN A   1      18.888   1.241   6.605  0.00  0.00     0.005 C 
ENDBRANCH  16  17
ENDBRANCH  15  16
ENDBRANCH  14  15
ENDBRANCH  13  14
ENDBRANCH  10  13
ENDBRANCH   1   9
BRANCH   5  19
ATOM     19  C15 ZIN A   1      19.719  -0.228  14.126  0.00  0.00     0.264 C 
ATOM     20  C24 ZIN A   1      18.880   1.063  14.158  0.00  0.00     0.198 C 
ATOM     21  C21 ZIN A   1      17.891   0.841  15.332  0.00  0.00     0.179 C 
ATOM     22  C18 ZIN A   1      18.609  -0.256  16.157  0.00  0.00     0.151 C 
ATOM     23  O17 ZIN A   1      19.208  -1.099  15.150  0.00  0.00    -0.356 OA
ATOM     24  C20 ZIN A   1      17.604  -1.050  16.995  0.00  0.00     0.042 C 
BRANCH  20  25
ATOM     25  O26 ZIN A   1      19.710   2.200  14.411  0.00  0.00    -0.388 OA
ATOM     26  H46 ZIN A   1      20.565   2.170  13.961  0.00  0.00     0.210 HD
ENDBRANCH  20  25
BRANCH  21  27
ATOM     27  O23 ZIN A   1      17.735   2.036  16.099  0.00  0.00    -0.390 OA
ATOM     28  H45 ZIN A   1      17.303   2.757  15.621  0.00  0.00     0.210 HD
ENDBRANCH  21  27
ENDBRANCH   5  19
TORSDOF 9
ENDMDL
MODEL 3
REMARK VINA RESULT:      -6.9      2.188      2.816
REMARK  9 active torsions:
REMARK  status: ('A' for Active; 'I' for Inactive)
REMARK    1  A    between atoms: C2_2  and  C3_3 
REMARK    2  A    between atoms: C3_3  and  C4_4 
REMARK    3  A    between atoms: C4_4  and  C5_5 
REMARK    4  A    between atoms: C5_5  and  O6_6 
REMARK    5  A    between atoms: O6_6  and  C7_7 
REMARK       I    between atoms: C7_7  and  N9_9 
REMARK    6  A    between atoms: N9_9  and  C10_10 
REMARK    7  A    between atoms: N14_14  and  C15_15 
REMARK    8  A    between atoms: C21_19  and  O23_20 
REMARK    9  A    between atoms: C24_21  and  O26_22 
ROOT
ATOM      1  C10 ZIN A   1      17.754  -1.811   8.949  0.00  0.00     0.177 A 
ATOM      2  N11 ZIN A   1      18.142  -2.014  10.199  0.00  0.00    -0.173 NA
ATOM      3  C12 ZIN A   1      18.223  -1.001  11.060  0.00  0.00     0.352 A 
ATOM      4  O13 ZIN A   1      18.582  -1.215  12.206  0.00  0.00    -0.244 OA
ATOM      5  N14 ZIN A   1      17.912   0.255  10.687  0.00  0.00    -0.275 N 
ATOM      6  C27 ZIN A   1      17.509   0.513   9.411  0.00  0.00     0.145 A 
ATOM      7  C28 ZIN A   1      17.427  -0.507   8.522  0.00  0.00     0.178 A 
ATOM      8  F29 ZIN A   1      17.030  -0.280   7.251  0.00  0.00    -0.201 F 
ENDROOT
BRANCH   1   9
ATOM      9  N9  ZIN A   1      17.675  -2.871   8.065  0.00  0.00    -0.284 N 
ATOM     10  C7  ZIN A   1      18.764  -3.247   7.363  0.00  0.00     0.366 C 
ATOM     11  O8  ZIN A   1      19.814  -2.654   7.510  0.00  0.00    -0.238 OA
ATOM     12  H41 ZIN A   1      16.836  -3.345   7.948  0.00  0.00     0.172 HD
BRANCH  10  13
ATOM     13  O6  ZIN A   1      18.687  -4.279   6.503  0.00  0.00    -0.304 OA
BRANCH  13  14
ATOM     14  C5  ZIN A   1      17.915  -4.069   5.290  0.00  0.00     0.180 C 
BRANCH  14  15
ATOM     15  C4  ZIN A   1      18.533  -2.925   4.484  0.00  0.00     0.027 C 
BRANCH  15  16
ATOM     16  C3  ZIN A   1      17.455  -1.892   4.154  0.00  0.00     0.002 C 
BRANCH  16  17
ATOM     17  C2  ZIN A   1      18.054  -0.486   4.227  0.00  0.00    -0.004 C 
ATOM     18  C1  ZIN A   1      19.456  -0.560   4.836  0.00  0.00     0.005 C 
ENDBRANCH  16  17
ENDBRANCH  15  16
ENDBRANCH  14  15
ENDBRANCH  13  14
ENDBRANCH  10  13
ENDBRANCH   1   9
BRANCH   5  19
ATOM     19  C15 ZIN A   1      18.011   1.349  11.657  0.00  0.00     0.264 C 
ATOM     20  C24 ZIN A   1      19.475   1.813  11.776  0.00  0.00     0.198 C 
ATOM     21  C21 ZIN A   1      19.426   3.316  11.394  0.00  0.00     0.179 C 
ATOM     22  C18 ZIN A   1      17.934   3.662  11.635  0.00  0.00     0.151 C 
ATOM     23  O17 ZIN A   1      17.238   2.473  11.205  0.00  0.00    -0.356 OA
ATOM     24  C20 ZIN A   1      17.515   4.867  10.790  0.00  0.00     0.042 C 
BRANCH  20  25
ATOM     25  O26 ZIN A   1      19.950   1.652  13.115  0.00  0.00    -0.388 OA
ATOM     26  H46 ZIN A   1      19.556   0.904  13.584  0.00  0.00     0.210 HD
ENDBRANCH  20  25
BRANCH  21  27
ATOM     27  O23 ZIN A   1      20.273   4.086  12.249  0.00  0.00    -0.390 OA
ATOM     28  H45 ZIN A   1      20.871   3.555  12.792  0.00  0.00     0.210 HD
ENDBRANCH  21  27
ENDBRANCH   5  19
TORSDOF 9
ENDMDL
MODEL 4
REMARK VINA RESULT:      -6.8      2.873      8.463
REMARK  9 active torsions:
REMARK  status: ('A' for Active; 'I' for Inactive)
REMARK    1  A    between atoms: C2_2  and  C3_3 
REMARK    2  A    between atoms: C3_3  and  C4_4 
REMARK    3  A    between atoms: C4_4  and  C5_5 
REMARK    4  A    between atoms: C5_5  and  O6_6 
REMARK    5  A    between atoms: O6_6  and  C7_7 
REMARK       I    between atoms: C7_7  and  N9_9 
REMARK    6  A    between atoms: N9_9  and  C10_10 
REMARK    7  A    between atoms: N14_14  and  C15_15 
REMARK    8  A    between atoms: C21_19  and  O23_20 
REMARK    9  A    between atoms: C24_21  and  O26_22 
ROOT
ATOM      1  C10 ZIN A   1      19.349   2.033  12.414  0.00  0.00     0.177 A 
ATOM      2  N11 ZIN A   1      20.208   1.028  12.332  0.00  0.00    -0.173 NA
ATOM      3  C12 ZIN A   1      20.324   0.321  11.209  0.00  0.00     0.352 A 
ATOM      4  O13 ZIN A   1      21.124  -0.599  11.160  0.00  0.00    -0.244 OA
ATOM      5  N14 ZIN A   1      19.575   0.606  10.128  0.00  0.00    -0.275 N 
ATOM      6  C27 ZIN A   1      18.677   1.630  10.164  0.00  0.00     0.145 A 
ATOM      7  C28 ZIN A   1      18.544   2.355  11.302  0.00  0.00     0.178 A 
ATOM      8  F29 ZIN A   1      17.662   3.376  11.366  0.00  0.00    -0.201 F 
ENDROOT
BRANCH   1   9
ATOM      9  N9  ZIN A   1      19.238   2.758  13.585  0.00  0.00    -0.284 N 
ATOM     10  C7  ZIN A   1      18.437   2.320  14.577  0.00  0.00     0.366 C 
ATOM     11  O8  ZIN A   1      17.814   1.286  14.440  0.00  0.00    -0.238 OA
ATOM     12  H41 ZIN A   1      19.735   3.584  13.694  0.00  0.00     0.172 HD
BRANCH  10  13
ATOM     13  O6  ZIN A   1      18.328   3.026  15.717  0.00  0.00    -0.304 OA
BRANCH  13  14
ATOM     14  C5  ZIN A   1      19.473   3.015  16.611  0.00  0.00     0.180 C 
BRANCH  14  15
ATOM     15  C4  ZIN A   1      18.991   2.869  18.055  0.00  0.00     0.027 C 
BRANCH  15  16
ATOM     16  C3  ZIN A   1      18.278   1.526  18.223  0.00  0.00     0.002 C 
BRANCH  16  17
ATOM     17  C2  ZIN A   1      19.308   0.395  18.212  0.00  0.00    -0.004 C 
ATOM     18  C1  ZIN A   1      18.905  -0.653  17.173  0.00  0.00     0.005 C 
ENDBRANCH  16  17
ENDBRANCH  15  16
ENDBRANCH  14  15
ENDBRANCH  13  14
ENDBRANCH  10  13
ENDBRANCH   1   9
BRANCH   5  19
ATOM     19  C15 ZIN A   1      19.725  -0.190   8.906  0.00  0.00     0.264 C 
ATOM     20  C24 ZIN A   1      18.870  -1.467   9.005  0.00  0.00     0.198 C 
ATOM     21  C21 ZIN A   1      17.913  -1.375   7.788  0.00  0.00     0.179 C 
ATOM     22  C18 ZIN A   1      18.666  -0.390   6.857  0.00  0.00     0.151 C 
ATOM     23  O17 ZIN A   1      19.252   0.559   7.774  0.00  0.00    -0.356 OA
ATOM     24  C20 ZIN A   1      17.693   0.310   5.907  0.00  0.00     0.042 C 
BRANCH  20  25
ATOM     25  O26 ZIN A   1      19.689  -2.634   8.909  0.00  0.00    -0.388 OA
ATOM     26  H46 ZIN A   1      20.399  -2.672   9.565  0.00  0.00     0.210 HD
ENDBRANCH  20  25
BRANCH  21  27
ATOM     27  O23 ZIN A   1      17.759  -2.650   7.163  0.00  0.00    -0.390 OA
ATOM     28  H45 ZIN A   1      17.721  -2.614   6.198  0.00  0.00     0.210 HD
ENDBRANCH  21  27
ENDBRANCH   5  19
TORSDOF 9
ENDMDL
MODEL 5
REMARK VINA RESULT:      -6.7      3.824      8.372
REMARK  9 active torsions:
REMARK  status: ('A' for Active; 'I' for Inactive)
REMARK    1  A    between atoms: C2_2  and  C3_3 
REMARK    2  A    between atoms: C3_3  and  C4_4 
REMARK    3  A    between atoms: C4_4  and  C5_5 
REMARK    4  A    between atoms: C5_5  and  O6_6 
REMARK    5  A    between atoms: O6_6  and  C7_7 
REMARK       I    between atoms: C7_7  and  N9_9 
REMARK    6  A    between atoms: N9_9  and  C10_10 
REMARK    7  A    between atoms: N14_14  and  C15_15 
REMARK    8  A    between atoms: C21_19  and  O23_20 
REMARK    9  A    between atoms: C24_21  and  O26_22 
ROOT
ATOM      1  C10 ZIN A   1      17.809   0.958  13.789  0.00  0.00     0.177 A 
ATOM      2  N11 ZIN A   1      16.922   0.964  12.805  0.00  0.00    -0.173 NA
ATOM      3  C12 ZIN A   1      16.918  -0.002  11.887  0.00  0.00     0.352 A 
ATOM      4  O13 ZIN A   1      16.090   0.027  10.990  0.00  0.00    -0.244 OA
ATOM      5  N14 ZIN A   1      17.810  -1.009  11.933  0.00  0.00    -0.275 N 
ATOM      6  C27 ZIN A   1      18.741  -1.058  12.926  0.00  0.00     0.145 A 
ATOM      7  C28 ZIN A   1      18.761  -0.079  13.865  0.00  0.00     0.178 A 
ATOM      8  F29 ZIN A   1      19.673  -0.102  14.861  0.00  0.00    -0.201 F 
ENDROOT
BRANCH   1   9
ATOM      9  N9  ZIN A   1      17.803   1.966  14.735  0.00  0.00    -0.284 N 
ATOM     10  C7  ZIN A   1      18.436   3.130  14.484  0.00  0.00     0.366 C 
ATOM     11  O8  ZIN A   1      19.009   3.292  13.425  0.00  0.00    -0.238 OA
ATOM     12  H41 ZIN A   1      17.345   1.836  15.581  0.00  0.00     0.172 HD
BRANCH  10  13
ATOM     13  O6  ZIN A   1      18.431   4.111  15.405  0.00  0.00    -0.304 OA
BRANCH  13  14
ATOM     14  C5  ZIN A   1      18.066   3.740  16.761  0.00  0.00     0.180 C 
BRANCH  14  15
ATOM     15  C4  ZIN A   1      19.332   3.455  17.570  0.00  0.00     0.027 C 
BRANCH  15  16
ATOM     16  C3  ZIN A   1      19.057   2.331  18.570  0.00  0.00     0.002 C 
BRANCH  16  17
ATOM     17  C2  ZIN A   1      19.339   0.980  17.911  0.00  0.00    -0.004 C 
ATOM     18  C1  ZIN A   1      18.076   0.117  17.956  0.00  0.00     0.005 C 
ENDBRANCH  16  17
ENDBRANCH  15  16
ENDBRANCH  14  15
ENDBRANCH  13  14
ENDBRANCH  10  13
ENDBRANCH   1   9
BRANCH   5  19
ATOM     19  C15 ZIN A   1      17.779  -2.057  10.909  0.00  0.00     0.264 C 
ATOM     20  C24 ZIN A   1      19.217  -2.469  10.538  0.00  0.00     0.198 C 
ATOM     21  C21 ZIN A   1      19.266  -3.988  10.852  0.00  0.00     0.179 C 
ATOM     22  C18 ZIN A   1      17.764  -4.371  10.833  0.00  0.00     0.151 C 
ATOM     23  O17 ZIN A   1      17.116  -3.224  11.423  0.00  0.00    -0.356 OA
ATOM     24  C20 ZIN A   1      17.514  -5.623  11.676  0.00  0.00     0.042 C 
BRANCH  20  25
ATOM     25  O26 ZIN A   1      19.469  -2.236   9.151  0.00  0.00    -0.388 OA
ATOM     26  H46 ZIN A   1      20.149  -2.810   8.773  0.00  0.00     0.210 HD
ENDBRANCH  20  25
BRANCH  21  27
ATOM     27  O23 ZIN A   1      19.985  -4.693   9.839  0.00  0.00    -0.390 OA
ATOM     28  H45 ZIN A   1      20.870  -4.343   9.668  0.00  0.00     0.210 HD
ENDBRANCH  21  27
ENDBRANCH   5  19
TORSDOF 9
ENDMDL
MODEL 6
REMARK VINA RESULT:      -6.7      2.538      7.951
REMARK  9 active torsions:
REMARK  status: ('A' for Active; 'I' for Inactive)
REMARK    1  A    between atoms: C2_2  and  C3_3 
REMARK    2  A    between atoms: C3_3  and  C4_4 
REMARK    3  A    between atoms: C4_4  and  C5_5 
REMARK    4  A    between atoms: C5_5  and  O6_6 
REMARK    5  A    between atoms: O6_6  and  C7_7 
REMARK       I    between atoms: C7_7  and  N9_9 
REMARK    6  A    between atoms: N9_9  and  C10_10 
REMARK    7  A    between atoms: N14_14  and  C15_15 
REMARK    8  A    between atoms: C21_19  and  O23_20 
REMARK    9  A    between atoms: C24_21  and  O26_22 
ROOT
ATOM      1  C10 ZIN A   1      19.873  -1.075  11.300  0.00  0.00     0.177 A 
ATOM      2  N11 ZIN A   1      19.687  -0.475  10.133  0.00  0.00    -0.173 NA
ATOM      3  C12 ZIN A   1      19.269  -1.164   9.072  0.00  0.00     0.352 A 
ATOM      4  O13 ZIN A   1      19.105  -0.587   8.009  0.00  0.00    -0.244 OA
ATOM      5  N14 ZIN A   1      19.024  -2.485   9.153  0.00  0.00    -0.275 N 
ATOM      6  C27 ZIN A   1      19.202  -3.147  10.331  0.00  0.00     0.145 A 
ATOM      7  C28 ZIN A   1      19.631  -2.460  11.419  0.00  0.00     0.178 A 
ATOM      8  F29 ZIN A   1      19.816  -3.089  12.600  0.00  0.00    -0.201 F 
ENDROOT
BRANCH   1   9
ATOM      9  N9  ZIN A   1      20.307  -0.350  12.393  0.00  0.00    -0.284 N 
ATOM     10  C7  ZIN A   1      19.411   0.198  13.239  0.00  0.00     0.366 C 
ATOM     11  O8  ZIN A   1      18.222   0.051  13.039  0.00  0.00    -0.238 OA
ATOM     12  H41 ZIN A   1      21.257  -0.233  12.552  0.00  0.00     0.172 HD
BRANCH  10  13
ATOM     13  O6  ZIN A   1      19.834   0.904  14.303  0.00  0.00    -0.304 OA
BRANCH  13  14
ATOM     14  C5  ZIN A   1      18.894   1.848  14.882  0.00  0.00     0.180 C 
BRANCH  14  15
ATOM     15  C4  ZIN A   1      19.189   2.010  16.375  0.00  0.00     0.027 C 
BRANCH  15  16
ATOM     16  C3  ZIN A   1      18.984   0.671  17.084  0.00  0.00     0.002 C 
BRANCH  16  17
ATOM     17  C2  ZIN A   1      17.576   0.148  16.792  0.00  0.00    -0.004 C 
ATOM     18  C1  ZIN A   1      17.643  -1.346  16.468  0.00  0.00     0.005 C 
ENDBRANCH  16  17
ENDBRANCH  15  16
ENDBRANCH  14  15
ENDBRANCH  13  14
ENDBRANCH  10  13
ENDBRANCH   1   9
BRANCH   5  19
ATOM     19  C15 ZIN A   1      18.566  -3.215   7.968  0.00  0.00     0.264 C 
ATOM     20  C24 ZIN A   1      19.733  -4.018   7.363  0.00  0.00     0.198 C 
ATOM     21  C21 ZIN A   1      19.235  -5.487   7.391  0.00  0.00     0.179 C 
ATOM     22  C18 ZIN A   1      17.698  -5.306   7.480  0.00  0.00     0.151 C 
ATOM     23  O17 ZIN A   1      17.544  -4.156   8.339  0.00  0.00    -0.356 OA
ATOM     24  C20 ZIN A   1      17.044  -6.539   8.108  0.00  0.00     0.042 C 
BRANCH  20  25
ATOM     25  O26 ZIN A   1      19.991  -3.602   6.021  0.00  0.00    -0.388 OA
ATOM     26  H46 ZIN A   1      20.593  -2.848   5.951  0.00  0.00     0.210 HD
ENDBRANCH  20  25
BRANCH  21  27
ATOM     27  O23 ZIN A   1      19.599  -6.170   6.190  0.00  0.00    -0.390 OA
ATOM     28  H45 ZIN A   1      19.457  -5.654   5.385  0.00  0.00     0.210 HD
ENDBRANCH  21  27
ENDBRANCH   5  19
TORSDOF 9
ENDMDL
MODEL 7
REMARK VINA RESULT:      -6.7      3.942      8.541
REMARK  9 active torsions:
REMARK  status: ('A' for Active; 'I' for Inactive)
REMARK    1  A    between atoms: C2_2  and  C3_3 
REMARK    2  A    between atoms: C3_3  and  C4_4 
REMARK    3  A    between atoms: C4_4  and  C5_5 
REMARK    4  A    between atoms: C5_5  and  O6_6 
REMARK    5  A    between atoms: O6_6  and  C7_7 
REMARK       I    between atoms: C7_7  and  N9_9 
REMARK    6  A    between atoms: N9_9  and  C10_10 
REMARK    7  A    between atoms: N14_14  and  C15_15 
REMARK    8  A    between atoms: C21_19  and  O23_20 
REMARK    9  A    between atoms: C24_21  and  O26_22 
ROOT
ATOM      1  C10 ZIN A   1      18.136  -0.136  14.557  0.00  0.00     0.177 A 
ATOM      2  N11 ZIN A   1      17.249   0.241  13.649  0.00  0.00    -0.173 NA
ATOM      3  C12 ZIN A   1      17.141  -0.408  12.490  0.00  0.00     0.352 A 
ATOM      4  O13 ZIN A   1      16.315  -0.041  11.671  0.00  0.00    -0.244 OA
ATOM      5  N14 ZIN A   1      17.928  -1.464  12.210  0.00  0.00    -0.275 N 
ATOM      6  C27 ZIN A   1      18.856  -1.889  13.113  0.00  0.00     0.145 A 
ATOM      7  C28 ZIN A   1      18.980  -1.235  14.294  0.00  0.00     0.178 A 
ATOM      8  F29 ZIN A   1      19.891  -1.634  15.208  0.00  0.00    -0.201 F 
ENDROOT
BRANCH   1   9
ATOM      9  N9  ZIN A   1      18.238   0.547  15.755  0.00  0.00    -0.284 N 
ATOM     10  C7  ZIN A   1      17.552   0.121  16.834  0.00  0.00     0.366 C 
ATOM     11  O8  ZIN A   1      16.845  -0.864  16.754  0.00  0.00    -0.238 OA
ATOM     12  H41 ZIN A   1      18.802   1.333  15.819  0.00  0.00     0.172 HD
BRANCH  10  13
ATOM     13  O6  ZIN A   1      17.651   0.786  18.000  0.00  0.00    -0.304 OA
BRANCH  13  14
ATOM     14  C5  ZIN A   1      18.956   1.321  18.345  0.00  0.00     0.180 C 
BRANCH  14  15
ATOM     15  C4  ZIN A   1      18.844   2.829  18.578  0.00  0.00     0.027 C 
BRANCH  15  16
ATOM     16  C3  ZIN A   1      19.224   3.573  17.297  0.00  0.00     0.002 C 
BRANCH  16  17
ATOM     17  C2  ZIN A   1      18.321   4.796  17.130  0.00  0.00    -0.004 C 
ATOM     18  C1  ZIN A   1      18.010   5.001  15.646  0.00  0.00     0.005 C 
ENDBRANCH  16  17
ENDBRANCH  15  16
ENDBRANCH  14  15
ENDBRANCH  13  14
ENDBRANCH  10  13
ENDBRANCH   1   9
BRANCH   5  19
ATOM     19  C15 ZIN A   1      17.786  -2.158  10.927  0.00  0.00     0.264 C 
ATOM     20  C24 ZIN A   1      19.175  -2.550  10.388  0.00  0.00     0.198 C 
ATOM     21  C21 ZIN A   1      19.101  -4.093  10.242  0.00  0.00     0.179 C 
ATOM     22  C18 ZIN A   1      17.571  -4.339  10.181  0.00  0.00     0.151 C 
ATOM     23  O17 ZIN A   1      17.037  -3.372  11.109  0.00  0.00    -0.356 OA
ATOM     24  C20 ZIN A   1      17.234  -5.762  10.631  0.00  0.00     0.042 C 
BRANCH  20  25
ATOM     25  O26 ZIN A   1      19.416  -1.939   9.119  0.00  0.00    -0.388 OA
ATOM     26  H46 ZIN A   1      19.100  -2.456   8.366  0.00  0.00     0.210 HD
ENDBRANCH  20  25
BRANCH  21  27
ATOM     27  O23 ZIN A   1      19.735  -4.521   9.035  0.00  0.00    -0.390 OA
ATOM     28  H45 ZIN A   1      19.518  -5.427   8.777  0.00  0.00     0.210 HD
ENDBRANCH  21  27
ENDBRANCH   5  19
TORSDOF 9
ENDMDL
MODEL 8
REMARK VINA RESULT:      -6.7      2.886      4.552
REMARK  9 active torsions:
REMARK  status: ('A' for Active; 'I' for Inactive)
REMARK    1  A    between atoms: C2_2  and  C3_3 
REMARK    2  A    between atoms: C3_3  and  C4_4 
REMARK    3  A    between atoms: C4_4  and  C5_5 
REMARK    4  A    between atoms: C5_5  and  O6_6 
REMARK    5  A    between atoms: O6_6  and  C7_7 
REMARK       I    between atoms: C7_7  and  N9_9 
REMARK    6  A    between atoms: N9_9  and  C10_10 
REMARK    7  A    between atoms: N14_14  and  C15_15 
REMARK    8  A    between atoms: C21_19  and  O23_20 
REMARK    9  A    between atoms: C24_21  and  O26_22 
ROOT
ATOM      1  C10 ZIN A   1      19.252  -1.643  10.474  0.00  0.00     0.177 A 
ATOM      2  N11 ZIN A   1      18.537  -1.710  11.587  0.00  0.00    -0.173 NA
ATOM      3  C12 ZIN A   1      18.140  -0.601  12.210  0.00  0.00     0.352 A 
ATOM      4  O13 ZIN A   1      17.482  -0.691  13.233  0.00  0.00    -0.244 OA
ATOM      5  N14 ZIN A   1      18.451   0.616  11.727  0.00  0.00    -0.275 N 
ATOM      6  C27 ZIN A   1      19.185   0.737  10.586  0.00  0.00     0.145 A 
ATOM      7  C28 ZIN A   1      19.601  -0.383   9.944  0.00  0.00     0.178 A 
ATOM      8  F29 ZIN A   1      20.330  -0.294   8.810  0.00  0.00    -0.201 F 
ENDROOT
BRANCH   1   9
ATOM      9  N9  ZIN A   1      19.659  -2.801   9.838  0.00  0.00    -0.284 N 
ATOM     10  C7  ZIN A   1      18.910  -3.324   8.847  0.00  0.00     0.366 C 
ATOM     11  O8  ZIN A   1      17.879  -2.777   8.512  0.00  0.00    -0.238 OA
ATOM     12  H41 ZIN A   1      20.483  -3.238  10.106  0.00  0.00     0.172 HD
BRANCH  10  13
ATOM     13  O6  ZIN A   1      19.306  -4.452   8.228  0.00  0.00    -0.304 OA
BRANCH  13  14
ATOM     14  C5  ZIN A   1      18.265  -5.303   7.679  0.00  0.00     0.180 C 
BRANCH  14  15
ATOM     15  C4  ZIN A   1      18.107  -6.546   8.556  0.00  0.00     0.027 C 
BRANCH  15  16
ATOM     16  C3  ZIN A   1      16.891  -6.376   9.468  0.00  0.00     0.002 C 
BRANCH  16  17
ATOM     17  C2  ZIN A   1      17.358  -6.040  10.886  0.00  0.00    -0.004 C 
ATOM     18  C1  ZIN A   1      16.649  -4.774  11.370  0.00  0.00     0.005 C 
ENDBRANCH  16  17
ENDBRANCH  15  16
ENDBRANCH  14  15
ENDBRANCH  13  14
ENDBRANCH  10  13
ENDBRANCH   1   9
BRANCH   5  19
ATOM     19  C15 ZIN A   1      17.999   1.818  12.435  0.00  0.00     0.264 C 
ATOM     20  C24 ZIN A   1      19.213   2.683  12.826  0.00  0.00     0.198 C 
ATOM     21  C21 ZIN A   1      18.943   4.045  12.134  0.00  0.00     0.179 C 
ATOM     22  C18 ZIN A   1      17.411   3.993  11.902  0.00  0.00     0.151 C 
ATOM     23  O17 ZIN A   1      17.167   2.609  11.570  0.00  0.00    -0.356 OA
ATOM     24  C20 ZIN A   1      17.008   4.905  10.742  0.00  0.00     0.042 C 
BRANCH  20  25
ATOM     25  O26 ZIN A   1      19.282   2.847  14.244  0.00  0.00    -0.388 OA
ATOM     26  H46 ZIN A   1      19.267   2.016  14.737  0.00  0.00     0.210 HD
ENDBRANCH  20  25
BRANCH  21  27
ATOM     27  O23 ZIN A   1      19.293   5.131  12.994  0.00  0.00    -0.390 OA
ATOM     28  H45 ZIN A   1      18.680   5.877  12.954  0.00  0.00     0.210 HD
ENDBRANCH  21  27
ENDBRANCH   5  19
TORSDOF 9
ENDMDL
MODEL 9
REMARK VINA RESULT:      -6.7      2.509      3.393
REMARK  9 active torsions:
REMARK  status: ('A' for Active; 'I' for Inactive)
REMARK    1  A    between atoms: C2_2  and  C3_3 
REMARK    2  A    between atoms: C3_3  and  C4_4 
REMARK    3  A    between atoms: C4_4  and  C5_5 
REMARK    4  A    between atoms: C5_5  and  O6_6 
REMARK    5  A    between atoms: O6_6  and  C7_7 
REMARK       I    between atoms: C7_7  and  N9_9 
REMARK    6  A    between atoms: N9_9  and  C10_10 
REMARK    7  A    between atoms: N14_14  and  C15_15 
REMARK    8  A    between atoms: C21_19  and  O23_20 
REMARK    9  A    between atoms: C24_21  and  O26_22 
ROOT
ATOM      1  C10 ZIN A   1      18.822   0.266   9.991  0.00  0.00     0.177 A 
ATOM      2  N11 ZIN A   1      20.055   0.369  10.466  0.00  0.00    -0.173 NA
ATOM      3  C12 ZIN A   1      20.276   0.433  11.778  0.00  0.00     0.352 A 
ATOM      4  O13 ZIN A   1      21.421   0.527  12.189  0.00  0.00    -0.244 OA
ATOM      5  N14 ZIN A   1      19.257   0.393  12.657  0.00  0.00    -0.275 N 
ATOM      6  C27 ZIN A   1      17.972   0.289  12.217  0.00  0.00     0.145 A 
ATOM      7  C28 ZIN A   1      17.731   0.228  10.884  0.00  0.00     0.178 A 
ATOM      8  F29 ZIN A   1      16.467   0.124  10.418  0.00  0.00    -0.201 F 
ENDROOT
BRANCH   1   9
ATOM      9  N9  ZIN A   1      18.606   0.202   8.627  0.00  0.00    -0.284 N 
ATOM     10  C7  ZIN A   1      18.795   1.296   7.862  0.00  0.00     0.366 C 
ATOM     11  O8  ZIN A   1      19.156   2.337   8.372  0.00  0.00    -0.238 OA
ATOM     12  H41 ZIN A   1      18.318  -0.630   8.220  0.00  0.00     0.172 HD
BRANCH  10  13
ATOM     13  O6  ZIN A   1      18.584   1.233   6.534  0.00  0.00    -0.304 OA
BRANCH  13  14
ATOM     14  C5  ZIN A   1      18.097  -0.027   6.003  0.00  0.00     0.180 C 
BRANCH  14  15
ATOM     15  C4  ZIN A   1      18.820  -0.342   4.692  0.00  0.00     0.027 C 
BRANCH  15  16
ATOM     16  C3  ZIN A   1      19.143  -1.835   4.633  0.00  0.00     0.002 C 
BRANCH  16  17
ATOM     17  C2  ZIN A   1      19.264  -2.389   6.053  0.00  0.00    -0.004 C 
ATOM     18  C1  ZIN A   1      19.280  -3.919   6.005  0.00  0.00     0.005 C 
ENDBRANCH  16  17
ENDBRANCH  15  16
ENDBRANCH  14  15
ENDBRANCH  13  14
ENDBRANCH  10  13
ENDBRANCH   1   9
BRANCH   5  19
ATOM     19  C15 ZIN A   1      19.532   0.465  14.095  0.00  0.00     0.264 C 
ATOM     20  C24 ZIN A   1      18.767   1.648  14.716  0.00  0.00     0.198 C 
ATOM     21  C21 ZIN A   1      17.874   0.991  15.802  0.00  0.00     0.179 C 
ATOM     22  C18 ZIN A   1      18.607  -0.352  16.053  0.00  0.00     0.151 C 
ATOM     23  O17 ZIN A   1      19.071  -0.734  14.741  0.00  0.00    -0.356 OA
ATOM     24  C20 ZIN A   1      17.640  -1.400  16.609  0.00  0.00     0.042 C 
BRANCH  20  25
ATOM     25  O26 ZIN A   1      19.672   2.582  15.310  0.00  0.00    -0.388 OA
ATOM     26  H46 ZIN A   1      20.603   2.393  15.133  0.00  0.00     0.210 HD
ENDBRANCH  20  25
BRANCH  21  27
ATOM     27  O23 ZIN A   1      17.847   1.787  16.989  0.00  0.00    -0.390 OA
ATOM     28  H45 ZIN A   1      16.971   2.127  17.214  0.00  0.00     0.210 HD
ENDBRANCH  21  27
ENDBRANCH   5  19
TORSDOF 9
ENDMDL
