MODEL 1
REMARK VINA RESULT:      -5.7      0.000      0.000
REMARK  4 active torsions:
REMARK  status: ('A' for Active; 'I' for Inactive)
REMARK    1  A    between atoms: C8_8  and  O9_9 
REMARK    2  A    between atoms: O9_9  and  C10_10 
REMARK    3  A    between atoms: C10_10  and  C11_11 
REMARK    4  A    between atoms: C11_11  and  N14_13 
ROOT
ATOM      1  C1  ZIN A   1      19.050   2.260   8.819  0.00  0.00     0.051 C 
ATOM      2  C2  ZIN A   1      19.041   1.117   7.837  0.00  0.00    -0.028 A 
ATOM      3  C3  ZIN A   1      18.987   1.372   6.480  0.00  0.00     0.009 A 
ATOM      4  C4  ZIN A   1      18.980   0.325   5.578  0.00  0.00     0.001 A 
ATOM      5  C5  ZIN A   1      19.026  -0.981   6.031  0.00  0.00     0.009 A 
ATOM      6  C6  ZIN A   1      19.080  -1.241   7.386  0.00  0.00    -0.028 A 
ATOM      7  C7  ZIN A   1      19.130  -2.664   7.880  0.00  0.00     0.051 C 
ATOM      8  C8  ZIN A   1      19.093  -0.192   8.293  0.00  0.00     0.080 A 
ENDROOT
BRANCH   8   9
ATOM      9  O9  ZIN A   1      19.145  -0.445   9.628  0.00  0.00    -0.348 OA
BRANCH   9  10
ATOM     10  C10 ZIN A   1      20.443  -0.542  10.219  0.00  0.00     0.208 C 
BRANCH  10  11
ATOM     11  C11 ZIN A   1      20.350  -0.212  11.710  0.00  0.00     0.203 C 
ATOM     12  C13 ZIN A   1      19.056   0.559  11.981  0.00  0.00     0.042 C 
BRANCH  11  13
ATOM     13  N14 ZIN A   1      21.502   0.610  12.102  0.00  0.00    -0.073 N 
ATOM     14  H15 ZIN A   1      21.209   1.571  12.205  0.00  0.00     0.274 HD
ATOM     15  H16 ZIN A   1      21.872   0.275  12.979  0.00  0.00     0.274 HD
ATOM     16  H17 ZIN A   1      22.215   0.550  11.391  0.00  0.00     0.274 HD
ENDBRANCH  11  13
ENDBRANCH  10  11
ENDBRANCH   9  10
ENDBRANCH   8   9
TORSDOF 4
ENDMDL
MODEL 2
REMARK VINA RESULT:      -5.6      0.203      2.378
REMARK  4 active torsions:
REMARK  status: ('A' for Active; 'I' for Inactive)
REMARK    1  A    between atoms: C8_8  and  O9_9 
REMARK    2  A    between atoms: O9_9  and  C10_10 
REMARK    3  A    between atoms: C10_10  and  C11_11 
REMARK    4  A    between atoms: C11_11  and  N14_13 
ROOT
ATOM      1  C1  ZIN A   1      18.828  -2.656   8.133  0.00  0.00     0.051 C 
ATOM      2  C2  ZIN A   1      18.861  -1.266   7.552  0.00  0.00    -0.028 A 
ATOM      3  C3  ZIN A   1      18.793  -1.088   6.183  0.00  0.00     0.009 A 
ATOM      4  C4  ZIN A   1      18.823   0.187   5.649  0.00  0.00     0.001 A 
ATOM      5  C5  ZIN A   1      18.920   1.286   6.482  0.00  0.00     0.009 A 
ATOM      6  C6  ZIN A   1      18.988   1.113   7.851  0.00  0.00    -0.028 A 
ATOM      7  C7  ZIN A   1      19.093   2.311   8.759  0.00  0.00     0.051 C 
ATOM      8  C8  ZIN A   1      18.953  -0.165   8.390  0.00  0.00     0.080 A 
ENDROOT
BRANCH   8   9
ATOM      9  O9  ZIN A   1      19.020  -0.338   9.737  0.00  0.00    -0.348 OA
BRANCH   9  10
ATOM     10  C10 ZIN A   1      20.318  -0.538  10.301  0.00  0.00     0.208 C 
BRANCH  10  11
ATOM     11  C11 ZIN A   1      20.299  -0.138  11.777  0.00  0.00     0.203 C 
ATOM     12  C13 ZIN A   1      19.081   0.749  12.048  0.00  0.00     0.042 C 
BRANCH  11  13
ATOM     13  N14 ZIN A   1      21.525   0.603  12.100  0.00  0.00    -0.073 N 
ATOM     14  H15 ZIN A   1      22.046   0.099  12.803  0.00  0.00     0.274 HD
ATOM     15  H16 ZIN A   1      22.089   0.701  11.270  0.00  0.00     0.274 HD
ATOM     16  H17 ZIN A   1      21.283   1.517  12.452  0.00  0.00     0.274 HD
ENDBRANCH  11  13
ENDBRANCH  10  11
ENDBRANCH   9  10
ENDBRANCH   8   9
TORSDOF 4
ENDMDL
MODEL 3
REMARK VINA RESULT:      -5.5      3.726      7.140
REMARK  4 active torsions:
REMARK  status: ('A' for Active; 'I' for Inactive)
REMARK    1  A    between atoms: C8_8  and  O9_9 
REMARK    2  A    between atoms: O9_9  and  C10_10 
REMARK    3  A    between atoms: C10_10  and  C11_11 
REMARK    4  A    between atoms: C11_11  and  N14_13 
ROOT
ATOM      1  C1  ZIN A   1      19.204   2.556  16.328  0.00  0.00     0.051 C 
ATOM      2  C2  ZIN A   1      18.773   1.116  16.221  0.00  0.00    -0.028 A 
ATOM      3  C3  ZIN A   1      17.985   0.554  17.207  0.00  0.00     0.009 A 
ATOM      4  C4  ZIN A   1      17.590  -0.766  17.109  0.00  0.00     0.001 A 
ATOM      5  C5  ZIN A   1      17.981  -1.529  16.023  0.00  0.00     0.009 A 
ATOM      6  C6  ZIN A   1      18.769  -0.972  15.035  0.00  0.00    -0.028 A 
ATOM      7  C7  ZIN A   1      19.195  -1.804  13.852  0.00  0.00     0.051 C 
ATOM      8  C8  ZIN A   1      19.163   0.354  15.129  0.00  0.00     0.080 A 
ENDROOT
BRANCH   8   9
ATOM      9  O9  ZIN A   1      19.938   0.905  14.157  0.00  0.00    -0.348 OA
BRANCH   9  10
ATOM     10  C10 ZIN A   1      19.278   1.323  12.960  0.00  0.00     0.208 C 
BRANCH  10  11
ATOM     11  C11 ZIN A   1      20.267   1.286  11.794  0.00  0.00     0.203 C 
ATOM     12  C13 ZIN A   1      19.647   0.519  10.624  0.00  0.00     0.042 C 
BRANCH  11  13
ATOM     13  N14 ZIN A   1      21.502   0.615  12.220  0.00  0.00    -0.073 N 
ATOM     14  H15 ZIN A   1      21.486   0.487  13.221  0.00  0.00     0.274 HD
ATOM     15  H16 ZIN A   1      21.570  -0.284  11.767  0.00  0.00     0.274 HD
ATOM     16  H17 ZIN A   1      22.298   1.181  11.965  0.00  0.00     0.274 HD
ENDBRANCH  11  13
ENDBRANCH  10  11
ENDBRANCH   9  10
ENDBRANCH   8   9
TORSDOF 4
ENDMDL
MODEL 4
REMARK VINA RESULT:      -5.4      3.307      5.388
REMARK  4 active torsions:
REMARK  status: ('A' for Active; 'I' for Inactive)
REMARK    1  A    between atoms: C8_8  and  O9_9 
REMARK    2  A    between atoms: O9_9  and  C10_10 
REMARK    3  A    between atoms: C10_10  and  C11_11 
REMARK    4  A    between atoms: C11_11  and  N14_13 
ROOT
ATOM      1  C1  ZIN A   1      18.677   2.979   9.188  0.00  0.00     0.051 C 
ATOM      2  C2  ZIN A   1      18.204   3.700  10.424  0.00  0.00    -0.028 A 
ATOM      3  C3  ZIN A   1      17.265   4.709  10.319  0.00  0.00     0.009 A 
ATOM      4  C4  ZIN A   1      16.830   5.370  11.453  0.00  0.00     0.001 A 
ATOM      5  C5  ZIN A   1      17.332   5.024  12.694  0.00  0.00     0.009 A 
ATOM      6  C6  ZIN A   1      18.270   4.016  12.804  0.00  0.00    -0.028 A 
ATOM      7  C7  ZIN A   1      18.817   3.640  14.157  0.00  0.00     0.051 C 
ATOM      8  C8  ZIN A   1      18.705   3.348  11.669  0.00  0.00     0.080 A 
ENDROOT
BRANCH   8   9
ATOM      9  O9  ZIN A   1      19.629   2.356  11.774  0.00  0.00    -0.348 OA
BRANCH   9  10
ATOM     10  C10 ZIN A   1      19.138   1.013  11.804  0.00  0.00     0.208 C 
BRANCH  10  11
ATOM     11  C11 ZIN A   1      20.199   0.097  12.415  0.00  0.00     0.203 C 
ATOM     12  C13 ZIN A   1      19.961  -0.023  13.922  0.00  0.00     0.042 C 
BRANCH  11  13
ATOM     13  N14 ZIN A   1      21.533   0.663  12.174  0.00  0.00    -0.073 N 
ATOM     14  H15 ZIN A   1      21.875   0.347  11.278  0.00  0.00     0.274 HD
ATOM     15  H16 ZIN A   1      21.477   1.670  12.177  0.00  0.00     0.274 HD
ATOM     16  H17 ZIN A   1      22.163   0.359  12.901  0.00  0.00     0.274 HD
ENDBRANCH  11  13
ENDBRANCH  10  11
ENDBRANCH   9  10
ENDBRANCH   8   9
TORSDOF 4
ENDMDL
MODEL 5
REMARK VINA RESULT:      -5.2      2.098      3.830
REMARK  4 active torsions:
REMARK  status: ('A' for Active; 'I' for Inactive)
REMARK    1  A    between atoms: C8_8  and  O9_9 
REMARK    2  A    between atoms: O9_9  and  C10_10 
REMARK    3  A    between atoms: C10_10  and  C11_11 
REMARK    4  A    between atoms: C11_11  and  N14_13 
ROOT
ATOM      1  C1  ZIN A   1      17.411   0.695  12.702  0.00  0.00     0.051 C 
ATOM      2  C2  ZIN A   1      17.834   1.486  11.491  0.00  0.00    -0.028 A 
ATOM      3  C3  ZIN A   1      17.735   2.865  11.497  0.00  0.00     0.009 A 
ATOM      4  C4  ZIN A   1      18.123   3.591  10.387  0.00  0.00     0.001 A 
ATOM      5  C5  ZIN A   1      18.612   2.942   9.269  0.00  0.00     0.009 A 
ATOM      6  C6  ZIN A   1      18.713   1.564   9.258  0.00  0.00    -0.028 A 
ATOM      7  C7  ZIN A   1      19.246   0.857   8.039  0.00  0.00     0.051 C 
ATOM      8  C8  ZIN A   1      18.329   0.833  10.372  0.00  0.00     0.080 A 
ENDROOT
BRANCH   8   9
ATOM      9  O9  ZIN A   1      18.427  -0.523  10.364  0.00  0.00    -0.348 OA
BRANCH   9  10
ATOM     10  C10 ZIN A   1      19.659  -1.087  10.821  0.00  0.00     0.208 C 
BRANCH  10  11
ATOM     11  C11 ZIN A   1      19.473  -2.585  11.068  0.00  0.00     0.203 C 
ATOM     12  C13 ZIN A   1      18.433  -2.794  12.170  0.00  0.00     0.042 C 
BRANCH  11  13
ATOM     13  N14 ZIN A   1      20.752  -3.175  11.483  0.00  0.00    -0.073 N 
ATOM     14  H15 ZIN A   1      20.987  -2.850  12.410  0.00  0.00     0.274 HD
ATOM     15  H16 ZIN A   1      20.673  -4.181  11.489  0.00  0.00     0.274 HD
ATOM     16  H17 ZIN A   1      21.476  -2.899  10.836  0.00  0.00     0.274 HD
ENDBRANCH  11  13
ENDBRANCH  10  11
ENDBRANCH   9  10
ENDBRANCH   8   9
TORSDOF 4
ENDMDL
MODEL 6
REMARK VINA RESULT:      -5.2      2.120      3.938
REMARK  4 active torsions:
REMARK  status: ('A' for Active; 'I' for Inactive)
REMARK    1  A    between atoms: C8_8  and  O9_9 
REMARK    2  A    between atoms: O9_9  and  C10_10 
REMARK    3  A    between atoms: C10_10  and  C11_11 
REMARK    4  A    between atoms: C11_11  and  N14_13 
ROOT
ATOM      1  C1  ZIN A   1      19.239   0.864   8.034  0.00  0.00     0.051 C 
ATOM      2  C2  ZIN A   1      18.682   1.545   9.259  0.00  0.00    -0.028 A 
ATOM      3  C3  ZIN A   1      18.560   2.921   9.289  0.00  0.00     0.009 A 
ATOM      4  C4  ZIN A   1      18.050   3.545  10.411  0.00  0.00     0.001 A 
ATOM      5  C5  ZIN A   1      17.659   2.796  11.506  0.00  0.00     0.009 A 
ATOM      6  C6  ZIN A   1      17.779   1.420  11.480  0.00  0.00    -0.028 A 
ATOM      7  C7  ZIN A   1      17.354   0.603  12.673  0.00  0.00     0.051 C 
ATOM      8  C8  ZIN A   1      18.287   0.790  10.354  0.00  0.00     0.080 A 
ENDROOT
BRANCH   8   9
ATOM      9  O9  ZIN A   1      18.406  -0.564  10.326  0.00  0.00    -0.348 OA
BRANCH   9  10
ATOM     10  C10 ZIN A   1      19.632  -1.117  10.812  0.00  0.00     0.208 C 
BRANCH  10  11
ATOM     11  C11 ZIN A   1      19.464  -2.623  11.019  0.00  0.00     0.203 C 
ATOM     12  C13 ZIN A   1      18.445  -2.874  12.132  0.00  0.00     0.042 C 
BRANCH  11  13
ATOM     13  N14 ZIN A   1      20.755  -3.212  11.395  0.00  0.00    -0.073 N 
ATOM     14  H15 ZIN A   1      21.414  -3.088  10.640  0.00  0.00     0.274 HD
ATOM     15  H16 ZIN A   1      21.105  -2.757  12.225  0.00  0.00     0.274 HD
ATOM     16  H17 ZIN A   1      20.635  -4.197  11.578  0.00  0.00     0.274 HD
ENDBRANCH  11  13
ENDBRANCH  10  11
ENDBRANCH   9  10
ENDBRANCH   8   9
TORSDOF 4
ENDMDL
MODEL 7
REMARK VINA RESULT:      -5.2      1.632      1.639
REMARK  4 active torsions:
REMARK  status: ('A' for Active; 'I' for Inactive)
REMARK    1  A    between atoms: C8_8  and  O9_9 
REMARK    2  A    between atoms: O9_9  and  C10_10 
REMARK    3  A    between atoms: C10_10  and  C11_11 
REMARK    4  A    between atoms: C11_11  and  N14_13 
ROOT
ATOM      1  C1  ZIN A   1      19.039   1.530   8.752  0.00  0.00     0.051 C 
ATOM      2  C2  ZIN A   1      19.013   0.590   7.574  0.00  0.00    -0.028 A 
ATOM      3  C3  ZIN A   1      18.709   1.070   6.314  0.00  0.00     0.009 A 
ATOM      4  C4  ZIN A   1      18.686   0.209   5.233  0.00  0.00     0.001 A 
ATOM      5  C5  ZIN A   1      18.968  -1.134   5.409  0.00  0.00     0.009 A 
ATOM      6  C6  ZIN A   1      19.272  -1.618   6.666  0.00  0.00    -0.028 A 
ATOM      7  C7  ZIN A   1      19.578  -3.081   6.857  0.00  0.00     0.051 C 
ATOM      8  C8  ZIN A   1      19.300  -0.755   7.752  0.00  0.00     0.080 A 
ENDROOT
BRANCH   8   9
ATOM      9  O9  ZIN A   1      19.599  -1.229   8.991  0.00  0.00    -0.348 OA
BRANCH   9  10
ATOM     10  C10 ZIN A   1      18.514  -1.737   9.770  0.00  0.00     0.208 C 
BRANCH  10  11
ATOM     11  C11 ZIN A   1      19.065  -2.457  11.002  0.00  0.00     0.203 C 
ATOM     12  C13 ZIN A   1      18.305  -1.992  12.246  0.00  0.00     0.042 C 
BRANCH  11  13
ATOM     13  N14 ZIN A   1      20.492  -2.146  11.154  0.00  0.00    -0.073 N 
ATOM     14  H15 ZIN A   1      20.933  -2.139  10.246  0.00  0.00     0.274 HD
ATOM     15  H16 ZIN A   1      20.595  -1.239  11.585  0.00  0.00     0.274 HD
ATOM     16  H17 ZIN A   1      20.928  -2.846  11.735  0.00  0.00     0.274 HD
ENDBRANCH  11  13
ENDBRANCH  10  11
ENDBRANCH   9  10
ENDBRANCH   8   9
TORSDOF 4
ENDMDL
MODEL 8
REMARK VINA RESULT:      -5.2      3.797      7.170
REMARK  4 active torsions:
REMARK  status: ('A' for Active; 'I' for Inactive)
REMARK    1  A    between atoms: C8_8  and  O9_9 
REMARK    2  A    between atoms: O9_9  and  C10_10 
REMARK    3  A    between atoms: C10_10  and  C11_11 
REMARK    4  A    between atoms: C11_11  and  N14_13 
ROOT
ATOM      1  C1  ZIN A   1      19.272  -1.680  13.236  0.00  0.00     0.051 C 
ATOM      2  C2  ZIN A   1      18.957  -0.848  14.453  0.00  0.00    -0.028 A 
ATOM      3  C3  ZIN A   1      18.464  -1.452  15.594  0.00  0.00     0.009 A 
ATOM      4  C4  ZIN A   1      18.176  -0.690  16.711  0.00  0.00     0.001 A 
ATOM      5  C5  ZIN A   1      18.381   0.677  16.690  0.00  0.00     0.009 A 
ATOM      6  C6  ZIN A   1      18.874   1.285  15.553  0.00  0.00    -0.028 A 
ATOM      7  C7  ZIN A   1      19.098   2.776  15.530  0.00  0.00     0.051 C 
ATOM      8  C8  ZIN A   1      19.169   0.523  14.432  0.00  0.00     0.080 A 
ENDROOT
BRANCH   8   9
ATOM      9  O9  ZIN A   1      19.654   1.119  13.310  0.00  0.00    -0.348 OA
BRANCH   9  10
ATOM     10  C10 ZIN A   1      18.696   1.590  12.360  0.00  0.00     0.208 C 
BRANCH  10  11
ATOM     11  C11 ZIN A   1      19.264   2.806  11.626  0.00  0.00     0.203 C 
ATOM     12  C13 ZIN A   1      18.917   2.711  10.139  0.00  0.00     0.042 C 
BRANCH  11  13
ATOM     13  N14 ZIN A   1      20.723   2.839  11.787  0.00  0.00    -0.073 N 
ATOM     14  H15 ZIN A   1      20.978   3.611  12.385  0.00  0.00     0.274 HD
ATOM     15  H16 ZIN A   1      21.036   1.974  12.202  0.00  0.00     0.274 HD
ATOM     16  H17 ZIN A   1      21.158   2.955  10.884  0.00  0.00     0.274 HD
ENDBRANCH  11  13
ENDBRANCH  10  11
ENDBRANCH   9  10
ENDBRANCH   8   9
TORSDOF 4
ENDMDL
MODEL 9
REMARK VINA RESULT:      -5.1      3.302      4.708
REMARK  4 active torsions:
REMARK  status: ('A' for Active; 'I' for Inactive)
REMARK    1  A    between atoms: C8_8  and  O9_9 
REMARK    2  A    between atoms: O9_9  and  C10_10 
REMARK    3  A    between atoms: C10_10  and  C11_11 
REMARK    4  A    between atoms: C11_11  and  N14_13 
ROOT
ATOM      1  C1  ZIN A   1      16.848  -0.295  11.896  0.00  0.00     0.051 C 
ATOM      2  C2  ZIN A   1      17.642   0.756  11.162  0.00  0.00    -0.028 A 
ATOM      3  C3  ZIN A   1      17.710   0.732   9.782  0.00  0.00     0.009 A 
ATOM      4  C4  ZIN A   1      18.437   1.695   9.108  0.00  0.00     0.001 A 
ATOM      5  C5  ZIN A   1      19.097   2.686   9.812  0.00  0.00     0.009 A 
ATOM      6  C6  ZIN A   1      19.031   2.714  11.192  0.00  0.00    -0.028 A 
ATOM      7  C7  ZIN A   1      19.750   3.794  11.959  0.00  0.00     0.051 C 
ATOM      8  C8  ZIN A   1      18.298   1.752  11.870  0.00  0.00     0.080 A 
ENDROOT
BRANCH   8   9
ATOM      9  O9  ZIN A   1      18.232   1.777  13.228  0.00  0.00    -0.348 OA
BRANCH   9  10
ATOM     10  C10 ZIN A   1      19.262   1.088  13.940  0.00  0.00     0.208 C 
BRANCH  10  11
ATOM     11  C11 ZIN A   1      18.670   0.444  15.195  0.00  0.00     0.203 C 
ATOM     12  C13 ZIN A   1      18.725  -1.080  15.059  0.00  0.00     0.042 C 
BRANCH  11  13
ATOM     13  N14 ZIN A   1      17.274   0.871  15.352  0.00  0.00    -0.073 N 
ATOM     14  H15 ZIN A   1      16.713   0.086  15.650  0.00  0.00     0.274 HD
ATOM     15  H16 ZIN A   1      17.222   1.603  16.045  0.00  0.00     0.274 HD
ATOM     16  H17 ZIN A   1      16.927   1.217  14.470  0.00  0.00     0.274 HD
ENDBRANCH  11  13
ENDBRANCH  10  11
ENDBRANCH   9  10
ENDBRANCH   8   9
TORSDOF 4
ENDMDL
