MODEL 1
REMARK VINA RESULT:      -9.5      0.000      0.000
REMARK  6 active torsions:
REMARK  status: ('A' for Active; 'I' for Inactive)
REMARK    1  A    between atoms: C2_2  and  C4_4 
REMARK    2  A    between atoms: C4_4  and  C5_5 
REMARK    3  A    between atoms: C15_13  and  O16_14 
REMARK    4  A    between atoms: C18_16  and  N19_17 
REMARK    5  A    between atoms: C18_16  and  C43_39 
REMARK       I    between atoms: N19_17  and  C20_18 
REMARK    6  A    between atoms: C20_18  and  C22_20 
ROOT
ATOM      1  N19 ZIN A   1      19.327   2.780  10.325  0.00  0.00    -0.320 N 
ATOM      2  C20 ZIN A   1      18.924   1.722   9.594  0.00  0.00     0.229 C 
ATOM      3  O21 ZIN A   1      17.744   1.453   9.516  0.00  0.00    -0.273 OA
ATOM      4  H65 ZIN A   1      20.259   3.046  10.320  0.00  0.00     0.166 HD
ENDROOT
BRANCH   1   5
ATOM      5  C18 ZIN A   1      18.355   3.527  11.129  0.00  0.00     0.227 C 
ATOM      6  O17 ZIN A   1      19.011   4.596  11.839  0.00  0.00    -0.295 OA
ATOM      7  C15 ZIN A   1      19.360   4.015  13.106  0.00  0.00     0.276 C 
ATOM      8  C13 ZIN A   1      19.323   5.062  14.203  0.00  0.00     0.173 C 
ATOM      9  N48 ZIN A   1      18.400   2.933  13.381  0.00  0.00    -0.277 N 
ATOM     10  N9  ZIN A   1      18.995   4.486  15.513  0.00  0.00    -0.338 N 
ATOM     11  C12 ZIN A   1      20.723   5.681  14.410  0.00  0.00     0.034 C 
ATOM     12  C7  ZIN A   1      18.394   3.316  15.775  0.00  0.00     0.243 C 
ATOM     13  C10 ZIN A   1      19.497   5.441  16.519  0.00  0.00     0.127 C 
ATOM     14  C5  ZIN A   1      18.138   2.312  14.682  0.00  0.00     0.185 C 
ATOM     15  O8  ZIN A   1      18.051   3.062  16.909  0.00  0.00    -0.271 OA
ATOM     16  C11 ZIN A   1      20.642   6.231  15.854  0.00  0.00     0.022 C 
ATOM     17  C46 ZIN A   1      17.771   2.638  12.206  0.00  0.00     0.281 C 
ATOM     18  O47 ZIN A   1      16.899   1.809  12.058  0.00  0.00    -0.268 OA
BRANCH   7  19
ATOM     19  O16 ZIN A   1      20.676   3.468  13.012  0.00  0.00    -0.347 OA
ATOM     20  H64 ZIN A   1      20.992   3.060  13.830  0.00  0.00     0.215 HD
ENDBRANCH   7  19
BRANCH  14  21
ATOM     21  C4  ZIN A   1      19.063   1.108  14.869  0.00  0.00     0.039 C 
BRANCH  21  22
ATOM     22  C2  ZIN A   1      18.238  -0.180  14.830  0.00  0.00    -0.020 C 
ATOM     23  C1  ZIN A   1      19.165  -1.373  14.591  0.00  0.00     0.009 C 
ATOM     24  C3  ZIN A   1      17.511  -0.360  16.164  0.00  0.00     0.009 C 
ENDBRANCH  21  22
ENDBRANCH  14  21
BRANCH   5  25
ATOM     25  C43 ZIN A   1      17.246   4.084  10.237  0.00  0.00     0.043 C 
ATOM     26  C44 ZIN A   1      16.324   4.980  11.067  0.00  0.00     0.015 C 
ATOM     27  C45 ZIN A   1      17.865   4.903   9.101  0.00  0.00     0.015 C 
ENDBRANCH   5  25
ENDBRANCH   1   5
BRANCH   2  28
ATOM     28  C22 ZIN A   1      19.940   0.873   8.874  0.00  0.00     0.127 C 
ATOM     29  C42 ZIN A   1      20.326  -0.326   9.748  0.00  0.00     0.253 C 
ATOM     30  N39 ZIN A   1      19.125  -1.131   9.992  0.00  0.00    -0.065 N 
ATOM     31  C37 ZIN A   1      18.595  -1.711   8.773  0.00  0.00     0.225 C 
ATOM     32  H40 ZIN A   1      18.418  -0.545  10.411  0.00  0.00     0.280 HD
ATOM     33  C41 ZIN A   1      19.460  -2.213  10.928  0.00  0.00     0.270 C 
ATOM     34  C25 ZIN A   1      18.749  -0.833   7.560  0.00  0.00    -0.019 C 
ATOM     35  C36 ZIN A   1      19.127  -3.133   8.564  0.00  0.00     0.080 C 
ATOM     36  C24 ZIN A   1      19.347   0.344   7.593  0.00  0.00    -0.001 C 
ATOM     37  C26 ZIN A   1      18.220  -1.348   6.282  0.00  0.00    -0.015 A 
ATOM     38  C31 ZIN A   1      17.782  -0.679   5.162  0.00  0.00     0.013 A 
ATOM     39  C27 ZIN A   1      18.159  -2.756   6.216  0.00  0.00     0.011 A 
ATOM     40  C30 ZIN A   1      17.316  -1.400   4.065  0.00  0.00     0.003 A 
ATOM     41  C29 ZIN A   1      17.257  -2.788   4.009  0.00  0.00     0.030 A 
ATOM     42  C28 ZIN A   1      17.693  -3.498   5.127  0.00  0.00     0.044 A 
ATOM     43  N32 ZIN A   1      17.809  -4.801   5.504  0.00  0.00    -0.349 N 
ATOM     44  C33 ZIN A   1      18.333  -4.890   6.784  0.00  0.00     0.087 A 
ATOM     45  H70 ZIN A   1      17.561  -5.561   4.953  0.00  0.00     0.166 HD
ATOM     46 Br34 ZIN A   1      18.664  -6.508   7.707  0.00  0.00    -0.031 Br
ATOM     47  C35 ZIN A   1      18.569  -3.676   7.271  0.00  0.00    -0.008 A 
ENDBRANCH   2  28
TORSDOF 6
ENDMDL
MODEL 2
REMARK VINA RESULT:      -9.0      3.644      9.702
REMARK  6 active torsions:
REMARK  status: ('A' for Active; 'I' for Inactive)
REMARK    1  A    between atoms: C2_2  and  C4_4 
REMARK    2  A    between atoms: C4_4  and  C5_5 
REMARK    3  A    between atoms: C15_13  and  O16_14 
REMARK    4  A    between atoms: C18_16  and  N19_17 
REMARK    5  A    between atoms: C18_16  and  C43_39 
REMARK       I    between atoms: N19_17  and  C20_18 
REMARK    6  A    between atoms: C20_18  and  C22_20 
ROOT
ATOM      1  N19 ZIN A   1      17.727  -3.350  10.977  0.00  0.00    -0.320 N 
ATOM      2  C20 ZIN A   1      17.857  -2.010  11.053  0.00  0.00     0.229 C 
ATOM      3  O21 ZIN A   1      18.671  -1.440  10.356  0.00  0.00    -0.273 OA
ATOM      4  H65 ZIN A   1      17.022  -3.797  11.468  0.00  0.00     0.166 HD
ENDROOT
BRANCH   1   5
ATOM      5  C18 ZIN A   1      18.654  -4.130  10.152  0.00  0.00     0.227 C 
ATOM      6  O17 ZIN A   1      19.141  -3.331   9.056  0.00  0.00    -0.295 OA
ATOM      7  C15 ZIN A   1      18.223  -3.605   7.985  0.00  0.00     0.276 C 
ATOM      8  C13 ZIN A   1      18.927  -3.528   6.644  0.00  0.00     0.173 C 
ATOM      9  N48 ZIN A   1      17.663  -4.947   8.208  0.00  0.00    -0.277 N 
ATOM     10  N9  ZIN A   1      18.311  -4.405   5.640  0.00  0.00    -0.338 N 
ATOM     11  C12 ZIN A   1      18.789  -2.114   6.037  0.00  0.00     0.034 C 
ATOM     12  C7  ZIN A   1      17.515  -5.464   5.844  0.00  0.00     0.243 C 
ATOM     13  C10 ZIN A   1      18.710  -3.867   4.326  0.00  0.00     0.127 C 
ATOM     14  C5  ZIN A   1      16.979  -5.781   7.216  0.00  0.00     0.185 C 
ATOM     15  O8  ZIN A   1      17.220  -6.179   4.910  0.00  0.00    -0.271 OA
ATOM     16  C11 ZIN A   1      19.011  -2.369   4.527  0.00  0.00     0.022 C 
ATOM     17  C46 ZIN A   1      17.929  -5.290   9.502  0.00  0.00     0.281 C 
ATOM     18  O47 ZIN A   1      17.634  -6.339  10.033  0.00  0.00    -0.268 OA
BRANCH   7  19
ATOM     19  O16 ZIN A   1      17.171  -2.639   8.027  0.00  0.00    -0.347 OA
ATOM     20  H64 ZIN A   1      16.427  -2.842   7.443  0.00  0.00     0.215 HD
ENDBRANCH   7  19
BRANCH  14  21
ATOM     21  C4  ZIN A   1      15.477  -5.495   7.256  0.00  0.00     0.039 C 
BRANCH  21  22
ATOM     22  C2  ZIN A   1      14.761  -6.635   7.981  0.00  0.00    -0.020 C 
ATOM     23  C1  ZIN A   1      13.277  -6.627   7.605  0.00  0.00     0.009 C 
ATOM     24  C3  ZIN A   1      15.382  -7.971   7.569  0.00  0.00     0.009 C 
ENDBRANCH  21  22
ENDBRANCH  14  21
BRANCH   5  25
ATOM     25  C43 ZIN A   1      19.821  -4.637  11.000  0.00  0.00     0.043 C 
ATOM     26  C44 ZIN A   1      20.801  -5.408  10.112  0.00  0.00     0.015 C 
ATOM     27  C45 ZIN A   1      20.541  -3.450  11.642  0.00  0.00     0.015 C 
ENDBRANCH   5  25
ENDBRANCH   1   5
BRANCH   2  28
ATOM     28  C22 ZIN A   1      16.993  -1.222  12.002  0.00  0.00     0.127 C 
ATOM     29  C42 ZIN A   1      17.558  -1.324  13.424  0.00  0.00     0.253 C 
ATOM     30  N39 ZIN A   1      18.909  -0.753  13.430  0.00  0.00    -0.065 N 
ATOM     31  C37 ZIN A   1      18.908   0.666  13.127  0.00  0.00     0.225 C 
ATOM     32  H40 ZIN A   1      19.470  -1.235  12.743  0.00  0.00     0.280 HD
ATOM     33  C41 ZIN A   1      19.504  -0.957  14.757  0.00  0.00     0.270 C 
ATOM     34  C25 ZIN A   1      17.859   1.078  12.129  0.00  0.00    -0.019 C 
ATOM     35  C36 ZIN A   1      18.886   1.502  14.411  0.00  0.00     0.080 C 
ATOM     36  C24 ZIN A   1      16.992   0.231  11.603  0.00  0.00    -0.001 C 
ATOM     37  C26 ZIN A   1      17.805   2.505  11.757  0.00  0.00    -0.015 A 
ATOM     38  C31 ZIN A   1      17.342   3.113  10.614  0.00  0.00     0.013 A 
ATOM     39  C27 ZIN A   1      18.315   3.372  12.747  0.00  0.00     0.011 A 
ATOM     40  C30 ZIN A   1      17.403   4.500  10.495  0.00  0.00     0.003 A 
ATOM     41  C29 ZIN A   1      17.910   5.347  11.474  0.00  0.00     0.030 A 
ATOM     42  C28 ZIN A   1      18.387   4.764  12.647  0.00  0.00     0.044 A 
ATOM     43  N32 ZIN A   1      18.948   5.180  13.817  0.00  0.00    -0.349 N 
ATOM     44  C33 ZIN A   1      19.221   4.094  14.635  0.00  0.00     0.087 A 
ATOM     45  H70 ZIN A   1      19.131   6.105  14.045  0.00  0.00     0.166 HD
ATOM     46 Br34 ZIN A   1      20.002   4.206  16.354  0.00  0.00    -0.031 Br
ATOM     47  C35 ZIN A   1      18.856   2.964  14.039  0.00  0.00    -0.008 A 
ENDBRANCH   2  28
TORSDOF 6
ENDMDL
MODEL 3
REMARK VINA RESULT:      -8.9      2.302      4.274
REMARK  6 active torsions:
REMARK  status: ('A' for Active; 'I' for Inactive)
REMARK    1  A    between atoms: C2_2  and  C4_4 
REMARK    2  A    between atoms: C4_4  and  C5_5 
REMARK    3  A    between atoms: C15_13  and  O16_14 
REMARK    4  A    between atoms: C18_16  and  N19_17 
REMARK    5  A    between atoms: C18_16  and  C43_39 
REMARK       I    between atoms: N19_17  and  C20_18 
REMARK    6  A    between atoms: C20_18  and  C22_20 
ROOT
ATOM      1  N19 ZIN A   1      18.118   1.650  12.094  0.00  0.00    -0.320 N 
ATOM      2  C20 ZIN A   1      17.923   0.318  12.171  0.00  0.00     0.229 C 
ATOM      3  O21 ZIN A   1      18.580  -0.347  12.944  0.00  0.00    -0.273 OA
ATOM      4  H65 ZIN A   1      17.537   2.194  11.541  0.00  0.00     0.166 HD
ENDROOT
BRANCH   1   5
ATOM      5  C18 ZIN A   1      19.208   2.275  12.848  0.00  0.00     0.227 C 
ATOM      6  O17 ZIN A   1      19.404   1.592  14.102  0.00  0.00    -0.295 OA
ATOM      7  C15 ZIN A   1      18.576   2.312  15.029  0.00  0.00     0.276 C 
ATOM      8  C13 ZIN A   1      19.185   2.293  16.417  0.00  0.00     0.173 C 
ATOM      9  N48 ZIN A   1      18.444   3.692  14.533  0.00  0.00    -0.277 N 
ATOM     10  N9  ZIN A   1      18.826   3.482  17.201  0.00  0.00    -0.338 N 
ATOM     11  C12 ZIN A   1      18.618   1.117  17.244  0.00  0.00     0.034 C 
ATOM     12  C7  ZIN A   1      18.384   4.665  16.753  0.00  0.00     0.243 C 
ATOM     13  C10 ZIN A   1      19.008   3.110  18.617  0.00  0.00     0.127 C 
ATOM     14  C5  ZIN A   1      18.008   4.857  15.307  0.00  0.00     0.185 C 
ATOM     15  O8  ZIN A   1      18.286   5.596  17.522  0.00  0.00    -0.271 OA
ATOM     16  C11 ZIN A   1      18.860   1.578  18.702  0.00  0.00     0.022 C 
ATOM     17  C46 ZIN A   1      18.839   3.693  13.226  0.00  0.00     0.281 C 
ATOM     18  O47 ZIN A   1      18.883   4.664  12.501  0.00  0.00    -0.268 OA
BRANCH   7  19
ATOM     19  O16 ZIN A   1      17.287   1.696  15.065  0.00  0.00    -0.347 OA
ATOM     20  H64 ZIN A   1      16.970   1.399  14.201  0.00  0.00     0.215 HD
ENDBRANCH   7  19
BRANCH  14  21
ATOM     21  C4  ZIN A   1      16.490   5.008  15.190  0.00  0.00     0.039 C 
BRANCH  21  22
ATOM     22  C2  ZIN A   1      16.163   6.274  14.397  0.00  0.00    -0.020 C 
ATOM     23  C1  ZIN A   1      14.948   6.967  15.018  0.00  0.00     0.009 C 
ATOM     24  C3  ZIN A   1      17.364   7.223  14.434  0.00  0.00     0.009 C 
ENDBRANCH  21  22
ENDBRANCH  14  21
BRANCH   5  25
ATOM     25  C43 ZIN A   1      20.498   2.260  12.027  0.00  0.00     0.043 C 
ATOM     26  C44 ZIN A   1      21.137   0.872  12.105  0.00  0.00     0.015 C 
ATOM     27  C45 ZIN A   1      20.178   2.592  10.568  0.00  0.00     0.015 C 
ENDBRANCH   5  25
ENDBRANCH   1   5
BRANCH   2  28
ATOM     28  C22 ZIN A   1      16.890  -0.343  11.296  0.00  0.00     0.127 C 
ATOM     29  C42 ZIN A   1      16.844   0.354   9.930  0.00  0.00     0.253 C 
ATOM     30  N39 ZIN A   1      18.158   0.221   9.295  0.00  0.00    -0.065 N 
ATOM     31  C37 ZIN A   1      18.489  -1.160   8.999  0.00  0.00     0.225 C 
ATOM     32  H40 ZIN A   1      18.860   0.601   9.912  0.00  0.00     0.280 HD
ATOM     33  C41 ZIN A   1      18.160   0.990   8.043  0.00  0.00     0.270 C 
ATOM     34  C25 ZIN A   1      17.979  -2.144  10.018  0.00  0.00    -0.019 C 
ATOM     35  C36 ZIN A   1      18.102  -1.523   7.561  0.00  0.00     0.080 C 
ATOM     36  C24 ZIN A   1      17.263  -1.786  11.069  0.00  0.00    -0.001 C 
ATOM     37  C26 ZIN A   1      18.289  -3.569   9.795  0.00  0.00    -0.015 A 
ATOM     38  C31 ZIN A   1      18.398  -4.610  10.688  0.00  0.00     0.013 A 
ATOM     39  C27 ZIN A   1      18.505  -3.900   8.441  0.00  0.00     0.011 A 
ATOM     40  C30 ZIN A   1      18.709  -5.887  10.226  0.00  0.00     0.003 A 
ATOM     41  C29 ZIN A   1      18.924  -6.205   8.890  0.00  0.00     0.030 A 
ATOM     42  C28 ZIN A   1      18.820  -5.173   7.957  0.00  0.00     0.044 A 
ATOM     43  N32 ZIN A   1      18.945  -5.025   6.609  0.00  0.00    -0.349 N 
ATOM     44  C33 ZIN A   1      18.715  -3.707   6.244  0.00  0.00     0.087 A 
ATOM     45  H70 ZIN A   1      19.164  -5.741   5.991  0.00  0.00     0.166 HD
ATOM     46 Br34 ZIN A   1      18.783  -3.049   4.472  0.00  0.00    -0.031 Br
ATOM     47  C35 ZIN A   1      18.439  -2.973   7.317  0.00  0.00    -0.008 A 
ENDBRANCH   2  28
TORSDOF 6
ENDMDL
MODEL 4
REMARK VINA RESULT:      -8.8      3.246      9.590
REMARK  6 active torsions:
REMARK  status: ('A' for Active; 'I' for Inactive)
REMARK    1  A    between atoms: C2_2  and  C4_4 
REMARK    2  A    between atoms: C4_4  and  C5_5 
REMARK    3  A    between atoms: C15_13  and  O16_14 
REMARK    4  A    between atoms: C18_16  and  N19_17 
REMARK    5  A    between atoms: C18_16  and  C43_39 
REMARK       I    between atoms: N19_17  and  C20_18 
REMARK    6  A    between atoms: C20_18  and  C22_20 
ROOT
ATOM      1  N19 ZIN A   1      18.168  -1.465  10.927  0.00  0.00    -0.320 N 
ATOM      2  C20 ZIN A   1      18.078  -0.124  10.817  0.00  0.00     0.229 C 
ATOM      3  O21 ZIN A   1      18.783   0.468  10.027  0.00  0.00    -0.273 OA
ATOM      4  H65 ZIN A   1      17.549  -1.947  11.495  0.00  0.00     0.166 HD
ENDROOT
BRANCH   1   5
ATOM      5  C18 ZIN A   1      19.205  -2.192  10.188  0.00  0.00     0.227 C 
ATOM      6  O17 ZIN A   1      19.439  -1.568   8.911  0.00  0.00    -0.295 OA
ATOM      7  C15 ZIN A   1      18.553  -2.257   8.014  0.00  0.00     0.276 C 
ATOM      8  C13 ZIN A   1      19.150  -2.328   6.622  0.00  0.00     0.173 C 
ATOM      9  N48 ZIN A   1      18.326  -3.606   8.558  0.00  0.00    -0.277 N 
ATOM     10  N9  ZIN A   1      18.699  -3.514   5.882  0.00  0.00    -0.338 N 
ATOM     11  C12 ZIN A   1      18.661  -1.144   5.759  0.00  0.00     0.034 C 
ATOM     12  C7  ZIN A   1      18.178  -4.647   6.373  0.00  0.00     0.243 C 
ATOM     13  C10 ZIN A   1      18.896  -3.205   4.453  0.00  0.00     0.127 C 
ATOM     14  C5  ZIN A   1      17.801  -4.762   7.827  0.00  0.00     0.185 C 
ATOM     15  O8  ZIN A   1      18.006  -5.594   5.637  0.00  0.00    -0.271 OA
ATOM     16  C11 ZIN A   1      18.857  -1.670   4.317  0.00  0.00     0.022 C 
ATOM     17  C46 ZIN A   1      18.731  -3.592   9.861  0.00  0.00     0.281 C 
ATOM     18  O47 ZIN A   1      18.712  -4.539  10.620  0.00  0.00    -0.268 OA
BRANCH   7  19
ATOM     19  O16 ZIN A   1      17.312  -1.552   7.965  0.00  0.00    -0.347 OA
ATOM     20  H64 ZIN A   1      17.054  -1.270   7.076  0.00  0.00     0.215 HD
ENDBRANCH   7  19
BRANCH  14  21
ATOM     21  C4  ZIN A   1      16.278  -4.799   7.958  0.00  0.00     0.039 C 
BRANCH  21  22
ATOM     22  C2  ZIN A   1      15.861  -6.070   8.702  0.00  0.00    -0.020 C 
ATOM     23  C1  ZIN A   1      14.679  -6.720   7.980  0.00  0.00     0.009 C 
ATOM     24  C3  ZIN A   1      17.037  -7.048   8.737  0.00  0.00     0.009 C 
ENDBRANCH  21  22
ENDBRANCH  14  21
BRANCH   5  25
ATOM     25  C43 ZIN A   1      20.499  -2.242  11.001  0.00  0.00     0.043 C 
ATOM     26  C44 ZIN A   1      21.168  -0.866  10.982  0.00  0.00     0.015 C 
ATOM     27  C45 ZIN A   1      20.181  -2.634  12.445  0.00  0.00     0.015 C 
ENDBRANCH   5  25
ENDBRANCH   1   5
BRANCH   2  28
ATOM     28  C22 ZIN A   1      17.103   0.637  11.676  0.00  0.00     0.127 C 
ATOM     29  C42 ZIN A   1      16.876  -0.113  12.994  0.00  0.00     0.253 C 
ATOM     30  N39 ZIN A   1      18.156  -0.208  13.702  0.00  0.00    -0.065 N 
ATOM     31  C37 ZIN A   1      18.665   1.093  14.095  0.00  0.00     0.225 C 
ATOM     32  H40 ZIN A   1      18.831  -0.656  13.100  0.00  0.00     0.280 HD
ATOM     33  C41 ZIN A   1      17.973  -1.031  14.906  0.00  0.00     0.270 C 
ATOM     34  C25 ZIN A   1      18.364   2.190  13.110  0.00  0.00    -0.019 C 
ATOM     35  C36 ZIN A   1      18.252   1.435  15.530  0.00  0.00     0.080 C 
ATOM     36  C24 ZIN A   1      17.666   1.996  12.005  0.00  0.00    -0.001 C 
ATOM     37  C26 ZIN A   1      18.863   3.541  13.431  0.00  0.00    -0.015 A 
ATOM     38  C31 ZIN A   1      19.174   4.598  12.607  0.00  0.00     0.013 A 
ATOM     39  C27 ZIN A   1      19.045   3.768  14.812  0.00  0.00     0.011 A 
ATOM     40  C30 ZIN A   1      19.639   5.790  13.158  0.00  0.00     0.003 A 
ATOM     41  C29 ZIN A   1      19.819   6.005  14.520  0.00  0.00     0.030 A 
ATOM     42  C28 ZIN A   1      19.512   4.955  15.384  0.00  0.00     0.044 A 
ATOM     43  N32 ZIN A   1      19.535   4.722  16.726  0.00  0.00    -0.349 N 
ATOM     44  C33 ZIN A   1      19.096   3.436  17.001  0.00  0.00     0.087 A 
ATOM     45  H70 ZIN A   1      19.819   5.365  17.395  0.00  0.00     0.166 HD
ATOM     46 Br34 ZIN A   1      18.964   2.686  18.734  0.00  0.00    -0.031 Br
ATOM     47  C35 ZIN A   1      18.780   2.805  15.875  0.00  0.00    -0.008 A 
ENDBRANCH   2  28
TORSDOF 6
ENDMDL
MODEL 5
REMARK VINA RESULT:      -8.8      1.950      4.161
REMARK  6 active torsions:
REMARK  status: ('A' for Active; 'I' for Inactive)
REMARK    1  A    between atoms: C2_2  and  C4_4 
REMARK    2  A    between atoms: C4_4  and  C5_5 
REMARK    3  A    between atoms: C15_13  and  O16_14 
REMARK    4  A    between atoms: C18_16  and  N19_17 
REMARK    5  A    between atoms: C18_16  and  C43_39 
REMARK       I    between atoms: N19_17  and  C20_18 
REMARK    6  A    between atoms: C20_18  and  C22_20 
ROOT
ATOM      1  N19 ZIN A   1      19.362   0.147  14.263  0.00  0.00    -0.320 N 
ATOM      2  C20 ZIN A   1      19.033  -0.159  12.993  0.00  0.00     0.229 C 
ATOM      3  O21 ZIN A   1      17.953   0.172  12.550  0.00  0.00    -0.273 OA
ATOM      4  H65 ZIN A   1      20.254  -0.041  14.592  0.00  0.00     0.166 HD
ENDROOT
BRANCH   1   5
ATOM      5  C18 ZIN A   1      18.371   0.765  15.149  0.00  0.00     0.227 C 
ATOM      6  O17 ZIN A   1      17.532   1.670  14.405  0.00  0.00    -0.295 OA
ATOM      7  C15 ZIN A   1      18.188   2.942  14.531  0.00  0.00     0.276 C 
ATOM      8  C13 ZIN A   1      17.174   4.070  14.528  0.00  0.00     0.173 C 
ATOM      9  N48 ZIN A   1      18.954   2.928  15.788  0.00  0.00    -0.277 N 
ATOM     10  N9  ZIN A   1      17.634   5.235  15.294  0.00  0.00    -0.338 N 
ATOM     11  C12 ZIN A   1      16.977   4.620  13.098  0.00  0.00     0.034 C 
ATOM     12  C7  ZIN A   1      18.585   5.282  16.237  0.00  0.00     0.243 C 
ATOM     13  C10 ZIN A   1      16.861   6.387  14.793  0.00  0.00     0.127 C 
ATOM     14  C5  ZIN A   1      19.476   4.096  16.502  0.00  0.00     0.185 C 
ATOM     15  O8  ZIN A   1      18.732   6.293  16.888  0.00  0.00    -0.271 OA
ATOM     16  C11 ZIN A   1      16.427   6.044  13.354  0.00  0.00     0.022 C 
ATOM     17  C46 ZIN A   1      19.058   1.627  16.186  0.00  0.00     0.281 C 
ATOM     18  O47 ZIN A   1      19.606   1.236  17.195  0.00  0.00    -0.268 OA
BRANCH   7  19
ATOM     19  O16 ZIN A   1      19.086   3.105  13.431  0.00  0.00    -0.347 OA
ATOM     20  H64 ZIN A   1      18.826   2.618  12.637  0.00  0.00     0.215 HD
ENDBRANCH   7  19
BRANCH  14  21
ATOM     21  C4  ZIN A   1      20.892   4.403  16.014  0.00  0.00     0.039 C 
BRANCH  21  22
ATOM     22  C2  ZIN A   1      20.918   5.786  15.361  0.00  0.00    -0.020 C 
ATOM     23  C1  ZIN A   1      22.345   6.338  15.391  0.00  0.00     0.009 C 
ATOM     24  C3  ZIN A   1      20.446   5.674  13.910  0.00  0.00     0.009 C 
ENDBRANCH  21  22
ENDBRANCH  14  21
BRANCH   5  25
ATOM     25  C43 ZIN A   1      17.522  -0.312  15.826  0.00  0.00     0.043 C 
ATOM     26  C44 ZIN A   1      18.409  -1.500  16.203  0.00  0.00     0.015 C 
ATOM     27  C45 ZIN A   1      16.878   0.265  17.089  0.00  0.00     0.015 C 
ENDBRANCH   5  25
ENDBRANCH   1   5
BRANCH   2  28
ATOM     28  C22 ZIN A   1      20.005  -0.913  12.124  0.00  0.00     0.127 C 
ATOM     29  C42 ZIN A   1      19.689  -2.413  12.173  0.00  0.00     0.253 C 
ATOM     30  N39 ZIN A   1      18.333  -2.620  11.656  0.00  0.00    -0.065 N 
ATOM     31  C37 ZIN A   1      18.217  -2.259  10.255  0.00  0.00     0.225 C 
ATOM     32  H40 ZIN A   1      17.689  -2.060  12.194  0.00  0.00     0.280 HD
ATOM     33  C41 ZIN A   1      17.977  -4.037  11.813  0.00  0.00     0.270 C 
ATOM     34  C25 ZIN A   1      19.065  -1.082   9.855  0.00  0.00    -0.019 C 
ATOM     35  C36 ZIN A   1      18.413  -3.482   9.353  0.00  0.00     0.080 C 
ATOM     36  C24 ZIN A   1      19.872  -0.456  10.694  0.00  0.00    -0.001 C 
ATOM     37  C26 ZIN A   1      18.990  -0.642   8.449  0.00  0.00    -0.015 A 
ATOM     38  C31 ZIN A   1      19.227   0.589   7.883  0.00  0.00     0.013 A 
ATOM     39  C27 ZIN A   1      18.611  -1.664   7.552  0.00  0.00     0.011 A 
ATOM     40  C30 ZIN A   1      19.083   0.757   6.508  0.00  0.00     0.003 A 
ATOM     41  C29 ZIN A   1      18.706  -0.254   5.631  0.00  0.00     0.030 A 
ATOM     42  C28 ZIN A   1      18.458  -1.516   6.171  0.00  0.00     0.044 A 
ATOM     43  N32 ZIN A   1      18.080  -2.743   5.717  0.00  0.00    -0.349 N 
ATOM     44  C33 ZIN A   1      17.998  -3.643   6.768  0.00  0.00     0.087 A 
ATOM     45  H70 ZIN A   1      17.895  -2.957   4.789  0.00  0.00     0.166 HD
ATOM     46 Br34 ZIN A   1      17.509  -5.463   6.597  0.00  0.00    -0.031 Br
ATOM     47  C35 ZIN A   1      18.312  -3.045   7.913  0.00  0.00    -0.008 A 
ENDBRANCH   2  28
TORSDOF 6
ENDMDL
MODEL 6
REMARK VINA RESULT:      -8.0      3.458      9.548
REMARK  6 active torsions:
REMARK  status: ('A' for Active; 'I' for Inactive)
REMARK    1  A    between atoms: C2_2  and  C4_4 
REMARK    2  A    between atoms: C4_4  and  C5_5 
REMARK    3  A    between atoms: C15_13  and  O16_14 
REMARK    4  A    between atoms: C18_16  and  N19_17 
REMARK    5  A    between atoms: C18_16  and  C43_39 
REMARK       I    between atoms: N19_17  and  C20_18 
REMARK    6  A    between atoms: C20_18  and  C22_20 
ROOT
ATOM      1  N19 ZIN A   1      19.530  -0.120   9.350  0.00  0.00    -0.320 N 
ATOM      2  C20 ZIN A   1      19.230   0.080  10.649  0.00  0.00     0.229 C 
ATOM      3  O21 ZIN A   1      18.156  -0.279  11.085  0.00  0.00    -0.273 OA
ATOM      4  H65 ZIN A   1      20.417   0.089   9.019  0.00  0.00     0.166 HD
ENDROOT
BRANCH   1   5
ATOM      5  C18 ZIN A   1      18.515  -0.653   8.437  0.00  0.00     0.227 C 
ATOM      6  O17 ZIN A   1      17.681  -1.609   9.120  0.00  0.00    -0.295 OA
ATOM      7  C15 ZIN A   1      18.321  -2.873   8.876  0.00  0.00     0.276 C 
ATOM      8  C13 ZIN A   1      17.296  -3.987   8.807  0.00  0.00     0.173 C 
ATOM      9  N48 ZIN A   1      19.063  -2.761   7.609  0.00  0.00    -0.277 N 
ATOM     10  N9  ZIN A   1      17.728  -5.089   7.937  0.00  0.00    -0.338 N 
ATOM     11  C12 ZIN A   1      17.120  -4.652  10.190  0.00  0.00     0.034 C 
ATOM     12  C7  ZIN A   1      18.660  -5.066   6.974  0.00  0.00     0.243 C 
ATOM     13  C10 ZIN A   1      16.952  -6.272   8.357  0.00  0.00     0.127 C 
ATOM     14  C5  ZIN A   1      19.557  -3.870   6.790  0.00  0.00     0.185 C 
ATOM     15  O8  ZIN A   1      18.783  -6.022   6.239  0.00  0.00    -0.271 OA
ATOM     16  C11 ZIN A   1      16.551  -6.045   9.829  0.00  0.00     0.022 C 
ATOM     17  C46 ZIN A   1      19.172  -1.432   7.318  0.00  0.00     0.281 C 
ATOM     18  O47 ZIN A   1      19.705  -0.964   6.334  0.00  0.00    -0.268 OA
BRANCH   7  19
ATOM     19  O16 ZIN A   1      19.238  -3.134   9.940  0.00  0.00    -0.347 OA
ATOM     20  H64 ZIN A   1      18.911  -2.876  10.813  0.00  0.00     0.215 HD
ENDBRANCH   7  19
BRANCH  14  21
ATOM     21  C4  ZIN A   1      20.980  -4.229   7.223  0.00  0.00     0.039 C 
BRANCH  21  22
ATOM     22  C2  ZIN A   1      20.997  -5.649   7.793  0.00  0.00    -0.020 C 
ATOM     23  C1  ZIN A   1      22.421  -6.206   7.734  0.00  0.00     0.009 C 
ATOM     24  C3  ZIN A   1      20.521  -5.620   9.247  0.00  0.00     0.009 C 
ENDBRANCH  21  22
ENDBRANCH  14  21
BRANCH   5  25
ATOM     25  C43 ZIN A   1      17.664   0.483   7.868  0.00  0.00     0.043 C 
ATOM     26  C44 ZIN A   1      18.565   1.668   7.514  0.00  0.00     0.015 C 
ATOM     27  C45 ZIN A   1      16.940  -0.000   6.610  0.00  0.00     0.015 C 
ENDBRANCH   5  25
ENDBRANCH   1   5
BRANCH   2  28
ATOM     28  C22 ZIN A   1      20.227   0.751  11.557  0.00  0.00     0.127 C 
ATOM     29  C42 ZIN A   1      20.047   2.273  11.491  0.00  0.00     0.253 C 
ATOM     30  N39 ZIN A   1      18.693   2.601  11.949  0.00  0.00    -0.065 N 
ATOM     31  C37 ZIN A   1      18.486   2.260  13.344  0.00  0.00     0.225 C 
ATOM     32  H40 ZIN A   1      18.026   2.097  11.385  0.00  0.00     0.280 HD
ATOM     33  C41 ZIN A   1      18.470   4.043  11.774  0.00  0.00     0.270 C 
ATOM     34  C25 ZIN A   1      19.209   1.015  13.783  0.00  0.00    -0.019 C 
ATOM     35  C36 ZIN A   1      18.751   3.466  14.251  0.00  0.00     0.080 C 
ATOM     36  C24 ZIN A   1      19.993   0.315  12.981  0.00  0.00    -0.001 C 
ATOM     37  C26 ZIN A   1      19.036   0.592  15.186  0.00  0.00    -0.015 A 
ATOM     38  C31 ZIN A   1      19.140  -0.652  15.763  0.00  0.00     0.013 A 
ATOM     39  C27 ZIN A   1      18.711   1.648  16.063  0.00  0.00     0.011 A 
ATOM     40  C30 ZIN A   1      18.922  -0.800  17.131  0.00  0.00     0.003 A 
ATOM     41  C29 ZIN A   1      18.599   0.246  17.989  0.00  0.00     0.030 A 
ATOM     42  C28 ZIN A   1      18.486   1.521  17.437  0.00  0.00     0.044 A 
ATOM     43  N32 ZIN A   1      18.199   2.780  17.872  0.00  0.00    -0.349 N 
ATOM     44  C33 ZIN A   1      18.242   3.678  16.816  0.00  0.00     0.087 A 
ATOM     45  H70 ZIN A   1      17.994   3.015  18.791  0.00  0.00     0.166 HD
ATOM     46 Br34 ZIN A   1      17.908   5.534  16.962  0.00  0.00    -0.031 Br
ATOM     47  C35 ZIN A   1      18.550   3.048  15.687  0.00  0.00    -0.008 A 
ENDBRANCH   2  28
TORSDOF 6
ENDMDL
MODEL 7
REMARK VINA RESULT:      -7.7      3.480      9.722
REMARK  6 active torsions:
REMARK  status: ('A' for Active; 'I' for Inactive)
REMARK    1  A    between atoms: C2_2  and  C4_4 
REMARK    2  A    between atoms: C4_4  and  C5_5 
REMARK    3  A    between atoms: C15_13  and  O16_14 
REMARK    4  A    between atoms: C18_16  and  N19_17 
REMARK    5  A    between atoms: C18_16  and  C43_39 
REMARK       I    between atoms: N19_17  and  C20_18 
REMARK    6  A    between atoms: C20_18  and  C22_20 
ROOT
ATOM      1  N19 ZIN A   1      19.431  -2.219  11.737  0.00  0.00    -0.320 N 
ATOM      2  C20 ZIN A   1      19.106  -1.656  12.918  0.00  0.00     0.229 C 
ATOM      3  O21 ZIN A   1      17.965  -1.722  13.327  0.00  0.00    -0.273 OA
ATOM      4  H65 ZIN A   1      20.356  -2.241  11.449  0.00  0.00     0.166 HD
ENDROOT
BRANCH   1   5
ATOM      5  C18 ZIN A   1      18.385  -2.795  10.888  0.00  0.00     0.227 C 
ATOM      6  O17 ZIN A   1      18.953  -3.287   9.659  0.00  0.00    -0.295 OA
ATOM      7  C15 ZIN A   1      18.844  -2.179   8.751  0.00  0.00     0.276 C 
ATOM      8  C13 ZIN A   1      18.644  -2.669   7.331  0.00  0.00     0.173 C 
ATOM      9  N48 ZIN A   1      17.706  -1.354   9.188  0.00  0.00    -0.277 N 
ATOM     10  N9  ZIN A   1      17.880  -1.716   6.514  0.00  0.00    -0.338 N 
ATOM     11  C12 ZIN A   1      19.999  -2.783   6.598  0.00  0.00     0.034 C 
ATOM     12  C7  ZIN A   1      17.074  -0.730   6.932  0.00  0.00     0.243 C 
ATOM     13  C10 ZIN A   1      18.204  -2.028   5.109  0.00  0.00     0.127 C 
ATOM     14  C5  ZIN A   1      17.002  -0.349   8.387  0.00  0.00     0.185 C 
ATOM     15  O8  ZIN A   1      16.391  -0.135   6.126  0.00  0.00    -0.271 OA
ATOM     16  C11 ZIN A   1      19.589  -2.706   5.108  0.00  0.00     0.022 C 
ATOM     17  C46 ZIN A   1      17.401  -1.725  10.466  0.00  0.00     0.281 C 
ATOM     18  O47 ZIN A   1      16.501  -1.271  11.140  0.00  0.00    -0.268 OA
BRANCH   7  19
ATOM     19  O16 ZIN A   1      20.044  -1.407   8.825  0.00  0.00    -0.347 OA
ATOM     20  H64 ZIN A   1      20.591  -1.604   9.598  0.00  0.00     0.215 HD
ENDBRANCH   7  19
BRANCH  14  21
ATOM     21  C4  ZIN A   1      17.660   1.017   8.590  0.00  0.00     0.039 C 
BRANCH  21  22
ATOM     22  C2  ZIN A   1      19.044   1.018   7.940  0.00  0.00    -0.020 C 
ATOM     23  C1  ZIN A   1      18.975   1.740   6.592  0.00  0.00     0.009 C 
ATOM     24  C3  ZIN A   1      20.037   1.740   8.853  0.00  0.00     0.009 C 
ENDBRANCH  21  22
ENDBRANCH  14  21
BRANCH   5  25
ATOM     25  C43 ZIN A   1      17.662  -3.922  11.628  0.00  0.00     0.043 C 
ATOM     26  C44 ZIN A   1      16.627  -4.561  10.700  0.00  0.00     0.015 C 
ATOM     27  C45 ZIN A   1      18.677  -4.980  12.065  0.00  0.00     0.015 C 
ENDBRANCH   5  25
ENDBRANCH   1   5
BRANCH   2  28
ATOM     28  C22 ZIN A   1      20.158  -0.946  13.729  0.00  0.00     0.127 C 
ATOM     29  C42 ZIN A   1      20.521   0.384  13.056  0.00  0.00     0.253 C 
ATOM     30  N39 ZIN A   1      19.320   1.222  13.003  0.00  0.00    -0.065 N 
ATOM     31  C37 ZIN A   1      18.845   1.588  14.324  0.00  0.00     0.225 C 
ATOM     32  H40 ZIN A   1      18.591   0.718  12.520  0.00  0.00     0.280 HD
ATOM     33  C41 ZIN A   1      19.628   2.446  12.251  0.00  0.00     0.270 C 
ATOM     34  C25 ZIN A   1      19.038   0.516  15.363  0.00  0.00    -0.019 C 
ATOM     35  C36 ZIN A   1      19.399   2.952  14.750  0.00  0.00     0.080 C 
ATOM     36  C24 ZIN A   1      19.622  -0.641  15.105  0.00  0.00    -0.001 C 
ATOM     37  C26 ZIN A   1      18.566   0.807  16.730  0.00  0.00    -0.015 A 
ATOM     38  C31 ZIN A   1      18.167  -0.041  17.737  0.00  0.00     0.013 A 
ATOM     39  C27 ZIN A   1      18.523   2.183  17.037  0.00  0.00     0.011 A 
ATOM     40  C30 ZIN A   1      17.752   0.484  18.959  0.00  0.00     0.003 A 
ATOM     41  C29 ZIN A   1      17.709   1.842  19.253  0.00  0.00     0.030 A 
ATOM     42  C28 ZIN A   1      18.108   2.730  18.254  0.00  0.00     0.044 A 
ATOM     43  N32 ZIN A   1      18.222   4.079  18.100  0.00  0.00    -0.349 N 
ATOM     44  C33 ZIN A   1      18.695   4.383  16.833  0.00  0.00     0.087 A 
ATOM     45  H70 ZIN A   1      18.004   4.735  18.781  0.00  0.00     0.166 HD
ATOM     46 Br34 ZIN A   1      19.006   6.133  16.185  0.00  0.00    -0.031 Br
ATOM     47  C35 ZIN A   1      18.899   3.268  16.138  0.00  0.00    -0.008 A 
ENDBRANCH   2  28
TORSDOF 6
ENDMDL
MODEL 8
REMARK VINA RESULT:      -7.4      3.195      9.228
REMARK  6 active torsions:
REMARK  status: ('A' for Active; 'I' for Inactive)
REMARK    1  A    between atoms: C2_2  and  C4_4 
REMARK    2  A    between atoms: C4_4  and  C5_5 
REMARK    3  A    between atoms: C15_13  and  O16_14 
REMARK    4  A    between atoms: C18_16  and  N19_17 
REMARK    5  A    between atoms: C18_16  and  C43_39 
REMARK       I    between atoms: N19_17  and  C20_18 
REMARK    6  A    between atoms: C20_18  and  C22_20 
ROOT
ATOM      1  N19 ZIN A   1      17.487  -0.515   9.047  0.00  0.00    -0.320 N 
ATOM      2  C20 ZIN A   1      17.941   0.340   9.985  0.00  0.00     0.229 C 
ATOM      3  O21 ZIN A   1      19.107   0.676   9.985  0.00  0.00    -0.273 OA
ATOM      4  H65 ZIN A   1      16.541  -0.718   8.993  0.00  0.00     0.166 HD
ENDROOT
BRANCH   1   5
ATOM      5  C18 ZIN A   1      18.425  -1.138   8.108  0.00  0.00     0.227 C 
ATOM      6  O17 ZIN A   1      17.753  -2.143   7.324  0.00  0.00    -0.295 OA
ATOM      7  C15 ZIN A   1      17.948  -3.358   8.065  0.00  0.00     0.276 C 
ATOM      8  C13 ZIN A   1      18.032  -4.548   7.129  0.00  0.00     0.173 C 
ATOM      9  N48 ZIN A   1      19.190  -3.213   8.842  0.00  0.00    -0.277 N 
ATOM     10  N9  ZIN A   1      18.863  -5.630   7.674  0.00  0.00    -0.338 N 
ATOM     11  C12 ZIN A   1      16.642  -5.200   6.952  0.00  0.00     0.034 C 
ATOM     12  C7  ZIN A   1      19.792  -5.553   8.637  0.00  0.00     0.243 C 
ATOM     13  C10 ZIN A   1      18.447  -6.859   6.974  0.00  0.00     0.127 C 
ATOM     14  C5  ZIN A   1      19.968  -4.296   9.449  0.00  0.00     0.185 C 
ATOM     15  O8  ZIN A   1      20.503  -6.509   8.858  0.00  0.00    -0.271 OA
ATOM     16  C11 ZIN A   1      16.996  -6.638   6.502  0.00  0.00     0.022 C 
ATOM     17  C46 ZIN A   1      19.504  -1.885   8.863  0.00  0.00     0.281 C 
ATOM     18  O47 ZIN A   1      20.478  -1.396   9.396  0.00  0.00    -0.268 OA
BRANCH   7  19
ATOM     19  O16 ZIN A   1      16.847  -3.531   8.959  0.00  0.00    -0.347 OA
ATOM     20  H64 ZIN A   1      16.034  -3.830   8.529  0.00  0.00     0.215 HD
ENDBRANCH   7  19
BRANCH  14  21
ATOM     21  C4  ZIN A   1      19.478  -4.539  10.877  0.00  0.00     0.039 C 
BRANCH  21  22
ATOM     22  C2  ZIN A   1      17.953  -4.666  10.878  0.00  0.00    -0.020 C 
ATOM     23  C1  ZIN A   1      17.563  -6.135  11.056  0.00  0.00     0.009 C 
ATOM     24  C3  ZIN A   1      17.374  -3.843  12.031  0.00  0.00     0.009 C 
ENDBRANCH  21  22
ENDBRANCH  14  21
BRANCH   5  25
ATOM     25  C43 ZIN A   1      19.046  -0.079   7.197  0.00  0.00     0.043 C 
ATOM     26  C44 ZIN A   1      19.625  -0.754   5.951  0.00  0.00     0.015 C 
ATOM     27  C45 ZIN A   1      17.973   0.928   6.779  0.00  0.00     0.015 C 
ENDBRANCH   5  25
ENDBRANCH   1   5
BRANCH   2  28
ATOM     28  C22 ZIN A   1      17.002   0.878  11.032  0.00  0.00     0.127 C 
ATOM     29  C42 ZIN A   1      16.882  -0.126  12.185  0.00  0.00     0.253 C 
ATOM     30  N39 ZIN A   1      18.207  -0.306  12.786  0.00  0.00    -0.065 N 
ATOM     31  C37 ZIN A   1      18.702   0.912  13.399  0.00  0.00     0.225 C 
ATOM     32  H40 ZIN A   1      18.854  -0.599  12.069  0.00  0.00     0.280 HD
ATOM     33  C41 ZIN A   1      18.125  -1.356  13.810  0.00  0.00     0.270 C 
ATOM     34  C25 ZIN A   1      18.307   2.168  12.672  0.00  0.00    -0.019 C 
ATOM     35  C36 ZIN A   1      18.372   0.948  14.896  0.00  0.00     0.080 C 
ATOM     36  C24 ZIN A   1      17.546   2.167  11.592  0.00  0.00    -0.001 C 
ATOM     37  C26 ZIN A   1      18.787   3.449  13.226  0.00  0.00    -0.015 A 
ATOM     38  C31 ZIN A   1      19.015   4.659  12.612  0.00  0.00     0.013 A 
ATOM     39  C27 ZIN A   1      19.051   3.407  14.611  0.00  0.00     0.011 A 
ATOM     40  C30 ZIN A   1      19.480   5.737  13.361  0.00  0.00     0.003 A 
ATOM     41  C29 ZIN A   1      19.740   5.687  14.726  0.00  0.00     0.030 A 
ATOM     42  C28 ZIN A   1      19.519   4.476  15.380  0.00  0.00     0.044 A 
ATOM     43  N32 ZIN A   1      19.635   3.985  16.646  0.00  0.00    -0.349 N 
ATOM     44  C33 ZIN A   1      19.251   2.653  16.685  0.00  0.00     0.087 A 
ATOM     45  H70 ZIN A   1      19.942   4.495  17.412  0.00  0.00     0.166 HD
ATOM     46 Br34 ZIN A   1      19.252   1.573  18.238  0.00  0.00    -0.031 Br
ATOM     47  C35 ZIN A   1      18.882   2.244  15.475  0.00  0.00    -0.008 A 
ENDBRANCH   2  28
TORSDOF 6
ENDMDL
MODEL 9
REMARK VINA RESULT:      -7.4      2.901      9.265
REMARK  6 active torsions:
REMARK  status: ('A' for Active; 'I' for Inactive)
REMARK    1  A    between atoms: C2_2  and  C4_4 
REMARK    2  A    between atoms: C4_4  and  C5_5 
REMARK    3  A    between atoms: C15_13  and  O16_14 
REMARK    4  A    between atoms: C18_16  and  N19_17 
REMARK    5  A    between atoms: C18_16  and  C43_39 
REMARK       I    between atoms: N19_17  and  C20_18 
REMARK    6  A    between atoms: C20_18  and  C22_20 
ROOT
ATOM      1  N19 ZIN A   1      17.722   0.838   9.162  0.00  0.00    -0.320 N 
ATOM      2  C20 ZIN A   1      18.100   1.055  10.437  0.00  0.00     0.229 C 
ATOM      3  O21 ZIN A   1      19.278   1.152  10.711  0.00  0.00    -0.273 OA
ATOM      4  H65 ZIN A   1      16.781   0.845   8.927  0.00  0.00     0.166 HD
ENDROOT
BRANCH   1   5
ATOM      5  C18 ZIN A   1      18.732   0.592   8.129  0.00  0.00     0.227 C 
ATOM      6  O17 ZIN A   1      18.099   0.256   6.880  0.00  0.00    -0.295 OA
ATOM      7  C15 ZIN A   1      18.014  -1.178   6.901  0.00  0.00     0.276 C 
ATOM      8  C13 ZIN A   1      18.124  -1.741   5.497  0.00  0.00     0.173 C 
ATOM      9  N48 ZIN A   1      19.105  -1.677   7.754  0.00  0.00    -0.277 N 
ATOM     10  N9  ZIN A   1      18.712  -3.088   5.481  0.00  0.00    -0.338 N 
ATOM     11  C12 ZIN A   1      16.722  -1.940   4.880  0.00  0.00     0.034 C 
ATOM     12  C7  ZIN A   1      19.456  -3.676   6.428  0.00  0.00     0.243 C 
ATOM     13  C10 ZIN A   1      18.286  -3.705   4.211  0.00  0.00     0.127 C 
ATOM     14  C5  ZIN A   1      19.629  -3.045   7.784  0.00  0.00     0.185 C 
ATOM     15  O8  ZIN A   1      19.999  -4.733   6.189  0.00  0.00    -0.271 OA
ATOM     16  C11 ZIN A   1      16.979  -3.006   3.787  0.00  0.00     0.022 C 
ATOM     17  C46 ZIN A   1      19.564  -0.622   8.487  0.00  0.00     0.281 C 
ATOM     18  O47 ZIN A   1      20.477  -0.656   9.285  0.00  0.00    -0.268 OA
BRANCH   7  19
ATOM     19  O16 ZIN A   1      16.759  -1.554   7.469  0.00  0.00    -0.347 OA
ATOM     20  H64 ZIN A   1      16.320  -0.844   7.958  0.00  0.00     0.215 HD
ENDBRANCH   7  19
BRANCH  14  21
ATOM     21  C4  ZIN A   1      18.866  -3.862   8.828  0.00  0.00     0.039 C 
BRANCH  21  22
ATOM     22  C2  ZIN A   1      19.858  -4.669   9.668  0.00  0.00    -0.020 C 
ATOM     23  C1  ZIN A   1      19.477  -4.567  11.147  0.00  0.00     0.009 C 
ATOM     24  C3  ZIN A   1      19.821  -6.135   9.233  0.00  0.00     0.009 C 
ENDBRANCH  21  22
ENDBRANCH  14  21
BRANCH   5  25
ATOM     25  C43 ZIN A   1      19.627   1.820   7.959  0.00  0.00     0.043 C 
ATOM     26  C44 ZIN A   1      20.005   1.976   6.484  0.00  0.00     0.015 C 
ATOM     27  C45 ZIN A   1      18.875   3.069   8.426  0.00  0.00     0.015 C 
ENDBRANCH   5  25
ENDBRANCH   1   5
BRANCH   2  28
ATOM     28  C22 ZIN A   1      17.061   1.175  11.521  0.00  0.00     0.127 C 
ATOM     29  C42 ZIN A   1      16.988  -0.134  12.316  0.00  0.00     0.253 C 
ATOM     30  N39 ZIN A   1      18.293  -0.376  12.937  0.00  0.00    -0.065 N 
ATOM     31  C37 ZIN A   1      18.633   0.639  13.917  0.00  0.00     0.225 C 
ATOM     32  H40 ZIN A   1      19.001  -0.387  12.218  0.00  0.00     0.280 HD
ATOM     33  C41 ZIN A   1      18.268  -1.688  13.599  0.00  0.00     0.270 C 
ATOM     34  C25 ZIN A   1      18.148   2.019  13.562  0.00  0.00    -0.019 C 
ATOM     35  C36 ZIN A   1      18.228   0.198  15.328  0.00  0.00     0.080 C 
ATOM     36  C24 ZIN A   1      17.444   2.278  12.474  0.00  0.00    -0.001 C 
ATOM     37  C26 ZIN A   1      18.468   3.110  14.502  0.00  0.00    -0.015 A 
ATOM     38  C31 ZIN A   1      18.602   4.462  14.290  0.00  0.00     0.013 A 
ATOM     39  C27 ZIN A   1      18.667   2.678  15.830  0.00  0.00     0.011 A 
ATOM     40  C30 ZIN A   1      18.918   5.302  15.355  0.00  0.00     0.003 A 
ATOM     41  C29 ZIN A   1      19.116   4.867  16.661  0.00  0.00     0.030 A 
ATOM     42  C28 ZIN A   1      18.987   3.502  16.913  0.00  0.00     0.044 A 
ATOM     43  N32 ZIN A   1      19.090   2.666  17.983  0.00  0.00    -0.349 N 
ATOM     44  C33 ZIN A   1      18.842   1.357  17.600  0.00  0.00     0.087 A 
ATOM     45  H70 ZIN A   1      19.307   2.947  18.887  0.00  0.00     0.166 HD
ATOM     46 Br34 ZIN A   1      18.877  -0.135  18.764  0.00  0.00    -0.031 Br
ATOM     47  C35 ZIN A   1      18.576   1.299  16.300  0.00  0.00    -0.008 A 
ENDBRANCH   2  28
TORSDOF 6
ENDMDL
