MODEL 1
REMARK VINA RESULT:      -7.5      0.000      0.000
REMARK  13 active torsions:
REMARK  status: ('A' for Active; 'I' for Inactive)
REMARK    1  A    between atoms: O2_2  and  C3_3 
REMARK    2  A    between atoms: C6_6  and  C7_7 
REMARK    3  A    between atoms: C7_7  and  C8_8 
REMARK    4  A    between atoms: C8_8  and  N9_9 
REMARK    5  A    between atoms: N9_9  and  C12_12 
REMARK    6  A    between atoms: C12_12  and  C13_13 
REMARK    7  A    between atoms: C13_13  and  C14_14 
REMARK    8  A    between atoms: C14_14  and  C15_15 
REMARK    9  A    between atoms: C15_15  and  C18_18 
REMARK   10  A    between atoms: C15_15  and  C28_28 
REMARK   11  A    between atoms: C21_21  and  O22_22 
REMARK   12  A    between atoms: C24_24  and  O25_25 
REMARK   13  A    between atoms: C32_32  and  O33_33 
ROOT
ATOM      1  C15 ZIN A   1      18.516   0.200  10.094  0.00  0.00     0.079 C 
ATOM      2  C16 ZIN A   1      17.187   0.109  10.719  0.00  0.00     0.074 C 
ATOM      3  N17 ZIN A   1      16.161   0.039  11.202  0.00  0.00    -0.196 NA
ENDROOT
BRANCH   1   4
ATOM      4  C14 ZIN A   1      18.944   1.667  10.015  0.00  0.00     0.032 C 
BRANCH   4   5
ATOM      5  C13 ZIN A   1      17.770   2.563  10.420  0.00  0.00     0.030 C 
BRANCH   5   6
ATOM      6  C12 ZIN A   1      18.099   4.018  10.082  0.00  0.00     0.234 C 
BRANCH   6   7
ATOM      7  N9  ZIN A   1      18.165   4.805  11.321  0.00  0.00    -0.075 N 
ATOM      8  H10 ZIN A   1      18.543   5.718  11.120  0.00  0.00     0.279 HD
ATOM      9  C11 ZIN A   1      16.816   4.946  11.885  0.00  0.00     0.269 C 
BRANCH   7  10
ATOM     10  C8  ZIN A   1      19.032   4.120  12.290  0.00  0.00     0.239 C 
BRANCH  10  11
ATOM     11  C7  ZIN A   1      18.544   4.416  13.708  0.00  0.00     0.066 C 
BRANCH  11  12
ATOM     12  C6  ZIN A   1      18.512   3.137  14.506  0.00  0.00    -0.054 A 
ATOM     13  C5  ZIN A   1      17.921   2.007  13.975  0.00  0.00     0.010 A 
ATOM     14  C4  ZIN A   1      17.888   0.832  14.703  0.00  0.00     0.040 A 
ATOM     15  C3  ZIN A   1      18.448   0.786  15.968  0.00  0.00     0.101 A 
ATOM     16  C32 ZIN A   1      19.039   1.926  16.507  0.00  0.00     0.102 A 
ATOM     17  C31 ZIN A   1      19.072   3.099  15.770  0.00  0.00     0.046 A 
BRANCH  15  18
ATOM     18  O2  ZIN A   1      18.417  -0.368  16.686  0.00  0.00    -0.353 OA
ATOM     19  C1  ZIN A   1      19.097  -1.496  16.130  0.00  0.00     0.210 C 
ENDBRANCH  15  18
BRANCH  16  20
ATOM     20  O33 ZIN A   1      19.590   1.885  17.749  0.00  0.00    -0.353 OA
ATOM     21  C34 ZIN A   1      19.059   2.785  18.724  0.00  0.00     0.210 C 
ENDBRANCH  16  20
ENDBRANCH  11  12
ENDBRANCH  10  11
ENDBRANCH   7  10
ENDBRANCH   6   7
ENDBRANCH   5   6
ENDBRANCH   4   5
ENDBRANCH   1   4
BRANCH   1  22
ATOM     22  C18 ZIN A   1      18.460  -0.382   8.705  0.00  0.00    -0.032 A 
ATOM     23  C27 ZIN A   1      19.312  -1.413   8.354  0.00  0.00     0.048 A 
ATOM     24  C24 ZIN A   1      19.258  -1.953   7.079  0.00  0.00     0.102 A 
ATOM     25  C21 ZIN A   1      18.352  -1.448   6.152  0.00  0.00     0.101 A 
ATOM     26  C20 ZIN A   1      17.505  -0.411   6.508  0.00  0.00     0.040 A 
ATOM     27  C19 ZIN A   1      17.560   0.119   7.784  0.00  0.00     0.012 A 
BRANCH  24  28
ATOM     28  O25 ZIN A   1      20.092  -2.969   6.734  0.00  0.00    -0.353 OA
ATOM     29  C26 ZIN A   1      19.710  -4.287   7.135  0.00  0.00     0.210 C 
ENDBRANCH  24  28
BRANCH  25  30
ATOM     30  O22 ZIN A   1      18.298  -1.971   4.897  0.00  0.00    -0.353 OA
ATOM     31  C23 ZIN A   1      17.039  -1.914   4.224  0.00  0.00     0.210 C 
ENDBRANCH  25  30
ENDBRANCH   1  22
BRANCH   1  32
ATOM     32  C28 ZIN A   1      19.529  -0.582  10.934  0.00  0.00     0.004 C 
ATOM     33  C29 ZIN A   1      20.391   0.396  11.734  0.00  0.00     0.011 C 
ATOM     34  C30 ZIN A   1      18.786  -1.511  11.896  0.00  0.00     0.011 C 
ENDBRANCH   1  32
TORSDOF 13
ENDMDL
MODEL 2
REMARK VINA RESULT:      -7.5      3.173      6.574
REMARK  13 active torsions:
REMARK  status: ('A' for Active; 'I' for Inactive)
REMARK    1  A    between atoms: O2_2  and  C3_3 
REMARK    2  A    between atoms: C6_6  and  C7_7 
REMARK    3  A    between atoms: C7_7  and  C8_8 
REMARK    4  A    between atoms: C8_8  and  N9_9 
REMARK    5  A    between atoms: N9_9  and  C12_12 
REMARK    6  A    between atoms: C12_12  and  C13_13 
REMARK    7  A    between atoms: C13_13  and  C14_14 
REMARK    8  A    between atoms: C14_14  and  C15_15 
REMARK    9  A    between atoms: C15_15  and  C18_18 
REMARK   10  A    between atoms: C15_15  and  C28_28 
REMARK   11  A    between atoms: C21_21  and  O22_22 
REMARK   12  A    between atoms: C24_24  and  O25_25 
REMARK   13  A    between atoms: C32_32  and  O33_33 
ROOT
ATOM      1  C15 ZIN A   1      18.331  -4.481   9.175  0.00  0.00     0.079 C 
ATOM      2  C16 ZIN A   1      19.537  -5.283   8.917  0.00  0.00     0.074 C 
ATOM      3  N17 ZIN A   1      20.468  -5.903   8.718  0.00  0.00    -0.196 NA
ENDROOT
BRANCH   1   4
ATOM      4  C14 ZIN A   1      18.026  -3.611   7.953  0.00  0.00     0.032 C 
BRANCH   4   5
ATOM      5  C13 ZIN A   1      19.244  -2.743   7.628  0.00  0.00     0.030 C 
BRANCH   5   6
ATOM      6  C12 ZIN A   1      19.195  -2.325   6.157  0.00  0.00     0.234 C 
BRANCH   6   7
ATOM      7  N9  ZIN A   1      19.331  -0.865   6.059  0.00  0.00    -0.075 N 
ATOM      8  H10 ZIN A   1      20.308  -0.617   6.081  0.00  0.00     0.279 HD
ATOM      9  C11 ZIN A   1      18.734  -0.401   4.800  0.00  0.00     0.269 C 
BRANCH   7  10
ATOM     10  C8  ZIN A   1      18.640  -0.233   7.192  0.00  0.00     0.239 C 
BRANCH  10  11
ATOM     11  C7  ZIN A   1      19.077   1.229   7.302  0.00  0.00     0.066 C 
BRANCH  11  12
ATOM     12  C6  ZIN A   1      19.161   1.620   8.756  0.00  0.00    -0.054 A 
ATOM     13  C5  ZIN A   1      19.690   0.738   9.678  0.00  0.00     0.010 A 
ATOM     14  C4  ZIN A   1      19.769   1.092  11.013  0.00  0.00     0.040 A 
ATOM     15  C3  ZIN A   1      19.316   2.333  11.427  0.00  0.00     0.101 A 
ATOM     16  C32 ZIN A   1      18.777   3.220  10.499  0.00  0.00     0.102 A 
ATOM     17  C31 ZIN A   1      18.706   2.861   9.163  0.00  0.00     0.046 A 
BRANCH  15  18
ATOM     18  O2  ZIN A   1      19.393   2.683  12.739  0.00  0.00    -0.353 OA
ATOM     19  C1  ZIN A   1      18.460   2.067  13.630  0.00  0.00     0.210 C 
ENDBRANCH  15  18
BRANCH  16  20
ATOM     20  O33 ZIN A   1      18.331   4.439  10.902  0.00  0.00    -0.353 OA
ATOM     21  C34 ZIN A   1      17.158   4.945  10.261  0.00  0.00     0.210 C 
ENDBRANCH  16  20
ENDBRANCH  11  12
ENDBRANCH  10  11
ENDBRANCH   7  10
ENDBRANCH   6   7
ENDBRANCH   5   6
ENDBRANCH   4   5
ENDBRANCH   1   4
BRANCH   1  22
ATOM     22  C18 ZIN A   1      18.561  -3.598  10.375  0.00  0.00    -0.032 A 
ATOM     23  C27 ZIN A   1      17.634  -2.626  10.704  0.00  0.00     0.048 A 
ATOM     24  C24 ZIN A   1      17.841  -1.818  11.810  0.00  0.00     0.102 A 
ATOM     25  C21 ZIN A   1      18.989  -1.979  12.580  0.00  0.00     0.101 A 
ATOM     26  C20 ZIN A   1      19.916  -2.950  12.242  0.00  0.00     0.040 A 
ATOM     27  C19 ZIN A   1      19.700  -3.758  11.140  0.00  0.00     0.012 A 
BRANCH  24  28
ATOM     28  O25 ZIN A   1      16.928  -0.866  12.139  0.00  0.00    -0.353 OA
ATOM     29  C26 ZIN A   1      16.439  -0.042  11.079  0.00  0.00     0.210 C 
ENDBRANCH  24  28
BRANCH  25  30
ATOM     30  O22 ZIN A   1      19.199  -1.185  13.664  0.00  0.00    -0.353 OA
ATOM     31  C23 ZIN A   1      18.999  -1.776  14.950  0.00  0.00     0.210 C 
ENDBRANCH  25  30
ENDBRANCH   1  22
BRANCH   1  32
ATOM     32  C28 ZIN A   1      17.148  -5.411   9.446  0.00  0.00     0.004 C 
ATOM     33  C29 ZIN A   1      17.070  -6.471   8.346  0.00  0.00     0.011 C 
ATOM     34  C30 ZIN A   1      17.336  -6.096  10.801  0.00  0.00     0.011 C 
ENDBRANCH   1  32
TORSDOF 13
ENDMDL
MODEL 3
REMARK VINA RESULT:      -7.4      3.397      6.490
REMARK  13 active torsions:
REMARK  status: ('A' for Active; 'I' for Inactive)
REMARK    1  A    between atoms: O2_2  and  C3_3 
REMARK    2  A    between atoms: C6_6  and  C7_7 
REMARK    3  A    between atoms: C7_7  and  C8_8 
REMARK    4  A    between atoms: C8_8  and  N9_9 
REMARK    5  A    between atoms: N9_9  and  C12_12 
REMARK    6  A    between atoms: C12_12  and  C13_13 
REMARK    7  A    between atoms: C13_13  and  C14_14 
REMARK    8  A    between atoms: C14_14  and  C15_15 
REMARK    9  A    between atoms: C15_15  and  C18_18 
REMARK   10  A    between atoms: C15_15  and  C28_28 
REMARK   11  A    between atoms: C21_21  and  O22_22 
REMARK   12  A    between atoms: C24_24  and  O25_25 
REMARK   13  A    between atoms: C32_32  and  O33_33 
ROOT
ATOM      1  C15 ZIN A   1      18.657  -1.395  11.884  0.00  0.00     0.079 C 
ATOM      2  C16 ZIN A   1      19.906  -0.959  11.239  0.00  0.00     0.074 C 
ATOM      3  N17 ZIN A   1      20.871  -0.624  10.741  0.00  0.00    -0.196 NA
ENDROOT
BRANCH   1   4
ATOM      4  C14 ZIN A   1      17.474  -1.092  10.962  0.00  0.00     0.032 C 
BRANCH   4   5
ATOM      5  C13 ZIN A   1      17.969  -0.979   9.518  0.00  0.00     0.030 C 
BRANCH   5   6
ATOM      6  C12 ZIN A   1      17.605   0.398   8.960  0.00  0.00     0.234 C 
BRANCH   6   7
ATOM      7  N9  ZIN A   1      18.828   1.093   8.535  0.00  0.00    -0.075 N 
ATOM      8  H10 ZIN A   1      19.629   0.655   8.964  0.00  0.00     0.279 HD
ATOM      9  C11 ZIN A   1      18.951   1.019   7.074  0.00  0.00     0.269 C 
BRANCH   7  10
ATOM     10  C8  ZIN A   1      18.759   2.501   8.951  0.00  0.00     0.239 C 
BRANCH  10  11
ATOM     11  C7  ZIN A   1      19.441   2.664  10.310  0.00  0.00     0.066 C 
BRANCH  11  12
ATOM     12  C6  ZIN A   1      18.668   3.653  11.145  0.00  0.00    -0.054 A 
ATOM     13  C5  ZIN A   1      17.379   3.998  10.788  0.00  0.00     0.010 A 
ATOM     14  C4  ZIN A   1      16.666   4.906  11.550  0.00  0.00     0.040 A 
ATOM     15  C3  ZIN A   1      17.245   5.470  12.674  0.00  0.00     0.101 A 
ATOM     16  C32 ZIN A   1      18.545   5.127  13.032  0.00  0.00     0.102 A 
ATOM     17  C31 ZIN A   1      19.252   4.214  12.266  0.00  0.00     0.046 A 
BRANCH  15  18
ATOM     18  O2  ZIN A   1      16.545   6.362  13.425  0.00  0.00    -0.353 OA
ATOM     19  C1  ZIN A   1      15.443   5.852  14.179  0.00  0.00     0.210 C 
ENDBRANCH  15  18
BRANCH  16  20
ATOM     20  O33 ZIN A   1      19.117   5.679  14.134  0.00  0.00    -0.353 OA
ATOM     21  C34 ZIN A   1      19.152   4.878  15.318  0.00  0.00     0.210 C 
ENDBRANCH  16  20
ENDBRANCH  11  12
ENDBRANCH  10  11
ENDBRANCH   7  10
ENDBRANCH   6   7
ENDBRANCH   5   6
ENDBRANCH   4   5
ENDBRANCH   1   4
BRANCH   1  22
ATOM     22  C18 ZIN A   1      18.480  -0.657  13.187  0.00  0.00    -0.032 A 
ATOM     23  C27 ZIN A   1      18.422  -1.361  14.376  0.00  0.00     0.048 A 
ATOM     24  C24 ZIN A   1      18.265  -0.683  15.574  0.00  0.00     0.102 A 
ATOM     25  C21 ZIN A   1      18.154   0.704  15.576  0.00  0.00     0.101 A 
ATOM     26  C20 ZIN A   1      18.208   1.402  14.381  0.00  0.00     0.040 A 
ATOM     27  C19 ZIN A   1      18.371   0.721  13.189  0.00  0.00     0.012 A 
BRANCH  24  28
ATOM     28  O25 ZIN A   1      18.213  -1.373  16.744  0.00  0.00    -0.353 OA
ATOM     29  C26 ZIN A   1      16.969  -1.991  17.079  0.00  0.00     0.210 C 
ENDBRANCH  24  28
BRANCH  25  30
ATOM     30  O22 ZIN A   1      17.995   1.372  16.750  0.00  0.00    -0.353 OA
ATOM     31  C23 ZIN A   1      19.183   1.801  17.419  0.00  0.00     0.210 C 
ENDBRANCH  25  30
ENDBRANCH   1  22
BRANCH   1  32
ATOM     32  C28 ZIN A   1      18.720  -2.899  12.155  0.00  0.00     0.004 C 
ATOM     33  C29 ZIN A   1      17.474  -3.573  11.580  0.00  0.00     0.011 C 
ATOM     34  C30 ZIN A   1      19.968  -3.485  11.492  0.00  0.00     0.011 C 
ENDBRANCH   1  32
TORSDOF 13
ENDMDL
MODEL 4
REMARK VINA RESULT:      -7.4      3.552      6.814
REMARK  13 active torsions:
REMARK  status: ('A' for Active; 'I' for Inactive)
REMARK    1  A    between atoms: O2_2  and  C3_3 
REMARK    2  A    between atoms: C6_6  and  C7_7 
REMARK    3  A    between atoms: C7_7  and  C8_8 
REMARK    4  A    between atoms: C8_8  and  N9_9 
REMARK    5  A    between atoms: N9_9  and  C12_12 
REMARK    6  A    between atoms: C12_12  and  C13_13 
REMARK    7  A    between atoms: C13_13  and  C14_14 
REMARK    8  A    between atoms: C14_14  and  C15_15 
REMARK    9  A    between atoms: C15_15  and  C18_18 
REMARK   10  A    between atoms: C15_15  and  C28_28 
REMARK   11  A    between atoms: C21_21  and  O22_22 
REMARK   12  A    between atoms: C24_24  and  O25_25 
REMARK   13  A    between atoms: C32_32  and  O33_33 
ROOT
ATOM      1  C15 ZIN A   1      18.870   1.571  10.545  0.00  0.00     0.079 C 
ATOM      2  C16 ZIN A   1      19.975   1.029  11.351  0.00  0.00     0.074 C 
ATOM      3  N17 ZIN A   1      20.829   0.611  11.974  0.00  0.00    -0.196 NA
ENDROOT
BRANCH   1   4
ATOM      4  C14 ZIN A   1      17.536   1.099  11.126  0.00  0.00     0.032 C 
BRANCH   4   5
ATOM      5  C13 ZIN A   1      17.299  -0.363  10.737  0.00  0.00     0.030 C 
BRANCH   5   6
ATOM      6  C12 ZIN A   1      17.263  -1.227  12.000  0.00  0.00     0.234 C 
BRANCH   6   7
ATOM      7  N9  ZIN A   1      18.636  -1.507  12.439  0.00  0.00    -0.075 N 
ATOM      8  H10 ZIN A   1      19.255  -0.795  12.083  0.00  0.00     0.279 HD
ATOM      9  C11 ZIN A   1      18.690  -1.513  13.907  0.00  0.00     0.269 C 
BRANCH   7  10
ATOM     10  C8  ZIN A   1      19.055  -2.820  11.928  0.00  0.00     0.239 C 
BRANCH  10  11
ATOM     11  C7  ZIN A   1      17.857  -3.771  11.928  0.00  0.00     0.066 C 
BRANCH  11  12
ATOM     12  C6  ZIN A   1      17.998  -4.757  10.796  0.00  0.00    -0.054 A 
ATOM     13  C5  ZIN A   1      16.887  -5.430  10.325  0.00  0.00     0.010 A 
ATOM     14  C4  ZIN A   1      17.012  -6.335   9.287  0.00  0.00     0.040 A 
ATOM     15  C3  ZIN A   1      18.252  -6.569   8.718  0.00  0.00     0.101 A 
ATOM     16  C32 ZIN A   1      19.373  -5.895   9.196  0.00  0.00     0.102 A 
ATOM     17  C31 ZIN A   1      19.240  -4.986  10.233  0.00  0.00     0.046 A 
BRANCH  15  18
ATOM     18  O2  ZIN A   1      18.376  -7.459   7.697  0.00  0.00    -0.353 OA
ATOM     19  C1  ZIN A   1      17.504  -7.289   6.578  0.00  0.00     0.210 C 
ENDBRANCH  15  18
BRANCH  16  20
ATOM     20  O33 ZIN A   1      20.592  -6.122   8.640  0.00  0.00    -0.353 OA
ATOM     21  C34 ZIN A   1      20.907  -5.398   7.448  0.00  0.00     0.210 C 
ENDBRANCH  16  20
ENDBRANCH  11  12
ENDBRANCH  10  11
ENDBRANCH   7  10
ENDBRANCH   6   7
ENDBRANCH   5   6
ENDBRANCH   4   5
ENDBRANCH   1   4
BRANCH   1  22
ATOM     22  C18 ZIN A   1      18.999   1.085   9.124  0.00  0.00    -0.032 A 
ATOM     23  C27 ZIN A   1      19.143  -0.267   8.867  0.00  0.00     0.048 A 
ATOM     24  C24 ZIN A   1      19.255  -0.716   7.562  0.00  0.00     0.102 A 
ATOM     25  C21 ZIN A   1      19.236   0.197   6.511  0.00  0.00     0.101 A 
ATOM     26  C20 ZIN A   1      19.098   1.550   6.775  0.00  0.00     0.040 A 
ATOM     27  C19 ZIN A   1      18.980   1.991   8.080  0.00  0.00     0.012 A 
BRANCH  24  28
ATOM     28  O25 ZIN A   1      19.391  -2.044   7.308  0.00  0.00    -0.353 OA
ATOM     29  C26 ZIN A   1      18.261  -2.876   7.578  0.00  0.00     0.210 C 
ENDBRANCH  24  28
BRANCH  25  30
ATOM     30  O22 ZIN A   1      19.352  -0.239   5.228  0.00  0.00    -0.353 OA
ATOM     31  C23 ZIN A   1      18.147  -0.630   4.565  0.00  0.00     0.210 C 
ENDBRANCH  25  30
ENDBRANCH   1  22
BRANCH   1  32
ATOM     32  C28 ZIN A   1      18.924   3.099  10.567  0.00  0.00     0.004 C 
ATOM     33  C29 ZIN A   1      17.517   3.656  10.790  0.00  0.00     0.011 C 
ATOM     34  C30 ZIN A   1      19.840   3.561  11.702  0.00  0.00     0.011 C 
ENDBRANCH   1  32
TORSDOF 13
ENDMDL
MODEL 5
REMARK VINA RESULT:      -7.2      2.516      4.355
REMARK  13 active torsions:
REMARK  status: ('A' for Active; 'I' for Inactive)
REMARK    1  A    between atoms: O2_2  and  C3_3 
REMARK    2  A    between atoms: C6_6  and  C7_7 
REMARK    3  A    between atoms: C7_7  and  C8_8 
REMARK    4  A    between atoms: C8_8  and  N9_9 
REMARK    5  A    between atoms: N9_9  and  C12_12 
REMARK    6  A    between atoms: C12_12  and  C13_13 
REMARK    7  A    between atoms: C13_13  and  C14_14 
REMARK    8  A    between atoms: C14_14  and  C15_15 
REMARK    9  A    between atoms: C15_15  and  C18_18 
REMARK   10  A    between atoms: C15_15  and  C28_28 
REMARK   11  A    between atoms: C21_21  and  O22_22 
REMARK   12  A    between atoms: C24_24  and  O25_25 
REMARK   13  A    between atoms: C32_32  and  O33_33 
ROOT
ATOM      1  C15 ZIN A   1      18.992   1.363  10.715  0.00  0.00     0.079 C 
ATOM      2  C16 ZIN A   1      20.152   0.888  11.486  0.00  0.00     0.074 C 
ATOM      3  N17 ZIN A   1      21.048   0.523  12.080  0.00  0.00    -0.196 NA
ENDROOT
BRANCH   1   4
ATOM      4  C14 ZIN A   1      17.703   0.951  11.428  0.00  0.00     0.032 C 
BRANCH   4   5
ATOM      5  C13 ZIN A   1      18.025  -0.093  12.501  0.00  0.00     0.030 C 
BRANCH   5   6
ATOM      6  C12 ZIN A   1      17.359   0.309  13.819  0.00  0.00     0.234 C 
BRANCH   6   7
ATOM      7  N9  ZIN A   1      18.320   0.154  14.919  0.00  0.00    -0.075 N 
ATOM      8  H10 ZIN A   1      17.825   0.137  15.798  0.00  0.00     0.279 HD
ATOM      9  C11 ZIN A   1      19.061  -1.103  14.749  0.00  0.00     0.269 C 
BRANCH   7  10
ATOM     10  C8  ZIN A   1      19.261   1.283  14.909  0.00  0.00     0.239 C 
BRANCH  10  11
ATOM     11  C7  ZIN A   1      19.084   2.104  16.187  0.00  0.00     0.066 C 
BRANCH  11  12
ATOM     12  C6  ZIN A   1      18.979   3.566  15.834  0.00  0.00    -0.054 A 
ATOM     13  C5  ZIN A   1      19.740   4.496  16.515  0.00  0.00     0.010 A 
ATOM     14  C4  ZIN A   1      19.646   5.839  16.196  0.00  0.00     0.040 A 
ATOM     15  C3  ZIN A   1      18.788   6.252  15.192  0.00  0.00     0.101 A 
ATOM     16  C32 ZIN A   1      18.017   5.316  14.509  0.00  0.00     0.102 A 
ATOM     17  C31 ZIN A   1      18.119   3.972  14.831  0.00  0.00     0.046 A 
BRANCH  15  18
ATOM     18  O2  ZIN A   1      18.695   7.572  14.876  0.00  0.00    -0.353 OA
ATOM     19  C1  ZIN A   1      17.808   8.367  15.666  0.00  0.00     0.210 C 
ENDBRANCH  15  18
BRANCH  16  20
ATOM     20  O33 ZIN A   1      17.172   5.719  13.522  0.00  0.00    -0.353 OA
ATOM     21  C34 ZIN A   1      15.781   5.780  13.844  0.00  0.00     0.210 C 
ENDBRANCH  16  20
ENDBRANCH  11  12
ENDBRANCH  10  11
ENDBRANCH   7  10
ENDBRANCH   6   7
ENDBRANCH   5   6
ENDBRANCH   4   5
ENDBRANCH   1   4
BRANCH   1  22
ATOM     22  C18 ZIN A   1      19.020   0.753   9.337  0.00  0.00    -0.032 A 
ATOM     23  C27 ZIN A   1      19.093  -0.620   9.192  0.00  0.00     0.048 A 
ATOM     24  C24 ZIN A   1      19.113  -1.183   7.926  0.00  0.00     0.102 A 
ATOM     25  C21 ZIN A   1      19.072  -0.363   6.803  0.00  0.00     0.101 A 
ATOM     26  C20 ZIN A   1      19.004   1.013   6.955  0.00  0.00     0.040 A 
ATOM     27  C19 ZIN A   1      18.978   1.567   8.221  0.00  0.00     0.012 A 
BRANCH  24  28
ATOM     28  O25 ZIN A   1      19.180  -2.533   7.782  0.00  0.00    -0.353 OA
ATOM     29  C26 ZIN A   1      18.347  -3.319   8.636  0.00  0.00     0.210 C 
ENDBRANCH  24  28
BRANCH  25  30
ATOM     30  O22 ZIN A   1      19.097  -0.910   5.558  0.00  0.00    -0.353 OA
ATOM     31  C23 ZIN A   1      18.919  -0.020   4.454  0.00  0.00     0.210 C 
ENDBRANCH  25  30
ENDBRANCH   1  22
BRANCH   1  32
ATOM     32  C28 ZIN A   1      19.045   2.887  10.598  0.00  0.00     0.004 C 
ATOM     33  C29 ZIN A   1      17.641   3.462  10.786  0.00  0.00     0.011 C 
ATOM     34  C30 ZIN A   1      19.974   3.449  11.677  0.00  0.00     0.011 C 
ENDBRANCH   1  32
TORSDOF 13
ENDMDL
MODEL 6
REMARK VINA RESULT:      -7.1      1.906      8.999
REMARK  13 active torsions:
REMARK  status: ('A' for Active; 'I' for Inactive)
REMARK    1  A    between atoms: O2_2  and  C3_3 
REMARK    2  A    between atoms: C6_6  and  C7_7 
REMARK    3  A    between atoms: C7_7  and  C8_8 
REMARK    4  A    between atoms: C8_8  and  N9_9 
REMARK    5  A    between atoms: N9_9  and  C12_12 
REMARK    6  A    between atoms: C12_12  and  C13_13 
REMARK    7  A    between atoms: C13_13  and  C14_14 
REMARK    8  A    between atoms: C14_14  and  C15_15 
REMARK    9  A    between atoms: C15_15  and  C18_18 
REMARK   10  A    between atoms: C15_15  and  C28_28 
REMARK   11  A    between atoms: C21_21  and  O22_22 
REMARK   12  A    between atoms: C24_24  and  O25_25 
REMARK   13  A    between atoms: C32_32  and  O33_33 
ROOT
ATOM      1  C15 ZIN A   1      18.557  -1.063  12.404  0.00  0.00     0.079 C 
ATOM      2  C16 ZIN A   1      19.714  -0.629  11.604  0.00  0.00     0.074 C 
ATOM      3  N17 ZIN A   1      20.607  -0.295  10.988  0.00  0.00    -0.196 NA
ENDROOT
BRANCH   1   4
ATOM      4  C14 ZIN A   1      17.277  -0.463  11.817  0.00  0.00     0.032 C 
BRANCH   4   5
ATOM      5  C13 ZIN A   1      17.633   0.749  10.952  0.00  0.00     0.030 C 
BRANCH   5   6
ATOM      6  C12 ZIN A   1      17.474   0.385   9.474  0.00  0.00     0.234 C 
BRANCH   6   7
ATOM      7  N9  ZIN A   1      18.137   1.401   8.646  0.00  0.00    -0.075 N 
ATOM      8  H10 ZIN A   1      17.447   1.887   8.094  0.00  0.00     0.279 HD
ATOM      9  C11 ZIN A   1      18.836   2.359   9.512  0.00  0.00     0.269 C 
BRANCH   7  10
ATOM     10  C8  ZIN A   1      19.106   0.749   7.754  0.00  0.00     0.239 C 
BRANCH  10  11
ATOM     11  C7  ZIN A   1      18.613   0.846   6.310  0.00  0.00     0.066 C 
BRANCH  11  12
ATOM     12  C6  ZIN A   1      18.506  -0.538   5.721  0.00  0.00    -0.054 A 
ATOM     13  C5  ZIN A   1      17.598  -0.789   4.711  0.00  0.00     0.010 A 
ATOM     14  C4  ZIN A   1      17.496  -2.057   4.168  0.00  0.00     0.040 A 
ATOM     15  C3  ZIN A   1      18.305  -3.078   4.637  0.00  0.00     0.101 A 
ATOM     16  C32 ZIN A   1      19.217  -2.827   5.659  0.00  0.00     0.102 A 
ATOM     17  C31 ZIN A   1      19.317  -1.553   6.195  0.00  0.00     0.046 A 
BRANCH  15  18
ATOM     18  O2  ZIN A   1      18.207  -4.325   4.104  0.00  0.00    -0.353 OA
ATOM     19  C1  ZIN A   1      17.167  -4.542   3.148  0.00  0.00     0.210 C 
ENDBRANCH  15  18
BRANCH  16  20
ATOM     20  O33 ZIN A   1      20.013  -3.826   6.123  0.00  0.00    -0.353 OA
ATOM     21  C34 ZIN A   1      19.659  -4.407   7.380  0.00  0.00     0.210 C 
ENDBRANCH  16  20
ENDBRANCH  11  12
ENDBRANCH  10  11
ENDBRANCH   7  10
ENDBRANCH   6   7
ENDBRANCH   5   6
ENDBRANCH   4   5
ENDBRANCH   1   4
BRANCH   1  22
ATOM     22  C18 ZIN A   1      18.725  -0.595  13.827  0.00  0.00    -0.032 A 
ATOM     23  C27 ZIN A   1      19.079   0.716  14.084  0.00  0.00     0.048 A 
ATOM     24  C24 ZIN A   1      19.228   1.150  15.391  0.00  0.00     0.102 A 
ATOM     25  C21 ZIN A   1      19.031   0.260  16.443  0.00  0.00     0.101 A 
ATOM     26  C20 ZIN A   1      18.682  -1.054  16.178  0.00  0.00     0.040 A 
ATOM     27  C19 ZIN A   1      18.529  -1.479  14.871  0.00  0.00     0.012 A 
BRANCH  24  28
ATOM     28  O25 ZIN A   1      19.572   2.440  15.646  0.00  0.00    -0.353 OA
ATOM     29  C26 ZIN A   1      18.540   3.305  16.124  0.00  0.00     0.210 C 
ENDBRANCH  24  28
BRANCH  25  30
ATOM     30  O22 ZIN A   1      19.182   0.679  17.728  0.00  0.00    -0.353 OA
ATOM     31  C23 ZIN A   1      18.460  -0.037  18.732  0.00  0.00     0.210 C 
ENDBRANCH  25  30
ENDBRANCH   1  22
BRANCH   1  32
ATOM     32  C28 ZIN A   1      18.463  -2.590  12.377  0.00  0.00     0.004 C 
ATOM     33  C29 ZIN A   1      17.419  -3.018  11.344  0.00  0.00     0.011 C 
ATOM     34  C30 ZIN A   1      19.824  -3.179  12.002  0.00  0.00     0.011 C 
ENDBRANCH   1  32
TORSDOF 13
ENDMDL
MODEL 7
REMARK VINA RESULT:      -7.1      3.679      6.787
REMARK  13 active torsions:
REMARK  status: ('A' for Active; 'I' for Inactive)
REMARK    1  A    between atoms: O2_2  and  C3_3 
REMARK    2  A    between atoms: C6_6  and  C7_7 
REMARK    3  A    between atoms: C7_7  and  C8_8 
REMARK    4  A    between atoms: C8_8  and  N9_9 
REMARK    5  A    between atoms: N9_9  and  C12_12 
REMARK    6  A    between atoms: C12_12  and  C13_13 
REMARK    7  A    between atoms: C13_13  and  C14_14 
REMARK    8  A    between atoms: C14_14  and  C15_15 
REMARK    9  A    between atoms: C15_15  and  C18_18 
REMARK   10  A    between atoms: C15_15  and  C28_28 
REMARK   11  A    between atoms: C21_21  and  O22_22 
REMARK   12  A    between atoms: C24_24  and  O25_25 
REMARK   13  A    between atoms: C32_32  and  O33_33 
ROOT
ATOM      1  C15 ZIN A   1      18.658  -1.293  12.440  0.00  0.00     0.079 C 
ATOM      2  C16 ZIN A   1      19.793  -0.824  11.629  0.00  0.00     0.074 C 
ATOM      3  N17 ZIN A   1      20.671  -0.463  11.004  0.00  0.00    -0.196 NA
ENDROOT
BRANCH   1   4
ATOM      4  C14 ZIN A   1      17.353  -0.758  11.846  0.00  0.00     0.032 C 
BRANCH   4   5
ATOM      5  C13 ZIN A   1      17.662   0.069  10.596  0.00  0.00     0.030 C 
BRANCH   5   6
ATOM      6  C12 ZIN A   1      17.372   1.545  10.876  0.00  0.00     0.234 C 
BRANCH   6   7
ATOM      7  N9  ZIN A   1      18.592   2.333  10.659  0.00  0.00    -0.075 N 
ATOM      8  H10 ZIN A   1      19.385   1.713  10.592  0.00  0.00     0.279 HD
ATOM      9  C11 ZIN A   1      18.464   3.102   9.415  0.00  0.00     0.269 C 
BRANCH   7  10
ATOM     10  C8  ZIN A   1      18.786   3.255  11.787  0.00  0.00     0.239 C 
BRANCH  10  11
ATOM     11  C7  ZIN A   1      17.584   4.195  11.888  0.00  0.00     0.066 C 
BRANCH  11  12
ATOM     12  C6  ZIN A   1      17.828   5.207  12.979  0.00  0.00    -0.054 A 
ATOM     13  C5  ZIN A   1      16.761   5.863  13.562  0.00  0.00     0.010 A 
ATOM     14  C4  ZIN A   1      16.979   6.792  14.563  0.00  0.00     0.040 A 
ATOM     15  C3  ZIN A   1      18.270   7.066  14.982  0.00  0.00     0.101 A 
ATOM     16  C32 ZIN A   1      19.345   6.410  14.391  0.00  0.00     0.102 A 
ATOM     17  C31 ZIN A   1      19.119   5.477  13.392  0.00  0.00     0.046 A 
BRANCH  15  18
ATOM     18  O2  ZIN A   1      18.486   7.980  15.967  0.00  0.00    -0.353 OA
ATOM     19  C1  ZIN A   1      17.338   8.640  16.504  0.00  0.00     0.210 C 
ENDBRANCH  15  18
BRANCH  16  20
ATOM     20  O33 ZIN A   1      20.614   6.677  14.800  0.00  0.00    -0.353 OA
ATOM     21  C34 ZIN A   1      21.217   5.743  15.699  0.00  0.00     0.210 C 
ENDBRANCH  16  20
ENDBRANCH  11  12
ENDBRANCH  10  11
ENDBRANCH   7  10
ENDBRANCH   6   7
ENDBRANCH   5   6
ENDBRANCH   4   5
ENDBRANCH   1   4
BRANCH   1  22
ATOM     22  C18 ZIN A   1      18.809  -0.792  13.854  0.00  0.00    -0.032 A 
ATOM     23  C27 ZIN A   1      19.102   0.540  14.086  0.00  0.00     0.048 A 
ATOM     24  C24 ZIN A   1      19.235   1.003  15.385  0.00  0.00     0.102 A 
ATOM     25  C21 ZIN A   1      19.085   0.123  16.452  0.00  0.00     0.101 A 
ATOM     26  C20 ZIN A   1      18.797  -1.210  16.213  0.00  0.00     0.040 A 
ATOM     27  C19 ZIN A   1      18.659  -1.665  14.914  0.00  0.00     0.012 A 
BRANCH  24  28
ATOM     28  O25 ZIN A   1      19.518   2.312  15.615  0.00  0.00    -0.353 OA
ATOM     29  C26 ZIN A   1      18.417   3.172  15.911  0.00  0.00     0.210 C 
ENDBRANCH  24  28
BRANCH  25  30
ATOM     30  O22 ZIN A   1      19.219   0.572  17.729  0.00  0.00    -0.353 OA
ATOM     31  C23 ZIN A   1      18.355  -0.001  18.713  0.00  0.00     0.210 C 
ENDBRANCH  25  30
ENDBRANCH   1  22
BRANCH   1  32
ATOM     32  C28 ZIN A   1      18.629  -2.822  12.442  0.00  0.00     0.004 C 
ATOM     33  C29 ZIN A   1      17.479  -3.311  11.560  0.00  0.00     0.011 C 
ATOM     34  C30 ZIN A   1      19.953  -3.359  11.895  0.00  0.00     0.011 C 
ENDBRANCH   1  32
TORSDOF 13
ENDMDL
MODEL 8
REMARK VINA RESULT:      -7.1      2.089      9.142
REMARK  13 active torsions:
REMARK  status: ('A' for Active; 'I' for Inactive)
REMARK    1  A    between atoms: O2_2  and  C3_3 
REMARK    2  A    between atoms: C6_6  and  C7_7 
REMARK    3  A    between atoms: C7_7  and  C8_8 
REMARK    4  A    between atoms: C8_8  and  N9_9 
REMARK    5  A    between atoms: N9_9  and  C12_12 
REMARK    6  A    between atoms: C12_12  and  C13_13 
REMARK    7  A    between atoms: C13_13  and  C14_14 
REMARK    8  A    between atoms: C14_14  and  C15_15 
REMARK    9  A    between atoms: C15_15  and  C18_18 
REMARK   10  A    between atoms: C15_15  and  C28_28 
REMARK   11  A    between atoms: C21_21  and  O22_22 
REMARK   12  A    between atoms: C24_24  and  O25_25 
REMARK   13  A    between atoms: C32_32  and  O33_33 
ROOT
ATOM      1  C15 ZIN A   1      18.797  -0.379  13.252  0.00  0.00     0.079 C 
ATOM      2  C16 ZIN A   1      17.498  -0.502  12.572  0.00  0.00     0.074 C 
ATOM      3  N17 ZIN A   1      16.495  -0.596  12.047  0.00  0.00    -0.196 NA
ENDROOT
BRANCH   1   4
ATOM      4  C14 ZIN A   1      19.544  -1.712  13.170  0.00  0.00     0.032 C 
BRANCH   4   5
ATOM      5  C13 ZIN A   1      18.698  -2.723  12.391  0.00  0.00     0.030 C 
BRANCH   5   6
ATOM      6  C12 ZIN A   1      19.616  -3.631  11.569  0.00  0.00     0.234 C 
BRANCH   6   7
ATOM      7  N9  ZIN A   1      18.896  -4.861  11.214  0.00  0.00    -0.075 N 
ATOM      8  H10 ZIN A   1      19.405  -5.660  11.560  0.00  0.00     0.279 HD
ATOM      9  C11 ZIN A   1      17.556  -4.836  11.814  0.00  0.00     0.269 C 
BRANCH   7  10
ATOM     10  C8  ZIN A   1      18.777  -4.952   9.752  0.00  0.00     0.239 C 
BRANCH  10  11
ATOM     11  C7  ZIN A   1      17.694  -3.987   9.269  0.00  0.00     0.066 C 
BRANCH  11  12
ATOM     12  C6  ZIN A   1      18.232  -3.157   8.130  0.00  0.00    -0.054 A 
ATOM     13  C5  ZIN A   1      18.404  -3.726   6.883  0.00  0.00     0.010 A 
ATOM     14  C4  ZIN A   1      18.898  -2.970   5.836  0.00  0.00     0.040 A 
ATOM     15  C3  ZIN A   1      19.221  -1.639   6.037  0.00  0.00     0.101 A 
ATOM     16  C32 ZIN A   1      19.054  -1.066   7.295  0.00  0.00     0.102 A 
ATOM     17  C31 ZIN A   1      18.554  -1.829   8.338  0.00  0.00     0.046 A 
BRANCH  15  18
ATOM     18  O2  ZIN A   1      19.707  -0.893   5.009  0.00  0.00    -0.353 OA
ATOM     19  C1  ZIN A   1      18.750  -0.247   4.167  0.00  0.00     0.210 C 
ENDBRANCH  15  18
BRANCH  16  20
ATOM     20  O33 ZIN A   1      19.371   0.240   7.496  0.00  0.00    -0.353 OA
ATOM     21  C34 ZIN A   1      18.544   0.977   8.399  0.00  0.00     0.210 C 
ENDBRANCH  16  20
ENDBRANCH  11  12
ENDBRANCH  10  11
ENDBRANCH   7  10
ENDBRANCH   6   7
ENDBRANCH   5   6
ENDBRANCH   4   5
ENDBRANCH   1   4
BRANCH   1  22
ATOM     22  C18 ZIN A   1      18.575  -0.016  14.698  0.00  0.00    -0.032 A 
ATOM     23  C27 ZIN A   1      19.213   1.086  15.238  0.00  0.00     0.048 A 
ATOM     24  C24 ZIN A   1      19.006   1.424  16.565  0.00  0.00     0.102 A 
ATOM     25  C21 ZIN A   1      18.165   0.646  17.355  0.00  0.00     0.101 A 
ATOM     26  C20 ZIN A   1      17.534  -0.460  16.810  0.00  0.00     0.040 A 
ATOM     27  C19 ZIN A   1      17.740  -0.788  15.483  0.00  0.00     0.012 A 
BRANCH  24  28
ATOM     28  O25 ZIN A   1      19.628   2.510  17.097  0.00  0.00    -0.353 OA
ATOM     29  C26 ZIN A   1      19.697   3.682  16.282  0.00  0.00     0.210 C 
ENDBRANCH  24  28
BRANCH  25  30
ATOM     30  O22 ZIN A   1      17.963   0.971  18.661  0.00  0.00    -0.353 OA
ATOM     31  C23 ZIN A   1      17.037   2.026  18.930  0.00  0.00     0.210 C 
ENDBRANCH  25  30
ENDBRANCH   1  22
BRANCH   1  32
ATOM     32  C28 ZIN A   1      19.627   0.713  12.574  0.00  0.00     0.004 C 
ATOM     33  C29 ZIN A   1      20.528   0.082  11.512  0.00  0.00     0.011 C 
ATOM     34  C30 ZIN A   1      18.692   1.727  11.912  0.00  0.00     0.011 C 
ENDBRANCH   1  32
TORSDOF 13
ENDMDL
MODEL 9
REMARK VINA RESULT:      -7.0      2.188      4.093
REMARK  13 active torsions:
REMARK  status: ('A' for Active; 'I' for Inactive)
REMARK    1  A    between atoms: O2_2  and  C3_3 
REMARK    2  A    between atoms: C6_6  and  C7_7 
REMARK    3  A    between atoms: C7_7  and  C8_8 
REMARK    4  A    between atoms: C8_8  and  N9_9 
REMARK    5  A    between atoms: N9_9  and  C12_12 
REMARK    6  A    between atoms: C12_12  and  C13_13 
REMARK    7  A    between atoms: C13_13  and  C14_14 
REMARK    8  A    between atoms: C14_14  and  C15_15 
REMARK    9  A    between atoms: C15_15  and  C18_18 
REMARK   10  A    between atoms: C15_15  and  C28_28 
REMARK   11  A    between atoms: C21_21  and  O22_22 
REMARK   12  A    between atoms: C24_24  and  O25_25 
REMARK   13  A    between atoms: C32_32  and  O33_33 
ROOT
ATOM      1  C15 ZIN A   1      18.874   1.675  10.905  0.00  0.00     0.079 C 
ATOM      2  C16 ZIN A   1      20.105   1.201  11.558  0.00  0.00     0.074 C 
ATOM      3  N17 ZIN A   1      21.055   0.836  12.062  0.00  0.00    -0.196 NA
ENDROOT
BRANCH   1   4
ATOM      4  C14 ZIN A   1      17.661   1.259  11.741  0.00  0.00     0.032 C 
BRANCH   4   5
ATOM      5  C13 ZIN A   1      18.134   0.718  13.092  0.00  0.00     0.030 C 
BRANCH   5   6
ATOM      6  C12 ZIN A   1      17.619  -0.711  13.277  0.00  0.00     0.234 C 
BRANCH   6   7
ATOM      7  N9  ZIN A   1      18.183  -1.279  14.509  0.00  0.00    -0.075 N 
ATOM      8  H10 ZIN A   1      17.931  -2.253  14.577  0.00  0.00     0.279 HD
ATOM      9  C11 ZIN A   1      19.645  -1.150  14.483  0.00  0.00     0.269 C 
BRANCH   7  10
ATOM     10  C8  ZIN A   1      17.648  -0.554  15.670  0.00  0.00     0.239 C 
BRANCH  10  11
ATOM     11  C7  ZIN A   1      18.798  -0.152  16.594  0.00  0.00     0.066 C 
BRANCH  11  12
ATOM     12  C6  ZIN A   1      18.439   1.119  17.321  0.00  0.00    -0.054 A 
ATOM     13  C5  ZIN A   1      17.607   1.072  18.423  0.00  0.00     0.010 A 
ATOM     14  C4  ZIN A   1      17.274   2.235  19.093  0.00  0.00     0.040 A 
ATOM     15  C3  ZIN A   1      17.776   3.451  18.659  0.00  0.00     0.101 A 
ATOM     16  C32 ZIN A   1      18.609   3.500  17.545  0.00  0.00     0.102 A 
ATOM     17  C31 ZIN A   1      18.942   2.330  16.881  0.00  0.00     0.046 A 
BRANCH  15  18
ATOM     18  O2  ZIN A   1      17.450   4.596  19.316  0.00  0.00    -0.353 OA
ATOM     19  C1  ZIN A   1      16.361   4.526  20.240  0.00  0.00     0.210 C 
ENDBRANCH  15  18
BRANCH  16  20
ATOM     20  O33 ZIN A   1      19.103   4.691  17.116  0.00  0.00    -0.353 OA
ATOM     21  C34 ZIN A   1      20.081   4.651  16.074  0.00  0.00     0.210 C 
ENDBRANCH  16  20
ENDBRANCH  11  12
ENDBRANCH  10  11
ENDBRANCH   7  10
ENDBRANCH   6   7
ENDBRANCH   5   6
ENDBRANCH   4   5
ENDBRANCH   1   4
BRANCH   1  22
ATOM     22  C18 ZIN A   1      18.769   1.067   9.530  0.00  0.00    -0.032 A 
ATOM     23  C27 ZIN A   1      18.462  -0.275   9.391  0.00  0.00     0.048 A 
ATOM     24  C24 ZIN A   1      18.359  -0.834   8.127  0.00  0.00     0.102 A 
ATOM     25  C21 ZIN A   1      18.577  -0.046   7.001  0.00  0.00     0.101 A 
ATOM     26  C20 ZIN A   1      18.889   1.296   7.148  0.00  0.00     0.040 A 
ATOM     27  C19 ZIN A   1      18.984   1.849   8.411  0.00  0.00     0.012 A 
BRANCH  24  28
ATOM     28  O25 ZIN A   1      18.053  -2.151   7.989  0.00  0.00    -0.353 OA
ATOM     29  C26 ZIN A   1      17.842  -2.898   9.188  0.00  0.00     0.210 C 
ENDBRANCH  24  28
BRANCH  25  30
ATOM     30  O22 ZIN A   1      18.482  -0.591   5.759  0.00  0.00    -0.353 OA
ATOM     31  C23 ZIN A   1      19.482  -0.218   4.809  0.00  0.00     0.210 C 
ENDBRANCH  25  30
ENDBRANCH   1  22
BRANCH   1  32
ATOM     32  C28 ZIN A   1      18.914   3.199  10.787  0.00  0.00     0.004 C 
ATOM     33  C29 ZIN A   1      17.489   3.753  10.851  0.00  0.00     0.011 C 
ATOM     34  C30 ZIN A   1      19.738   3.780  11.937  0.00  0.00     0.011 C 
ENDBRANCH   1  32
TORSDOF 13
ENDMDL
