MODEL 1
REMARK VINA RESULT:      -7.2      0.000      0.000
REMARK  1 active torsions:
REMARK  status: ('A' for Active; 'I' for Inactive)
REMARK    1  A    between atoms: O2_2  and  C3_3 
ROOT
ATOM      1  C3  ZIN A   1      19.005  -1.324   7.256  0.00  0.00     0.068 A 
ATOM      2  C4  ZIN A   1      17.838  -0.586   7.133  0.00  0.00     0.037 A 
ATOM      3  C5  ZIN A   1      17.193  -0.129   8.262  0.00  0.00     0.010 A 
ATOM      4  C6  ZIN A   1      17.700  -0.401   9.527  0.00  0.00    -0.049 A 
ATOM      5  C7  ZIN A   1      16.919   0.091  10.716  0.00  0.00     0.072 C 
ATOM      6  C8  ZIN A   1      17.691  -0.051  12.014  0.00  0.00     0.197 C 
ATOM      7  C10 ZIN A   1      18.385  -1.413  12.066  0.00  0.00     0.030 C 
ATOM      8  C12 ZIN A   1      17.368  -2.521  11.787  0.00  0.00     0.008 C 
ATOM      9  C13 ZIN A   1      18.080  -3.876  11.781  0.00  0.00     0.001 C 
ATOM     10  C14 ZIN A   1      19.146  -3.888  10.685  0.00  0.00     0.001 C 
ATOM     11  C15 ZIN A   1      20.167  -2.779  10.954  0.00  0.00     0.015 C 
ATOM     12  C16 ZIN A   1      19.478  -1.421  10.994  0.00  0.00    -0.005 C 
ATOM     13  C17 ZIN A   1      20.497  -0.315  11.300  0.00  0.00     0.042 C 
ATOM     14  C18 ZIN A   1      19.756   1.027  11.244  0.00  0.00     0.236 C 
ATOM     15  N19 ZIN A   1      18.649   1.025  12.221  0.00  0.00    -0.070 N 
ATOM     16  H20 ZIN A   1      18.165   1.910  12.170  0.00  0.00     0.279 HD
ATOM     17  C21 ZIN A   1      19.203   0.862  13.571  0.00  0.00     0.270 C 
ATOM     18  C22 ZIN A   1      18.869  -1.121   9.648  0.00  0.00    -0.040 A 
ATOM     19  C23 ZIN A   1      19.515  -1.592   8.516  0.00  0.00     0.045 A 
ENDROOT
BRANCH   1  20
ATOM     20  O2  ZIN A   1      19.643  -1.786   6.149  0.00  0.00    -0.356 OA
ATOM     21  C1  ZIN A   1      19.259  -1.217   4.895  0.00  0.00     0.210 C 
ENDBRANCH   1  20
TORSDOF 1
ENDMDL
MODEL 2
REMARK VINA RESULT:      -7.2      2.945      4.913
REMARK  1 active torsions:
REMARK  status: ('A' for Active; 'I' for Inactive)
REMARK    1  A    between atoms: O2_2  and  C3_3 
ROOT
ATOM      1  C3  ZIN A   1      17.488   3.230  10.726  0.00  0.00     0.068 A 
ATOM      2  C4  ZIN A   1      18.553   3.213   9.839  0.00  0.00     0.037 A 
ATOM      3  C5  ZIN A   1      19.427   2.148   9.838  0.00  0.00     0.010 A 
ATOM      4  C6  ZIN A   1      19.254   1.088  10.719  0.00  0.00    -0.049 A 
ATOM      5  C7  ZIN A   1      20.273  -0.019  10.693  0.00  0.00     0.072 C 
ATOM      6  C8  ZIN A   1      19.845  -1.220  11.516  0.00  0.00     0.197 C 
ATOM      7  C10 ZIN A   1      19.252  -0.758  12.848  0.00  0.00     0.030 C 
ATOM      8  C12 ZIN A   1      20.226   0.195  13.543  0.00  0.00     0.008 C 
ATOM      9  C13 ZIN A   1      19.601   0.700  14.847  0.00  0.00     0.001 C 
ATOM     10  C14 ZIN A   1      18.304   1.449  14.535  0.00  0.00     0.001 C 
ATOM     11  C15 ZIN A   1      17.325   0.502  13.836  0.00  0.00     0.015 C 
ATOM     12  C16 ZIN A   1      17.935  -0.038  12.548  0.00  0.00    -0.005 C 
ATOM     13  C17 ZIN A   1      16.966  -1.014  11.868  0.00  0.00     0.042 C 
ATOM     14  C18 ZIN A   1      17.604  -1.454  10.544  0.00  0.00     0.236 C 
ATOM     15  N19 ZIN A   1      18.913  -2.085  10.808  0.00  0.00    -0.070 N 
ATOM     16  H20 ZIN A   1      19.325  -2.364   9.930  0.00  0.00     0.279 HD
ATOM     17  C21 ZIN A   1      18.709  -3.279  11.639  0.00  0.00     0.270 C 
ATOM     18  C22 ZIN A   1      18.186   1.098  11.590  0.00  0.00    -0.040 A 
ATOM     19  C23 ZIN A   1      17.311   2.172  11.603  0.00  0.00     0.045 A 
ENDROOT
BRANCH   1  20
ATOM     20  O2  ZIN A   1      16.626   4.281  10.741  0.00  0.00    -0.356 OA
ATOM     21  C1  ZIN A   1      16.623   5.101  11.911  0.00  0.00     0.210 C 
ENDBRANCH   1  20
TORSDOF 1
ENDMDL
MODEL 3
REMARK VINA RESULT:      -7.2      1.654      3.721
REMARK  1 active torsions:
REMARK  status: ('A' for Active; 'I' for Inactive)
REMARK    1  A    between atoms: O2_2  and  C3_3 
ROOT
ATOM      1  C3  ZIN A   1      18.103   0.003   7.695  0.00  0.00     0.068 A 
ATOM      2  C4  ZIN A   1      19.150  -0.905   7.716  0.00  0.00     0.037 A 
ATOM      3  C5  ZIN A   1      19.799  -1.176   8.901  0.00  0.00     0.010 A 
ATOM      4  C6  ZIN A   1      19.416  -0.547  10.079  0.00  0.00    -0.049 A 
ATOM      5  C7  ZIN A   1      20.199  -0.857  11.326  0.00  0.00     0.072 C 
ATOM      6  C8  ZIN A   1      19.540  -0.306  12.576  0.00  0.00     0.197 C 
ATOM      7  C10 ZIN A   1      19.040   1.117  12.322  0.00  0.00     0.030 C 
ATOM      8  C12 ZIN A   1      20.177   1.970  11.755  0.00  0.00     0.008 C 
ATOM      9  C13 ZIN A   1      19.654   3.375  11.447  0.00  0.00     0.001 C 
ATOM     10  C14 ZIN A   1      18.530   3.287  10.413  0.00  0.00     0.001 C 
ATOM     11  C15 ZIN A   1      17.389   2.432  10.972  0.00  0.00     0.015 C 
ATOM     12  C16 ZIN A   1      17.891   1.035  11.314  0.00  0.00    -0.005 C 
ATOM     13  C17 ZIN A   1      16.754   0.191  11.907  0.00  0.00     0.042 C 
ATOM     14  C18 ZIN A   1      17.303  -1.220  12.151  0.00  0.00     0.236 C 
ATOM     15  N19 ZIN A   1      18.461  -1.153  13.064  0.00  0.00    -0.070 N 
ATOM     16  H20 ZIN A   1      18.817  -2.086  13.212  0.00  0.00     0.279 HD
ATOM     17  C21 ZIN A   1      18.022  -0.602  14.353  0.00  0.00     0.270 C 
ATOM     18  C22 ZIN A   1      18.365   0.344  10.061  0.00  0.00    -0.040 A 
ATOM     19  C23 ZIN A   1      17.717   0.629   8.870  0.00  0.00     0.045 A 
ENDROOT
BRANCH   1  20
ATOM     20  O2  ZIN A   1      17.463   0.284   6.529  0.00  0.00    -0.356 OA
ATOM     21  C1  ZIN A   1      18.116  -0.109   5.321  0.00  0.00     0.210 C 
ENDBRANCH   1  20
TORSDOF 1
ENDMDL
MODEL 4
REMARK VINA RESULT:      -7.0      2.728      5.320
REMARK  1 active torsions:
REMARK  status: ('A' for Active; 'I' for Inactive)
REMARK    1  A    between atoms: O2_2  and  C3_3 
ROOT
ATOM      1  C3  ZIN A   1      17.932  -0.022  14.693  0.00  0.00     0.068 A 
ATOM      2  C4  ZIN A   1      19.151   0.612  14.871  0.00  0.00     0.037 A 
ATOM      3  C5  ZIN A   1      20.064   0.647  13.840  0.00  0.00     0.010 A 
ATOM      4  C6  ZIN A   1      19.776   0.050  12.619  0.00  0.00    -0.049 A 
ATOM      5  C7  ZIN A   1      20.838   0.087  11.553  0.00  0.00     0.072 C 
ATOM      6  C8  ZIN A   1      20.320  -0.374  10.203  0.00  0.00     0.197 C 
ATOM      7  C10 ZIN A   1      19.451  -1.621  10.373  0.00  0.00     0.030 C 
ATOM      8  C12 ZIN A   1      20.215  -2.678  11.174  0.00  0.00     0.008 C 
ATOM      9  C13 ZIN A   1      19.317  -3.899  11.391  0.00  0.00     0.001 C 
ATOM     10  C14 ZIN A   1      18.070  -3.484  12.172  0.00  0.00     0.001 C 
ATOM     11  C15 ZIN A   1      17.301  -2.424  11.379  0.00  0.00     0.015 C 
ATOM     12  C16 ZIN A   1      18.183  -1.207  11.124  0.00  0.00    -0.005 C 
ATOM     13  C17 ZIN A   1      17.422  -0.161  10.298  0.00  0.00     0.042 C 
ATOM     14  C18 ZIN A   1      18.333   1.064  10.148  0.00  0.00     0.236 C 
ATOM     15  N19 ZIN A   1      19.595   0.668   9.492  0.00  0.00    -0.070 N 
ATOM     16  H20 ZIN A   1      20.188   1.481   9.405  0.00  0.00     0.279 HD
ATOM     17  C21 ZIN A   1      19.295   0.153   8.150  0.00  0.00     0.270 C 
ATOM     18  C22 ZIN A   1      18.557  -0.567  12.436  0.00  0.00    -0.040 A 
ATOM     19  C23 ZIN A   1      17.641  -0.614  13.474  0.00  0.00     0.045 A 
ENDROOT
BRANCH   1  20
ATOM     20  O2  ZIN A   1      17.029  -0.069  15.708  0.00  0.00    -0.356 OA
ATOM     21  C1  ZIN A   1      17.343  -0.914  16.816  0.00  0.00     0.210 C 
ENDBRANCH   1  20
TORSDOF 1
ENDMDL
MODEL 5
REMARK VINA RESULT:      -7.0      1.700      4.109
REMARK  1 active torsions:
REMARK  status: ('A' for Active; 'I' for Inactive)
REMARK    1  A    between atoms: O2_2  and  C3_3 
ROOT
ATOM      1  C3  ZIN A   1      18.380  -3.924  10.185  0.00  0.00     0.068 A 
ATOM      2  C4  ZIN A   1      19.533  -3.982  10.953  0.00  0.00     0.037 A 
ATOM      3  C5  ZIN A   1      20.108  -2.819  11.417  0.00  0.00     0.010 A 
ATOM      4  C6  ZIN A   1      19.544  -1.584  11.121  0.00  0.00    -0.049 A 
ATOM      5  C7  ZIN A   1      20.252  -0.353  11.621  0.00  0.00     0.072 C 
ATOM      6  C8  ZIN A   1      19.420   0.904  11.448  0.00  0.00     0.197 C 
ATOM      7  C10 ZIN A   1      18.759   0.909  10.069  0.00  0.00     0.030 C 
ATOM      8  C12 ZIN A   1      19.817   0.675   8.989  0.00  0.00     0.008 C 
ATOM      9  C13 ZIN A   1      19.141   0.622   7.616  0.00  0.00     0.001 C 
ATOM     10  C14 ZIN A   1      18.132  -0.527   7.587  0.00  0.00     0.001 C 
ATOM     11  C15 ZIN A   1      17.071  -0.301   8.668  0.00  0.00     0.015 C 
ATOM     12  C16 ZIN A   1      17.722  -0.216  10.043  0.00  0.00    -0.005 C 
ATOM     13  C17 ZIN A   1      16.660   0.046  11.120  0.00  0.00     0.042 C 
ATOM     14  C18 ZIN A   1      17.369   0.038  12.481  0.00  0.00     0.236 C 
ATOM     15  N19 ZIN A   1      18.425   1.070  12.498  0.00  0.00    -0.070 N 
ATOM     16  H20 ZIN A   1      18.888   1.051  13.395  0.00  0.00     0.279 HD
ATOM     17  C21 ZIN A   1      17.808   2.390  12.309  0.00  0.00     0.270 C 
ATOM     18  C22 ZIN A   1      18.390  -1.527  10.370  0.00  0.00    -0.040 A 
ATOM     19  C23 ZIN A   1      17.814  -2.694   9.893  0.00  0.00     0.045 A 
ENDROOT
BRANCH   1  20
ATOM     20  O2  ZIN A   1      17.811  -5.066   9.717  0.00  0.00    -0.356 OA
ATOM     21  C1  ZIN A   1      17.329  -5.996  10.690  0.00  0.00     0.210 C 
ENDBRANCH   1  20
TORSDOF 1
ENDMDL
MODEL 6
REMARK VINA RESULT:      -6.9      3.170      6.238
REMARK  1 active torsions:
REMARK  status: ('A' for Active; 'I' for Inactive)
REMARK    1  A    between atoms: O2_2  and  C3_3 
ROOT
ATOM      1  C3  ZIN A   1      18.869   1.341  15.366  0.00  0.00     0.068 A 
ATOM      2  C4  ZIN A   1      17.707   0.587  15.423  0.00  0.00     0.037 A 
ATOM      3  C5  ZIN A   1      17.135   0.119  14.260  0.00  0.00     0.010 A 
ATOM      4  C6  ZIN A   1      17.711   0.396  13.027  0.00  0.00    -0.049 A 
ATOM      5  C7  ZIN A   1      17.008  -0.110  11.796  0.00  0.00     0.072 C 
ATOM      6  C8  ZIN A   1      17.851   0.041  10.544  0.00  0.00     0.197 C 
ATOM      7  C10 ZIN A   1      18.527   1.413  10.529  0.00  0.00     0.030 C 
ATOM      8  C12 ZIN A   1      17.480   2.507  10.745  0.00  0.00     0.008 C 
ATOM      9  C13 ZIN A   1      18.172   3.872  10.788  0.00  0.00     0.001 C 
ATOM     10  C14 ZIN A   1      19.173   3.901  11.945  0.00  0.00     0.001 C 
ATOM     11  C15 ZIN A   1      20.223   2.807  11.738  0.00  0.00     0.015 C 
ATOM     12  C16 ZIN A   1      19.556   1.438  11.662  0.00  0.00    -0.005 C 
ATOM     13  C17 ZIN A   1      20.607   0.346  11.419  0.00  0.00     0.042 C 
ATOM     14  C18 ZIN A   1      19.883  -1.006  11.435  0.00  0.00     0.236 C 
ATOM     15  N19 ZIN A   1      18.835  -1.022  10.395  0.00  0.00    -0.070 N 
ATOM     16  H20 ZIN A   1      18.361  -1.913  10.421  0.00  0.00     0.279 HD
ATOM     17  C21 ZIN A   1      19.464  -0.853   9.079  0.00  0.00     0.270 C 
ATOM     18  C22 ZIN A   1      18.875   1.132  12.971  0.00  0.00    -0.040 A 
ATOM     19  C23 ZIN A   1      19.447   1.615  14.137  0.00  0.00     0.045 A 
ENDROOT
BRANCH   1  20
ATOM     20  O2  ZIN A   1      19.435   1.815  16.508  0.00  0.00    -0.356 OA
ATOM     21  C1  ZIN A   1      19.276   1.022  17.687  0.00  0.00     0.210 C 
ENDBRANCH   1  20
TORSDOF 1
ENDMDL
MODEL 7
REMARK VINA RESULT:      -6.8      3.242      5.537
REMARK  1 active torsions:
REMARK  status: ('A' for Active; 'I' for Inactive)
REMARK    1  A    between atoms: O2_2  and  C3_3 
ROOT
ATOM      1  C3  ZIN A   1      18.226   3.923  12.889  0.00  0.00     0.068 A 
ATOM      2  C4  ZIN A   1      19.353   4.043  12.091  0.00  0.00     0.037 A 
ATOM      3  C5  ZIN A   1      19.954   2.914  11.579  0.00  0.00     0.010 A 
ATOM      4  C6  ZIN A   1      19.442   1.652  11.854  0.00  0.00    -0.049 A 
ATOM      5  C7  ZIN A   1      20.176   0.461  11.299  0.00  0.00     0.072 C 
ATOM      6  C8  ZIN A   1      19.393  -0.828  11.459  0.00  0.00     0.197 C 
ATOM      7  C10 ZIN A   1      18.774  -0.896  12.855  0.00  0.00     0.030 C 
ATOM      8  C12 ZIN A   1      19.854  -0.654  13.911  0.00  0.00     0.008 C 
ATOM      9  C13 ZIN A   1      19.216  -0.664  15.303  0.00  0.00     0.001 C 
ATOM     10  C14 ZIN A   1      18.169   0.448  15.393  0.00  0.00     0.001 C 
ATOM     11  C15 ZIN A   1      17.086   0.215  14.337  0.00  0.00     0.015 C 
ATOM     12  C16 ZIN A   1      17.700   0.191  12.942  0.00  0.00    -0.005 C 
ATOM     13  C17 ZIN A   1      16.617  -0.078  11.888  0.00  0.00     0.042 C 
ATOM     14  C18 ZIN A   1      17.285  -0.007  10.509  0.00  0.00     0.236 C 
ATOM     15  N19 ZIN A   1      18.375  -1.000  10.432  0.00  0.00    -0.070 N 
ATOM     16  H20 ZIN A   1      18.811  -0.939   9.524  0.00  0.00     0.279 HD
ATOM     17  C21 ZIN A   1      17.809  -2.345  10.600  0.00  0.00     0.270 C 
ATOM     18  C22 ZIN A   1      18.312   1.534  12.635  0.00  0.00    -0.040 A 
ATOM     19  C23 ZIN A   1      17.711   2.665  13.161  0.00  0.00     0.045 A 
ENDROOT
BRANCH   1  20
ATOM     20  O2  ZIN A   1      17.631   5.031  13.406  0.00  0.00    -0.356 OA
ATOM     21  C1  ZIN A   1      16.429   5.476  12.774  0.00  0.00     0.210 C 
ENDBRANCH   1  20
TORSDOF 1
ENDMDL
MODEL 8
REMARK VINA RESULT:      -6.7      2.652      4.984
REMARK  1 active torsions:
REMARK  status: ('A' for Active; 'I' for Inactive)
REMARK    1  A    between atoms: O2_2  and  C3_3 
ROOT
ATOM      1  C3  ZIN A   1      19.204   3.134  12.119  0.00  0.00     0.068 A 
ATOM      2  C4  ZIN A   1      18.120   2.856  12.938  0.00  0.00     0.037 A 
ATOM      3  C5  ZIN A   1      17.461   1.652  12.819  0.00  0.00     0.010 A 
ATOM      4  C6  ZIN A   1      17.869   0.711  11.882  0.00  0.00    -0.049 A 
ATOM      5  C7  ZIN A   1      17.074  -0.562  11.776  0.00  0.00     0.072 C 
ATOM      6  C8  ZIN A   1      17.755  -1.599  10.903  0.00  0.00     0.197 C 
ATOM      7  C10 ZIN A   1      18.313  -0.939   9.641  0.00  0.00     0.030 C 
ATOM      8  C12 ZIN A   1      17.212  -0.130   8.953  0.00  0.00     0.008 C 
ATOM      9  C13 ZIN A   1      17.792   0.577   7.724  0.00  0.00     0.001 C 
ATOM     10  C14 ZIN A   1      18.911   1.523   8.160  0.00  0.00     0.001 C 
ATOM     11  C15 ZIN A   1      20.016   0.721   8.853  0.00  0.00     0.015 C 
ATOM     12  C16 ZIN A   1      19.457  -0.016  10.065  0.00  0.00    -0.005 C 
ATOM     13  C17 ZIN A   1      20.559  -0.847  10.737  0.00  0.00     0.042 C 
ATOM     14  C18 ZIN A   1      19.953  -1.494  11.989  0.00  0.00     0.236 C 
ATOM     15  N19 ZIN A   1      18.798  -2.331  11.607  0.00  0.00    -0.070 N 
ATOM     16  H20 ZIN A   1      18.404  -2.745  12.439  0.00  0.00     0.279 HD
ATOM     17  C21 ZIN A   1      19.259  -3.402  10.714  0.00  0.00     0.270 C 
ATOM     18  C22 ZIN A   1      18.956   0.981  11.078  0.00  0.00    -0.040 A 
ATOM     19  C23 ZIN A   1      19.615   2.194  11.187  0.00  0.00     0.045 A 
ENDROOT
BRANCH   1  20
ATOM     20  O2  ZIN A   1      19.855   4.322  12.224  0.00  0.00    -0.356 OA
ATOM     21  C1  ZIN A   1      19.616   5.090  13.406  0.00  0.00     0.210 C 
ENDBRANCH   1  20
TORSDOF 1
ENDMDL
MODEL 9
REMARK VINA RESULT:      -6.4      3.254      5.210
REMARK  1 active torsions:
REMARK  status: ('A' for Active; 'I' for Inactive)
REMARK    1  A    between atoms: O2_2  and  C3_3 
ROOT
ATOM      1  C3  ZIN A   1      18.205  -1.090   7.893  0.00  0.00     0.068 A 
ATOM      2  C4  ZIN A   1      19.077  -1.375   6.854  0.00  0.00     0.037 A 
ATOM      3  C5  ZIN A   1      19.506  -2.670   6.654  0.00  0.00     0.010 A 
ATOM      4  C6  ZIN A   1      19.074  -3.695   7.486  0.00  0.00    -0.049 A 
ATOM      5  C7  ZIN A   1      19.618  -5.076   7.236  0.00  0.00     0.072 C 
ATOM      6  C8  ZIN A   1      18.894  -6.139   8.041  0.00  0.00     0.197 C 
ATOM      7  C10 ZIN A   1      18.673  -5.651   9.474  0.00  0.00     0.030 C 
ATOM      8  C12 ZIN A   1      20.000  -5.176  10.068  0.00  0.00     0.008 C 
ATOM      9  C13 ZIN A   1      19.761  -4.635  11.480  0.00  0.00     0.001 C 
ATOM     10  C14 ZIN A   1      18.790  -3.455  11.417  0.00  0.00     0.001 C 
ATOM     11  C15 ZIN A   1      17.459  -3.922  10.821  0.00  0.00     0.015 C 
ATOM     12  C16 ZIN A   1      17.674  -4.493   9.424  0.00  0.00    -0.005 C 
ATOM     13  C17 ZIN A   1      16.344  -4.993   8.842  0.00  0.00     0.042 C 
ATOM     14  C18 ZIN A   1      16.616  -5.476   7.412  0.00  0.00     0.236 C 
ATOM     15  N19 ZIN A   1      17.635  -6.545   7.434  0.00  0.00    -0.070 N 
ATOM     16  H20 ZIN A   1      17.810  -6.850   6.487  0.00  0.00     0.279 HD
ATOM     17  C21 ZIN A   1      17.121  -7.680   8.212  0.00  0.00     0.270 C 
ATOM     18  C22 ZIN A   1      18.195  -3.414   8.509  0.00  0.00    -0.040 A 
ATOM     19  C23 ZIN A   1      17.770  -2.112   8.721  0.00  0.00     0.045 A 
ENDROOT
BRANCH   1  20
ATOM     20  O2  ZIN A   1      17.784   0.185   8.103  0.00  0.00    -0.356 OA
ATOM     21  C1  ZIN A   1      18.795   1.187   8.242  0.00  0.00     0.210 C 
ENDBRANCH   1  20
TORSDOF 1
ENDMDL
