MODEL 1
REMARK VINA RESULT:      -8.8      0.000      0.000
REMARK  8 active torsions:
REMARK  status: ('A' for Active; 'I' for Inactive)
REMARK    1  A    between atoms: O1_1  and  C2_2 
REMARK    2  A    between atoms: C2_2  and  C4_3 
REMARK    3  A    between atoms: C2_2  and  C22_19 
REMARK    4  A    between atoms: C4_3  and  N5_4 
REMARK    5  A    between atoms: N5_4  and  C6_5 
REMARK    6  A    between atoms: C6_5  and  C7_6 
REMARK    7  A    between atoms: C7_6  and  O9_7 
REMARK    8  A    between atoms: C7_6  and  C10_8 
ROOT
ATOM      1  N5  ZIN A   1      17.546  -4.165   7.570  0.00  0.00     0.088 N 
ATOM      2  H37 ZIN A   1      16.837  -3.678   7.042  0.00  0.00     0.316 HD
ENDROOT
BRANCH   1   3
ATOM      3  C4  ZIN A   1      16.942  -5.117   8.510  0.00  0.00     0.303 C 
BRANCH   3   4
ATOM      4  C2  ZIN A   1      17.978  -5.530   9.557  0.00  0.00     0.175 C 
BRANCH   4   5
ATOM      5  O1  ZIN A   1      17.343  -6.300  10.579  0.00  0.00    -0.391 OA
ATOM      6  H34 ZIN A   1      17.774  -7.146  10.760  0.00  0.00     0.210 HD
ENDBRANCH   4   5
BRANCH   4   7
ATOM      7  C22 ZIN A   1      18.605  -4.279  10.177  0.00  0.00     0.159 C 
ATOM      8  O33 ZIN A   1      17.577  -3.436  10.702  0.00  0.00    -0.343 OA
ATOM      9  C32 ZIN A   1      17.952  -2.396  11.492  0.00  0.00     0.075 A 
ATOM     10  C26 ZIN A   1      19.205  -2.337  12.074  0.00  0.00    -0.022 A 
ATOM     11  C31 ZIN A   1      17.037  -1.372  11.718  0.00  0.00     0.040 A 
ATOM     12  C25 ZIN A   1      20.228  -3.422  11.850  0.00  0.00     0.044 C 
ATOM     13  C27 ZIN A   1      19.541  -1.263  12.882  0.00  0.00     0.052 A 
ATOM     14  C24 ZIN A   1      19.536  -4.682  11.327  0.00  0.00     0.040 C 
ATOM     15  C28 ZIN A   1      18.629  -0.247  13.106  0.00  0.00     0.117 A 
ATOM     16  F29 ZIN A   1      18.960   0.798  13.895  0.00  0.00    -0.206 F 
ATOM     17  C30 ZIN A   1      17.375  -0.303  12.521  0.00  0.00     0.045 A 
ENDBRANCH   4   7
ENDBRANCH   3   4
ENDBRANCH   1   3
BRANCH   1  18
ATOM     18  C6  ZIN A   1      18.498  -4.837   6.678  0.00  0.00     0.303 C 
BRANCH  18  19
ATOM     19  C7  ZIN A   1      19.431  -3.799   6.050  0.00  0.00     0.175 C 
BRANCH  19  20
ATOM     20  O9  ZIN A   1      20.743  -3.946   6.597  0.00  0.00    -0.391 OA
ATOM     21  H40 ZIN A   1      20.892  -4.794   7.039  0.00  0.00     0.210 HD
ENDBRANCH  19  20
BRANCH  19  22
ATOM     22  C10 ZIN A   1      18.906  -2.394   6.350  0.00  0.00     0.159 C 
ATOM     23  O21 ZIN A   1      19.468  -1.923   7.577  0.00  0.00    -0.343 OA
ATOM     24  C20 ZIN A   1      19.301  -0.611   7.888  0.00  0.00     0.075 A 
ATOM     25  C14 ZIN A   1      18.936   0.325   6.936  0.00  0.00    -0.022 A 
ATOM     26  C19 ZIN A   1      19.513  -0.210   9.204  0.00  0.00     0.040 A 
ATOM     27  C13 ZIN A   1      18.692  -0.069   5.501  0.00  0.00     0.044 C 
ATOM     28  C15 ZIN A   1      18.789   1.654   7.295  0.00  0.00     0.052 A 
ATOM     29  C12 ZIN A   1      19.324  -1.436   5.226  0.00  0.00     0.040 C 
ATOM     30  C16 ZIN A   1      19.001   2.050   8.603  0.00  0.00     0.117 A 
ATOM     31  F17 ZIN A   1      18.856   3.348   8.948  0.00  0.00    -0.206 F 
ATOM     32  C18 ZIN A   1      19.363   1.116   9.558  0.00  0.00     0.045 A 
ENDBRANCH  19  22
ENDBRANCH  18  19
ENDBRANCH   1  18
TORSDOF 8
ENDMDL
MODEL 2
REMARK VINA RESULT:      -8.7      1.107      5.224
REMARK  8 active torsions:
REMARK  status: ('A' for Active; 'I' for Inactive)
REMARK    1  A    between atoms: O1_1  and  C2_2 
REMARK    2  A    between atoms: C2_2  and  C4_3 
REMARK    3  A    between atoms: C2_2  and  C22_19 
REMARK    4  A    between atoms: C4_3  and  N5_4 
REMARK    5  A    between atoms: N5_4  and  C6_5 
REMARK    6  A    between atoms: C6_5  and  C7_6 
REMARK    7  A    between atoms: C7_6  and  O9_7 
REMARK    8  A    between atoms: C7_6  and  C10_8 
ROOT
ATOM      1  N5  ZIN A   1      18.212  -4.100   6.617  0.00  0.00     0.088 N 
ATOM      2  H37 ZIN A   1      17.621  -3.405   7.049  0.00  0.00     0.316 HD
ENDROOT
BRANCH   1   3
ATOM      3  C4  ZIN A   1      19.277  -3.470   5.827  0.00  0.00     0.303 C 
BRANCH   3   4
ATOM      4  C2  ZIN A   1      18.696  -2.304   5.024  0.00  0.00     0.175 C 
BRANCH   4   5
ATOM      5  O1  ZIN A   1      19.622  -1.919   4.006  0.00  0.00    -0.391 OA
ATOM      6  H34 ZIN A   1      20.394  -1.440   4.338  0.00  0.00     0.210 HD
ENDBRANCH   4   5
BRANCH   4   7
ATOM      7  C22 ZIN A   1      18.441  -1.119   5.958  0.00  0.00     0.159 C 
ATOM      8  O33 ZIN A   1      19.198  -1.281   7.159  0.00  0.00    -0.343 OA
ATOM      9  C32 ZIN A   1      19.280  -0.221   8.005  0.00  0.00     0.075 A 
ATOM     10  C26 ZIN A   1      18.973   1.064   7.596  0.00  0.00    -0.022 A 
ATOM     11  C31 ZIN A   1      19.690  -0.449   9.315  0.00  0.00     0.040 A 
ATOM     12  C25 ZIN A   1      18.518   1.353   6.188  0.00  0.00     0.044 C 
ATOM     13  C27 ZIN A   1      19.082   2.117   8.489  0.00  0.00     0.052 A 
ATOM     14  C24 ZIN A   1      18.888   0.181   5.276  0.00  0.00     0.040 C 
ATOM     15  C28 ZIN A   1      19.492   1.888   9.790  0.00  0.00     0.117 A 
ATOM     16  F29 ZIN A   1      19.598   2.918  10.658  0.00  0.00    -0.206 F 
ATOM     17  C30 ZIN A   1      19.796   0.602  10.203  0.00  0.00     0.045 A 
ENDBRANCH   4   7
ENDBRANCH   3   4
ENDBRANCH   1   3
BRANCH   1  18
ATOM     18  C6  ZIN A   1      18.772  -5.012   7.623  0.00  0.00     0.303 C 
BRANCH  18  19
ATOM     19  C7  ZIN A   1      17.944  -4.926   8.908  0.00  0.00     0.175 C 
BRANCH  19  20
ATOM     20  O9  ZIN A   1      16.617  -4.500   8.591  0.00  0.00    -0.391 OA
ATOM     21  H40 ZIN A   1      16.459  -3.559   8.749  0.00  0.00     0.210 HD
ENDBRANCH  19  20
BRANCH  19  22
ATOM     22  C10 ZIN A   1      18.589  -3.922   9.864  0.00  0.00     0.159 C 
ATOM     23  O21 ZIN A   1      17.577  -3.114  10.468  0.00  0.00    -0.343 OA
ATOM     24  C20 ZIN A   1      17.936  -2.325  11.515  0.00  0.00     0.075 A 
ATOM     25  C14 ZIN A   1      19.110  -2.534  12.218  0.00  0.00    -0.022 A 
ATOM     26  C19 ZIN A   1      17.087  -1.286  11.882  0.00  0.00     0.040 A 
ATOM     27  C13 ZIN A   1      20.059  -3.645  11.848  0.00  0.00     0.044 C 
ATOM     28  C15 ZIN A   1      19.429  -1.713  13.286  0.00  0.00     0.052 A 
ATOM     29  C12 ZIN A   1      19.335  -4.674  10.975  0.00  0.00     0.040 C 
ATOM     30  C16 ZIN A   1      18.583  -0.682  13.650  0.00  0.00     0.117 A 
ATOM     31  F17 ZIN A   1      18.900   0.116  14.694  0.00  0.00    -0.206 F 
ATOM     32  C18 ZIN A   1      17.411  -0.468  12.946  0.00  0.00     0.045 A 
ENDBRANCH  19  22
ENDBRANCH  18  19
ENDBRANCH   1  18
TORSDOF 8
ENDMDL
MODEL 3
REMARK VINA RESULT:      -8.6      4.919      7.317
REMARK  8 active torsions:
REMARK  status: ('A' for Active; 'I' for Inactive)
REMARK    1  A    between atoms: O1_1  and  C2_2 
REMARK    2  A    between atoms: C2_2  and  C4_3 
REMARK    3  A    between atoms: C2_2  and  C22_19 
REMARK    4  A    between atoms: C4_3  and  N5_4 
REMARK    5  A    between atoms: N5_4  and  C6_5 
REMARK    6  A    between atoms: C6_5  and  C7_6 
REMARK    7  A    between atoms: C7_6  and  O9_7 
REMARK    8  A    between atoms: C7_6  and  C10_8 
ROOT
ATOM      1  N5  ZIN A   1      18.274   3.511  15.882  0.00  0.00     0.088 N 
ATOM      2  H37 ZIN A   1      18.011   2.767  15.252  0.00  0.00     0.316 HD
ENDROOT
BRANCH   1   3
ATOM      3  C4  ZIN A   1      19.236   3.037  16.885  0.00  0.00     0.303 C 
BRANCH   3   4
ATOM      4  C2  ZIN A   1      18.823   1.646  17.371  0.00  0.00     0.175 C 
BRANCH   4   5
ATOM      5  O1  ZIN A   1      19.857   1.105  18.196  0.00  0.00    -0.391 OA
ATOM      6  H34 ZIN A   1      19.695   1.204  19.145  0.00  0.00     0.210 HD
ENDBRANCH   4   5
BRANCH   4   7
ATOM      7  C22 ZIN A   1      18.600   0.729  16.166  0.00  0.00     0.159 C 
ATOM      8  O33 ZIN A   1      19.566   1.021  15.155  0.00  0.00    -0.343 OA
ATOM      9  C32 ZIN A   1      19.671   0.158  14.111  0.00  0.00     0.075 A 
ATOM     10  C26 ZIN A   1      19.154  -1.124  14.169  0.00  0.00    -0.022 A 
ATOM     11  C31 ZIN A   1      20.324   0.586  12.960  0.00  0.00     0.040 A 
ATOM     12  C25 ZIN A   1      18.433  -1.625  15.395  0.00  0.00     0.044 C 
ATOM     13  C27 ZIN A   1      19.294  -1.975  13.085  0.00  0.00     0.052 A 
ATOM     14  C24 ZIN A   1      18.771  -0.734  16.592  0.00  0.00     0.040 C 
ATOM     15  C28 ZIN A   1      19.946  -1.547  11.943  0.00  0.00     0.117 A 
ATOM     16  F29 ZIN A   1      20.081  -2.380  10.888  0.00  0.00    -0.206 F 
ATOM     17  C30 ZIN A   1      20.461  -0.263  11.881  0.00  0.00     0.045 A 
ENDBRANCH   4   7
ENDBRANCH   3   4
ENDBRANCH   1   3
BRANCH   1  18
ATOM     18  C6  ZIN A   1      18.808   4.662  15.142  0.00  0.00     0.303 C 
BRANCH  18  19
ATOM     19  C7  ZIN A   1      17.937   4.927  13.912  0.00  0.00     0.175 C 
BRANCH  19  20
ATOM     20  O9  ZIN A   1      16.559   4.783  14.264  0.00  0.00    -0.391 OA
ATOM     21  H40 ZIN A   1      16.018   5.557  14.056  0.00  0.00     0.210 HD
ENDBRANCH  19  20
BRANCH  19  22
ATOM     22  C10 ZIN A   1      18.290   3.925  12.811  0.00  0.00     0.159 C 
ATOM     23  O21 ZIN A   1      17.394   2.814  12.866  0.00  0.00    -0.343 OA
ATOM     24  C20 ZIN A   1      17.405   1.938  11.827  0.00  0.00     0.075 A 
ATOM     25  C14 ZIN A   1      17.969   2.262  10.605  0.00  0.00    -0.022 A 
ATOM     26  C19 ZIN A   1      16.825   0.687  12.009  0.00  0.00     0.040 A 
ATOM     27  C13 ZIN A   1      18.614   3.605  10.369  0.00  0.00     0.044 C 
ATOM     28  C15 ZIN A   1      17.948   1.343   9.570  0.00  0.00     0.052 A 
ATOM     29  C12 ZIN A   1      18.148   4.596  11.438  0.00  0.00     0.040 C 
ATOM     30  C16 ZIN A   1      17.369   0.100   9.754  0.00  0.00     0.117 A 
ATOM     31  F17 ZIN A   1      17.350  -0.793   8.740  0.00  0.00    -0.206 F 
ATOM     32  C18 ZIN A   1      16.807  -0.228  10.975  0.00  0.00     0.045 A 
ENDBRANCH  19  22
ENDBRANCH  18  19
ENDBRANCH   1  18
TORSDOF 8
ENDMDL
MODEL 4
REMARK VINA RESULT:      -8.6      4.800      7.292
REMARK  8 active torsions:
REMARK  status: ('A' for Active; 'I' for Inactive)
REMARK    1  A    between atoms: O1_1  and  C2_2 
REMARK    2  A    between atoms: C2_2  and  C4_3 
REMARK    3  A    between atoms: C2_2  and  C22_19 
REMARK    4  A    between atoms: C4_3  and  N5_4 
REMARK    5  A    between atoms: N5_4  and  C6_5 
REMARK    6  A    between atoms: C6_5  and  C7_6 
REMARK    7  A    between atoms: C7_6  and  O9_7 
REMARK    8  A    between atoms: C7_6  and  C10_8 
ROOT
ATOM      1  N5  ZIN A   1      19.989   4.821  13.535  0.00  0.00     0.088 N 
ATOM      2  H37 ZIN A   1      20.645   5.550  13.296  0.00  0.00     0.316 HD
ENDROOT
BRANCH   1   3
ATOM      3  C4  ZIN A   1      19.033   5.284  14.549  0.00  0.00     0.303 C 
BRANCH   3   4
ATOM      4  C2  ZIN A   1      19.481   4.804  15.930  0.00  0.00     0.175 C 
BRANCH   4   5
ATOM      5  O1  ZIN A   1      20.885   4.540  15.910  0.00  0.00    -0.391 OA
ATOM      6  H34 ZIN A   1      21.266   4.507  15.022  0.00  0.00     0.210 HD
ENDBRANCH   4   5
BRANCH   4   7
ATOM      7  C22 ZIN A   1      18.726   3.524  16.296  0.00  0.00     0.159 C 
ATOM      8  O33 ZIN A   1      19.169   2.450  15.464  0.00  0.00    -0.343 OA
ATOM      9  C32 ZIN A   1      18.782   1.190  15.794  0.00  0.00     0.075 A 
ATOM     10  C26 ZIN A   1      18.297   0.883  17.053  0.00  0.00    -0.022 A 
ATOM     11  C31 ZIN A   1      18.888   0.191  14.832  0.00  0.00     0.040 A 
ATOM     12  C25 ZIN A   1      18.160   1.938  18.122  0.00  0.00     0.044 C 
ATOM     13  C27 ZIN A   1      17.925  -0.418  17.350  0.00  0.00     0.052 A 
ATOM     14  C24 ZIN A   1      19.014   3.154  17.757  0.00  0.00     0.040 C 
ATOM     15  C28 ZIN A   1      18.033  -1.410  16.392  0.00  0.00     0.117 A 
ATOM     16  F29 ZIN A   1      17.670  -2.677  16.687  0.00  0.00    -0.206 F 
ATOM     17  C30 ZIN A   1      18.515  -1.103  15.131  0.00  0.00     0.045 A 
ENDBRANCH   4   7
ENDBRANCH   3   4
ENDBRANCH   1   3
BRANCH   1  18
ATOM     18  C6  ZIN A   1      19.292   4.328  12.340  0.00  0.00     0.303 C 
BRANCH  18  19
ATOM     19  C7  ZIN A   1      19.645   2.856  12.113  0.00  0.00     0.175 C 
BRANCH  19  20
ATOM     20  O9  ZIN A   1      20.997   2.756  11.660  0.00  0.00    -0.391 OA
ATOM     21  H40 ZIN A   1      21.653   2.782  12.370  0.00  0.00     0.210 HD
ENDBRANCH  19  20
BRANCH  19  22
ATOM     22  C10 ZIN A   1      18.707   2.263  11.061  0.00  0.00     0.159 C 
ATOM     23  O21 ZIN A   1      19.379   2.193   9.802  0.00  0.00    -0.343 OA
ATOM     24  C20 ZIN A   1      18.787   1.484   8.806  0.00  0.00     0.075 A 
ATOM     25  C14 ZIN A   1      17.781   0.568   9.060  0.00  0.00    -0.022 A 
ATOM     26  C19 ZIN A   1      19.219   1.690   7.499  0.00  0.00     0.040 A 
ATOM     27  C13 ZIN A   1      17.280   0.320  10.461  0.00  0.00     0.044 C 
ATOM     28  C15 ZIN A   1      17.214  -0.142   8.015  0.00  0.00     0.052 A 
ATOM     29  C12 ZIN A   1      18.302   0.842  11.474  0.00  0.00     0.040 C 
ATOM     30  C16 ZIN A   1      17.646   0.063   6.717  0.00  0.00     0.117 A 
ATOM     31  F17 ZIN A   1      17.090  -0.633   5.702  0.00  0.00    -0.206 F 
ATOM     32  C18 ZIN A   1      18.650   0.981   6.460  0.00  0.00     0.045 A 
ENDBRANCH  19  22
ENDBRANCH  18  19
ENDBRANCH   1  18
TORSDOF 8
ENDMDL
MODEL 5
REMARK VINA RESULT:      -8.6      1.748      2.524
REMARK  8 active torsions:
REMARK  status: ('A' for Active; 'I' for Inactive)
REMARK    1  A    between atoms: O1_1  and  C2_2 
REMARK    2  A    between atoms: C2_2  and  C4_3 
REMARK    3  A    between atoms: C2_2  and  C22_19 
REMARK    4  A    between atoms: C4_3  and  N5_4 
REMARK    5  A    between atoms: N5_4  and  C6_5 
REMARK    6  A    between atoms: C6_5  and  C7_6 
REMARK    7  A    between atoms: C7_6  and  O9_7 
REMARK    8  A    between atoms: C7_6  and  C10_8 
ROOT
ATOM      1  N5  ZIN A   1      18.100  -2.983   6.861  0.00  0.00     0.088 N 
ATOM      2  H37 ZIN A   1      17.355  -3.513   6.435  0.00  0.00     0.316 HD
ENDROOT
BRANCH   1   3
ATOM      3  C4  ZIN A   1      19.054  -3.867   7.541  0.00  0.00     0.303 C 
BRANCH   3   4
ATOM      4  C2  ZIN A   1      18.348  -4.598   8.684  0.00  0.00     0.175 C 
BRANCH   4   5
ATOM      5  O1  ZIN A   1      16.933  -4.484   8.520  0.00  0.00    -0.391 OA
ATOM      6  H34 ZIN A   1      16.635  -3.595   8.286  0.00  0.00     0.210 HD
ENDBRANCH   4   5
BRANCH   4   7
ATOM      7  C22 ZIN A   1      18.758  -3.974  10.020  0.00  0.00     0.159 C 
ATOM      8  O33 ZIN A   1      19.355  -2.696   9.791  0.00  0.00    -0.343 OA
ATOM      9  C32 ZIN A   1      19.570  -1.895  10.866  0.00  0.00     0.075 A 
ATOM     10  C26 ZIN A   1      18.934  -2.110  12.076  0.00  0.00    -0.022 A 
ATOM     11  C31 ZIN A   1      20.454  -0.828  10.732  0.00  0.00     0.040 A 
ATOM     12  C25 ZIN A   1      17.975  -3.258  12.266  0.00  0.00     0.044 C 
ATOM     13  C27 ZIN A   1      19.175  -1.261  13.143  0.00  0.00     0.052 A 
ATOM     14  C24 ZIN A   1      17.518  -3.778  10.901  0.00  0.00     0.040 C 
ATOM     15  C28 ZIN A   1      20.053  -0.200  13.006  0.00  0.00     0.117 A 
ATOM     16  F29 ZIN A   1      20.284   0.627  14.049  0.00  0.00    -0.206 F 
ATOM     17  C30 ZIN A   1      20.693   0.015  11.797  0.00  0.00     0.045 A 
ENDBRANCH   4   7
ENDBRANCH   3   4
ENDBRANCH   1   3
BRANCH   1  18
ATOM     18  C6  ZIN A   1      18.778  -2.138   5.869  0.00  0.00     0.303 C 
BRANCH  18  19
ATOM     19  C7  ZIN A   1      17.820  -1.046   5.387  0.00  0.00     0.175 C 
BRANCH  19  20
ATOM     20  O9  ZIN A   1      18.253  -0.562   4.114  0.00  0.00    -0.391 OA
ATOM     21  H40 ZIN A   1      19.205  -0.648   3.964  0.00  0.00     0.210 HD
ENDBRANCH  19  20
BRANCH  19  22
ATOM     22  C10 ZIN A   1      17.809   0.104   6.396  0.00  0.00     0.159 C 
ATOM     23  O21 ZIN A   1      17.446  -0.391   7.685  0.00  0.00    -0.343 OA
ATOM     24  C20 ZIN A   1      17.607   0.437   8.751  0.00  0.00     0.075 A 
ATOM     25  C14 ZIN A   1      18.411   1.562   8.686  0.00  0.00    -0.022 A 
ATOM     26  C19 ZIN A   1      16.944   0.129   9.935  0.00  0.00     0.040 A 
ATOM     27  C13 ZIN A   1      19.141   1.933   7.421  0.00  0.00     0.044 C 
ATOM     28  C15 ZIN A   1      18.555   2.371   9.801  0.00  0.00     0.052 A 
ATOM     29  C12 ZIN A   1      19.212   0.720   6.490  0.00  0.00     0.040 C 
ATOM     30  C16 ZIN A   1      17.897   2.062  10.977  0.00  0.00     0.117 A 
ATOM     31  F17 ZIN A   1      18.042   2.855  12.061  0.00  0.00    -0.206 F 
ATOM     32  C18 ZIN A   1      17.090   0.939  11.043  0.00  0.00     0.045 A 
ENDBRANCH  19  22
ENDBRANCH  18  19
ENDBRANCH   1  18
TORSDOF 8
ENDMDL
MODEL 6
REMARK VINA RESULT:      -8.6      4.629      8.272
REMARK  8 active torsions:
REMARK  status: ('A' for Active; 'I' for Inactive)
REMARK    1  A    between atoms: O1_1  and  C2_2 
REMARK    2  A    between atoms: C2_2  and  C4_3 
REMARK    3  A    between atoms: C2_2  and  C22_19 
REMARK    4  A    between atoms: C4_3  and  N5_4 
REMARK    5  A    between atoms: N5_4  and  C6_5 
REMARK    6  A    between atoms: C6_5  and  C7_6 
REMARK    7  A    between atoms: C7_6  and  O9_7 
REMARK    8  A    between atoms: C7_6  and  C10_8 
ROOT
ATOM      1  N5  ZIN A   1      18.038   2.820  15.930  0.00  0.00     0.088 N 
ATOM      2  H37 ZIN A   1      17.232   2.885  16.534  0.00  0.00     0.316 HD
ENDROOT
BRANCH   1   3
ATOM      3  C4  ZIN A   1      18.846   4.044  15.995  0.00  0.00     0.303 C 
BRANCH   3   4
ATOM      4  C2  ZIN A   1      18.074   5.201  15.356  0.00  0.00     0.175 C 
BRANCH   4   5
ATOM      5  O1  ZIN A   1      16.697   5.116  15.727  0.00  0.00    -0.391 OA
ATOM      6  H34 ZIN A   1      16.234   4.356  15.349  0.00  0.00     0.210 HD
ENDBRANCH   4   5
BRANCH   4   7
ATOM      7  C22 ZIN A   1      18.198   5.117  13.833  0.00  0.00     0.159 C 
ATOM      8  O33 ZIN A   1      18.850   3.899  13.469  0.00  0.00    -0.343 OA
ATOM      9  C32 ZIN A   1      18.843   3.543  12.158  0.00  0.00     0.075 A 
ATOM     10  C26 ZIN A   1      17.959   4.105  11.255  0.00  0.00    -0.022 A 
ATOM     11  C31 ZIN A   1      19.751   2.580  11.728  0.00  0.00     0.040 A 
ATOM     12  C25 ZIN A   1      16.964   5.155  11.678  0.00  0.00     0.044 C 
ATOM     13  C27 ZIN A   1      17.978   3.703   9.929  0.00  0.00     0.052 A 
ATOM     14  C24 ZIN A   1      16.801   5.127  13.200  0.00  0.00     0.040 C 
ATOM     15  C28 ZIN A   1      18.881   2.745   9.504  0.00  0.00     0.117 A 
ATOM     16  F29 ZIN A   1      18.896   2.355   8.211  0.00  0.00    -0.206 F 
ATOM     17  C30 ZIN A   1      19.769   2.184  10.407  0.00  0.00     0.045 A 
ENDBRANCH   4   7
ENDBRANCH   3   4
ENDBRANCH   1   3
BRANCH   1  18
ATOM     18  C6  ZIN A   1      18.845   1.638  16.255  0.00  0.00     0.303 C 
BRANCH  18  19
ATOM     19  C7  ZIN A   1      17.926   0.429  16.450  0.00  0.00     0.175 C 
BRANCH  19  20
ATOM     20  O9  ZIN A   1      18.404  -0.360  17.541  0.00  0.00    -0.391 OA
ATOM     21  H40 ZIN A   1      19.241  -0.049  17.914  0.00  0.00     0.210 HD
ENDBRANCH  19  20
BRANCH  19  22
ATOM     22  C10 ZIN A   1      17.916  -0.415  15.174  0.00  0.00     0.159 C 
ATOM     23  O21 ZIN A   1      17.413   0.364  14.087  0.00  0.00    -0.343 OA
ATOM     24  C20 ZIN A   1      17.546  -0.140  12.832  0.00  0.00     0.075 A 
ATOM     25  C14 ZIN A   1      18.431  -1.165  12.546  0.00  0.00    -0.022 A 
ATOM     26  C19 ZIN A   1      16.768   0.404  11.814  0.00  0.00     0.040 A 
ATOM     27  C13 ZIN A   1      19.287  -1.786  13.621  0.00  0.00     0.044 C 
ATOM     28  C15 ZIN A   1      18.542  -1.639  11.251  0.00  0.00     0.052 A 
ATOM     29  C12 ZIN A   1      19.346  -0.855  14.835  0.00  0.00     0.040 C 
ATOM     30  C16 ZIN A   1      17.768  -1.096  10.240  0.00  0.00     0.117 A 
ATOM     31  F17 ZIN A   1      17.882  -1.563   8.977  0.00  0.00    -0.206 F 
ATOM     32  C18 ZIN A   1      16.880  -0.073  10.524  0.00  0.00     0.045 A 
ENDBRANCH  19  22
ENDBRANCH  18  19
ENDBRANCH   1  18
TORSDOF 8
ENDMDL
MODEL 7
REMARK VINA RESULT:      -8.5      5.769      9.649
REMARK  8 active torsions:
REMARK  status: ('A' for Active; 'I' for Inactive)
REMARK    1  A    between atoms: O1_1  and  C2_2 
REMARK    2  A    between atoms: C2_2  and  C4_3 
REMARK    3  A    between atoms: C2_2  and  C22_19 
REMARK    4  A    between atoms: C4_3  and  N5_4 
REMARK    5  A    between atoms: N5_4  and  C6_5 
REMARK    6  A    between atoms: C6_5  and  C7_6 
REMARK    7  A    between atoms: C7_6  and  O9_7 
REMARK    8  A    between atoms: C7_6  and  C10_8 
ROOT
ATOM      1  N5  ZIN A   1      18.322   4.492  16.757  0.00  0.00     0.088 N 
ATOM      2  H37 ZIN A   1      17.658   4.628  17.505  0.00  0.00     0.316 HD
ENDROOT
BRANCH   1   3
ATOM      3  C4  ZIN A   1      18.937   5.764  16.360  0.00  0.00     0.303 C 
BRANCH   3   4
ATOM      4  C2  ZIN A   1      17.896   6.638  15.658  0.00  0.00     0.175 C 
BRANCH   4   5
ATOM      5  O1  ZIN A   1      16.626   6.467  16.291  0.00  0.00    -0.391 OA
ATOM      6  H34 ZIN A   1      15.894   6.894  15.826  0.00  0.00     0.210 HD
ENDBRANCH   4   5
BRANCH   4   7
ATOM      7  C22 ZIN A   1      17.792   6.227  14.187  0.00  0.00     0.159 C 
ATOM      8  O33 ZIN A   1      18.752   5.208  13.904  0.00  0.00    -0.343 OA
ATOM      9  C32 ZIN A   1      18.654   4.557  12.715  0.00  0.00     0.075 A 
ATOM     10  C26 ZIN A   1      17.497   4.593  11.957  0.00  0.00    -0.022 A 
ATOM     11  C31 ZIN A   1      19.753   3.835  12.262  0.00  0.00     0.040 A 
ATOM     12  C25 ZIN A   1      16.286   5.370  12.408  0.00  0.00     0.044 C 
ATOM     13  C27 ZIN A   1      17.437   3.905  10.756  0.00  0.00     0.052 A 
ATOM     14  C24 ZIN A   1      16.392   5.666  13.906  0.00  0.00     0.040 C 
ATOM     15  C28 ZIN A   1      18.531   3.186  10.310  0.00  0.00     0.117 A 
ATOM     16  F29 ZIN A   1      18.468   2.516   9.139  0.00  0.00    -0.206 F 
ATOM     17  C30 ZIN A   1      19.691   3.152  11.065  0.00  0.00     0.045 A 
ENDBRANCH   4   7
ENDBRANCH   3   4
ENDBRANCH   1   3
BRANCH   1  18
ATOM     18  C6  ZIN A   1      19.344   3.507  17.133  0.00  0.00     0.303 C 
BRANCH  18  19
ATOM     19  C7  ZIN A   1      18.709   2.417  18.000  0.00  0.00     0.175 C 
BRANCH  19  20
ATOM     20  O9  ZIN A   1      19.661   1.960  18.962  0.00  0.00    -0.391 OA
ATOM     21  H40 ZIN A   1      20.149   2.671  19.400  0.00  0.00     0.210 HD
ENDBRANCH  19  20
BRANCH  19  22
ATOM     22  C10 ZIN A   1      18.276   1.247  17.113  0.00  0.00     0.159 C 
ATOM     23  O21 ZIN A   1      18.236   1.668  15.749  0.00  0.00    -0.343 OA
ATOM     24  C20 ZIN A   1      18.099   0.711  14.794  0.00  0.00     0.075 A 
ATOM     25  C14 ZIN A   1      18.347  -0.625  15.058  0.00  0.00    -0.022 A 
ATOM     26  C19 ZIN A   1      17.702   1.099  13.518  0.00  0.00     0.040 A 
ATOM     27  C13 ZIN A   1      18.773  -1.088  16.429  0.00  0.00     0.044 C 
ATOM     28  C15 ZIN A   1      18.207  -1.565  14.052  0.00  0.00     0.052 A 
ATOM     29  C12 ZIN A   1      19.291   0.103  17.238  0.00  0.00     0.040 C 
ATOM     30  C16 ZIN A   1      17.813  -1.176  12.784  0.00  0.00     0.117 A 
ATOM     31  F17 ZIN A   1      17.678  -2.098  11.805  0.00  0.00    -0.206 F 
ATOM     32  C18 ZIN A   1      17.561   0.158  12.518  0.00  0.00     0.045 A 
ENDBRANCH  19  22
ENDBRANCH  18  19
ENDBRANCH   1  18
TORSDOF 8
ENDMDL
MODEL 8
REMARK VINA RESULT:      -8.4      3.617      5.129
REMARK  8 active torsions:
REMARK  status: ('A' for Active; 'I' for Inactive)
REMARK    1  A    between atoms: O1_1  and  C2_2 
REMARK    2  A    between atoms: C2_2  and  C4_3 
REMARK    3  A    between atoms: C2_2  and  C22_19 
REMARK    4  A    between atoms: C4_3  and  N5_4 
REMARK    5  A    between atoms: N5_4  and  C6_5 
REMARK    6  A    between atoms: C6_5  and  C7_6 
REMARK    7  A    between atoms: C7_6  and  O9_7 
REMARK    8  A    between atoms: C7_6  and  C10_8 
ROOT
ATOM      1  N5  ZIN A   1      20.223  -0.757  12.006  0.00  0.00     0.088 N 
ATOM      2  H37 ZIN A   1      19.610   0.020  12.203  0.00  0.00     0.316 HD
ENDROOT
BRANCH   1   3
ATOM      3  C4  ZIN A   1      19.629  -2.023  12.451  0.00  0.00     0.303 C 
BRANCH   3   4
ATOM      4  C2  ZIN A   1      18.438  -1.734  13.367  0.00  0.00     0.175 C 
BRANCH   4   5
ATOM      5  O1  ZIN A   1      17.534  -0.846  12.707  0.00  0.00    -0.391 OA
ATOM      6  H34 ZIN A   1      17.596  -0.867  11.742  0.00  0.00     0.210 HD
ENDBRANCH   4   5
BRANCH   4   7
ATOM      7  C22 ZIN A   1      18.935  -1.086  14.662  0.00  0.00     0.159 C 
ATOM      8  O33 ZIN A   1      18.679   0.319  14.625  0.00  0.00    -0.343 OA
ATOM      9  C32 ZIN A   1      18.839   1.023  15.776  0.00  0.00     0.075 A 
ATOM     10  C26 ZIN A   1      18.891   0.401  17.011  0.00  0.00    -0.022 A 
ATOM     11  C31 ZIN A   1      18.948   2.408  15.696  0.00  0.00     0.040 A 
ATOM     12  C25 ZIN A   1      18.784  -1.098  17.141  0.00  0.00     0.044 C 
ATOM     13  C27 ZIN A   1      19.044   1.159  18.160  0.00  0.00     0.052 A 
ATOM     14  C24 ZIN A   1      18.187  -1.685  15.860  0.00  0.00     0.040 C 
ATOM     15  C28 ZIN A   1      19.151   2.536  18.077  0.00  0.00     0.117 A 
ATOM     16  F29 ZIN A   1      19.299   3.271  19.200  0.00  0.00    -0.206 F 
ATOM     17  C30 ZIN A   1      19.103   3.160  16.842  0.00  0.00     0.045 A 
ENDBRANCH   4   7
ENDBRANCH   3   4
ENDBRANCH   1   3
BRANCH   1  18
ATOM     18  C6  ZIN A   1      20.565  -0.808  10.579  0.00  0.00     0.303 C 
BRANCH  18  19
ATOM     19  C7  ZIN A   1      19.286  -0.956   9.752  0.00  0.00     0.175 C 
BRANCH  19  20
ATOM     20  O9  ZIN A   1      19.604  -1.527   8.481  0.00  0.00    -0.391 OA
ATOM     21  H40 ZIN A   1      20.461  -1.249   8.129  0.00  0.00     0.210 HD
ENDBRANCH  19  20
BRANCH  19  22
ATOM     22  C10 ZIN A   1      18.648   0.420   9.548  0.00  0.00     0.159 C 
ATOM     23  O21 ZIN A   1      18.401   1.027  10.817  0.00  0.00    -0.343 OA
ATOM     24  C20 ZIN A   1      18.054   2.341  10.835  0.00  0.00     0.075 A 
ATOM     25  C14 ZIN A   1      18.271   3.168   9.746  0.00  0.00    -0.022 A 
ATOM     26  C19 ZIN A   1      17.470   2.857  11.988  0.00  0.00     0.040 A 
ATOM     27  C13 ZIN A   1      18.896   2.647   8.477  0.00  0.00     0.044 C 
ATOM     28  C15 ZIN A   1      17.913   4.503   9.812  0.00  0.00     0.052 A 
ATOM     29  C12 ZIN A   1      19.606   1.320   8.758  0.00  0.00     0.040 C 
ATOM     30  C16 ZIN A   1      17.333   5.014  10.960  0.00  0.00     0.117 A 
ATOM     31  F17 ZIN A   1      16.986   6.319  11.019  0.00  0.00    -0.206 F 
ATOM     32  C18 ZIN A   1      17.112   4.189  12.049  0.00  0.00     0.045 A 
ENDBRANCH  19  22
ENDBRANCH  18  19
ENDBRANCH   1  18
TORSDOF 8
ENDMDL
MODEL 9
REMARK VINA RESULT:      -8.3      5.317      8.013
REMARK  8 active torsions:
REMARK  status: ('A' for Active; 'I' for Inactive)
REMARK    1  A    between atoms: O1_1  and  C2_2 
REMARK    2  A    between atoms: C2_2  and  C4_3 
REMARK    3  A    between atoms: C2_2  and  C22_19 
REMARK    4  A    between atoms: C4_3  and  N5_4 
REMARK    5  A    between atoms: N5_4  and  C6_5 
REMARK    6  A    between atoms: C6_5  and  C7_6 
REMARK    7  A    between atoms: C7_6  and  O9_7 
REMARK    8  A    between atoms: C7_6  and  C10_8 
ROOT
ATOM      1  N5  ZIN A   1      18.017   3.394  16.674  0.00  0.00     0.088 N 
ATOM      2  H37 ZIN A   1      17.788   2.890  15.830  0.00  0.00     0.316 HD
ENDROOT
BRANCH   1   3
ATOM      3  C4  ZIN A   1      18.691   2.520  17.643  0.00  0.00     0.303 C 
BRANCH   3   4
ATOM      4  C2  ZIN A   1      17.739   1.400  18.069  0.00  0.00     0.175 C 
BRANCH   4   5
ATOM      5  O1  ZIN A   1      18.127   0.910  19.355  0.00  0.00    -0.391 OA
ATOM      6  H34 ZIN A   1      17.510   1.136  20.064  0.00  0.00     0.210 HD
ENDBRANCH   4   5
BRANCH   4   7
ATOM      7  C22 ZIN A   1      17.801   0.261  17.049  0.00  0.00     0.159 C 
ATOM      8  O33 ZIN A   1      17.632   0.786  15.731  0.00  0.00    -0.343 OA
ATOM      9  C32 ZIN A   1      17.887  -0.039  14.682  0.00  0.00     0.075 A 
ATOM     10  C26 ZIN A   1      18.618  -1.204  14.832  0.00  0.00    -0.022 A 
ATOM     11  C31 ZIN A   1      17.399   0.313  13.428  0.00  0.00     0.040 A 
ATOM     12  C25 ZIN A   1      19.159  -1.626  16.174  0.00  0.00     0.044 C 
ATOM     13  C27 ZIN A   1      18.864  -2.010  13.732  0.00  0.00     0.052 A 
ATOM     14  C24 ZIN A   1      19.171  -0.426  17.125  0.00  0.00     0.040 C 
ATOM     15  C28 ZIN A   1      18.379  -1.656  12.486  0.00  0.00     0.117 A 
ATOM     16  F29 ZIN A   1      18.622  -2.445  11.416  0.00  0.00    -0.206 F 
ATOM     17  C30 ZIN A   1      17.644  -0.492  12.335  0.00  0.00     0.045 A 
ENDBRANCH   4   7
ENDBRANCH   3   4
ENDBRANCH   1   3
BRANCH   1  18
ATOM     18  C6  ZIN A   1      18.832   4.578  16.376  0.00  0.00     0.303 C 
BRANCH  18  19
ATOM     19  C7  ZIN A   1      17.963   5.639  15.698  0.00  0.00     0.175 C 
BRANCH  19  20
ATOM     20  O9  ZIN A   1      16.608   5.489  16.125  0.00  0.00    -0.391 OA
ATOM     21  H40 ZIN A   1      16.019   6.192  15.819  0.00  0.00     0.210 HD
ENDBRANCH  19  20
BRANCH  19  22
ATOM     22  C10 ZIN A   1      18.042   5.468  14.179  0.00  0.00     0.159 C 
ATOM     23  O21 ZIN A   1      18.733   4.258  13.867  0.00  0.00    -0.343 OA
ATOM     24  C20 ZIN A   1      18.700   3.822  12.581  0.00  0.00     0.075 A 
ATOM     25  C14 ZIN A   1      17.763   4.291  11.675  0.00  0.00    -0.022 A 
ATOM     26  C19 ZIN A   1      19.634   2.873  12.178  0.00  0.00     0.040 A 
ATOM     27  C13 ZIN A   1      16.738   5.323  12.070  0.00  0.00     0.044 C 
ATOM     28  C15 ZIN A   1      17.758   3.809  10.377  0.00  0.00     0.052 A 
ATOM     29  C12 ZIN A   1      16.625   5.382  13.596  0.00  0.00     0.040 C 
ATOM     30  C16 ZIN A   1      18.687   2.865   9.979  0.00  0.00     0.117 A 
ATOM     31  F17 ZIN A   1      18.676   2.399   8.711  0.00  0.00    -0.206 F 
ATOM     32  C18 ZIN A   1      19.626   2.397  10.882  0.00  0.00     0.045 A 
ENDBRANCH  19  22
ENDBRANCH  18  19
ENDBRANCH   1  18
TORSDOF 8
ENDMDL
