MODEL 1
REMARK VINA RESULT:      -5.5      0.000      0.000
REMARK  11 active torsions:
REMARK  status: ('A' for Active; 'I' for Inactive)
REMARK    1  A    between atoms: C2_2  and  C4_4 
REMARK    2  A    between atoms: C4_4  and  N5_5 
REMARK    3  A    between atoms: N5_5  and  C6_6 
REMARK    4  A    between atoms: N5_5  and  C17_17 
REMARK    5  A    between atoms: C6_6  and  C7_7 
REMARK    6  A    between atoms: C7_7  and  N8_8 
REMARK    7  A    between atoms: N8_8  and  C9_9 
REMARK    8  A    between atoms: N8_8  and  C13_13 
REMARK    9  A    between atoms: C9_9  and  C10_10 
REMARK   10  A    between atoms: C13_13  and  C14_14 
REMARK   11  A    between atoms: C17_17  and  C18_18 
ROOT
ATOM      1  C6  ZIN A   1      19.115   1.797  13.231  0.00  0.00     0.304 C 
ENDROOT
BRANCH   1   2
ATOM      2  N5  ZIN A   1      18.392   1.490  11.989  0.00  0.00     0.110 N 
BRANCH   2   3
ATOM      3  C4  ZIN A   1      18.488   0.060  11.665  0.00  0.00     0.385 C 
BRANCH   3   4
ATOM      4  C2  ZIN A   1      17.115  -0.560  11.723  0.00  0.00     0.202 C 
ATOM      5  O1  ZIN A   1      16.996  -1.763  11.885  0.00  0.00    -0.647 OA
ATOM      6  O3  ZIN A   1      16.124   0.141  11.615  0.00  0.00    -0.647 OA
ENDBRANCH   3   4
ENDBRANCH   2   3
BRANCH   2   7
ATOM      7  C17 ZIN A   1      18.880   2.317  10.877  0.00  0.00     0.385 C 
BRANCH   7   8
ATOM      8  C18 ZIN A   1      17.868   3.390  10.567  0.00  0.00     0.202 C 
ATOM      9  O19 ZIN A   1      18.096   4.208   9.693  0.00  0.00    -0.647 OA
ATOM     10  O20 ZIN A   1      16.822   3.440  11.190  0.00  0.00    -0.647 OA
ENDBRANCH   7   8
ENDBRANCH   2   7
ENDBRANCH   1   2
BRANCH   1  11
ATOM     11  C7  ZIN A   1      18.115   1.953  14.378  0.00  0.00     0.304 C 
BRANCH  11  12
ATOM     12  N8  ZIN A   1      18.518   1.093  15.499  0.00  0.00     0.110 N 
BRANCH  12  13
ATOM     13  C9  ZIN A   1      18.120   1.684  16.784  0.00  0.00     0.385 C 
BRANCH  13  14
ATOM     14  C10 ZIN A   1      19.350   2.109  17.544  0.00  0.00     0.202 C 
ATOM     15  O11 ZIN A   1      19.743   1.446  18.487  0.00  0.00    -0.647 OA
ATOM     16  O12 ZIN A   1      19.952   3.117  17.213  0.00  0.00    -0.647 OA
ENDBRANCH  13  14
ENDBRANCH  12  13
BRANCH  12  17
ATOM     17  C13 ZIN A   1      17.967  -0.260  15.349  0.00  0.00     0.385 C 
BRANCH  17  18
ATOM     18  C14 ZIN A   1      19.073  -1.273  15.503  0.00  0.00     0.202 C 
ATOM     19  O15 ZIN A   1      19.715  -1.627  14.528  0.00  0.00    -0.647 OA
ATOM     20  O16 ZIN A   1      19.325  -1.739  16.600  0.00  0.00    -0.647 OA
ENDBRANCH  17  18
ENDBRANCH  12  17
ENDBRANCH  11  12
ENDBRANCH   1  11
TORSDOF 11
ENDMDL
MODEL 2
REMARK VINA RESULT:      -5.4      4.234      8.021
REMARK  11 active torsions:
REMARK  status: ('A' for Active; 'I' for Inactive)
REMARK    1  A    between atoms: C2_2  and  C4_4 
REMARK    2  A    between atoms: C4_4  and  N5_5 
REMARK    3  A    between atoms: N5_5  and  C6_6 
REMARK    4  A    between atoms: N5_5  and  C17_17 
REMARK    5  A    between atoms: C6_6  and  C7_7 
REMARK    6  A    between atoms: C7_7  and  N8_8 
REMARK    7  A    between atoms: N8_8  and  C9_9 
REMARK    8  A    between atoms: N8_8  and  C13_13 
REMARK    9  A    between atoms: C9_9  and  C10_10 
REMARK   10  A    between atoms: C13_13  and  C14_14 
REMARK   11  A    between atoms: C17_17  and  C18_18 
ROOT
ATOM      1  C6  ZIN A   1      18.449   0.559   8.481  0.00  0.00     0.304 C 
ENDROOT
BRANCH   1   2
ATOM      2  N5  ZIN A   1      18.118   0.974   9.850  0.00  0.00     0.110 N 
BRANCH   2   3
ATOM      3  C4  ZIN A   1      18.845   2.196  10.219  0.00  0.00     0.385 C 
BRANCH   3   4
ATOM      4  C2  ZIN A   1      17.864   3.325  10.408  0.00  0.00     0.202 C 
ATOM      5  O1  ZIN A   1      17.006   3.250  11.273  0.00  0.00    -0.647 OA
ATOM      6  O3  ZIN A   1      17.931   4.316   9.701  0.00  0.00    -0.647 OA
ENDBRANCH   3   4
ENDBRANCH   2   3
BRANCH   2   7
ATOM      7  C17 ZIN A   1      18.383  -0.107  10.808  0.00  0.00     0.385 C 
BRANCH   7   8
ATOM      8  C18 ZIN A   1      17.078  -0.626  11.354  0.00  0.00     0.202 C 
ATOM      9  O19 ZIN A   1      16.109   0.110  11.421  0.00  0.00    -0.647 OA
ATOM     10  O20 ZIN A   1      16.992  -1.783  11.730  0.00  0.00    -0.647 OA
ENDBRANCH   7   8
ENDBRANCH   2   7
ENDBRANCH   1   2
BRANCH   1  11
ATOM     11  C7  ZIN A   1      19.432  -0.612   8.525  0.00  0.00     0.304 C 
BRANCH  11  12
ATOM     12  N8  ZIN A   1      19.220  -1.476   7.356  0.00  0.00     0.110 N 
BRANCH  12  13
ATOM     13  C9  ZIN A   1      18.590  -2.744   7.747  0.00  0.00     0.385 C 
BRANCH  13  14
ATOM     14  C10 ZIN A   1      19.536  -3.883   7.466  0.00  0.00     0.202 C 
ATOM     15  O11 ZIN A   1      20.340  -3.797   6.555  0.00  0.00    -0.647 OA
ATOM     16  O12 ZIN A   1      19.498  -4.890   8.154  0.00  0.00    -0.647 OA
ENDBRANCH  13  14
ENDBRANCH  12  13
BRANCH  12  17
ATOM     17  C13 ZIN A   1      18.426  -0.788   6.330  0.00  0.00     0.385 C 
BRANCH  17  18
ATOM     18  C14 ZIN A   1      19.296  -0.494   5.135  0.00  0.00     0.202 C 
ATOM     19  O15 ZIN A   1      19.543   0.660   4.829  0.00  0.00    -0.647 OA
ATOM     20  O16 ZIN A   1      19.753  -1.411   4.473  0.00  0.00    -0.647 OA
ENDBRANCH  17  18
ENDBRANCH  12  17
ENDBRANCH  11  12
ENDBRANCH   1  11
TORSDOF 11
ENDMDL
MODEL 3
REMARK VINA RESULT:      -5.4      4.428      7.144
REMARK  11 active torsions:
REMARK  status: ('A' for Active; 'I' for Inactive)
REMARK    1  A    between atoms: C2_2  and  C4_4 
REMARK    2  A    between atoms: C4_4  and  N5_5 
REMARK    3  A    between atoms: N5_5  and  C6_6 
REMARK    4  A    between atoms: N5_5  and  C17_17 
REMARK    5  A    between atoms: C6_6  and  C7_7 
REMARK    6  A    between atoms: C7_7  and  N8_8 
REMARK    7  A    between atoms: N8_8  and  C9_9 
REMARK    8  A    between atoms: N8_8  and  C13_13 
REMARK    9  A    between atoms: C9_9  and  C10_10 
REMARK   10  A    between atoms: C13_13  and  C14_14 
REMARK   11  A    between atoms: C17_17  and  C18_18 
ROOT
ATOM      1  C6  ZIN A   1      19.241  -0.363   8.120  0.00  0.00     0.304 C 
ENDROOT
BRANCH   1   2
ATOM      2  N5  ZIN A   1      19.164  -1.491   7.183  0.00  0.00     0.110 N 
BRANCH   2   3
ATOM      3  C4  ZIN A   1      18.299  -1.168   6.040  0.00  0.00     0.385 C 
BRANCH   3   4
ATOM      4  C2  ZIN A   1      19.150  -0.751   4.869  0.00  0.00     0.202 C 
ATOM      5  O1  ZIN A   1      19.799  -1.584   4.259  0.00  0.00    -0.647 OA
ATOM      6  O3  ZIN A   1      19.186   0.419   4.527  0.00  0.00    -0.647 OA
ENDBRANCH   3   4
ENDBRANCH   2   3
BRANCH   2   7
ATOM      7  C17 ZIN A   1      18.708  -2.711   7.862  0.00  0.00     0.385 C 
BRANCH   7   8
ATOM      8  C18 ZIN A   1      19.485  -3.895   7.347  0.00  0.00     0.202 C 
ATOM      9  O19 ZIN A   1      19.199  -5.020   7.719  0.00  0.00    -0.647 OA
ATOM     10  O20 ZIN A   1      20.400  -3.727   6.560  0.00  0.00    -0.647 OA
ENDBRANCH   7   8
ENDBRANCH   2   7
ENDBRANCH   1   2
BRANCH   1  11
ATOM     11  C7  ZIN A   1      17.843   0.219   8.334  0.00  0.00     0.304 C 
BRANCH  11  12
ATOM     12  N8  ZIN A   1      17.810   0.961   9.603  0.00  0.00     0.110 N 
BRANCH  12  13
ATOM     13  C9  ZIN A   1      18.236   0.109  10.721  0.00  0.00     0.385 C 
BRANCH  13  14
ATOM     14  C10 ZIN A   1      17.026  -0.523  11.360  0.00  0.00     0.202 C 
ATOM     15  O11 ZIN A   1      17.063  -1.687  11.717  0.00  0.00    -0.647 OA
ATOM     16  O12 ZIN A   1      16.010   0.133  11.522  0.00  0.00    -0.647 OA
ENDBRANCH  13  14
ENDBRANCH  12  13
BRANCH  12  17
ATOM     17  C13 ZIN A   1      18.631   2.176   9.524  0.00  0.00     0.385 C 
BRANCH  17  18
ATOM     18  C14 ZIN A   1      18.242   3.118  10.634  0.00  0.00     0.202 C 
ATOM     19  O15 ZIN A   1      19.103   3.628  11.331  0.00  0.00    -0.647 OA
ATOM     20  O16 ZIN A   1      17.066   3.369  10.837  0.00  0.00    -0.647 OA
ENDBRANCH  17  18
ENDBRANCH  12  17
ENDBRANCH  11  12
ENDBRANCH   1  11
TORSDOF 11
ENDMDL
MODEL 4
REMARK VINA RESULT:      -5.1      1.600      5.870
REMARK  11 active torsions:
REMARK  status: ('A' for Active; 'I' for Inactive)
REMARK    1  A    between atoms: C2_2  and  C4_4 
REMARK    2  A    between atoms: C4_4  and  N5_5 
REMARK    3  A    between atoms: N5_5  and  C6_6 
REMARK    4  A    between atoms: N5_5  and  C17_17 
REMARK    5  A    between atoms: C6_6  and  C7_7 
REMARK    6  A    between atoms: C7_7  and  N8_8 
REMARK    7  A    between atoms: N8_8  and  C9_9 
REMARK    8  A    between atoms: N8_8  and  C13_13 
REMARK    9  A    between atoms: C9_9  and  C10_10 
REMARK   10  A    between atoms: C13_13  and  C14_14 
REMARK   11  A    between atoms: C17_17  and  C18_18 
ROOT
ATOM      1  C6  ZIN A   1      19.273   1.000  14.655  0.00  0.00     0.304 C 
ENDROOT
BRANCH   1   2
ATOM      2  N5  ZIN A   1      19.046   1.667  15.944  0.00  0.00     0.110 N 
BRANCH   2   3
ATOM      3  C4  ZIN A   1      18.156   0.869  16.799  0.00  0.00     0.385 C 
BRANCH   3   4
ATOM      4  C2  ZIN A   1      18.823   0.627  18.129  0.00  0.00     0.202 C 
ATOM      5  O1  ZIN A   1      19.951   1.047  18.331  0.00  0.00    -0.647 OA
ATOM      6  O3  ZIN A   1      18.233   0.018  19.004  0.00  0.00    -0.647 OA
ENDBRANCH   3   4
ENDBRANCH   2   3
BRANCH   2   7
ATOM      7  C17 ZIN A   1      18.515   3.023  15.750  0.00  0.00     0.385 C 
BRANCH   7   8
ATOM      8  C18 ZIN A   1      19.279   3.990  16.618  0.00  0.00     0.202 C 
ATOM      9  O19 ZIN A   1      20.494   3.925  16.680  0.00  0.00    -0.647 OA
ATOM     10  O20 ZIN A   1      18.681   4.838  17.257  0.00  0.00    -0.647 OA
ENDBRANCH   7   8
ENDBRANCH   2   7
ENDBRANCH   1   2
BRANCH   1  11
ATOM     11  C7  ZIN A   1      19.016   1.988  13.516  0.00  0.00     0.304 C 
BRANCH  11  12
ATOM     12  N8  ZIN A   1      18.538   1.260  12.333  0.00  0.00     0.110 N 
BRANCH  12  13
ATOM     13  C9  ZIN A   1      19.432   1.474  11.187  0.00  0.00     0.385 C 
BRANCH  13  14
ATOM     14  C10 ZIN A   1      18.692   2.215  10.104  0.00  0.00     0.202 C 
ATOM     15  O11 ZIN A   1      19.177   2.311   8.990  0.00  0.00    -0.647 OA
ATOM     16  O12 ZIN A   1      17.606   2.718  10.342  0.00  0.00    -0.647 OA
ENDBRANCH  13  14
ENDBRANCH  12  13
BRANCH  12  17
ATOM     17  C13 ZIN A   1      18.387  -0.172  12.622  0.00  0.00     0.385 C 
BRANCH  17  18
ATOM     18  C14 ZIN A   1      17.107  -0.676  12.006  0.00  0.00     0.202 C 
ATOM     19  O15 ZIN A   1      16.991  -1.856  11.719  0.00  0.00    -0.647 OA
ATOM     20  O16 ZIN A   1      16.187   0.095  11.794  0.00  0.00    -0.647 OA
ENDBRANCH  17  18
ENDBRANCH  12  17
ENDBRANCH  11  12
ENDBRANCH   1  11
TORSDOF 11
ENDMDL
MODEL 5
REMARK VINA RESULT:      -5.1      1.142      6.168
REMARK  11 active torsions:
REMARK  status: ('A' for Active; 'I' for Inactive)
REMARK    1  A    between atoms: C2_2  and  C4_4 
REMARK    2  A    between atoms: C4_4  and  N5_5 
REMARK    3  A    between atoms: N5_5  and  C6_6 
REMARK    4  A    between atoms: N5_5  and  C17_17 
REMARK    5  A    between atoms: C6_6  and  C7_7 
REMARK    6  A    between atoms: C7_7  and  N8_8 
REMARK    7  A    between atoms: N8_8  and  C9_9 
REMARK    8  A    between atoms: N8_8  and  C13_13 
REMARK    9  A    between atoms: C9_9  and  C10_10 
REMARK   10  A    between atoms: C13_13  and  C14_14 
REMARK   11  A    between atoms: C17_17  and  C18_18 
ROOT
ATOM      1  C6  ZIN A   1      18.260   2.367  14.340  0.00  0.00     0.304 C 
ENDROOT
BRANCH   1   2
ATOM      2  N5  ZIN A   1      18.534   1.906  15.707  0.00  0.00     0.110 N 
BRANCH   2   3
ATOM      3  C4  ZIN A   1      19.452   2.821  16.397  0.00  0.00     0.385 C 
BRANCH   3   4
ATOM      4  C2  ZIN A   1      19.064   2.920  17.850  0.00  0.00     0.202 C 
ATOM      5  O1  ZIN A   1      19.693   2.302  18.693  0.00  0.00    -0.647 OA
ATOM      6  O3  ZIN A   1      18.125   3.623  18.184  0.00  0.00    -0.647 OA
ENDBRANCH   3   4
ENDBRANCH   2   3
BRANCH   2   7
ATOM      7  C17 ZIN A   1      19.059   0.534  15.705  0.00  0.00     0.385 C 
BRANCH   7   8
ATOM      8  C18 ZIN A   1      18.263  -0.310  16.666  0.00  0.00     0.202 C 
ATOM      9  O19 ZIN A   1      18.835  -0.962  17.523  0.00  0.00    -0.647 OA
ATOM     10  O20 ZIN A   1      17.047  -0.342  16.587  0.00  0.00    -0.647 OA
ENDBRANCH   7   8
ENDBRANCH   2   7
ENDBRANCH   1   2
BRANCH   1  11
ATOM     11  C7  ZIN A   1      18.956   1.443  13.339  0.00  0.00     0.304 C 
BRANCH  11  12
ATOM     12  N8  ZIN A   1      18.311   1.568  12.025  0.00  0.00     0.110 N 
BRANCH  12  13
ATOM     13  C9  ZIN A   1      18.950   2.620  11.224  0.00  0.00     0.385 C 
BRANCH  13  14
ATOM     14  C10 ZIN A   1      17.891   3.503  10.616  0.00  0.00     0.202 C 
ATOM     15  O11 ZIN A   1      16.807   3.618  11.160  0.00  0.00    -0.647 OA
ATOM     16  O12 ZIN A   1      18.120   4.104   9.579  0.00  0.00    -0.647 OA
ENDBRANCH  13  14
ENDBRANCH  12  13
BRANCH  12  17
ATOM     17  C13 ZIN A   1      18.317   0.285  11.311  0.00  0.00     0.385 C 
BRANCH  17  18
ATOM     18  C14 ZIN A   1      17.016  -0.435  11.560  0.00  0.00     0.202 C 
ATOM     19  O15 ZIN A   1      17.015  -1.636  11.771  0.00  0.00    -0.647 OA
ATOM     20  O16 ZIN A   1      15.966   0.183  11.549  0.00  0.00    -0.647 OA
ENDBRANCH  17  18
ENDBRANCH  12  17
ENDBRANCH  11  12
ENDBRANCH   1  11
TORSDOF 11
ENDMDL
MODEL 6
REMARK VINA RESULT:      -5.0      1.964      5.650
REMARK  11 active torsions:
REMARK  status: ('A' for Active; 'I' for Inactive)
REMARK    1  A    between atoms: C2_2  and  C4_4 
REMARK    2  A    between atoms: C4_4  and  N5_5 
REMARK    3  A    between atoms: N5_5  and  C6_6 
REMARK    4  A    between atoms: N5_5  and  C17_17 
REMARK    5  A    between atoms: C6_6  and  C7_7 
REMARK    6  A    between atoms: C7_7  and  N8_8 
REMARK    7  A    between atoms: N8_8  and  C9_9 
REMARK    8  A    between atoms: N8_8  and  C13_13 
REMARK    9  A    between atoms: C9_9  and  C10_10 
REMARK   10  A    between atoms: C13_13  and  C14_14 
REMARK   11  A    between atoms: C17_17  and  C18_18 
ROOT
ATOM      1  C6  ZIN A   1      19.291   0.930  14.571  0.00  0.00     0.304 C 
ENDROOT
BRANCH   1   2
ATOM      2  N5  ZIN A   1      19.227   1.758  15.783  0.00  0.00     0.110 N 
BRANCH   2   3
ATOM      3  C4  ZIN A   1      18.396   1.119  16.813  0.00  0.00     0.385 C 
BRANCH   3   4
ATOM      4  C2  ZIN A   1      19.267   0.689  17.965  0.00  0.00     0.202 C 
ATOM      5  O1  ZIN A   1      19.401  -0.497  18.218  0.00  0.00    -0.647 OA
ATOM      6  O3  ZIN A   1      19.843   1.525  18.640  0.00  0.00    -0.647 OA
ENDBRANCH   3   4
ENDBRANCH   2   3
BRANCH   2   7
ATOM      7  C17 ZIN A   1      18.740   3.108  15.475  0.00  0.00     0.385 C 
BRANCH   7   8
ATOM      8  C18 ZIN A   1      19.371   4.099  16.419  0.00  0.00     0.202 C 
ATOM      9  O19 ZIN A   1      18.672   4.891  17.027  0.00  0.00    -0.647 OA
ATOM     10  O20 ZIN A   1      20.579   4.109  16.574  0.00  0.00    -0.647 OA
ENDBRANCH   7   8
ENDBRANCH   2   7
ENDBRANCH   1   2
BRANCH   1  11
ATOM     11  C7  ZIN A   1      17.978   0.164  14.406  0.00  0.00     0.304 C 
BRANCH  11  12
ATOM     12  N8  ZIN A   1      18.031  -0.641  13.178  0.00  0.00     0.110 N 
BRANCH  12  13
ATOM     13  C9  ZIN A   1      18.401   0.187  12.022  0.00  0.00     0.385 C 
BRANCH  13  14
ATOM     14  C10 ZIN A   1      17.197   0.382  11.138  0.00  0.00     0.202 C 
ATOM     15  O11 ZIN A   1      17.328   0.868  10.028  0.00  0.00    -0.647 OA
ATOM     16  O12 ZIN A   1      16.091   0.052  11.533  0.00  0.00    -0.647 OA
ENDBRANCH  13  14
ENDBRANCH  12  13
BRANCH  12  17
ATOM     17  C13 ZIN A   1      18.953  -1.774  13.330  0.00  0.00     0.385 C 
BRANCH  17  18
ATOM     18  C14 ZIN A   1      18.774  -2.726  12.175  0.00  0.00     0.202 C 
ATOM     19  O15 ZIN A   1      19.741  -3.088  11.527  0.00  0.00    -0.647 OA
ATOM     20  O16 ZIN A   1      17.661  -3.134  11.888  0.00  0.00    -0.647 OA
ENDBRANCH  17  18
ENDBRANCH  12  17
ENDBRANCH  11  12
ENDBRANCH   1  11
TORSDOF 11
ENDMDL
MODEL 7
REMARK VINA RESULT:      -5.0      4.018      6.324
REMARK  11 active torsions:
REMARK  status: ('A' for Active; 'I' for Inactive)
REMARK    1  A    between atoms: C2_2  and  C4_4 
REMARK    2  A    between atoms: C4_4  and  N5_5 
REMARK    3  A    between atoms: N5_5  and  C6_6 
REMARK    4  A    between atoms: N5_5  and  C17_17 
REMARK    5  A    between atoms: C6_6  and  C7_7 
REMARK    6  A    between atoms: C7_7  and  N8_8 
REMARK    7  A    between atoms: N8_8  and  C9_9 
REMARK    8  A    between atoms: N8_8  and  C13_13 
REMARK    9  A    between atoms: C9_9  and  C10_10 
REMARK   10  A    between atoms: C13_13  and  C14_14 
REMARK   11  A    between atoms: C17_17  and  C18_18 
ROOT
ATOM      1  C6  ZIN A   1      17.700   0.365   8.055  0.00  0.00     0.304 C 
ENDROOT
BRANCH   1   2
ATOM      2  N5  ZIN A   1      18.220  -0.640   7.119  0.00  0.00     0.110 N 
BRANCH   2   3
ATOM      3  C4  ZIN A   1      19.134  -1.569   7.799  0.00  0.00     0.385 C 
BRANCH   3   4
ATOM      4  C2  ZIN A   1      18.375  -2.801   8.220  0.00  0.00     0.202 C 
ATOM      5  O1  ZIN A   1      17.900  -2.871   9.342  0.00  0.00    -0.647 OA
ATOM      6  O3  ZIN A   1      18.230  -3.725   7.438  0.00  0.00    -0.647 OA
ENDBRANCH   3   4
ENDBRANCH   2   3
BRANCH   2   7
ATOM      7  C17 ZIN A   1      18.876  -0.002   5.970  0.00  0.00     0.385 C 
BRANCH   7   8
ATOM      8  C18 ZIN A   1      18.816  -0.925   4.780  0.00  0.00     0.202 C 
ATOM      9  O19 ZIN A   1      17.740  -1.205   4.281  0.00  0.00    -0.647 OA
ATOM     10  O20 ZIN A   1      19.843  -1.391   4.318  0.00  0.00    -0.647 OA
ENDBRANCH   7   8
ENDBRANCH   2   7
ENDBRANCH   1   2
BRANCH   1  11
ATOM     11  C7  ZIN A   1      18.825   0.834   8.979  0.00  0.00     0.304 C 
BRANCH  11  12
ATOM     12  N8  ZIN A   1      18.270   1.173  10.296  0.00  0.00     0.110 N 
BRANCH  12  13
ATOM     13  C9  ZIN A   1      18.522   0.099  11.266  0.00  0.00     0.385 C 
BRANCH  13  14
ATOM     14  C10 ZIN A   1      17.264  -0.178  12.048  0.00  0.00     0.202 C 
ATOM     15  O11 ZIN A   1      16.178   0.115  11.579  0.00  0.00    -0.647 OA
ATOM     16  O12 ZIN A   1      17.334  -0.697  13.149  0.00  0.00    -0.647 OA
ENDBRANCH  13  14
ENDBRANCH  12  13
BRANCH  12  17
ATOM     17  C13 ZIN A   1      18.802   2.454  10.779  0.00  0.00     0.385 C 
BRANCH  17  18
ATOM     18  C14 ZIN A   1      17.807   3.550  10.497  0.00  0.00     0.202 C 
ATOM     19  O15 ZIN A   1      18.016   4.348   9.598  0.00  0.00    -0.647 OA
ATOM     20  O16 ZIN A   1      16.793   3.640  11.168  0.00  0.00    -0.647 OA
ENDBRANCH  17  18
ENDBRANCH  12  17
ENDBRANCH  11  12
ENDBRANCH   1  11
TORSDOF 11
ENDMDL
MODEL 8
REMARK VINA RESULT:      -5.0      4.518      7.798
REMARK  11 active torsions:
REMARK  status: ('A' for Active; 'I' for Inactive)
REMARK    1  A    between atoms: C2_2  and  C4_4 
REMARK    2  A    between atoms: C4_4  and  N5_5 
REMARK    3  A    between atoms: N5_5  and  C6_6 
REMARK    4  A    between atoms: N5_5  and  C17_17 
REMARK    5  A    between atoms: C6_6  and  C7_7 
REMARK    6  A    between atoms: C7_7  and  N8_8 
REMARK    7  A    between atoms: N8_8  and  C9_9 
REMARK    8  A    between atoms: N8_8  and  C13_13 
REMARK    9  A    between atoms: C9_9  and  C10_10 
REMARK   10  A    between atoms: C13_13  and  C14_14 
REMARK   11  A    between atoms: C17_17  and  C18_18 
ROOT
ATOM      1  C6  ZIN A   1      19.725  -0.300   8.951  0.00  0.00     0.304 C 
ENDROOT
BRANCH   1   2
ATOM      2  N5  ZIN A   1      19.248   0.564  10.039  0.00  0.00     0.110 N 
BRANCH   2   3
ATOM      3  C4  ZIN A   1      19.224  -0.162  11.316  0.00  0.00     0.385 C 
BRANCH   3   4
ATOM      4  C2  ZIN A   1      20.079   0.565  12.322  0.00  0.00     0.202 C 
ATOM      5  O1  ZIN A   1      21.290   0.596  12.184  0.00  0.00    -0.647 OA
ATOM      6  O3  ZIN A   1      19.559   1.126  13.272  0.00  0.00    -0.647 OA
ENDBRANCH   3   4
ENDBRANCH   2   3
BRANCH   2   7
ATOM      7  C17 ZIN A   1      17.927   1.125   9.726  0.00  0.00     0.385 C 
BRANCH   7   8
ATOM      8  C18 ZIN A   1      17.842   2.535  10.251  0.00  0.00     0.202 C 
ATOM      9  O19 ZIN A   1      18.490   3.422   9.723  0.00  0.00    -0.647 OA
ATOM     10  O20 ZIN A   1      17.127   2.789  11.205  0.00  0.00    -0.647 OA
ENDBRANCH   7   8
ENDBRANCH   2   7
ENDBRANCH   1   2
BRANCH   1  11
ATOM     11  C7  ZIN A   1      18.673  -1.369   8.650  0.00  0.00     0.304 C 
BRANCH  11  12
ATOM     12  N8  ZIN A   1      18.893  -1.907   7.300  0.00  0.00     0.110 N 
BRANCH  12  13
ATOM     13  C9  ZIN A   1      18.459  -3.308   7.215  0.00  0.00     0.385 C 
BRANCH  13  14
ATOM     14  C10 ZIN A   1      19.668  -4.204   7.140  0.00  0.00     0.202 C 
ATOM     15  O11 ZIN A   1      19.671  -5.273   7.724  0.00  0.00    -0.647 OA
ATOM     16  O12 ZIN A   1      20.643  -3.859   6.493  0.00  0.00    -0.647 OA
ENDBRANCH  13  14
ENDBRANCH  12  13
BRANCH  12  17
ATOM     17  C13 ZIN A   1      18.217  -1.084   6.289  0.00  0.00     0.385 C 
BRANCH  17  18
ATOM     18  C14 ZIN A   1      19.233  -0.555   5.310  0.00  0.00     0.202 C 
ATOM     19  O15 ZIN A   1      19.817  -1.322   4.562  0.00  0.00    -0.647 OA
ATOM     20  O16 ZIN A   1      19.474   0.639   5.266  0.00  0.00    -0.647 OA
ENDBRANCH  17  18
ENDBRANCH  12  17
ENDBRANCH  11  12
ENDBRANCH   1  11
TORSDOF 11
ENDMDL
MODEL 9
REMARK VINA RESULT:      -5.0      5.070      7.793
REMARK  11 active torsions:
REMARK  status: ('A' for Active; 'I' for Inactive)
REMARK    1  A    between atoms: C2_2  and  C4_4 
REMARK    2  A    between atoms: C4_4  and  N5_5 
REMARK    3  A    between atoms: N5_5  and  C6_6 
REMARK    4  A    between atoms: N5_5  and  C17_17 
REMARK    5  A    between atoms: C6_6  and  C7_7 
REMARK    6  A    between atoms: C7_7  and  N8_8 
REMARK    7  A    between atoms: N8_8  and  C9_9 
REMARK    8  A    between atoms: N8_8  and  C13_13 
REMARK    9  A    between atoms: C9_9  and  C10_10 
REMARK   10  A    between atoms: C13_13  and  C14_14 
REMARK   11  A    between atoms: C17_17  and  C18_18 
ROOT
ATOM      1  C6  ZIN A   1      19.256  -2.376   8.492  0.00  0.00     0.304 C 
ENDROOT
BRANCH   1   2
ATOM      2  N5  ZIN A   1      19.146  -3.097   7.217  0.00  0.00     0.110 N 
BRANCH   2   3
ATOM      3  C4  ZIN A   1      18.358  -2.328   6.244  0.00  0.00     0.385 C 
BRANCH   3   4
ATOM      4  C2  ZIN A   1      19.059  -2.339   4.910  0.00  0.00     0.202 C 
ATOM      5  O1  ZIN A   1      18.850  -3.243   4.118  0.00  0.00    -0.647 OA
ATOM      6  O3  ZIN A   1      19.832  -1.442   4.620  0.00  0.00    -0.647 OA
ENDBRANCH   3   4
ENDBRANCH   2   3
BRANCH   2   7
ATOM      7  C17 ZIN A   1      18.577  -4.436   7.416  0.00  0.00     0.385 C 
BRANCH   7   8
ATOM      8  C18 ZIN A   1      19.689  -5.427   7.645  0.00  0.00     0.202 C 
ATOM      9  O19 ZIN A   1      19.542  -6.334   8.445  0.00  0.00    -0.647 OA
ATOM     10  O20 ZIN A   1      20.736  -5.320   7.031  0.00  0.00    -0.647 OA
ENDBRANCH   7   8
ENDBRANCH   2   7
ENDBRANCH   1   2
BRANCH   1  11
ATOM     11  C7  ZIN A   1      17.929  -1.682   8.803  0.00  0.00     0.304 C 
BRANCH  11  12
ATOM     12  N8  ZIN A   1      18.191  -0.341   9.343  0.00  0.00     0.110 N 
BRANCH  12  13
ATOM     13  C9  ZIN A   1      18.158  -0.351  10.812  0.00  0.00     0.385 C 
BRANCH  13  14
ATOM     14  C10 ZIN A   1      17.028   0.522  11.295  0.00  0.00     0.202 C 
ATOM     15  O11 ZIN A   1      15.939   0.031  11.535  0.00  0.00    -0.647 OA
ATOM     16  O12 ZIN A   1      17.205   1.719  11.446  0.00  0.00    -0.647 OA
ENDBRANCH  13  14
ENDBRANCH  12  13
BRANCH  12  17
ATOM     17  C13 ZIN A   1      19.470   0.186   8.849  0.00  0.00     0.385 C 
BRANCH  17  18
ATOM     18  C14 ZIN A   1      19.216   1.398   7.990  0.00  0.00     0.202 C 
ATOM     19  O15 ZIN A   1      19.175   1.288   6.777  0.00  0.00    -0.647 OA
ATOM     20  O16 ZIN A   1      19.052   2.489   8.509  0.00  0.00    -0.647 OA
ENDBRANCH  17  18
ENDBRANCH  12  17
ENDBRANCH  11  12
ENDBRANCH   1  11
TORSDOF 11
ENDMDL
