MODEL 1
REMARK VINA RESULT:      -7.3      0.000      0.000
REMARK  9 active torsions:
REMARK  status: ('A' for Active; 'I' for Inactive)
REMARK    1  A    between atoms: C2_2  and  C3_3 
REMARK       I    between atoms: C3_3  and  N5_5 
REMARK    2  A    between atoms: N5_5  and  C6_6 
REMARK    3  A    between atoms: N5_5  and  C12_12 
REMARK    4  A    between atoms: C12_12  and  C13_13 
REMARK    5  A    between atoms: C13_13  and  O14_14 
REMARK    6  A    between atoms: N18_18  and  C20_20 
REMARK    7  A    between atoms: C20_20  and  C21_21 
REMARK    8  A    between atoms: C21_21  and  N22_22 
REMARK    9  A    between atoms: N25_25  and  C26_26 
ROOT
ATOM      1  C12 ZIN A   1      18.029   0.639  12.046  0.00  0.00     0.065 C 
ATOM      2  C16 ZIN A   1      17.174  -0.228  12.976  0.00  0.00     0.061 C 
ATOM      3  C17 ZIN A   1      18.091  -1.121  13.815  0.00  0.00     0.237 C 
ATOM      4  N18 ZIN A   1      18.994  -0.285  14.616  0.00  0.00    -0.069 N 
ATOM      5  H19 ZIN A   1      18.450   0.342  15.190  0.00  0.00     0.279 HD
ATOM      6  C30 ZIN A   1      19.865   0.497  13.730  0.00  0.00     0.237 C 
ATOM      7  C31 ZIN A   1      19.017   1.451  12.886  0.00  0.00     0.061 C 
ENDROOT
BRANCH   1   8
ATOM      8  N5  ZIN A   1      18.766  -0.219  11.115  0.00  0.00    -0.306 N 
ATOM      9  C3  ZIN A   1      19.546   0.333  10.163  0.00  0.00     0.224 C 
ATOM     10  O4  ZIN A   1      19.856   1.503  10.238  0.00  0.00    -0.273 OA
BRANCH   9  11
ATOM     11  C2  ZIN A   1      20.030  -0.503   9.007  0.00  0.00     0.099 C 
ATOM     12  C1  ZIN A   1      19.133  -0.258   7.791  0.00  0.00     0.014 C 
ENDBRANCH   9  11
BRANCH   8  13
ATOM     13  C6  ZIN A   1      18.658  -1.611  11.211  0.00  0.00     0.038 A 
ATOM     14  C11 ZIN A   1      19.747  -2.364  11.632  0.00  0.00     0.030 A 
ATOM     15  C10 ZIN A   1      19.636  -3.737  11.734  0.00  0.00     0.002 A 
ATOM     16  C9  ZIN A   1      18.448  -4.363  11.404  0.00  0.00     0.000 A 
ATOM     17  C8  ZIN A   1      17.364  -3.616  10.979  0.00  0.00     0.002 A 
ATOM     18  C7  ZIN A   1      17.467  -2.242  10.881  0.00  0.00     0.030 A 
ENDBRANCH   8  13
ENDBRANCH   1   8
BRANCH   1  19
ATOM     19  C13 ZIN A   1      17.125   1.590  11.258  0.00  0.00     0.198 C 
BRANCH  19  20
ATOM     20  O14 ZIN A   1      17.250   2.912  11.785  0.00  0.00    -0.393 OA
ATOM     21  C15 ZIN A   1      17.355   3.929  10.787  0.00  0.00     0.201 C 
ENDBRANCH  19  20
ENDBRANCH   1  19
BRANCH   4  22
ATOM     22  C20 ZIN A   1      19.819  -1.144  15.476  0.00  0.00     0.256 C 
BRANCH  22  23
ATOM     23  C21 ZIN A   1      19.071  -1.428  16.780  0.00  0.00     0.185 C 
BRANCH  23  24
ATOM     24  N22 ZIN A   1      18.910  -0.182  17.533  0.00  0.00    -0.197 N 
ATOM     25  C28 ZIN A   1      17.755   0.490  17.731  0.00  0.00     0.363 A 
ATOM     26  N25 ZIN A   1      18.066   1.573  18.476  0.00  0.00    -0.199 N 
ATOM     27  O29 ZIN A   1      16.651   0.176  17.324  0.00  0.00    -0.243 OA
ATOM     28  N24 ZIN A   1      19.446   1.538  18.713  0.00  0.00    -0.043 NA
ATOM     29  N23 ZIN A   1      19.929   0.535  18.175  0.00  0.00    -0.043 NA
BRANCH  26  30
ATOM     30  C26 ZIN A   1      17.132   2.599  18.945  0.00  0.00     0.153 C 
ATOM     31  C27 ZIN A   1      17.857   3.942  19.043  0.00  0.00     0.029 C 
ENDBRANCH  26  30
ENDBRANCH  23  24
ENDBRANCH  22  23
ENDBRANCH   4  22
TORSDOF 9
ENDMDL
MODEL 2
REMARK VINA RESULT:      -7.3      4.175      9.239
REMARK  9 active torsions:
REMARK  status: ('A' for Active; 'I' for Inactive)
REMARK    1  A    between atoms: C2_2  and  C3_3 
REMARK       I    between atoms: C3_3  and  N5_5 
REMARK    2  A    between atoms: N5_5  and  C6_6 
REMARK    3  A    between atoms: N5_5  and  C12_12 
REMARK    4  A    between atoms: C12_12  and  C13_13 
REMARK    5  A    between atoms: C13_13  and  O14_14 
REMARK    6  A    between atoms: N18_18  and  C20_20 
REMARK    7  A    between atoms: C20_20  and  C21_21 
REMARK    8  A    between atoms: C21_21  and  N22_22 
REMARK    9  A    between atoms: N25_25  and  C26_26 
ROOT
ATOM      1  C12 ZIN A   1      18.062  -1.094  10.016  0.00  0.00     0.065 C 
ATOM      2  C16 ZIN A   1      16.941  -0.430   9.210  0.00  0.00     0.061 C 
ATOM      3  C17 ZIN A   1      17.556   0.385   8.070  0.00  0.00     0.237 C 
ATOM      4  N18 ZIN A   1      18.331  -0.502   7.193  0.00  0.00    -0.069 N 
ATOM      5  H19 ZIN A   1      17.735  -1.240   6.850  0.00  0.00     0.279 HD
ATOM      6  C30 ZIN A   1      19.450  -1.088   7.942  0.00  0.00     0.237 C 
ATOM      7  C31 ZIN A   1      18.909  -1.958   9.078  0.00  0.00     0.061 C 
ENDROOT
BRANCH   1   8
ATOM      8  N5  ZIN A   1      18.904  -0.063  10.628  0.00  0.00    -0.306 N 
ATOM      9  C3  ZIN A   1      20.045  -0.412  11.257  0.00  0.00     0.224 C 
ATOM     10  O4  ZIN A   1      20.515  -1.517  11.091  0.00  0.00    -0.273 OA
BRANCH   9  11
ATOM     11  C2  ZIN A   1      20.733   0.573  12.167  0.00  0.00     0.099 C 
ATOM     12  C1  ZIN A   1      20.240   0.371  13.602  0.00  0.00     0.014 C 
ENDBRANCH   9  11
BRANCH   8  13
ATOM     13  C6  ZIN A   1      18.524   1.282  10.560  0.00  0.00     0.038 A 
ATOM     14  C11 ZIN A   1      17.566   1.777  11.435  0.00  0.00     0.030 A 
ATOM     15  C10 ZIN A   1      17.199   3.108  11.371  0.00  0.00     0.002 A 
ATOM     16  C9  ZIN A   1      17.774   3.941  10.430  0.00  0.00     0.000 A 
ATOM     17  C8  ZIN A   1      18.724   3.449   9.555  0.00  0.00     0.002 A 
ATOM     18  C7  ZIN A   1      19.101   2.121   9.617  0.00  0.00     0.030 A 
ENDBRANCH   8  13
ENDBRANCH   1   8
BRANCH   1  19
ATOM     19  C13 ZIN A   1      17.454  -1.973  11.111  0.00  0.00     0.198 C 
BRANCH  19  20
ATOM     20  O14 ZIN A   1      17.585  -3.348  10.747  0.00  0.00    -0.393 OA
ATOM     21  C15 ZIN A   1      17.913  -4.211  11.837  0.00  0.00     0.201 C 
ENDBRANCH  19  20
ENDBRANCH   1  19
BRANCH   4  22
ATOM     22  C20 ZIN A   1      18.856   0.269   6.059  0.00  0.00     0.256 C 
BRANCH  22  23
ATOM     23  C21 ZIN A   1      19.514  -0.681   5.057  0.00  0.00     0.185 C 
BRANCH  23  24
ATOM     24  N22 ZIN A   1      18.587  -1.768   4.733  0.00  0.00    -0.197 N 
ATOM     25  C28 ZIN A   1      18.771  -3.080   4.992  0.00  0.00     0.363 A 
ATOM     26  N25 ZIN A   1      17.674  -3.719   4.531  0.00  0.00    -0.199 N 
ATOM     27  O29 ZIN A   1      19.733  -3.587   5.541  0.00  0.00    -0.243 OA
ATOM     28  N24 ZIN A   1      16.827  -2.751   3.975  0.00  0.00    -0.043 NA
ATOM     29  N23 ZIN A   1      17.349  -1.636   4.092  0.00  0.00    -0.043 NA
BRANCH  26  30
ATOM     30  C26 ZIN A   1      17.420  -5.160   4.592  0.00  0.00     0.153 C 
ATOM     31  C27 ZIN A   1      15.911  -5.410   4.638  0.00  0.00     0.029 C 
ENDBRANCH  26  30
ENDBRANCH  23  24
ENDBRANCH  22  23
ENDBRANCH   4  22
TORSDOF 9
ENDMDL
MODEL 3
REMARK VINA RESULT:      -7.1      3.565      8.781
REMARK  9 active torsions:
REMARK  status: ('A' for Active; 'I' for Inactive)
REMARK    1  A    between atoms: C2_2  and  C3_3 
REMARK       I    between atoms: C3_3  and  N5_5 
REMARK    2  A    between atoms: N5_5  and  C6_6 
REMARK    3  A    between atoms: N5_5  and  C12_12 
REMARK    4  A    between atoms: C12_12  and  C13_13 
REMARK    5  A    between atoms: C13_13  and  O14_14 
REMARK    6  A    between atoms: N18_18  and  C20_20 
REMARK    7  A    between atoms: C20_20  and  C21_21 
REMARK    8  A    between atoms: C21_21  and  N22_22 
REMARK    9  A    between atoms: N25_25  and  C26_26 
ROOT
ATOM      1  C12 ZIN A   1      18.097  -1.098  10.840  0.00  0.00     0.065 C 
ATOM      2  C16 ZIN A   1      17.164  -0.194  10.029  0.00  0.00     0.061 C 
ATOM      3  C17 ZIN A   1      17.999   0.847   9.278  0.00  0.00     0.237 C 
ATOM      4  N18 ZIN A   1      18.934   0.168   8.373  0.00  0.00    -0.069 N 
ATOM      5  H19 ZIN A   1      18.418  -0.427   7.742  0.00  0.00     0.279 HD
ATOM      6  C30 ZIN A   1      19.877  -0.646   9.150  0.00  0.00     0.237 C 
ATOM      7  C31 ZIN A   1      19.115  -1.743   9.896  0.00  0.00     0.061 C 
ENDROOT
BRANCH   1   8
ATOM      8  N5  ZIN A   1      18.800  -0.300  11.848  0.00  0.00    -0.306 N 
ATOM      9  C3  ZIN A   1      19.529  -0.913  12.803  0.00  0.00     0.224 C 
ATOM     10  O4  ZIN A   1      19.830  -2.081  12.680  0.00  0.00    -0.273 OA
BRANCH   9  11
ATOM     11  C2  ZIN A   1      19.969  -0.144  14.023  0.00  0.00     0.099 C 
ATOM     12  C1  ZIN A   1      19.053  -0.491  15.200  0.00  0.00     0.014 C 
ENDBRANCH   9  11
BRANCH   8  13
ATOM     13  C6  ZIN A   1      18.712   1.096  11.821  0.00  0.00     0.038 A 
ATOM     14  C11 ZIN A   1      19.796   1.851  11.391  0.00  0.00     0.030 A 
ATOM     15  C10 ZIN A   1      19.703   3.230  11.359  0.00  0.00     0.002 A 
ATOM     16  C9  ZIN A   1      18.540   3.857  11.766  0.00  0.00     0.000 A 
ATOM     17  C8  ZIN A   1      17.463   3.107  12.199  0.00  0.00     0.002 A 
ATOM     18  C7  ZIN A   1      17.545   1.728  12.229  0.00  0.00     0.030 A 
ENDBRANCH   8  13
ENDBRANCH   1   8
BRANCH   1  19
ATOM     19  C13 ZIN A   1      17.278  -2.190  11.533  0.00  0.00     0.198 C 
BRANCH  19  20
ATOM     20  O14 ZIN A   1      17.619  -3.463  10.981  0.00  0.00    -0.393 OA
ATOM     21  C15 ZIN A   1      16.669  -4.492  11.263  0.00  0.00     0.201 C 
ENDBRANCH  19  20
ENDBRANCH   1  19
BRANCH   4  22
ATOM     22  C20 ZIN A   1      19.678   1.171   7.600  0.00  0.00     0.256 C 
BRANCH  22  23
ATOM     23  C21 ZIN A   1      18.978   1.403   6.259  0.00  0.00     0.185 C 
BRANCH  23  24
ATOM     24  N22 ZIN A   1      18.888   0.136   5.530  0.00  0.00    -0.197 N 
ATOM     25  C28 ZIN A   1      17.788  -0.640   5.409  0.00  0.00     0.363 A 
ATOM     26  N25 ZIN A   1      18.151  -1.702   4.657  0.00  0.00    -0.199 N 
ATOM     27  O29 ZIN A   1      16.686  -0.421   5.878  0.00  0.00    -0.243 OA
ATOM     28  N24 ZIN A   1      19.505  -1.547   4.337  0.00  0.00    -0.043 NA
ATOM     29  N23 ZIN A   1      19.927  -0.496   4.835  0.00  0.00    -0.043 NA
BRANCH  26  30
ATOM     30  C26 ZIN A   1      17.287  -2.815   4.256  0.00  0.00     0.153 C 
ATOM     31  C27 ZIN A   1      18.150  -3.978   3.762  0.00  0.00     0.029 C 
ENDBRANCH  26  30
ENDBRANCH  23  24
ENDBRANCH  22  23
ENDBRANCH   4  22
TORSDOF 9
ENDMDL
MODEL 4
REMARK VINA RESULT:      -7.1      3.395      4.676
REMARK  9 active torsions:
REMARK  status: ('A' for Active; 'I' for Inactive)
REMARK    1  A    between atoms: C2_2  and  C3_3 
REMARK       I    between atoms: C3_3  and  N5_5 
REMARK    2  A    between atoms: N5_5  and  C6_6 
REMARK    3  A    between atoms: N5_5  and  C12_12 
REMARK    4  A    between atoms: C12_12  and  C13_13 
REMARK    5  A    between atoms: C13_13  and  O14_14 
REMARK    6  A    between atoms: N18_18  and  C20_20 
REMARK    7  A    between atoms: C20_20  and  C21_21 
REMARK    8  A    between atoms: C21_21  and  N22_22 
REMARK    9  A    between atoms: N25_25  and  C26_26 
ROOT
ATOM      1  C12 ZIN A   1      18.229  -1.113   8.532  0.00  0.00     0.065 C 
ATOM      2  C16 ZIN A   1      17.554  -0.851   9.882  0.00  0.00     0.061 C 
ATOM      3  C17 ZIN A   1      18.590  -0.999  10.999  0.00  0.00     0.237 C 
ATOM      4  N18 ZIN A   1      19.675  -0.031  10.797  0.00  0.00    -0.069 N 
ATOM      5  H19 ZIN A   1      19.290   0.901  10.761  0.00  0.00     0.279 HD
ATOM      6  C30 ZIN A   1      20.371  -0.321   9.537  0.00  0.00     0.237 C 
ATOM      7  C31 ZIN A   1      19.405  -0.147   8.364  0.00  0.00     0.061 C 
ENDROOT
BRANCH   1   8
ATOM      8  N5  ZIN A   1      18.717  -2.493   8.487  0.00  0.00    -0.306 N 
ATOM      9  C3  ZIN A   1      19.460  -2.911   7.441  0.00  0.00     0.224 C 
ATOM     10  O4  ZIN A   1      19.951  -2.101   6.685  0.00  0.00    -0.273 OA
BRANCH   9  11
ATOM     11  C2  ZIN A   1      19.678  -4.385   7.214  0.00  0.00     0.099 C 
ATOM     12  C1  ZIN A   1      18.729  -4.877   6.119  0.00  0.00     0.014 C 
ENDBRANCH   9  11
BRANCH   8  13
ATOM     13  C6  ZIN A   1      18.412  -3.378   9.527  0.00  0.00     0.038 A 
ATOM     14  C11 ZIN A   1      19.390  -3.731  10.448  0.00  0.00     0.030 A 
ATOM     15  C10 ZIN A   1      19.082  -4.599  11.478  0.00  0.00     0.002 A 
ATOM     16  C9  ZIN A   1      17.809  -5.126  11.585  0.00  0.00     0.000 A 
ATOM     17  C8  ZIN A   1      16.836  -4.781  10.665  0.00  0.00     0.002 A 
ATOM     18  C7  ZIN A   1      17.134  -3.908   9.636  0.00  0.00     0.030 A 
ENDBRANCH   8  13
ENDBRANCH   1   8
BRANCH   1  19
ATOM     19  C13 ZIN A   1      17.220  -0.891   7.403  0.00  0.00     0.198 C 
BRANCH  19  20
ATOM     20  O14 ZIN A   1      17.657   0.191   6.579  0.00  0.00    -0.393 OA
ATOM     21  C15 ZIN A   1      17.705  -0.121   5.185  0.00  0.00     0.201 C 
ENDBRANCH  19  20
ENDBRANCH   1  19
BRANCH   4  22
ATOM     22  C20 ZIN A   1      20.626  -0.125  11.912  0.00  0.00     0.256 C 
BRANCH  22  23
ATOM     23  C21 ZIN A   1      20.058   0.608  13.129  0.00  0.00     0.185 C 
BRANCH  23  24
ATOM     24  N22 ZIN A   1      19.511   1.900  12.710  0.00  0.00    -0.197 N 
ATOM     25  C28 ZIN A   1      18.425   2.515  13.228  0.00  0.00     0.363 A 
ATOM     26  N25 ZIN A   1      18.284   3.676  12.552  0.00  0.00    -0.199 N 
ATOM     27  O29 ZIN A   1      17.718   2.107  14.132  0.00  0.00    -0.243 OA
ATOM     28  N24 ZIN A   1      19.313   3.737  11.603  0.00  0.00    -0.043 NA
ATOM     29  N23 ZIN A   1      20.015   2.722  11.694  0.00  0.00    -0.043 NA
BRANCH  26  30
ATOM     30  C26 ZIN A   1      17.243   4.683  12.766  0.00  0.00     0.153 C 
ATOM     31  C27 ZIN A   1      16.615   5.061  11.423  0.00  0.00     0.029 C 
ENDBRANCH  26  30
ENDBRANCH  23  24
ENDBRANCH  22  23
ENDBRANCH   4  22
TORSDOF 9
ENDMDL
MODEL 5
REMARK VINA RESULT:      -7.1      2.407      3.910
REMARK  9 active torsions:
REMARK  status: ('A' for Active; 'I' for Inactive)
REMARK    1  A    between atoms: C2_2  and  C3_3 
REMARK       I    between atoms: C3_3  and  N5_5 
REMARK    2  A    between atoms: N5_5  and  C6_6 
REMARK    3  A    between atoms: N5_5  and  C12_12 
REMARK    4  A    between atoms: C12_12  and  C13_13 
REMARK    5  A    between atoms: C13_13  and  O14_14 
REMARK    6  A    between atoms: N18_18  and  C20_20 
REMARK    7  A    between atoms: C20_20  and  C21_21 
REMARK    8  A    between atoms: C21_21  and  N22_22 
REMARK    9  A    between atoms: N25_25  and  C26_26 
ROOT
ATOM      1  C12 ZIN A   1      18.209  -1.153   8.439  0.00  0.00     0.065 C 
ATOM      2  C16 ZIN A   1      17.493  -0.884   9.765  0.00  0.00     0.061 C 
ATOM      3  C17 ZIN A   1      18.494  -1.022  10.915  0.00  0.00     0.237 C 
ATOM      4  N18 ZIN A   1      19.582  -0.053  10.740  0.00  0.00    -0.069 N 
ATOM      5  H19 ZIN A   1      19.197   0.878  10.686  0.00  0.00     0.279 HD
ATOM      6  C30 ZIN A   1      20.318  -0.349   9.504  0.00  0.00     0.237 C 
ATOM      7  C31 ZIN A   1      19.388  -0.185   8.300  0.00  0.00     0.061 C 
ENDROOT
BRANCH   1   8
ATOM      8  N5  ZIN A   1      18.702  -2.532   8.417  0.00  0.00    -0.306 N 
ATOM      9  C3  ZIN A   1      19.455  -2.963   7.385  0.00  0.00     0.224 C 
ATOM     10  O4  ZIN A   1      19.951  -2.162   6.621  0.00  0.00    -0.273 OA
BRANCH   9  11
ATOM     11  C2  ZIN A   1      19.679  -4.439   7.181  0.00  0.00     0.099 C 
ATOM     12  C1  ZIN A   1      18.715  -4.957   6.111  0.00  0.00     0.014 C 
ENDBRANCH   9  11
BRANCH   8  13
ATOM     13  C6  ZIN A   1      18.390  -3.403   9.467  0.00  0.00     0.038 A 
ATOM     14  C11 ZIN A   1      19.354  -3.722  10.415  0.00  0.00     0.030 A 
ATOM     15  C10 ZIN A   1      19.040  -4.576  11.455  0.00  0.00     0.002 A 
ATOM     16  C9  ZIN A   1      17.773  -5.123  11.545  0.00  0.00     0.000 A 
ATOM     17  C8  ZIN A   1      16.814  -4.811  10.599  0.00  0.00     0.002 A 
ATOM     18  C7  ZIN A   1      17.119  -3.953   9.560  0.00  0.00     0.030 A 
ENDBRANCH   8  13
ENDBRANCH   1   8
BRANCH   1  19
ATOM     19  C13 ZIN A   1      17.235  -0.941   7.278  0.00  0.00     0.198 C 
BRANCH  19  20
ATOM     20  O14 ZIN A   1      17.636   0.203   6.522  0.00  0.00    -0.393 OA
ATOM     21  C15 ZIN A   1      17.741  -0.036   5.116  0.00  0.00     0.201 C 
ENDBRANCH  19  20
ENDBRANCH   1  19
BRANCH   4  22
ATOM     22  C20 ZIN A   1      20.499  -0.137  11.884  0.00  0.00     0.256 C 
BRANCH  22  23
ATOM     23  C21 ZIN A   1      20.113   0.917  12.925  0.00  0.00     0.185 C 
BRANCH  23  24
ATOM     24  N22 ZIN A   1      19.600   0.252  14.125  0.00  0.00    -0.197 N 
ATOM     25  C28 ZIN A   1      19.018   0.853  15.185  0.00  0.00     0.363 A 
ATOM     26  N25 ZIN A   1      18.697  -0.131  16.054  0.00  0.00    -0.199 N 
ATOM     27  O29 ZIN A   1      18.816   2.046  15.327  0.00  0.00    -0.243 OA
ATOM     28  N24 ZIN A   1      19.112  -1.343  15.488  0.00  0.00    -0.043 NA
ATOM     29  N23 ZIN A   1      19.627  -1.125  14.385  0.00  0.00    -0.043 NA
BRANCH  26  30
ATOM     30  C26 ZIN A   1      18.041   0.040  17.352  0.00  0.00     0.153 C 
ATOM     31  C27 ZIN A   1      19.102   0.259  18.434  0.00  0.00     0.029 C 
ENDBRANCH  26  30
ENDBRANCH  23  24
ENDBRANCH  22  23
ENDBRANCH   4  22
TORSDOF 9
ENDMDL
MODEL 6
REMARK VINA RESULT:      -7.0      3.267      7.503
REMARK  9 active torsions:
REMARK  status: ('A' for Active; 'I' for Inactive)
REMARK    1  A    between atoms: C2_2  and  C3_3 
REMARK       I    between atoms: C3_3  and  N5_5 
REMARK    2  A    between atoms: N5_5  and  C6_6 
REMARK    3  A    between atoms: N5_5  and  C12_12 
REMARK    4  A    between atoms: C12_12  and  C13_13 
REMARK    5  A    between atoms: C13_13  and  O14_14 
REMARK    6  A    between atoms: N18_18  and  C20_20 
REMARK    7  A    between atoms: C20_20  and  C21_21 
REMARK    8  A    between atoms: C21_21  and  N22_22 
REMARK    9  A    between atoms: N25_25  and  C26_26 
ROOT
ATOM      1  C12 ZIN A   1      18.244  -0.891  12.719  0.00  0.00     0.065 C 
ATOM      2  C16 ZIN A   1      17.326  -1.827  11.928  0.00  0.00     0.061 C 
ATOM      3  C17 ZIN A   1      18.177  -2.713  11.014  0.00  0.00     0.237 C 
ATOM      4  N18 ZIN A   1      19.108  -3.507  11.825  0.00  0.00    -0.069 N 
ATOM      5  H19 ZIN A   1      18.587  -4.051  12.497  0.00  0.00     0.279 HD
ATOM      6  C30 ZIN A   1      20.037  -2.617  12.533  0.00  0.00     0.237 C 
ATOM      7  C31 ZIN A   1      19.257  -1.728  13.504  0.00  0.00     0.061 C 
ENDROOT
BRANCH   1   8
ATOM      8  N5  ZIN A   1      18.952  -0.001  11.796  0.00  0.00    -0.306 N 
ATOM      9  C3  ZIN A   1      19.825   0.909  12.274  0.00  0.00     0.224 C 
ATOM     10  O4  ZIN A   1      20.230   0.820  13.413  0.00  0.00    -0.273 OA
BRANCH   9  11
ATOM     11  C2  ZIN A   1      20.295   2.036  11.391  0.00  0.00     0.099 C 
ATOM     12  C1  ZIN A   1      19.540   3.316  11.755  0.00  0.00     0.014 C 
ENDBRANCH   9  11
BRANCH   8  13
ATOM     13  C6  ZIN A   1      18.722  -0.095  10.419  0.00  0.00     0.038 A 
ATOM     14  C11 ZIN A   1      19.697  -0.627   9.586  0.00  0.00     0.030 A 
ATOM     15  C10 ZIN A   1      19.464  -0.725   8.228  0.00  0.00     0.002 A 
ATOM     16  C9  ZIN A   1      18.267  -0.283   7.696  0.00  0.00     0.000 A 
ATOM     17  C8  ZIN A   1      17.296   0.252   8.523  0.00  0.00     0.002 A 
ATOM     18  C7  ZIN A   1      17.520   0.348   9.883  0.00  0.00     0.030 A 
ENDBRANCH   8  13
ENDBRANCH   1   8
BRANCH   1  19
ATOM     19  C13 ZIN A   1      17.408  -0.056  13.692  0.00  0.00     0.198 C 
BRANCH  19  20
ATOM     20  O14 ZIN A   1      17.654  -0.494  15.029  0.00  0.00    -0.393 OA
ATOM     21  C15 ZIN A   1      17.778   0.569  15.977  0.00  0.00     0.201 C 
ENDBRANCH  19  20
ENDBRANCH   1  19
BRANCH   4  22
ATOM     22  C20 ZIN A   1      19.868  -4.410  10.952  0.00  0.00     0.256 C 
BRANCH  22  23
ATOM     23  C21 ZIN A   1      18.903  -5.346  10.221  0.00  0.00     0.185 C 
BRANCH  23  24
ATOM     24  N22 ZIN A   1      19.172  -5.298   8.782  0.00  0.00    -0.197 N 
ATOM     25  C28 ZIN A   1      18.428  -4.663   7.850  0.00  0.00     0.363 A 
ATOM     26  N25 ZIN A   1      19.040  -4.875   6.664  0.00  0.00    -0.199 N 
ATOM     27  O29 ZIN A   1      17.412  -4.021   8.042  0.00  0.00    -0.243 OA
ATOM     28  N24 ZIN A   1      20.170  -5.665   6.909  0.00  0.00    -0.043 NA
ATOM     29  N23 ZIN A   1      20.247  -5.906   8.120  0.00  0.00    -0.043 NA
BRANCH  26  30
ATOM     30  C26 ZIN A   1      18.597  -4.376   5.360  0.00  0.00     0.153 C 
ATOM     31  C27 ZIN A   1      19.113  -2.949   5.158  0.00  0.00     0.029 C 
ENDBRANCH  26  30
ENDBRANCH  23  24
ENDBRANCH  22  23
ENDBRANCH   4  22
TORSDOF 9
ENDMDL
MODEL 7
REMARK VINA RESULT:      -6.9      2.477      4.491
REMARK  9 active torsions:
REMARK  status: ('A' for Active; 'I' for Inactive)
REMARK    1  A    between atoms: C2_2  and  C3_3 
REMARK       I    between atoms: C3_3  and  N5_5 
REMARK    2  A    between atoms: N5_5  and  C6_6 
REMARK    3  A    between atoms: N5_5  and  C12_12 
REMARK    4  A    between atoms: C12_12  and  C13_13 
REMARK    5  A    between atoms: C13_13  and  O14_14 
REMARK    6  A    between atoms: N18_18  and  C20_20 
REMARK    7  A    between atoms: C20_20  and  C21_21 
REMARK    8  A    between atoms: C21_21  and  N22_22 
REMARK    9  A    between atoms: N25_25  and  C26_26 
ROOT
ATOM      1  C12 ZIN A   1      19.338  -0.827  12.841  0.00  0.00     0.065 C 
ATOM      2  C16 ZIN A   1      20.324   0.047  13.620  0.00  0.00     0.061 C 
ATOM      3  C17 ZIN A   1      19.554   0.896  14.634  0.00  0.00     0.237 C 
ATOM      4  N18 ZIN A   1      18.835   0.018  15.566  0.00  0.00    -0.069 N 
ATOM      5  H19 ZIN A   1      19.491  -0.603  16.015  0.00  0.00     0.279 HD
ATOM      6  C30 ZIN A   1      17.837  -0.773  14.835  0.00  0.00     0.237 C 
ATOM      7  C31 ZIN A   1      18.541  -1.685  13.828  0.00  0.00     0.061 C 
ENDROOT
BRANCH   1   8
ATOM      8  N5  ZIN A   1      18.420   0.026  12.081  0.00  0.00    -0.306 N 
ATOM      9  C3  ZIN A   1      17.386  -0.525  11.413  0.00  0.00     0.224 C 
ATOM     10  O4  ZIN A   1      17.049  -1.665  11.651  0.00  0.00    -0.273 OA
BRANCH   9  11
ATOM     11  C2  ZIN A   1      16.650   0.278  10.371  0.00  0.00     0.099 C 
ATOM     12  C1  ZIN A   1      17.331   0.094   9.013  0.00  0.00     0.014 C 
ENDBRANCH   9  11
BRANCH   8  13
ATOM     13  C6  ZIN A   1      18.619   1.410  12.046  0.00  0.00     0.038 A 
ATOM     14  C11 ZIN A   1      19.696   1.940  11.348  0.00  0.00     0.030 A 
ATOM     15  C10 ZIN A   1      19.885   3.308  11.309  0.00  0.00     0.002 A 
ATOM     16  C9  ZIN A   1      19.011   4.148  11.975  0.00  0.00     0.000 A 
ATOM     17  C8  ZIN A   1      17.941   3.622  12.675  0.00  0.00     0.002 A 
ATOM     18  C7  ZIN A   1      17.742   2.256  12.713  0.00  0.00     0.030 A 
ENDBRANCH   8  13
ENDBRANCH   1   8
BRANCH   1  19
ATOM     19  C13 ZIN A   1      20.106  -1.735  11.879  0.00  0.00     0.198 C 
BRANCH  19  20
ATOM     20  O14 ZIN A   1      19.917  -3.100  12.257  0.00  0.00    -0.393 OA
ATOM     21  C15 ZIN A   1      19.779  -3.996  11.152  0.00  0.00     0.201 C 
ENDBRANCH  19  20
ENDBRANCH   1  19
BRANCH   4  22
ATOM     22  C20 ZIN A   1      18.159   0.834  16.582  0.00  0.00     0.256 C 
BRANCH  22  23
ATOM     23  C21 ZIN A   1      19.194   1.681  17.327  0.00  0.00     0.185 C 
BRANCH  23  24
ATOM     24  N22 ZIN A   1      18.676   3.039  17.505  0.00  0.00    -0.197 N 
ATOM     25  C28 ZIN A   1      19.009   4.124  16.772  0.00  0.00     0.363 A 
ATOM     26  N25 ZIN A   1      18.297   5.157  17.274  0.00  0.00    -0.199 N 
ATOM     27  O29 ZIN A   1      19.790   4.162  15.839  0.00  0.00    -0.243 OA
ATOM     28  N24 ZIN A   1      17.533   4.662  18.339  0.00  0.00    -0.043 NA
ATOM     29  N23 ZIN A   1      17.748   3.451  18.470  0.00  0.00    -0.043 NA
BRANCH  26  30
ATOM     30  C26 ZIN A   1      18.325   6.541  16.798  0.00  0.00     0.153 C 
ATOM     31  C27 ZIN A   1      17.350   6.698  15.630  0.00  0.00     0.029 C 
ENDBRANCH  26  30
ENDBRANCH  23  24
ENDBRANCH  22  23
ENDBRANCH   4  22
TORSDOF 9
ENDMDL
MODEL 8
REMARK VINA RESULT:      -6.6      3.946      8.835
REMARK  9 active torsions:
REMARK  status: ('A' for Active; 'I' for Inactive)
REMARK    1  A    between atoms: C2_2  and  C3_3 
REMARK       I    between atoms: C3_3  and  N5_5 
REMARK    2  A    between atoms: N5_5  and  C6_6 
REMARK    3  A    between atoms: N5_5  and  C12_12 
REMARK    4  A    between atoms: C12_12  and  C13_13 
REMARK    5  A    between atoms: C13_13  and  O14_14 
REMARK    6  A    between atoms: N18_18  and  C20_20 
REMARK    7  A    between atoms: C20_20  and  C21_21 
REMARK    8  A    between atoms: C21_21  and  N22_22 
REMARK    9  A    between atoms: N25_25  and  C26_26 
ROOT
ATOM      1  C12 ZIN A   1      19.372   0.868  10.516  0.00  0.00     0.065 C 
ATOM      2  C16 ZIN A   1      20.280  -0.047   9.688  0.00  0.00     0.061 C 
ATOM      3  C17 ZIN A   1      19.420  -0.884   8.739  0.00  0.00     0.237 C 
ATOM      4  N18 ZIN A   1      18.669   0.004   7.842  0.00  0.00    -0.069 N 
ATOM      5  H19 ZIN A   1      19.313   0.598   7.342  0.00  0.00     0.279 HD
ATOM      6  C30 ZIN A   1      17.745   0.835   8.624  0.00  0.00     0.237 C 
ATOM      7  C31 ZIN A   1      18.540   1.737   9.569  0.00  0.00     0.061 C 
ENDROOT
BRANCH   1   8
ATOM      8  N5  ZIN A   1      18.481   0.055  11.346  0.00  0.00    -0.306 N 
ATOM      9  C3  ZIN A   1      17.521   0.648  12.085  0.00  0.00     0.224 C 
ATOM     10  O4  ZIN A   1      17.214   1.800  11.867  0.00  0.00    -0.273 OA
BRANCH   9  11
ATOM     11  C2  ZIN A   1      16.833  -0.122  13.183  0.00  0.00     0.099 C 
ATOM     12  C1  ZIN A   1      17.511   0.183  14.521  0.00  0.00     0.014 C 
ENDBRANCH   9  11
BRANCH   8  13
ATOM     13  C6  ZIN A   1      18.626  -1.337  11.373  0.00  0.00     0.038 A 
ATOM     14  C11 ZIN A   1      19.748  -1.907  11.961  0.00  0.00     0.030 A 
ATOM     15  C10 ZIN A   1      19.884  -3.281  11.994  0.00  0.00     0.002 A 
ATOM     16  C9  ZIN A   1      18.913  -4.088  11.430  0.00  0.00     0.000 A 
ATOM     17  C8  ZIN A   1      17.798  -3.522  10.839  0.00  0.00     0.002 A 
ATOM     18  C7  ZIN A   1      17.652  -2.149  10.809  0.00  0.00     0.030 A 
ENDBRANCH   8  13
ENDBRANCH   1   8
BRANCH   1  19
ATOM     19  C13 ZIN A   1      20.229   1.764  11.413  0.00  0.00     0.198 C 
BRANCH  19  20
ATOM     20  O14 ZIN A   1      20.007   3.133  11.070  0.00  0.00    -0.393 OA
ATOM     21  C15 ZIN A   1      19.880   4.003  12.197  0.00  0.00     0.201 C 
ENDBRANCH  19  20
ENDBRANCH   1  19
BRANCH   4  22
ATOM     22  C20 ZIN A   1      17.905  -0.804   6.883  0.00  0.00     0.256 C 
BRANCH  22  23
ATOM     23  C21 ZIN A   1      18.851  -1.363   5.818  0.00  0.00     0.185 C 
BRANCH  23  24
ATOM     24  N22 ZIN A   1      18.148  -2.370   5.021  0.00  0.00    -0.197 N 
ATOM     25  C28 ZIN A   1      18.360  -3.704   5.052  0.00  0.00     0.363 A 
ATOM     26  N25 ZIN A   1      17.497  -4.248   4.166  0.00  0.00    -0.199 N 
ATOM     27  O29 ZIN A   1      19.164  -4.299   5.746  0.00  0.00    -0.243 OA
ATOM     28  N24 ZIN A   1      16.765  -3.200   3.594  0.00  0.00    -0.043 NA
ATOM     29  N23 ZIN A   1      17.137  -2.126   4.083  0.00  0.00    -0.043 NA
BRANCH  26  30
ATOM     30  C26 ZIN A   1      17.357  -5.673   3.856  0.00  0.00     0.153 C 
ATOM     31  C27 ZIN A   1      17.690  -5.909   2.382  0.00  0.00     0.029 C 
ENDBRANCH  26  30
ENDBRANCH  23  24
ENDBRANCH  22  23
ENDBRANCH   4  22
TORSDOF 9
ENDMDL
MODEL 9
REMARK VINA RESULT:      -6.4      3.371      4.894
REMARK  9 active torsions:
REMARK  status: ('A' for Active; 'I' for Inactive)
REMARK    1  A    between atoms: C2_2  and  C3_3 
REMARK       I    between atoms: C3_3  and  N5_5 
REMARK    2  A    between atoms: N5_5  and  C6_6 
REMARK    3  A    between atoms: N5_5  and  C12_12 
REMARK    4  A    between atoms: C12_12  and  C13_13 
REMARK    5  A    between atoms: C13_13  and  O14_14 
REMARK    6  A    between atoms: N18_18  and  C20_20 
REMARK    7  A    between atoms: C20_20  and  C21_21 
REMARK    8  A    between atoms: C21_21  and  N22_22 
REMARK    9  A    between atoms: N25_25  and  C26_26 
ROOT
ATOM      1  C12 ZIN A   1      18.221   1.031  10.462  0.00  0.00     0.065 C 
ATOM      2  C16 ZIN A   1      17.300   1.859  11.362  0.00  0.00     0.061 C 
ATOM      3  C17 ZIN A   1      18.150   2.716  12.302  0.00  0.00     0.237 C 
ATOM      4  N18 ZIN A   1      19.002   3.615  11.514  0.00  0.00    -0.069 N 
ATOM      5  H19 ZIN A   1      18.424   4.179  10.908  0.00  0.00     0.279 HD
ATOM      6  C30 ZIN A   1      19.937   2.828  10.700  0.00  0.00     0.237 C 
ATOM      7  C31 ZIN A   1      19.156   1.975   9.699  0.00  0.00     0.061 C 
ENDROOT
BRANCH   1   8
ATOM      8  N5  ZIN A   1      19.015   0.113  11.283  0.00  0.00    -0.306 N 
ATOM      9  C3  ZIN A   1      19.913  -0.706  10.700  0.00  0.00     0.224 C 
ATOM     10  O4  ZIN A   1      20.265  -0.506   9.557  0.00  0.00    -0.273 OA
BRANCH   9  11
ATOM     11  C2  ZIN A   1      20.480  -1.871  11.471  0.00  0.00     0.099 C 
ATOM     12  C1  ZIN A   1      19.658  -3.127  11.171  0.00  0.00     0.014 C 
ENDBRANCH   9  11
BRANCH   8  13
ATOM     13  C6  ZIN A   1      18.838   0.085  12.671  0.00  0.00     0.038 A 
ATOM     14  C11 ZIN A   1      19.808   0.627  13.505  0.00  0.00     0.030 A 
ATOM     15  C10 ZIN A   1      19.627   0.605  14.875  0.00  0.00     0.002 A 
ATOM     16  C9  ZIN A   1      18.490   0.033  15.415  0.00  0.00     0.000 A 
ATOM     17  C8  ZIN A   1      17.526  -0.511  14.586  0.00  0.00     0.002 A 
ATOM     18  C7  ZIN A   1      17.697  -0.487  13.216  0.00  0.00     0.030 A 
ENDBRANCH   8  13
ENDBRANCH   1   8
BRANCH   1  19
ATOM     19  C13 ZIN A   1      17.381   0.229   9.466  0.00  0.00     0.198 C 
BRANCH  19  20
ATOM     20  O14 ZIN A   1      17.720   0.618   8.134  0.00  0.00    -0.393 OA
ATOM     21  C15 ZIN A   1      17.610  -0.435   7.174  0.00  0.00     0.201 C 
ENDBRANCH  19  20
ENDBRANCH   1  19
BRANCH   4  22
ATOM     22  C20 ZIN A   1      19.760   4.488  12.419  0.00  0.00     0.256 C 
BRANCH  22  23
ATOM     23  C21 ZIN A   1      19.230   4.326  13.846  0.00  0.00     0.185 C 
BRANCH  23  24
ATOM     24  N22 ZIN A   1      18.794   5.628  14.355  0.00  0.00    -0.197 N 
ATOM     25  C28 ZIN A   1      17.590   6.205  14.146  0.00  0.00     0.363 A 
ATOM     26  N25 ZIN A   1      17.617   7.389  14.797  0.00  0.00    -0.199 N 
ATOM     27  O29 ZIN A   1      16.663   5.745  13.506  0.00  0.00    -0.243 OA
ATOM     28  N24 ZIN A   1      18.877   7.512  15.395  0.00  0.00    -0.043 NA
ATOM     29  N23 ZIN A   1      19.550   6.504  15.144  0.00  0.00    -0.043 NA
BRANCH  26  30
ATOM     30  C26 ZIN A   1      16.529   8.368  14.858  0.00  0.00     0.153 C 
ATOM     31  C27 ZIN A   1      15.583   8.008  16.006  0.00  0.00     0.029 C 
ENDBRANCH  26  30
ENDBRANCH  23  24
ENDBRANCH  22  23
ENDBRANCH   4  22
TORSDOF 9
ENDMDL
