MODEL 1
REMARK VINA RESULT:      -8.0      0.000      0.000
REMARK  6 active torsions:
REMARK  status: ('A' for Active; 'I' for Inactive)
REMARK    1  A    between atoms: C2_2  and  C4_4 
REMARK    2  A    between atoms: C8_7  and  C10_8 
REMARK       I    between atoms: C10_8  and  N12_10 
REMARK    3  A    between atoms: N12_10  and  C13_11 
REMARK    4  A    between atoms: C13_11  and  C15_12 
REMARK    5  A    between atoms: C13_11  and  C22_19 
REMARK    6  A    between atoms: C15_12  and  C16_13 
ROOT
ATOM      1  C10 <0> d   1      18.873  -4.066   7.245  0.00  0.00     0.222 C 
ATOM      2  O11 <0> d   1      20.076  -3.916   7.198  0.00  0.00    -0.273 OA
ATOM      3  N12 <0> d   1      18.055  -3.089   6.808  0.00  0.00    -0.346 N 
ATOM      4  H38 <0> d   1      17.093  -3.209   6.845  0.00  0.00     0.163 HD
ENDROOT
BRANCH   3   5
ATOM      5  C13 <0> d   1      18.617  -1.845   6.275  0.00  0.00     0.189 C 
BRANCH   5   6
ATOM      6  C15 <0> d   1      17.589  -0.721   6.410  0.00  0.00     0.074 C 
BRANCH   6   7
ATOM      7  C16 <0> d   1      17.958   0.159   7.577  0.00  0.00    -0.056 A 
ATOM      8  C21 <0> d   1      18.880   1.176   7.412  0.00  0.00     0.007 A 
ATOM      9  C20 <0> d   1      19.215   1.986   8.480  0.00  0.00     0.001 A 
ATOM     10  C19 <0> d   1      18.634   1.773   9.717  0.00  0.00     0.000 A 
ATOM     11  C18 <0> d   1      17.716   0.753   9.883  0.00  0.00     0.001 A 
ATOM     12  C17 <0> d   1      17.378  -0.054   8.814  0.00  0.00     0.007 A 
ENDBRANCH   6   7
ENDBRANCH   5   6
BRANCH   5  13
ATOM     13  C22 <0> d   1      18.967  -2.034   4.822  0.00  0.00     0.197 C 
ATOM     14  O23 <0> d   1      19.845  -1.357   4.313  0.00  0.00    -0.646 OA
ATOM     15  O24 <0> d   1      18.373  -2.861   4.153  0.00  0.00    -0.646 OA
ENDBRANCH   5  13
ENDBRANCH   3   5
BRANCH   1  16
ATOM     16  C8  <0> d   1      18.295  -5.345   7.792  0.00  0.00     0.078 C 
ATOM     17  C7  <0> d   1      16.997  -5.038   8.542  0.00  0.00     0.014 C 
ATOM     18  C6  <0> d   1      17.291  -4.076   9.696  0.00  0.00     0.006 C 
ATOM     19  C4  <0> d   1      18.294  -4.722  10.655  0.00  0.00    -0.011 C 
ATOM     20  C26 <0> d   1      19.590  -5.029   9.904  0.00  0.00     0.006 C 
ATOM     21  C25 <0> d   1      19.298  -5.990   8.751  0.00  0.00     0.014 C 
BRANCH  19  22
ATOM     22  C2  <0> d   1      18.587  -3.761  11.809  0.00  0.00    -0.019 C 
ATOM     23  C1  <0> d   1      20.054  -3.329  11.754  0.00  0.00     0.010 C 
ATOM     24  C3  <0> d   1      17.687  -2.528  11.686  0.00  0.00     0.010 C 
ENDBRANCH  19  22
ENDBRANCH   1  16
TORSDOF 6
ENDMDL
MODEL 2
REMARK VINA RESULT:      -7.9      3.937      5.912
REMARK  6 active torsions:
REMARK  status: ('A' for Active; 'I' for Inactive)
REMARK    1  A    between atoms: C2_2  and  C4_4 
REMARK    2  A    between atoms: C8_7  and  C10_8 
REMARK       I    between atoms: C10_8  and  N12_10 
REMARK    3  A    between atoms: N12_10  and  C13_11 
REMARK    4  A    between atoms: C13_11  and  C15_12 
REMARK    5  A    between atoms: C13_11  and  C22_19 
REMARK    6  A    between atoms: C15_12  and  C16_13 
ROOT
ATOM      1  C10 <0> d   1      17.796   1.290  12.316  0.00  0.00     0.222 C 
ATOM      2  O11 <0> d   1      16.727   0.852  11.947  0.00  0.00    -0.273 OA
ATOM      3  N12 <0> d   1      18.436   2.216  11.575  0.00  0.00    -0.346 N 
ATOM      4  H38 <0> d   1      19.291   2.567  11.870  0.00  0.00     0.163 HD
ENDROOT
BRANCH   3   5
ATOM      5  C13 <0> d   1      17.841   2.694  10.325  0.00  0.00     0.189 C 
BRANCH   5   6
ATOM      6  C15 <0> d   1      18.889   2.653   9.212  0.00  0.00     0.074 C 
BRANCH   6   7
ATOM      7  C16 <0> d   1      18.542   1.558   8.235  0.00  0.00    -0.056 A 
ATOM      8  C21 <0> d   1      17.696   0.533   8.617  0.00  0.00     0.007 A 
ATOM      9  C20 <0> d   1      17.375  -0.468   7.721  0.00  0.00     0.001 A 
ATOM     10  C19 <0> d   1      17.907  -0.451   6.445  0.00  0.00     0.000 A 
ATOM     11  C18 <0> d   1      18.757   0.571   6.065  0.00  0.00     0.001 A 
ATOM     12  C17 <0> d   1      19.075   1.575   6.959  0.00  0.00     0.007 A 
ENDBRANCH   6   7
ENDBRANCH   5   6
BRANCH   5  13
ATOM     13  C22 <0> d   1      17.358   4.110  10.506  0.00  0.00     0.197 C 
ATOM     14  O23 <0> d   1      17.702   4.977   9.721  0.00  0.00    -0.646 OA
ATOM     15  O24 <0> d   1      16.623   4.390  11.439  0.00  0.00    -0.646 OA
ENDBRANCH   5  13
ENDBRANCH   3   5
BRANCH   1  16
ATOM     16  C8  <0> d   1      18.408   0.799  13.602  0.00  0.00     0.078 C 
ATOM     17  C7  <0> d   1      19.902   0.547  13.392  0.00  0.00     0.014 C 
ATOM     18  C6  <0> d   1      20.092  -0.509  12.301  0.00  0.00     0.006 C 
ATOM     19  C4  <0> d   1      19.410  -1.811  12.727  0.00  0.00    -0.011 C 
ATOM     20  C26 <0> d   1      17.917  -1.558  12.936  0.00  0.00     0.006 C 
ATOM     21  C25 <0> d   1      17.725  -0.503  14.027  0.00  0.00     0.014 C 
BRANCH  19  22
ATOM     22  C2  <0> d   1      19.602  -2.867  11.636  0.00  0.00    -0.019 C 
ATOM     23  C1  <0> d   1      18.570  -3.982  11.818  0.00  0.00     0.010 C 
ATOM     24  C3  <0> d   1      19.416  -2.219  10.262  0.00  0.00     0.010 C 
ENDBRANCH  19  22
ENDBRANCH   1  16
TORSDOF 6
ENDMDL
MODEL 3
REMARK VINA RESULT:      -7.8      1.632      2.541
REMARK  6 active torsions:
REMARK  status: ('A' for Active; 'I' for Inactive)
REMARK    1  A    between atoms: C2_2  and  C4_4 
REMARK    2  A    between atoms: C8_7  and  C10_8 
REMARK       I    between atoms: C10_8  and  N12_10 
REMARK    3  A    between atoms: N12_10  and  C13_11 
REMARK    4  A    between atoms: C13_11  and  C15_12 
REMARK    5  A    between atoms: C13_11  and  C22_19 
REMARK    6  A    between atoms: C15_12  and  C16_13 
ROOT
ATOM      1  C10 <0> d   1      19.174  -2.815   9.334  0.00  0.00     0.222 C 
ATOM      2  O11 <0> d   1      19.962  -1.967   9.698  0.00  0.00    -0.273 OA
ATOM      3  N12 <0> d   1      18.660  -2.765   8.090  0.00  0.00    -0.346 N 
ATOM      4  H38 <0> d   1      18.030  -3.444   7.798  0.00  0.00     0.163 HD
ENDROOT
BRANCH   3   5
ATOM      5  C13 <0> d   1      19.052  -1.689   7.176  0.00  0.00     0.189 C 
BRANCH   5   6
ATOM      6  C15 <0> d   1      17.915  -0.671   7.069  0.00  0.00     0.074 C 
BRANCH   6   7
ATOM      7  C16 <0> d   1      18.113   0.414   8.096  0.00  0.00    -0.056 A 
ATOM      8  C21 <0> d   1      17.406   0.382   9.283  0.00  0.00     0.007 A 
ATOM      9  C20 <0> d   1      17.590   1.375  10.225  0.00  0.00     0.001 A 
ATOM     10  C19 <0> d   1      18.477   2.407   9.978  0.00  0.00     0.000 A 
ATOM     11  C18 <0> d   1      19.181   2.442   8.789  0.00  0.00     0.001 A 
ATOM     12  C17 <0> d   1      18.999   1.447   7.848  0.00  0.00     0.007 A 
ENDBRANCH   6   7
ENDBRANCH   5   6
BRANCH   5  13
ATOM     13  C22 <0> d   1      19.340  -2.264   5.814  0.00  0.00     0.197 C 
ATOM     14  O23 <0> d   1      19.138  -3.447   5.597  0.00  0.00    -0.646 OA
ATOM     15  O24 <0> d   1      19.775  -1.549   4.929  0.00  0.00    -0.646 OA
ENDBRANCH   5  13
ENDBRANCH   3   5
BRANCH   1  16
ATOM     16  C8  <0> d   1      18.772  -3.923  10.273  0.00  0.00     0.078 C 
ATOM     17  C7  <0> d   1      17.379  -3.634  10.835  0.00  0.00     0.014 C 
ATOM     18  C6  <0> d   1      17.402  -2.305  11.595  0.00  0.00     0.006 C 
ATOM     19  C4  <0> d   1      18.409  -2.392  12.744  0.00  0.00    -0.011 C 
ATOM     20  C26 <0> d   1      19.801  -2.681  12.181  0.00  0.00     0.006 C 
ATOM     21  C25 <0> d   1      19.779  -4.009  11.421  0.00  0.00     0.014 C 
BRANCH  19  22
ATOM     22  C2  <0> d   1      18.431  -1.064  13.503  0.00  0.00    -0.019 C 
ATOM     23  C1  <0> d   1      18.679  -1.330  14.990  0.00  0.00     0.010 C 
ATOM     24  C3  <0> d   1      19.549  -0.178  12.949  0.00  0.00     0.010 C 
ENDBRANCH  19  22
ENDBRANCH   1  16
TORSDOF 6
ENDMDL
MODEL 4
REMARK VINA RESULT:      -7.7      4.443      7.846
REMARK  6 active torsions:
REMARK  status: ('A' for Active; 'I' for Inactive)
REMARK    1  A    between atoms: C2_2  and  C4_4 
REMARK    2  A    between atoms: C8_7  and  C10_8 
REMARK       I    between atoms: C10_8  and  N12_10 
REMARK    3  A    between atoms: N12_10  and  C13_11 
REMARK    4  A    between atoms: C13_11  and  C15_12 
REMARK    5  A    between atoms: C13_11  and  C22_19 
REMARK    6  A    between atoms: C15_12  and  C16_13 
ROOT
ATOM      1  C10 <0> d   1      17.716   1.095  11.225  0.00  0.00     0.222 C 
ATOM      2  O11 <0> d   1      16.552   0.934  11.523  0.00  0.00    -0.273 OA
ATOM      3  N12 <0> d   1      18.648   0.219  11.649  0.00  0.00    -0.346 N 
ATOM      4  H38 <0> d   1      19.580   0.348  11.410  0.00  0.00     0.163 HD
ENDROOT
BRANCH   3   5
ATOM      5  C13 <0> d   1      18.255  -0.928  12.472  0.00  0.00     0.189 C 
BRANCH   5   6
ATOM      6  C15 <0> d   1      19.297  -1.150  13.569  0.00  0.00     0.074 C 
BRANCH   6   7
ATOM      7  C16 <0> d   1      18.811  -0.532  14.855  0.00  0.00    -0.056 A 
ATOM      8  C21 <0> d   1      18.128  -1.302  15.778  0.00  0.00     0.007 A 
ATOM      9  C20 <0> d   1      17.686  -0.736  16.959  0.00  0.00     0.001 A 
ATOM     10  C19 <0> d   1      17.919   0.603  17.214  0.00  0.00     0.000 A 
ATOM     11  C18 <0> d   1      18.598   1.374  16.289  0.00  0.00     0.001 A 
ATOM     12  C17 <0> d   1      19.044   0.808  15.110  0.00  0.00     0.007 A 
ENDBRANCH   6   7
ENDBRANCH   5   6
BRANCH   5  13
ATOM     13  C22 <0> d   1      18.166  -2.159  11.608  0.00  0.00     0.197 C 
ATOM     14  O23 <0> d   1      19.161  -2.579  11.041  0.00  0.00    -0.646 OA
ATOM     15  O24 <0> d   1      17.100  -2.736  11.474  0.00  0.00    -0.646 OA
ENDBRANCH   5  13
ENDBRANCH   3   5
BRANCH   1  16
ATOM     16  C8  <0> d   1      18.120   2.274  10.378  0.00  0.00     0.078 C 
ATOM     17  C7  <0> d   1      19.602   2.583  10.608  0.00  0.00     0.014 C 
ATOM     18  C6  <0> d   1      19.830   2.912  12.084  0.00  0.00     0.006 C 
ATOM     19  C4  <0> d   1      18.989   4.131  12.471  0.00  0.00    -0.011 C 
ATOM     20  C26 <0> d   1      17.509   3.822  12.241  0.00  0.00     0.006 C 
ATOM     21  C25 <0> d   1      17.280   3.492  10.765  0.00  0.00     0.014 C 
BRANCH  19  22
ATOM     22  C2  <0> d   1      19.219   4.461  13.947  0.00  0.00    -0.019 C 
ATOM     23  C1  <0> d   1      20.035   5.750  14.061  0.00  0.00     0.010 C 
ATOM     24  C3  <0> d   1      17.869   4.647  14.644  0.00  0.00     0.010 C 
ENDBRANCH  19  22
ENDBRANCH   1  16
TORSDOF 6
ENDMDL
MODEL 5
REMARK VINA RESULT:      -7.6      5.788      8.198
REMARK  6 active torsions:
REMARK  status: ('A' for Active; 'I' for Inactive)
REMARK    1  A    between atoms: C2_2  and  C4_4 
REMARK    2  A    between atoms: C8_7  and  C10_8 
REMARK       I    between atoms: C10_8  and  N12_10 
REMARK    3  A    between atoms: N12_10  and  C13_11 
REMARK    4  A    between atoms: C13_11  and  C15_12 
REMARK    5  A    between atoms: C13_11  and  C22_19 
REMARK    6  A    between atoms: C15_12  and  C16_13 
ROOT
ATOM      1  C10 <0> d   1      18.640   1.035  14.365  0.00  0.00     0.222 C 
ATOM      2  O11 <0> d   1      17.455   1.064  14.621  0.00  0.00    -0.273 OA
ATOM      3  N12 <0> d   1      19.400   2.127  14.576  0.00  0.00    -0.346 N 
ATOM      4  H38 <0> d   1      20.349   2.104  14.372  0.00  0.00     0.163 HD
ENDROOT
BRANCH   3   5
ATOM      5  C13 <0> d   1      18.796   3.349  15.114  0.00  0.00     0.189 C 
BRANCH   5   6
ATOM      6  C15 <0> d   1      19.258   4.552  14.290  0.00  0.00     0.074 C 
BRANCH   6   7
ATOM      7  C16 <0> d   1      18.373   4.702  13.079  0.00  0.00    -0.056 A 
ATOM      8  C21 <0> d   1      17.064   5.122  13.228  0.00  0.00     0.007 A 
ATOM      9  C20 <0> d   1      16.253   5.263  12.118  0.00  0.00     0.001 A 
ATOM     10  C19 <0> d   1      16.749   4.976  10.859  0.00  0.00     0.000 A 
ATOM     11  C18 <0> d   1      18.056   4.552  10.711  0.00  0.00     0.001 A 
ATOM     12  C17 <0> d   1      18.868   4.415  11.821  0.00  0.00     0.007 A 
ENDBRANCH   6   7
ENDBRANCH   5   6
BRANCH   5  13
ATOM     13  C22 <0> d   1      19.220   3.530  16.548  0.00  0.00     0.197 C 
ATOM     14  O23 <0> d   1      20.384   3.782  16.813  0.00  0.00    -0.646 OA
ATOM     15  O24 <0> d   1      18.401   3.425  17.445  0.00  0.00    -0.646 OA
ENDBRANCH   5  13
ENDBRANCH   3   5
BRANCH   1  16
ATOM     16  C8  <0> d   1      19.261  -0.222  13.813  0.00  0.00     0.078 C 
ATOM     17  C7  <0> d   1      20.370   0.150  12.826  0.00  0.00     0.014 C 
ATOM     18  C6  <0> d   1      19.777   0.972  11.680  0.00  0.00     0.006 C 
ATOM     19  C4  <0> d   1      18.708   0.147  10.960  0.00  0.00    -0.011 C 
ATOM     20  C26 <0> d   1      17.601  -0.224  11.947  0.00  0.00     0.006 C 
ATOM     21  C25 <0> d   1      18.192  -1.046  13.094  0.00  0.00     0.014 C 
BRANCH  19  22
ATOM     22  C2  <0> d   1      18.117   0.969   9.813  0.00  0.00    -0.019 C 
ATOM     23  C1  <0> d   1      19.248   1.630   9.023  0.00  0.00     0.010 C 
ATOM     24  C3  <0> d   1      17.316   0.050   8.888  0.00  0.00     0.010 C 
ENDBRANCH  19  22
ENDBRANCH   1  16
TORSDOF 6
ENDMDL
MODEL 6
REMARK VINA RESULT:      -7.5      2.580      5.539
REMARK  6 active torsions:
REMARK  status: ('A' for Active; 'I' for Inactive)
REMARK    1  A    between atoms: C2_2  and  C4_4 
REMARK    2  A    between atoms: C8_7  and  C10_8 
REMARK       I    between atoms: C10_8  and  N12_10 
REMARK    3  A    between atoms: N12_10  and  C13_11 
REMARK    4  A    between atoms: C13_11  and  C15_12 
REMARK    5  A    between atoms: C13_11  and  C22_19 
REMARK    6  A    between atoms: C15_12  and  C16_13 
ROOT
ATOM      1  C10 <0> d   1      19.404  -1.259  11.623  0.00  0.00     0.222 C 
ATOM      2  O11 <0> d   1      20.440  -0.931  11.086  0.00  0.00    -0.273 OA
ATOM      3  N12 <0> d   1      18.671  -2.269  11.113  0.00  0.00    -0.346 N 
ATOM      4  H38 <0> d   1      17.842  -2.531  11.542  0.00  0.00     0.163 HD
ENDROOT
BRANCH   3   5
ATOM      5  C13 <0> d   1      19.127  -2.970   9.910  0.00  0.00     0.189 C 
BRANCH   5   6
ATOM      6  C15 <0> d   1      18.000  -3.000   8.877  0.00  0.00     0.074 C 
BRANCH   6   7
ATOM      7  C16 <0> d   1      18.230  -1.919   7.852  0.00  0.00    -0.056 A 
ATOM      8  C21 <0> d   1      19.074  -2.151   6.781  0.00  0.00     0.007 A 
ATOM      9  C20 <0> d   1      19.282  -1.162   5.839  0.00  0.00     0.001 A 
ATOM     10  C19 <0> d   1      18.653   0.063   5.971  0.00  0.00     0.000 A 
ATOM     11  C18 <0> d   1      17.813   0.295   7.044  0.00  0.00     0.001 A 
ATOM     12  C17 <0> d   1      17.602  -0.695   7.984  0.00  0.00     0.007 A 
ENDBRANCH   6   7
ENDBRANCH   5   6
BRANCH   5  13
ATOM     13  C22 <0> d   1      19.516  -4.381  10.268  0.00  0.00     0.197 C 
ATOM     14  O23 <0> d   1      19.857  -4.649  11.408  0.00  0.00    -0.646 OA
ATOM     15  O24 <0> d   1      19.490  -5.256   9.420  0.00  0.00    -0.646 OA
ENDBRANCH   5  13
ENDBRANCH   3   5
BRANCH   1  16
ATOM     16  C8  <0> d   1      18.934  -0.538  12.860  0.00  0.00     0.078 C 
ATOM     17  C7  <0> d   1      17.436  -0.250  12.745  0.00  0.00     0.014 C 
ATOM     18  C6  <0> d   1      17.178   0.625  11.516  0.00  0.00     0.006 C 
ATOM     19  C4  <0> d   1      17.942   1.943  11.659  0.00  0.00    -0.011 C 
ATOM     20  C26 <0> d   1      19.439   1.654  11.774  0.00  0.00     0.006 C 
ATOM     21  C25 <0> d   1      19.698   0.780  13.003  0.00  0.00     0.014 C 
BRANCH  19  22
ATOM     22  C2  <0> d   1      17.683   2.818  10.431  0.00  0.00    -0.019 C 
ATOM     23  C1  <0> d   1      17.529   4.277  10.867  0.00  0.00     0.010 C 
ATOM     24  C3  <0> d   1      18.861   2.696   9.461  0.00  0.00     0.010 C 
ENDBRANCH  19  22
ENDBRANCH   1  16
TORSDOF 6
ENDMDL
MODEL 7
REMARK VINA RESULT:      -7.3      6.566      9.098
REMARK  6 active torsions:
REMARK  status: ('A' for Active; 'I' for Inactive)
REMARK    1  A    between atoms: C2_2  and  C4_4 
REMARK    2  A    between atoms: C8_7  and  C10_8 
REMARK       I    between atoms: C10_8  and  N12_10 
REMARK    3  A    between atoms: N12_10  and  C13_11 
REMARK    4  A    between atoms: C13_11  and  C15_12 
REMARK    5  A    between atoms: C13_11  and  C22_19 
REMARK    6  A    between atoms: C15_12  and  C16_13 
ROOT
ATOM      1  C10 <0> d   1      18.210   0.327  14.951  0.00  0.00     0.222 C 
ATOM      2  O11 <0> d   1      17.058   0.657  15.137  0.00  0.00    -0.273 OA
ATOM      3  N12 <0> d   1      19.194   0.873  15.693  0.00  0.00    -0.346 N 
ATOM      4  H38 <0> d   1      20.116   0.609  15.545  0.00  0.00     0.163 HD
ENDROOT
BRANCH   3   5
ATOM      5  C13 <0> d   1      18.873   1.863  16.724  0.00  0.00     0.189 C 
BRANCH   5   6
ATOM      6  C15 <0> d   1      19.492   3.210  16.348  0.00  0.00     0.074 C 
BRANCH   6   7
ATOM      7  C16 <0> d   1      18.429   4.108  15.769  0.00  0.00    -0.056 A 
ATOM      8  C21 <0> d   1      18.089   4.004  14.433  0.00  0.00     0.007 A 
ATOM      9  C20 <0> d   1      17.112   4.825  13.903  0.00  0.00     0.001 A 
ATOM     10  C19 <0> d   1      16.480   5.757  14.706  0.00  0.00     0.000 A 
ATOM     11  C18 <0> d   1      16.824   5.864  16.041  0.00  0.00     0.001 A 
ATOM     12  C17 <0> d   1      17.798   5.041  16.572  0.00  0.00     0.007 A 
ENDBRANCH   6   7
ENDBRANCH   5   6
BRANCH   5  13
ATOM     13  C22 <0> d   1      19.427   1.408  18.049  0.00  0.00     0.197 C 
ATOM     14  O23 <0> d   1      19.655   2.223  18.926  0.00  0.00    -0.646 OA
ATOM     15  O24 <0> d   1      19.647   0.225  18.245  0.00  0.00    -0.646 OA
ENDBRANCH   5  13
ENDBRANCH   3   5
BRANCH   1  16
ATOM     16  C8  <0> d   1      18.541  -0.692  13.892  0.00  0.00     0.078 C 
ATOM     17  C7  <0> d   1      19.908  -0.371  13.285  0.00  0.00     0.014 C 
ATOM     18  C6  <0> d   1      19.872   1.024  12.658  0.00  0.00     0.006 C 
ATOM     19  C4  <0> d   1      18.805   1.063  11.561  0.00  0.00    -0.011 C 
ATOM     20  C26 <0> d   1      17.439   0.742  12.168  0.00  0.00     0.006 C 
ATOM     21  C25 <0> d   1      17.474  -0.653  12.796  0.00  0.00     0.014 C 
BRANCH  19  22
ATOM     22  C2  <0> d   1      18.770   2.457  10.933  0.00  0.00    -0.019 C 
ATOM     23  C1  <0> d   1      19.958   3.277  11.444  0.00  0.00     0.010 C 
ATOM     24  C3  <0> d   1      18.853   2.333   9.410  0.00  0.00     0.010 C 
ENDBRANCH  19  22
ENDBRANCH   1  16
TORSDOF 6
ENDMDL
MODEL 8
REMARK VINA RESULT:      -7.0      2.552      5.330
REMARK  6 active torsions:
REMARK  status: ('A' for Active; 'I' for Inactive)
REMARK    1  A    between atoms: C2_2  and  C4_4 
REMARK    2  A    between atoms: C8_7  and  C10_8 
REMARK       I    between atoms: C10_8  and  N12_10 
REMARK    3  A    between atoms: N12_10  and  C13_11 
REMARK    4  A    between atoms: C13_11  and  C15_12 
REMARK    5  A    between atoms: C13_11  and  C22_19 
REMARK    6  A    between atoms: C15_12  and  C16_13 
ROOT
ATOM      1  C10 <0> d   1      19.205  -1.393  11.613  0.00  0.00     0.222 C 
ATOM      2  O11 <0> d   1      20.374  -1.251  11.323  0.00  0.00    -0.273 OA
ATOM      3  N12 <0> d   1      18.372  -2.025  10.762  0.00  0.00    -0.346 N 
ATOM      4  H38 <0> d   1      17.437  -2.140  10.995  0.00  0.00     0.163 HD
ENDROOT
BRANCH   3   5
ATOM      5  C13 <0> d   1      18.878  -2.539   9.487  0.00  0.00     0.189 C 
BRANCH   5   6
ATOM      6  C15 <0> d   1      17.878  -2.220   8.375  0.00  0.00     0.074 C 
BRANCH   6   7
ATOM      7  C16 <0> d   1      18.280  -0.939   7.689  0.00  0.00    -0.056 A 
ATOM      8  C21 <0> d   1      18.178  -0.829   6.314  0.00  0.00     0.007 A 
ATOM      9  C20 <0> d   1      18.543   0.345   5.686  0.00  0.00     0.001 A 
ATOM     10  C19 <0> d   1      19.020   1.409   6.431  0.00  0.00     0.000 A 
ATOM     11  C18 <0> d   1      19.127   1.297   7.804  0.00  0.00     0.001 A 
ATOM     12  C17 <0> d   1      18.758   0.124   8.433  0.00  0.00     0.007 A 
ENDBRANCH   6   7
ENDBRANCH   5   6
BRANCH   5  13
ATOM     13  C22 <0> d   1      19.062  -4.031   9.583  0.00  0.00     0.197 C 
ATOM     14  O23 <0> d   1      18.390  -4.774   8.888  0.00  0.00    -0.646 OA
ATOM     15  O24 <0> d   1      19.882  -4.497  10.356  0.00  0.00    -0.646 OA
ENDBRANCH   5  13
ENDBRANCH   3   5
BRANCH   1  16
ATOM     16  C8  <0> d   1      18.684  -0.866  12.925  0.00  0.00     0.078 C 
ATOM     17  C7  <0> d   1      17.368  -0.122  12.689  0.00  0.00     0.014 C 
ATOM     18  C6  <0> d   1      17.609   1.046  11.729  0.00  0.00     0.006 C 
ATOM     19  C4  <0> d   1      18.635   2.004  12.337  0.00  0.00    -0.011 C 
ATOM     20  C26 <0> d   1      19.950   1.259  12.573  0.00  0.00     0.006 C 
ATOM     21  C25 <0> d   1      19.711   0.092  13.533  0.00  0.00     0.014 C 
BRANCH  19  22
ATOM     22  C2  <0> d   1      18.874   3.171  11.378  0.00  0.00    -0.019 C 
ATOM     23  C1  <0> d   1      17.589   3.463  10.600  0.00  0.00     0.010 C 
ATOM     24  C3  <0> d   1      19.281   4.412  12.176  0.00  0.00     0.010 C 
ENDBRANCH  19  22
ENDBRANCH   1  16
TORSDOF 6
ENDMDL
MODEL 9
REMARK VINA RESULT:      -6.8      2.245      4.268
REMARK  6 active torsions:
REMARK  status: ('A' for Active; 'I' for Inactive)
REMARK    1  A    between atoms: C2_2  and  C4_4 
REMARK    2  A    between atoms: C8_7  and  C10_8 
REMARK       I    between atoms: C10_8  and  N12_10 
REMARK    3  A    between atoms: N12_10  and  C13_11 
REMARK    4  A    between atoms: C13_11  and  C15_12 
REMARK    5  A    between atoms: C13_11  and  C22_19 
REMARK    6  A    between atoms: C15_12  and  C16_13 
ROOT
ATOM      1  C10 <0> d   1      18.413  -3.728   9.449  0.00  0.00     0.222 C 
ATOM      2  O11 <0> d   1      17.341  -3.868   8.901  0.00  0.00    -0.273 OA
ATOM      3  N12 <0> d   1      19.259  -2.763   9.038  0.00  0.00    -0.346 N 
ATOM      4  H38 <0> d   1      20.117  -2.651   9.478  0.00  0.00     0.163 HD
ENDROOT
BRANCH   3   5
ATOM      5  C13 <0> d   1      18.884  -1.883   7.929  0.00  0.00     0.189 C 
BRANCH   5   6
ATOM      6  C15 <0> d   1      19.632  -2.307   6.665  0.00  0.00     0.074 C 
BRANCH   6   7
ATOM      7  C16 <0> d   1      18.638  -2.686   5.596  0.00  0.00    -0.056 A 
ATOM      8  C21 <0> d   1      18.457  -4.015   5.260  0.00  0.00     0.007 A 
ATOM      9  C20 <0> d   1      17.544  -4.363   4.284  0.00  0.00     0.001 A 
ATOM     10  C19 <0> d   1      16.817  -3.381   3.635  0.00  0.00     0.000 A 
ATOM     11  C18 <0> d   1      17.002  -2.052   3.968  0.00  0.00     0.001 A 
ATOM     12  C17 <0> d   1      17.912  -1.704   4.947  0.00  0.00     0.007 A 
ENDBRANCH   6   7
ENDBRANCH   5   6
BRANCH   5  13
ATOM     13  C22 <0> d   1      19.244  -0.461   8.272  0.00  0.00     0.197 C 
ATOM     14  O23 <0> d   1      18.766   0.461   7.632  0.00  0.00    -0.646 OA
ATOM     15  O24 <0> d   1      20.014  -0.230   9.188  0.00  0.00    -0.646 OA
ENDBRANCH   5  13
ENDBRANCH   3   5
BRANCH   1  16
ATOM     16  C8  <0> d   1      18.799  -4.633  10.591  0.00  0.00     0.078 C 
ATOM     17  C7  <0> d   1      17.718  -4.579  11.673  0.00  0.00     0.014 C 
ATOM     18  C6  <0> d   1      17.582  -3.143  12.184  0.00  0.00     0.006 C 
ATOM     19  C4  <0> d   1      18.917  -2.681  12.772  0.00  0.00    -0.011 C 
ATOM     20  C26 <0> d   1      19.996  -2.737  11.690  0.00  0.00     0.006 C 
ATOM     21  C25 <0> d   1      20.134  -4.172  11.178  0.00  0.00     0.014 C 
BRANCH  19  22
ATOM     22  C2  <0> d   1      18.780  -1.246  13.284  0.00  0.00    -0.019 C 
ATOM     23  C1  <0> d   1      17.539  -0.600  12.663  0.00  0.00     0.010 C 
ATOM     24  C3  <0> d   1      18.640  -1.260  14.808  0.00  0.00     0.010 C 
ENDBRANCH  19  22
ENDBRANCH   1  16
TORSDOF 6
ENDMDL
