MODEL 1
REMARK VINA RESULT:      -8.6      0.000      0.000
REMARK  4 active torsions:
REMARK  status: ('A' for Active; 'I' for Inactive)
REMARK       I    between atoms: N11_8  and  C12_9 
REMARK    1  A    between atoms: C12_9  and  C14_11 
REMARK    2  A    between atoms: C14_11  and  N16_12 
REMARK    3  A    between atoms: C14_11  and  C17_13 
REMARK    4  A    between atoms: C25_19  and  O26_20 
ROOT
ATOM      1  N1  ZIN A   1      19.330  -0.454  11.076  0.00  0.00    -0.195 NA
ATOM      2  C2  ZIN A   1      18.617   0.426  11.165  0.00  0.00     0.085 C 
ATOM      3  C3  ZIN A   1      17.694   1.567  11.280  0.00  0.00     0.195 C 
ATOM      4  C5  ZIN A   1      17.832   2.508  10.058  0.00  0.00     0.047 C 
ATOM      5  C6  ZIN A   1      17.328   3.862  10.608  0.00  0.00     0.013 A 
ATOM      6  C8  ZIN A   1      18.334   4.780  11.303  0.00  0.00     0.032 A 
ATOM      7  C9  ZIN A   1      17.485   3.756  12.136  0.00  0.00     0.093 A 
ATOM      8  N11 ZIN A   1      18.069   2.430  12.424  0.00  0.00    -0.328 N 
ATOM      9  C12 ZIN A   1      18.811   2.084  13.494  0.00  0.00     0.255 C 
ATOM     10  O13 ZIN A   1      19.163   2.931  14.287  0.00  0.00    -0.271 OA
ENDROOT
BRANCH   9  11
ATOM     11  C14 ZIN A   1      19.204   0.645  13.705  0.00  0.00     0.317 C 
BRANCH  11  12
ATOM     12  N16 ZIN A   1      20.661   0.510  13.568  0.00  0.00     0.092 N 
ATOM     13  H34 ZIN A   1      20.908  -0.404  13.219  0.00  0.00     0.313 HD
ATOM     14  H35 ZIN A   1      21.038   1.236  12.978  0.00  0.00     0.313 HD
ENDBRANCH  11  12
BRANCH  11  15
ATOM     15  C17 ZIN A   1      18.781   0.202  15.107  0.00  0.00     0.003 C 
ATOM     16  C28 ZIN A   1      19.483   1.073  16.151  0.00  0.00     0.049 C 
ATOM     17  C25 ZIN A   1      19.060   0.629  17.553  0.00  0.00     0.059 C 
ATOM     18  C24 ZIN A   1      19.449  -0.835  17.764  0.00  0.00     0.042 C 
ATOM     19  C27 ZIN A   1      17.544   0.781  17.699  0.00  0.00     0.042 C 
ATOM     20  C22 ZIN A   1      18.747  -1.705  16.720  0.00  0.00    -0.010 C 
ATOM     21  C21 ZIN A   1      17.231  -1.554  16.866  0.00  0.00     0.009 C 
ATOM     22  C29 ZIN A   1      19.170  -1.263  15.318  0.00  0.00     0.017 C 
ATOM     23  C19 ZIN A   1      16.841  -0.089  16.655  0.00  0.00    -0.010 C 
ATOM     24  C18 ZIN A   1      17.266   0.353  15.253  0.00  0.00     0.017 C 
BRANCH  17  25
ATOM     25  O26 ZIN A   1      19.716   1.442  18.528  0.00  0.00    -0.390 OA
ATOM     26  H42 ZIN A   1      20.221   2.176  18.153  0.00  0.00     0.210 HD
ENDBRANCH  17  25
ENDBRANCH  11  15
ENDBRANCH   9  11
TORSDOF 4
ENDMDL
MODEL 2
REMARK VINA RESULT:      -8.4      3.643      5.659
REMARK  4 active torsions:
REMARK  status: ('A' for Active; 'I' for Inactive)
REMARK       I    between atoms: N11_8  and  C12_9 
REMARK    1  A    between atoms: C12_9  and  C14_11 
REMARK    2  A    between atoms: C14_11  and  N16_12 
REMARK    3  A    between atoms: C14_11  and  C17_13 
REMARK    4  A    between atoms: C25_19  and  O26_20 
ROOT
ATOM      1  N1  ZIN A   1      19.803   1.277   8.328  0.00  0.00    -0.195 NA
ATOM      2  C2  ZIN A   1      19.045   1.512   9.142  0.00  0.00     0.085 C 
ATOM      3  C3  ZIN A   1      18.064   1.816  10.195  0.00  0.00     0.195 C 
ATOM      4  C5  ZIN A   1      17.983   3.343  10.444  0.00  0.00     0.047 C 
ATOM      5  C6  ZIN A   1      17.455   3.428  11.894  0.00  0.00     0.013 A 
ATOM      6  C8  ZIN A   1      18.471   3.396  13.037  0.00  0.00     0.032 A 
ATOM      7  C9  ZIN A   1      17.805   2.069  12.528  0.00  0.00     0.093 A 
ATOM      8  N11 ZIN A   1      18.513   1.278  11.501  0.00  0.00    -0.328 N 
ATOM      9  C12 ZIN A   1      19.404   0.289  11.708  0.00  0.00     0.255 C 
ATOM     10  O13 ZIN A   1      19.789   0.045  12.832  0.00  0.00    -0.271 OA
ENDROOT
BRANCH   9  11
ATOM     11  C14 ZIN A   1      19.922  -0.516  10.544  0.00  0.00     0.317 C 
BRANCH  11  12
ATOM     12  N16 ZIN A   1      21.385  -0.612  10.628  0.00  0.00     0.092 N 
ATOM     13  H34 ZIN A   1      21.665  -1.444  11.126  0.00  0.00     0.313 HD
ATOM     14  H35 ZIN A   1      21.803  -0.583   9.710  0.00  0.00     0.313 HD
ENDBRANCH  11  12
BRANCH  11  15
ATOM     15  C17 ZIN A   1      19.315  -1.919  10.584  0.00  0.00     0.003 C 
ATOM     16  C28 ZIN A   1      19.194  -2.463   9.158  0.00  0.00     0.049 C 
ATOM     17  C25 ZIN A   1      18.587  -3.867   9.198  0.00  0.00     0.059 C 
ATOM     18  C24 ZIN A   1      17.199  -3.805   9.840  0.00  0.00     0.042 C 
ATOM     19  C27 ZIN A   1      19.489  -4.789  10.020  0.00  0.00     0.042 C 
ATOM     20  C22 ZIN A   1      17.321  -3.261  11.265  0.00  0.00    -0.010 C 
ATOM     21  C21 ZIN A   1      18.223  -4.184  12.088  0.00  0.00     0.009 C 
ATOM     22  C29 ZIN A   1      17.927  -1.857  11.226  0.00  0.00     0.017 C 
ATOM     23  C19 ZIN A   1      19.611  -4.246  11.446  0.00  0.00    -0.010 C 
ATOM     24  C18 ZIN A   1      20.217  -2.841  11.406  0.00  0.00     0.017 C 
BRANCH  17  25
ATOM     25  O26 ZIN A   1      18.473  -4.374   7.867  0.00  0.00    -0.390 OA
ATOM     26  H42 ZIN A   1      17.918  -3.837   7.287  0.00  0.00     0.210 HD
ENDBRANCH  17  25
ENDBRANCH  11  15
ENDBRANCH   9  11
TORSDOF 4
ENDMDL
MODEL 3
REMARK VINA RESULT:      -8.0      3.188      5.199
REMARK  4 active torsions:
REMARK  status: ('A' for Active; 'I' for Inactive)
REMARK       I    between atoms: N11_8  and  C12_9 
REMARK    1  A    between atoms: C12_9  and  C14_11 
REMARK    2  A    between atoms: C14_11  and  N16_12 
REMARK    3  A    between atoms: C14_11  and  C17_13 
REMARK    4  A    between atoms: C25_19  and  O26_20 
ROOT
ATOM      1  N1  ZIN A   1      20.554  -3.884  11.540  0.00  0.00    -0.195 NA
ATOM      2  C2  ZIN A   1      19.756  -3.645  10.768  0.00  0.00     0.085 C 
ATOM      3  C3  ZIN A   1      18.722  -3.337   9.767  0.00  0.00     0.195 C 
ATOM      4  C5  ZIN A   1      18.794  -4.330   8.581  0.00  0.00     0.047 C 
ATOM      5  C6  ZIN A   1      18.146  -3.533   7.426  0.00  0.00     0.013 A 
ATOM      6  C8  ZIN A   1      19.040  -2.620   6.585  0.00  0.00     0.032 A 
ATOM      7  C9  ZIN A   1      18.278  -2.055   7.836  0.00  0.00     0.093 A 
ATOM      8  N11 ZIN A   1      18.983  -2.023   9.133  0.00  0.00    -0.328 N 
ATOM      9  C12 ZIN A   1      19.730  -1.017   9.626  0.00  0.00     0.255 C 
ATOM     10  O13 ZIN A   1      19.978  -0.051   8.936  0.00  0.00    -0.271 OA
ENDROOT
BRANCH   9  11
ATOM     11  C14 ZIN A   1      20.259  -1.091  11.035  0.00  0.00     0.317 C 
BRANCH  11  12
ATOM     12  N16 ZIN A   1      21.662  -0.658  11.056  0.00  0.00     0.092 N 
ATOM     13  H34 ZIN A   1      22.100  -0.889  11.935  0.00  0.00     0.313 HD
ATOM     14  H35 ZIN A   1      22.175  -1.053  10.282  0.00  0.00     0.313 HD
ENDBRANCH  11  12
BRANCH  11  15
ATOM     15  C17 ZIN A   1      19.430  -0.178  11.940  0.00  0.00     0.003 C 
ATOM     16  C28 ZIN A   1      20.002   1.240  11.895  0.00  0.00     0.049 C 
ATOM     17  C25 ZIN A   1      19.172   2.154  12.800  0.00  0.00     0.059 C 
ATOM     18  C24 ZIN A   1      19.220   1.629  14.236  0.00  0.00     0.042 C 
ATOM     19  C27 ZIN A   1      17.722   2.173  12.312  0.00  0.00     0.042 C 
ATOM     20  C22 ZIN A   1      18.648   0.211  14.280  0.00  0.00    -0.010 C 
ATOM     21  C21 ZIN A   1      17.198   0.231  13.793  0.00  0.00     0.009 C 
ATOM     22  C29 ZIN A   1      19.478  -0.703  13.377  0.00  0.00     0.017 C 
ATOM     23  C19 ZIN A   1      17.150   0.755  12.356  0.00  0.00    -0.010 C 
ATOM     24  C18 ZIN A   1      17.980  -0.159  11.452  0.00  0.00     0.017 C 
BRANCH  17  25
ATOM     25  O26 ZIN A   1      19.707   3.479  12.758  0.00  0.00    -0.390 OA
ATOM     26  H42 ZIN A   1      19.052   4.161  12.561  0.00  0.00     0.210 HD
ENDBRANCH  17  25
ENDBRANCH  11  15
ENDBRANCH   9  11
TORSDOF 4
ENDMDL
MODEL 4
REMARK VINA RESULT:      -8.0      2.772      5.384
REMARK  4 active torsions:
REMARK  status: ('A' for Active; 'I' for Inactive)
REMARK       I    between atoms: N11_8  and  C12_9 
REMARK    1  A    between atoms: C12_9  and  C14_11 
REMARK    2  A    between atoms: C14_11  and  N16_12 
REMARK    3  A    between atoms: C14_11  and  C17_13 
REMARK    4  A    between atoms: C25_19  and  O26_20 
ROOT
ATOM      1  N1  ZIN A   1      19.672  -1.459  14.292  0.00  0.00    -0.195 NA
ATOM      2  C2  ZIN A   1      18.985  -1.614  13.400  0.00  0.00     0.085 C 
ATOM      3  C3  ZIN A   1      18.094  -1.816  12.246  0.00  0.00     0.195 C 
ATOM      4  C5  ZIN A   1      17.989  -3.320  11.892  0.00  0.00     0.047 C 
ATOM      5  C6  ZIN A   1      17.593  -3.295  10.398  0.00  0.00     0.013 A 
ATOM      6  C8  ZIN A   1      18.709  -3.231   9.355  0.00  0.00     0.032 A 
ATOM      7  C9  ZIN A   1      18.042  -1.913   9.888  0.00  0.00     0.093 A 
ATOM      8  N11 ZIN A   1      18.678  -1.215  11.024  0.00  0.00    -0.328 N 
ATOM      9  C12 ZIN A   1      19.614  -0.248  10.961  0.00  0.00     0.255 C 
ATOM     10  O13 ZIN A   1      20.108   0.050   9.894  0.00  0.00    -0.271 OA
ENDROOT
BRANCH   9  11
ATOM     11  C14 ZIN A   1      20.049   0.463  12.217  0.00  0.00     0.317 C 
BRANCH  11  12
ATOM     12  N16 ZIN A   1      21.510   0.618  12.211  0.00  0.00     0.092 N 
ATOM     13  H34 ZIN A   1      21.877   0.551  11.273  0.00  0.00     0.313 HD
ATOM     14  H35 ZIN A   1      21.783   1.487  12.645  0.00  0.00     0.313 HD
ENDBRANCH  11  12
BRANCH  11  15
ATOM     15  C17 ZIN A   1      19.390   1.842  12.276  0.00  0.00     0.003 C 
ATOM     16  C28 ZIN A   1      18.985   2.152  13.719  0.00  0.00     0.049 C 
ATOM     17  C25 ZIN A   1      18.326   3.531  13.779  0.00  0.00     0.059 C 
ATOM     18  C24 ZIN A   1      17.082   3.541  12.887  0.00  0.00     0.042 C 
ATOM     19  C27 ZIN A   1      19.314   4.590  13.288  0.00  0.00     0.042 C 
ATOM     20  C22 ZIN A   1      17.487   3.231  11.445  0.00  0.00    -0.010 C 
ATOM     21  C21 ZIN A   1      18.476   4.290  10.953  0.00  0.00     0.009 C 
ATOM     22  C29 ZIN A   1      18.146   1.851  11.385  0.00  0.00     0.017 C 
ATOM     23  C19 ZIN A   1      19.719   4.280  11.845  0.00  0.00    -0.010 C 
ATOM     24  C18 ZIN A   1      20.378   2.901  11.785  0.00  0.00     0.017 C 
BRANCH  17  25
ATOM     25  O26 ZIN A   1      17.948   3.820  15.127  0.00  0.00    -0.390 OA
ATOM     26  H42 ZIN A   1      18.613   3.575  15.783  0.00  0.00     0.210 HD
ENDBRANCH  17  25
ENDBRANCH  11  15
ENDBRANCH   9  11
TORSDOF 4
ENDMDL
MODEL 5
REMARK VINA RESULT:      -7.9      1.883      2.601
REMARK  4 active torsions:
REMARK  status: ('A' for Active; 'I' for Inactive)
REMARK       I    between atoms: N11_8  and  C12_9 
REMARK    1  A    between atoms: C12_9  and  C14_11 
REMARK    2  A    between atoms: C14_11  and  N16_12 
REMARK    3  A    between atoms: C14_11  and  C17_13 
REMARK    4  A    between atoms: C25_19  and  O26_20 
ROOT
ATOM      1  N1  ZIN A   1      21.422   0.922  12.294  0.00  0.00    -0.195 NA
ATOM      2  C2  ZIN A   1      20.658   0.171  11.917  0.00  0.00     0.085 C 
ATOM      3  C3  ZIN A   1      19.668  -0.802  11.428  0.00  0.00     0.195 C 
ATOM      4  C5  ZIN A   1      19.690  -0.876   9.881  0.00  0.00     0.047 C 
ATOM      5  C6  ZIN A   1      18.274  -1.394   9.541  0.00  0.00     0.013 A 
ATOM      6  C8  ZIN A   1      17.149  -0.370   9.376  0.00  0.00     0.032 A 
ATOM      7  C9  ZIN A   1      17.414  -1.043  10.770  0.00  0.00     0.093 A 
ATOM      8  N11 ZIN A   1      18.291  -0.345  11.731  0.00  0.00    -0.328 N 
ATOM      9  C12 ZIN A   1      17.919   0.543  12.673  0.00  0.00     0.255 C 
ATOM     10  O13 ZIN A   1      16.772   0.935  12.717  0.00  0.00    -0.271 OA
ENDROOT
BRANCH   9  11
ATOM     11  C14 ZIN A   1      18.928   1.051  13.671  0.00  0.00     0.317 C 
BRANCH  11  12
ATOM     12  N16 ZIN A   1      18.843   2.515  13.753  0.00  0.00     0.092 N 
ATOM     13  H34 ZIN A   1      17.921   2.809  14.038  0.00  0.00     0.313 HD
ATOM     14  H35 ZIN A   1      19.548   2.885  14.372  0.00  0.00     0.313 HD
ENDBRANCH  11  12
BRANCH  11  15
ATOM     15  C17 ZIN A   1      18.633   0.446  15.045  0.00  0.00     0.003 C 
ATOM     16  C28 ZIN A   1      19.363   1.251  16.124  0.00  0.00     0.049 C 
ATOM     17  C25 ZIN A   1      19.068   0.645  17.498  0.00  0.00     0.059 C 
ATOM     18  C24 ZIN A   1      19.552  -0.806  17.530  0.00  0.00     0.042 C 
ATOM     19  C27 ZIN A   1      17.562   0.688  17.761  0.00  0.00     0.042 C 
ATOM     20  C22 ZIN A   1      18.822  -1.610  16.452  0.00  0.00    -0.010 C 
ATOM     21  C21 ZIN A   1      17.316  -1.567  16.716  0.00  0.00     0.009 C 
ATOM     22  C29 ZIN A   1      19.117  -1.006  15.078  0.00  0.00     0.017 C 
ATOM     23  C19 ZIN A   1      16.832  -0.116  16.683  0.00  0.00    -0.010 C 
ATOM     24  C18 ZIN A   1      17.127   0.488  15.309  0.00  0.00     0.017 C 
BRANCH  17  25
ATOM     25  O26 ZIN A   1      19.750   1.397  18.505  0.00  0.00    -0.390 OA
ATOM     26  H42 ZIN A   1      20.709   1.427  18.391  0.00  0.00     0.210 HD
ENDBRANCH  17  25
ENDBRANCH  11  15
ENDBRANCH   9  11
TORSDOF 4
ENDMDL
MODEL 6
REMARK VINA RESULT:      -7.8      3.808      5.765
REMARK  4 active torsions:
REMARK  status: ('A' for Active; 'I' for Inactive)
REMARK       I    between atoms: N11_8  and  C12_9 
REMARK    1  A    between atoms: C12_9  and  C14_11 
REMARK    2  A    between atoms: C14_11  and  N16_12 
REMARK    3  A    between atoms: C14_11  and  C17_13 
REMARK    4  A    between atoms: C25_19  and  O26_20 
ROOT
ATOM      1  N1  ZIN A   1      20.715   0.176  13.344  0.00  0.00    -0.195 NA
ATOM      2  C2  ZIN A   1      20.304   0.676  12.410  0.00  0.00     0.085 C 
ATOM      3  C3  ZIN A   1      19.772   1.325  11.201  0.00  0.00     0.195 C 
ATOM      4  C5  ZIN A   1      19.803   2.867  11.348  0.00  0.00     0.047 C 
ATOM      5  C6  ZIN A   1      18.702   3.328  10.367  0.00  0.00     0.013 A 
ATOM      6  C8  ZIN A   1      17.263   3.409  10.880  0.00  0.00     0.032 A 
ATOM      7  C9  ZIN A   1      17.788   2.102  10.186  0.00  0.00     0.093 A 
ATOM      8  N11 ZIN A   1      18.330   1.024  11.038  0.00  0.00    -0.328 N 
ATOM      9  C12 ZIN A   1      17.649  -0.006  11.576  0.00  0.00     0.255 C 
ATOM     10  O13 ZIN A   1      16.441  -0.051  11.478  0.00  0.00    -0.271 OA
ENDROOT
BRANCH   9  11
ATOM     11  C14 ZIN A   1      18.387  -1.101  12.301  0.00  0.00     0.317 C 
BRANCH  11  12
ATOM     12  N16 ZIN A   1      17.755  -1.338  13.606  0.00  0.00     0.092 N 
ATOM     13  H34 ZIN A   1      16.827  -1.718  13.496  0.00  0.00     0.313 HD
ATOM     14  H35 ZIN A   1      18.326  -1.939  14.181  0.00  0.00     0.313 HD
ENDBRANCH  11  12
BRANCH  11  15
ATOM     15  C17 ZIN A   1      18.337  -2.385  11.471  0.00  0.00     0.003 C 
ATOM     16  C28 ZIN A   1      18.079  -2.034  10.003  0.00  0.00     0.049 C 
ATOM     17  C25 ZIN A   1      18.030  -3.318   9.173  0.00  0.00     0.059 C 
ATOM     18  C24 ZIN A   1      16.904  -4.216   9.688  0.00  0.00     0.042 C 
ATOM     19  C27 ZIN A   1      19.366  -4.054   9.293  0.00  0.00     0.042 C 
ATOM     20  C22 ZIN A   1      17.162  -4.566  11.154  0.00  0.00    -0.010 C 
ATOM     21  C21 ZIN A   1      18.498  -5.303  11.275  0.00  0.00     0.009 C 
ATOM     22  C29 ZIN A   1      17.211  -3.283  11.986  0.00  0.00     0.017 C 
ATOM     23  C19 ZIN A   1      19.624  -4.405  10.760  0.00  0.00    -0.010 C 
ATOM     24  C18 ZIN A   1      19.673  -3.121  11.591  0.00  0.00     0.017 C 
BRANCH  17  25
ATOM     25  O26 ZIN A   1      17.788  -2.989   7.803  0.00  0.00    -0.390 OA
ATOM     26  H42 ZIN A   1      18.175  -3.613   7.174  0.00  0.00     0.210 HD
ENDBRANCH  17  25
ENDBRANCH  11  15
ENDBRANCH   9  11
TORSDOF 4
ENDMDL
MODEL 7
REMARK VINA RESULT:      -7.8      2.665      5.546
REMARK  4 active torsions:
REMARK  status: ('A' for Active; 'I' for Inactive)
REMARK       I    between atoms: N11_8  and  C12_9 
REMARK    1  A    between atoms: C12_9  and  C14_11 
REMARK    2  A    between atoms: C14_11  and  N16_12 
REMARK    3  A    between atoms: C14_11  and  C17_13 
REMARK    4  A    between atoms: C25_19  and  O26_20 
ROOT
ATOM      1  N1  ZIN A   1      20.610   3.851  11.500  0.00  0.00    -0.195 NA
ATOM      2  C2  ZIN A   1      19.794   3.636  12.261  0.00  0.00     0.085 C 
ATOM      3  C3  ZIN A   1      18.736   3.359  13.246  0.00  0.00     0.195 C 
ATOM      4  C5  ZIN A   1      18.812   4.359  14.427  0.00  0.00     0.047 C 
ATOM      5  C6  ZIN A   1      18.127   3.585  15.576  0.00  0.00     0.013 A 
ATOM      6  C8  ZIN A   1      18.986   2.658  16.437  0.00  0.00     0.032 A 
ATOM      7  C9  ZIN A   1      18.231   2.101  15.178  0.00  0.00     0.093 A 
ATOM      8  N11 ZIN A   1      18.957   2.044  13.893  0.00  0.00    -0.328 N 
ATOM      9  C12 ZIN A   1      19.690   1.018  13.419  0.00  0.00     0.255 C 
ATOM     10  O13 ZIN A   1      19.904   0.051  14.120  0.00  0.00    -0.271 OA
ENDROOT
BRANCH   9  11
ATOM     11  C14 ZIN A   1      20.244   1.070  12.019  0.00  0.00     0.317 C 
BRANCH  11  12
ATOM     12  N16 ZIN A   1      21.640   0.615  12.027  0.00  0.00     0.092 N 
ATOM     13  H34 ZIN A   1      21.901   0.262  12.936  0.00  0.00     0.313 HD
ATOM     14  H35 ZIN A   1      21.800  -0.077  11.311  0.00  0.00     0.313 HD
ENDBRANCH  11  12
BRANCH  11  15
ATOM     15  C17 ZIN A   1      19.416   0.160  11.109  0.00  0.00     0.003 C 
ATOM     16  C28 ZIN A   1      20.018  -1.247  11.111  0.00  0.00     0.049 C 
ATOM     17  C25 ZIN A   1      19.191  -2.157  10.201  0.00  0.00     0.059 C 
ATOM     18  C24 ZIN A   1      19.200  -1.599   8.776  0.00  0.00     0.042 C 
ATOM     19  C27 ZIN A   1      17.751  -2.218  10.716  0.00  0.00     0.042 C 
ATOM     20  C22 ZIN A   1      18.598  -0.193   8.776  0.00  0.00    -0.010 C 
ATOM     21  C21 ZIN A   1      17.158  -0.254   9.290  0.00  0.00     0.009 C 
ATOM     22  C29 ZIN A   1      19.425   0.718   9.685  0.00  0.00     0.017 C 
ATOM     23  C19 ZIN A   1      17.148  -0.812  10.715  0.00  0.00    -0.010 C 
ATOM     24  C18 ZIN A   1      17.977   0.098  11.624  0.00  0.00     0.017 C 
BRANCH  17  25
ATOM     25  O26 ZIN A   1      19.754  -3.471  10.202  0.00  0.00    -0.390 OA
ATOM     26  H42 ZIN A   1      19.384  -4.057  10.876  0.00  0.00     0.210 HD
ENDBRANCH  17  25
ENDBRANCH  11  15
ENDBRANCH   9  11
TORSDOF 4
ENDMDL
MODEL 8
REMARK VINA RESULT:      -7.7      4.076      6.434
REMARK  4 active torsions:
REMARK  status: ('A' for Active; 'I' for Inactive)
REMARK       I    between atoms: N11_8  and  C12_9 
REMARK    1  A    between atoms: C12_9  and  C14_11 
REMARK    2  A    between atoms: C14_11  and  N16_12 
REMARK    3  A    between atoms: C14_11  and  C17_13 
REMARK    4  A    between atoms: C25_19  and  O26_20 
ROOT
ATOM      1  N1  ZIN A   1      18.865   1.334  10.675  0.00  0.00    -0.195 NA
ATOM      2  C2  ZIN A   1      18.350   1.017  11.637  0.00  0.00     0.085 C 
ATOM      3  C3  ZIN A   1      17.682   0.606  12.883  0.00  0.00     0.195 C 
ATOM      4  C5  ZIN A   1      17.770   1.728  13.947  0.00  0.00     0.047 C 
ATOM      5  C6  ZIN A   1      17.624   0.953  15.276  0.00  0.00     0.013 A 
ATOM      6  C8  ZIN A   1      18.886   0.380  15.922  0.00  0.00     0.032 A 
ATOM      7  C9  ZIN A   1      18.026  -0.495  14.942  0.00  0.00     0.093 A 
ATOM      8  N11 ZIN A   1      18.403  -0.525  13.514  0.00  0.00    -0.328 N 
ATOM      9  C12 ZIN A   1      19.247  -1.386  12.914  0.00  0.00     0.255 C 
ATOM     10  O13 ZIN A   1      19.880  -2.177  13.581  0.00  0.00    -0.271 OA
ENDROOT
BRANCH   9  11
ATOM     11  C14 ZIN A   1      19.405  -1.367  11.416  0.00  0.00     0.317 C 
BRANCH  11  12
ATOM     12  N16 ZIN A   1      20.825  -1.206  11.075  0.00  0.00     0.092 N 
ATOM     13  H34 ZIN A   1      21.405  -1.278  11.898  0.00  0.00     0.313 HD
ATOM     14  H35 ZIN A   1      21.107  -1.874  10.374  0.00  0.00     0.313 HD
ENDBRANCH  11  12
BRANCH  11  15
ATOM     15  C17 ZIN A   1      18.887  -2.683  10.832  0.00  0.00     0.003 C 
ATOM     16  C28 ZIN A   1      18.655  -2.517   9.328  0.00  0.00     0.049 C 
ATOM     17  C25 ZIN A   1      18.136  -3.833   8.745  0.00  0.00     0.059 C 
ATOM     18  C24 ZIN A   1      16.819  -4.210   9.426  0.00  0.00     0.042 C 
ATOM     19  C27 ZIN A   1      19.168  -4.937   8.981  0.00  0.00     0.042 C 
ATOM     20  C22 ZIN A   1      17.053  -4.375  10.929  0.00  0.00    -0.010 C 
ATOM     21  C21 ZIN A   1      18.085  -5.480  11.166  0.00  0.00     0.009 C 
ATOM     22  C29 ZIN A   1      17.570  -3.060  11.514  0.00  0.00     0.017 C 
ATOM     23  C19 ZIN A   1      19.402  -5.103  10.485  0.00  0.00    -0.010 C 
ATOM     24  C18 ZIN A   1      19.919  -3.787  11.069  0.00  0.00     0.017 C 
BRANCH  17  25
ATOM     25  O26 ZIN A   1      17.918  -3.677   7.340  0.00  0.00    -0.390 OA
ATOM     26  H42 ZIN A   1      18.253  -2.845   6.980  0.00  0.00     0.210 HD
ENDBRANCH  17  25
ENDBRANCH  11  15
ENDBRANCH   9  11
TORSDOF 4
ENDMDL
MODEL 9
REMARK VINA RESULT:      -7.6      3.592      7.490
REMARK  4 active torsions:
REMARK  status: ('A' for Active; 'I' for Inactive)
REMARK       I    between atoms: N11_8  and  C12_9 
REMARK    1  A    between atoms: C12_9  and  C14_11 
REMARK    2  A    between atoms: C14_11  and  N16_12 
REMARK    3  A    between atoms: C14_11  and  C17_13 
REMARK    4  A    between atoms: C25_19  and  O26_20 
ROOT
ATOM      1  N1  ZIN A   1      17.348   2.594  11.698  0.00  0.00    -0.195 NA
ATOM      2  C2  ZIN A   1      17.462   1.520  12.050  0.00  0.00     0.085 C 
ATOM      3  C3  ZIN A   1      17.609   0.128  12.506  0.00  0.00     0.195 C 
ATOM      4  C5  ZIN A   1      17.727   0.067  14.049  0.00  0.00     0.047 C 
ATOM      5  C6  ZIN A   1      18.473  -1.266  14.285  0.00  0.00     0.013 A 
ATOM      6  C8  ZIN A   1      20.002  -1.251  14.269  0.00  0.00     0.032 A 
ATOM      7  C9  ZIN A   1      19.196  -1.559  12.957  0.00  0.00     0.093 A 
ATOM      8  N11 ZIN A   1      18.895  -0.442  12.040  0.00  0.00    -0.328 N 
ATOM      9  C12 ZIN A   1      19.647  -0.013  11.008  0.00  0.00     0.255 C 
ATOM     10  O13 ZIN A   1      20.750  -0.482  10.825  0.00  0.00    -0.271 OA
ENDROOT
BRANCH   9  11
ATOM     11  C14 ZIN A   1      19.118   1.050  10.080  0.00  0.00     0.317 C 
BRANCH  11  12
ATOM     12  N16 ZIN A   1      20.133   2.097   9.904  0.00  0.00     0.092 N 
ATOM     13  H34 ZIN A   1      21.050   1.694   9.774  0.00  0.00     0.313 HD
ATOM     14  H35 ZIN A   1      19.895   2.707   9.136  0.00  0.00     0.313 HD
ENDBRANCH  11  12
BRANCH  11  15
ATOM     15  C17 ZIN A   1      18.790   0.424   8.723  0.00  0.00     0.003 C 
ATOM     16  C28 ZIN A   1      19.586  -0.872   8.553  0.00  0.00     0.049 C 
ATOM     17  C25 ZIN A   1      19.258  -1.497   7.196  0.00  0.00     0.059 C 
ATOM     18  C24 ZIN A   1      19.631  -0.519   6.079  0.00  0.00     0.042 C 
ATOM     19  C27 ZIN A   1      17.762  -1.806   7.125  0.00  0.00     0.042 C 
ATOM     20  C22 ZIN A   1      18.834   0.775   6.250  0.00  0.00    -0.010 C 
ATOM     21  C21 ZIN A   1      17.337   0.467   6.179  0.00  0.00     0.009 C 
ATOM     22  C29 ZIN A   1      19.162   1.402   7.606  0.00  0.00     0.017 C 
ATOM     23  C19 ZIN A   1      16.965  -0.511   7.296  0.00  0.00    -0.010 C 
ATOM     24  C18 ZIN A   1      17.293   0.115   8.652  0.00  0.00     0.017 C 
BRANCH  17  25
ATOM     25  O26 ZIN A   1      20.003  -2.707   7.037  0.00  0.00    -0.390 OA
ATOM     26  H42 ZIN A   1      19.549  -3.495   7.365  0.00  0.00     0.210 HD
ENDBRANCH  17  25
ENDBRANCH  11  15
ENDBRANCH   9  11
TORSDOF 4
ENDMDL
