MODEL 1
REMARK VINA RESULT:      -4.9      0.000      0.000
REMARK  1 active torsions:
REMARK  status: ('A' for Active; 'I' for Inactive)
REMARK    1  A    between atoms: C7_7  and  C8_8 
ROOT
ATOM      1  C1  ZIN A   1      19.173  -1.969   8.879  0.00  0.00     0.155 C 
ATOM      2  N2  ZIN A   1      19.109  -0.544   8.544  0.00  0.00    -0.360 N 
ATOM      3  C3  ZIN A   1      19.103   0.368   9.531  0.00  0.00     0.090 A 
ATOM      4  C4  ZIN A   1      19.045   1.699   9.251  0.00  0.00     0.017 A 
ATOM      5  C5  ZIN A   1      18.989   2.130   7.927  0.00  0.00     0.004 A 
ATOM      6  C6  ZIN A   1      18.995   1.189   6.911  0.00  0.00     0.031 A 
ATOM      7  C7  ZIN A   1      19.061  -0.163   7.239  0.00  0.00     0.053 A 
ENDROOT
BRANCH   7   8
ATOM      8  C8  ZIN A   1      19.069  -1.176   6.179  0.00  0.00     0.178 C 
ATOM      9  N9  ZIN A   1      19.682  -0.937   5.058  0.00  0.00    -0.108 NA
ATOM     10  O10 ZIN A   1      19.689  -1.778   4.176  0.00  0.00    -0.062 OA
ENDBRANCH   7   8
TORSDOF 1
ENDMDL
MODEL 2
REMARK VINA RESULT:      -4.7      8.111      9.755
REMARK  1 active torsions:
REMARK  status: ('A' for Active; 'I' for Inactive)
REMARK    1  A    between atoms: C7_7  and  C8_8 
ROOT
ATOM      1  C1  ZIN A   1      18.785   2.412  14.499  0.00  0.00     0.155 C 
ATOM      2  N2  ZIN A   1      18.780   1.001  14.894  0.00  0.00    -0.360 N 
ATOM      3  C3  ZIN A   1      18.757   0.047  13.948  0.00  0.00     0.090 A 
ATOM      4  C4  ZIN A   1      18.752  -1.272  14.285  0.00  0.00     0.017 A 
ATOM      5  C5  ZIN A   1      18.769  -1.647  15.627  0.00  0.00     0.004 A 
ATOM      6  C6  ZIN A   1      18.793  -0.664  16.602  0.00  0.00     0.031 A 
ATOM      7  C7  ZIN A   1      18.803   0.675  16.215  0.00  0.00     0.053 A 
ENDROOT
BRANCH   7   8
ATOM      8  C8  ZIN A   1      18.828   1.731  17.231  0.00  0.00     0.178 C 
ATOM      9  N9  ZIN A   1      19.652   1.649  18.233  0.00  0.00    -0.108 NA
ATOM     10  O10 ZIN A   1      19.673   2.527  19.078  0.00  0.00    -0.062 OA
ENDBRANCH   7   8
TORSDOF 1
ENDMDL
MODEL 3
REMARK VINA RESULT:      -4.6      4.085      5.162
REMARK  1 active torsions:
REMARK  status: ('A' for Active; 'I' for Inactive)
REMARK    1  A    between atoms: C7_7  and  C8_8 
ROOT
ATOM      1  C1  ZIN A   1      16.834   0.076  11.202  0.00  0.00     0.155 C 
ATOM      2  N2  ZIN A   1      17.681   0.610  10.132  0.00  0.00    -0.360 N 
ATOM      3  C3  ZIN A   1      18.070  -0.198   9.130  0.00  0.00     0.090 A 
ATOM      4  C4  ZIN A   1      18.857   0.270   8.122  0.00  0.00     0.017 A 
ATOM      5  C5  ZIN A   1      19.269   1.601   8.121  0.00  0.00     0.004 A 
ATOM      6  C6  ZIN A   1      18.867   2.432   9.153  0.00  0.00     0.031 A 
ATOM      7  C7  ZIN A   1      18.058   1.917  10.163  0.00  0.00     0.053 A 
ENDROOT
BRANCH   7   8
ATOM      8  C8  ZIN A   1      17.621   2.780  11.265  0.00  0.00     0.178 C 
ATOM      9  N9  ZIN A   1      16.904   3.835  11.018  0.00  0.00    -0.108 NA
ATOM     10  O10 ZIN A   1      16.542   4.553  11.933  0.00  0.00    -0.062 OA
ENDBRANCH   7   8
TORSDOF 1
ENDMDL
MODEL 4
REMARK VINA RESULT:      -4.6      3.457      4.499
REMARK  1 active torsions:
REMARK  status: ('A' for Active; 'I' for Inactive)
REMARK    1  A    between atoms: C7_7  and  C8_8 
ROOT
ATOM      1  C1  ZIN A   1      19.315   2.062  10.118  0.00  0.00     0.155 C 
ATOM      2  N2  ZIN A   1      18.763   1.350   8.962  0.00  0.00    -0.360 N 
ATOM      3  C3  ZIN A   1      19.141   1.708   7.723  0.00  0.00     0.090 A 
ATOM      4  C4  ZIN A   1      18.646   1.065   6.629  0.00  0.00     0.017 A 
ATOM      5  C5  ZIN A   1      17.734   0.023   6.788  0.00  0.00     0.004 A 
ATOM      6  C6  ZIN A   1      17.346  -0.344   8.066  0.00  0.00     0.031 A 
ATOM      7  C7  ZIN A   1      17.880   0.335   9.159  0.00  0.00     0.053 A 
ENDROOT
BRANCH   7   8
ATOM      8  C8  ZIN A   1      17.482  -0.039  10.520  0.00  0.00     0.178 C 
ATOM      9  N9  ZIN A   1      16.274   0.203  10.933  0.00  0.00    -0.108 NA
ATOM     10  O10 ZIN A   1      15.944  -0.107  12.064  0.00  0.00    -0.062 OA
ENDBRANCH   7   8
TORSDOF 1
ENDMDL
MODEL 5
REMARK VINA RESULT:      -4.3      5.741      6.960
REMARK  1 active torsions:
REMARK  status: ('A' for Active; 'I' for Inactive)
REMARK    1  A    between atoms: C7_7  and  C8_8 
ROOT
ATOM      1  C1  ZIN A   1      20.363   0.240  12.456  0.00  0.00     0.155 C 
ATOM      2  N2  ZIN A   1      19.429   0.012  13.562  0.00  0.00    -0.360 N 
ATOM      3  C3  ZIN A   1      19.629  -1.023  14.395  0.00  0.00     0.090 A 
ATOM      4  C4  ZIN A   1      18.779  -1.260  15.432  0.00  0.00     0.017 A 
ATOM      5  C5  ZIN A   1      17.683  -0.423  15.638  0.00  0.00     0.004 A 
ATOM      6  C6  ZIN A   1      17.478   0.643  14.779  0.00  0.00     0.031 A 
ATOM      7  C7  ZIN A   1      18.375   0.854  13.734  0.00  0.00     0.053 A 
ENDROOT
BRANCH   7   8
ATOM      8  C8  ZIN A   1      18.176   1.978  12.814  0.00  0.00     0.178 C 
ATOM      9  N9  ZIN A   1      17.282   1.897  11.873  0.00  0.00    -0.108 NA
ATOM     10  O10 ZIN A   1      17.117   2.831  11.108  0.00  0.00    -0.062 OA
ENDBRANCH   7   8
TORSDOF 1
ENDMDL
MODEL 6
REMARK VINA RESULT:      -4.3      6.482      7.992
REMARK  1 active torsions:
REMARK  status: ('A' for Active; 'I' for Inactive)
REMARK    1  A    between atoms: C7_7  and  C8_8 
ROOT
ATOM      1  C1  ZIN A   1      19.025   2.443  15.539  0.00  0.00     0.155 C 
ATOM      2  N2  ZIN A   1      18.707   1.033  15.780  0.00  0.00    -0.360 N 
ATOM      3  C3  ZIN A   1      17.976   0.693  16.854  0.00  0.00     0.090 A 
ATOM      4  C4  ZIN A   1      17.664  -0.609  17.104  0.00  0.00     0.017 A 
ATOM      5  C5  ZIN A   1      18.108  -1.608  16.239  0.00  0.00     0.004 A 
ATOM      6  C6  ZIN A   1      18.861  -1.257  15.132  0.00  0.00     0.031 A 
ATOM      7  C7  ZIN A   1      19.154   0.087  14.910  0.00  0.00     0.053 A 
ENDROOT
BRANCH   7   8
ATOM      8  C8  ZIN A   1      19.950   0.481  13.743  0.00  0.00     0.178 C 
ATOM      9  N9  ZIN A   1      19.901  -0.227  12.654  0.00  0.00    -0.108 NA
ATOM     10  O10 ZIN A   1      20.563   0.100  11.685  0.00  0.00    -0.062 OA
ENDBRANCH   7   8
TORSDOF 1
ENDMDL
MODEL 7
REMARK VINA RESULT:      -4.3      7.223      8.693
REMARK  1 active torsions:
REMARK  status: ('A' for Active; 'I' for Inactive)
REMARK    1  A    between atoms: C7_7  and  C8_8 
ROOT
ATOM      1  C1  ZIN A   1      18.340   1.810  14.594  0.00  0.00     0.155 C 
ATOM      2  N2  ZIN A   1      18.662   1.085  15.826  0.00  0.00    -0.360 N 
ATOM      3  C3  ZIN A   1      18.893   1.772  16.958  0.00  0.00     0.090 A 
ATOM      4  C4  ZIN A   1      19.194   1.126  18.118  0.00  0.00     0.017 A 
ATOM      5  C5  ZIN A   1      19.267  -0.266  18.141  0.00  0.00     0.004 A 
ATOM      6  C6  ZIN A   1      19.028  -0.972  16.974  0.00  0.00     0.031 A 
ATOM      7  C7  ZIN A   1      18.718  -0.274  15.809  0.00  0.00     0.053 A 
ENDROOT
BRANCH   7   8
ATOM      8  C8  ZIN A   1      18.461  -1.003  14.563  0.00  0.00     0.178 C 
ATOM      9  N9  ZIN A   1      19.442  -1.578  13.934  0.00  0.00    -0.108 NA
ATOM     10  O10 ZIN A   1      19.229  -2.184  12.898  0.00  0.00    -0.062 OA
ENDBRANCH   7   8
TORSDOF 1
ENDMDL
MODEL 8
REMARK VINA RESULT:      -4.2      8.383      9.744
REMARK  1 active torsions:
REMARK  status: ('A' for Active; 'I' for Inactive)
REMARK    1  A    between atoms: C7_7  and  C8_8 
ROOT
ATOM      1  C1  ZIN A   1      18.139   2.123  14.157  0.00  0.00     0.155 C 
ATOM      2  N2  ZIN A   1      18.766   3.383  14.563  0.00  0.00    -0.360 N 
ATOM      3  C3  ZIN A   1      18.797   4.415  13.702  0.00  0.00     0.090 A 
ATOM      4  C4  ZIN A   1      19.372   5.599  14.051  0.00  0.00     0.017 A 
ATOM      5  C5  ZIN A   1      19.940   5.750  15.315  0.00  0.00     0.004 A 
ATOM      6  C6  ZIN A   1      19.908   4.687  16.201  0.00  0.00     0.031 A 
ATOM      7  C7  ZIN A   1      19.305   3.494  15.808  0.00  0.00     0.053 A 
ENDROOT
BRANCH   7   8
ATOM      8  C8  ZIN A   1      19.260   2.356  16.731  0.00  0.00     0.178 C 
ATOM      9  N9  ZIN A   1      19.654   2.502  17.961  0.00  0.00    -0.108 NA
ATOM     10  O10 ZIN A   1      19.616   1.555  18.728  0.00  0.00    -0.062 OA
ENDBRANCH   7   8
TORSDOF 1
ENDMDL
MODEL 9
REMARK VINA RESULT:      -4.1      2.745      3.833
REMARK  1 active torsions:
REMARK  status: ('A' for Active; 'I' for Inactive)
REMARK    1  A    between atoms: C7_7  and  C8_8 
ROOT
ATOM      1  C1  ZIN A   1      18.356  -1.489   9.075  0.00  0.00     0.155 C 
ATOM      2  N2  ZIN A   1      18.660  -0.896   7.770  0.00  0.00    -0.360 N 
ATOM      3  C3  ZIN A   1      18.993  -1.694   6.741  0.00  0.00     0.090 A 
ATOM      4  C4  ZIN A   1      19.280  -1.172   5.516  0.00  0.00     0.017 A 
ATOM      5  C5  ZIN A   1      19.233   0.207   5.319  0.00  0.00     0.004 A 
ATOM      6  C6  ZIN A   1      18.890   1.028   6.380  0.00  0.00     0.031 A 
ATOM      7  C7  ZIN A   1      18.598   0.455   7.616  0.00  0.00     0.053 A 
ENDROOT
BRANCH   7   8
ATOM      8  C8  ZIN A   1      18.232   1.306   8.752  0.00  0.00     0.178 C 
ATOM      9  N9  ZIN A   1      19.088   2.165   9.222  0.00  0.00    -0.108 NA
ATOM     10  O10 ZIN A   1      18.784   2.872  10.166  0.00  0.00    -0.062 OA
ENDBRANCH   7   8
TORSDOF 1
ENDMDL
