MODEL 1
REMARK VINA RESULT:      -6.7      0.000      0.000
REMARK  11 active torsions:
REMARK  status: ('A' for Active; 'I' for Inactive)
REMARK    1  A    between atoms: O2_2  and  C3_3 
REMARK    2  A    between atoms: C3_3  and  C4_4 
REMARK    3  A    between atoms: C4_4  and  C5_5 
REMARK    4  A    between atoms: C5_5  and  C6_6 
REMARK    5  A    between atoms: C6_6  and  C7_7 
REMARK    6  A    between atoms: C7_7  and  C13_13 
REMARK    7  A    between atoms: N8_8  and  O9_9 
REMARK    8  A    between atoms: O9_9  and  C10_10 
REMARK    9  A    between atoms: C10_10  and  C11_11 
REMARK   10  A    between atoms: C11_11  and  N12_12 
REMARK   11  A    between atoms: C16_16  and  C17_17 
ROOT
ATOM      1  C7  ZIN A   1      18.538   2.034   9.867  0.00  0.00     0.072 C 
ATOM      2  N8  ZIN A   1      18.878   1.394  10.938  0.00  0.00    -0.138 NA
ENDROOT
BRANCH   1   3
ATOM      3  C6  ZIN A   1      18.244   3.511   9.933  0.00  0.00     0.062 C 
BRANCH   3   4
ATOM      4  C5  ZIN A   1      17.400   3.809  11.174  0.00  0.00     0.008 C 
BRANCH   4   5
ATOM      5  C4  ZIN A   1      18.214   4.655  12.154  0.00  0.00     0.027 C 
BRANCH   5   6
ATOM      6  C3  ZIN A   1      17.773   4.343  13.586  0.00  0.00     0.167 C 
BRANCH   6   7
ATOM      7  O2  ZIN A   1      18.912   3.984  14.368  0.00  0.00    -0.396 OA
ATOM      8  C1  ZIN A   1      18.738   2.792  15.137  0.00  0.00     0.201 C 
ENDBRANCH   6   7
ENDBRANCH   5   6
ENDBRANCH   4   5
ENDBRANCH   3   4
ENDBRANCH   1   3
BRANCH   1   9
ATOM      9  C13 ZIN A   1      18.435   1.318   8.580  0.00  0.00    -0.009 A 
ATOM     10  C22 ZIN A   1      19.242   1.691   7.504  0.00  0.00     0.014 A 
ATOM     11  C21 ZIN A   1      19.145   1.014   6.306  0.00  0.00     0.017 A 
ATOM     12  C16 ZIN A   1      18.243  -0.027   6.166  0.00  0.00     0.048 A 
ATOM     13  C15 ZIN A   1      17.436  -0.398   7.228  0.00  0.00     0.017 A 
ATOM     14  C14 ZIN A   1      17.528   0.268   8.433  0.00  0.00     0.014 A 
BRANCH  12  15
ATOM     15  C17 ZIN A   1      18.139  -0.758   4.854  0.00  0.00     0.417 C 
ATOM     16  F18 ZIN A   1      19.113  -1.761   4.800  0.00  0.00    -0.166 F 
ATOM     17  F19 ZIN A   1      16.869  -1.335   4.741  0.00  0.00    -0.166 F 
ATOM     18  F20 ZIN A   1      18.337   0.142   3.801  0.00  0.00    -0.166 F 
ENDBRANCH  12  15
ENDBRANCH   1   9
BRANCH   2  19
ATOM     19  O9  ZIN A   1      19.280   0.039  10.855  0.00  0.00    -0.255 OA
BRANCH  19  20
ATOM     20  C10 ZIN A   1      19.461  -0.592  12.125  0.00  0.00     0.233 C 
BRANCH  20  21
ATOM     21  C11 ZIN A   1      20.406   0.250  12.984  0.00  0.00     0.295 C 
BRANCH  21  22
ATOM     22  N12 ZIN A   1      21.581   0.633  12.188  0.00  0.00     0.080 N 
ATOM     23  H38 ZIN A   1      21.328   1.290  11.465  0.00  0.00     0.312 HD
ATOM     24  H39 ZIN A   1      22.310   1.006  12.776  0.00  0.00     0.312 HD
ENDBRANCH  21  22
ENDBRANCH  20  21
ENDBRANCH  19  20
ENDBRANCH   2  19
TORSDOF 11
ENDMDL
MODEL 2
REMARK VINA RESULT:      -6.7      1.967      4.384
REMARK  11 active torsions:
REMARK  status: ('A' for Active; 'I' for Inactive)
REMARK    1  A    between atoms: O2_2  and  C3_3 
REMARK    2  A    between atoms: C3_3  and  C4_4 
REMARK    3  A    between atoms: C4_4  and  C5_5 
REMARK    4  A    between atoms: C5_5  and  C6_6 
REMARK    5  A    between atoms: C6_6  and  C7_7 
REMARK    6  A    between atoms: C7_7  and  C13_13 
REMARK    7  A    between atoms: N8_8  and  O9_9 
REMARK    8  A    between atoms: O9_9  and  C10_10 
REMARK    9  A    between atoms: C10_10  and  C11_11 
REMARK   10  A    between atoms: C11_11  and  N12_12 
REMARK   11  A    between atoms: C16_16  and  C17_17 
ROOT
ATOM      1  C7  ZIN A   1      17.663   1.250  11.495  0.00  0.00     0.072 C 
ATOM      2  N8  ZIN A   1      17.309   2.437  11.865  0.00  0.00    -0.138 NA
ENDROOT
BRANCH   1   3
ATOM      3  C6  ZIN A   1      17.753   0.139  12.510  0.00  0.00     0.062 C 
BRANCH   3   4
ATOM      4  C5  ZIN A   1      19.181  -0.410  12.541  0.00  0.00     0.008 C 
BRANCH   4   5
ATOM      5  C4  ZIN A   1      19.141  -1.921  12.773  0.00  0.00     0.027 C 
BRANCH   5   6
ATOM      6  C3  ZIN A   1      18.394  -2.595  11.620  0.00  0.00     0.167 C 
BRANCH   6   7
ATOM      7  O2  ZIN A   1      19.131  -2.421  10.409  0.00  0.00    -0.396 OA
ATOM      8  C1  ZIN A   1      18.938  -3.468   9.455  0.00  0.00     0.201 C 
ENDBRANCH   6   7
ENDBRANCH   5   6
ENDBRANCH   4   5
ENDBRANCH   3   4
ENDBRANCH   1   3
BRANCH   1   9
ATOM      9  C13 ZIN A   1      17.979   0.982  10.078  0.00  0.00    -0.009 A 
ATOM     10  C22 ZIN A   1      17.175   0.120   9.331  0.00  0.00     0.014 A 
ATOM     11  C21 ZIN A   1      17.473  -0.122   8.005  0.00  0.00     0.017 A 
ATOM     12  C16 ZIN A   1      18.572   0.481   7.419  0.00  0.00     0.048 A 
ATOM     13  C15 ZIN A   1      19.377   1.332   8.156  0.00  0.00     0.017 A 
ATOM     14  C14 ZIN A   1      19.087   1.586   9.480  0.00  0.00     0.014 A 
BRANCH  12  15
ATOM     15  C17 ZIN A   1      18.894   0.208   5.973  0.00  0.00     0.417 C 
ATOM     16  F18 ZIN A   1      17.706   0.121   5.239  0.00  0.00    -0.166 F 
ATOM     17  F19 ZIN A   1      19.680   1.249   5.466  0.00  0.00    -0.166 F 
ATOM     18  F20 ZIN A   1      19.595  -0.998   5.870  0.00  0.00    -0.166 F 
ENDBRANCH  12  15
ENDBRANCH   1   9
BRANCH   2  19
ATOM     19  O9  ZIN A   1      17.098   3.447  10.896  0.00  0.00    -0.255 OA
BRANCH  19  20
ATOM     20  C10 ZIN A   1      17.887   4.622  11.099  0.00  0.00     0.233 C 
BRANCH  20  21
ATOM     21  C11 ZIN A   1      18.605   4.528  12.447  0.00  0.00     0.295 C 
BRANCH  21  22
ATOM     22  N12 ZIN A   1      19.968   4.019  12.242  0.00  0.00     0.080 N 
ATOM     23  H38 ZIN A   1      20.182   3.948  11.258  0.00  0.00     0.312 HD
ATOM     24  H39 ZIN A   1      20.644   4.597  12.717  0.00  0.00     0.312 HD
ENDBRANCH  21  22
ENDBRANCH  20  21
ENDBRANCH  19  20
ENDBRANCH   2  19
TORSDOF 11
ENDMDL
MODEL 3
REMARK VINA RESULT:      -6.7      1.847      3.313
REMARK  11 active torsions:
REMARK  status: ('A' for Active; 'I' for Inactive)
REMARK    1  A    between atoms: O2_2  and  C3_3 
REMARK    2  A    between atoms: C3_3  and  C4_4 
REMARK    3  A    between atoms: C4_4  and  C5_5 
REMARK    4  A    between atoms: C5_5  and  C6_6 
REMARK    5  A    between atoms: C6_6  and  C7_7 
REMARK    6  A    between atoms: C7_7  and  C13_13 
REMARK    7  A    between atoms: N8_8  and  O9_9 
REMARK    8  A    between atoms: O9_9  and  C10_10 
REMARK    9  A    between atoms: C10_10  and  C11_11 
REMARK   10  A    between atoms: C11_11  and  N12_12 
REMARK   11  A    between atoms: C16_16  and  C17_17 
ROOT
ATOM      1  C7  ZIN A   1      17.314   0.888  10.985  0.00  0.00     0.072 C 
ATOM      2  N8  ZIN A   1      17.156   2.072  11.480  0.00  0.00    -0.138 NA
ENDROOT
BRANCH   1   3
ATOM      3  C6  ZIN A   1      17.050  -0.327  11.838  0.00  0.00     0.062 C 
BRANCH   3   4
ATOM      4  C5  ZIN A   1      17.621  -0.100  13.240  0.00  0.00     0.008 C 
BRANCH   4   5
ATOM      5  C4  ZIN A   1      18.933  -0.871  13.387  0.00  0.00     0.027 C 
BRANCH   5   6
ATOM      6  C3  ZIN A   1      20.077   0.113  13.643  0.00  0.00     0.167 C 
BRANCH   6   7
ATOM      7  O2  ZIN A   1      20.515   0.667  12.402  0.00  0.00    -0.396 OA
ATOM      8  C1  ZIN A   1      20.844  -0.310  11.413  0.00  0.00     0.201 C 
ENDBRANCH   6   7
ENDBRANCH   5   6
ENDBRANCH   4   5
ENDBRANCH   3   4
ENDBRANCH   1   3
BRANCH   1   9
ATOM      9  C13 ZIN A   1      17.755   0.725   9.585  0.00  0.00    -0.009 A 
ATOM     10  C22 ZIN A   1      18.831   1.469   9.099  0.00  0.00     0.014 A 
ATOM     11  C21 ZIN A   1      19.242   1.308   7.791  0.00  0.00     0.017 A 
ATOM     12  C16 ZIN A   1      18.582   0.420   6.960  0.00  0.00     0.048 A 
ATOM     13  C15 ZIN A   1      17.510  -0.315   7.434  0.00  0.00     0.017 A 
ATOM     14  C14 ZIN A   1      17.093  -0.168   8.741  0.00  0.00     0.014 A 
BRANCH  12  15
ATOM     15  C17 ZIN A   1      19.032   0.254   5.532  0.00  0.00     0.417 C 
ATOM     16  F18 ZIN A   1      19.800  -0.910   5.417  0.00  0.00    -0.166 F 
ATOM     17  F19 ZIN A   1      17.912   0.158   4.698  0.00  0.00    -0.166 F 
ATOM     18  F20 ZIN A   1      19.801   1.359   5.153  0.00  0.00    -0.166 F 
ENDBRANCH  12  15
ENDBRANCH   1   9
BRANCH   2  19
ATOM     19  O9  ZIN A   1      17.276   3.209  10.645  0.00  0.00    -0.255 OA
BRANCH  19  20
ATOM     20  C10 ZIN A   1      17.908   4.327  11.273  0.00  0.00     0.233 C 
BRANCH  20  21
ATOM     21  C11 ZIN A   1      19.326   3.940  11.696  0.00  0.00     0.295 C 
BRANCH  21  22
ATOM     22  N12 ZIN A   1      19.321   3.525  13.106  0.00  0.00     0.080 N 
ATOM     23  H38 ZIN A   1      19.152   2.534  13.190  0.00  0.00     0.312 HD
ATOM     24  H39 ZIN A   1      20.182   3.786  13.562  0.00  0.00     0.312 HD
ENDBRANCH  21  22
ENDBRANCH  20  21
ENDBRANCH  19  20
ENDBRANCH   2  19
TORSDOF 11
ENDMDL
MODEL 4
REMARK VINA RESULT:      -6.6      2.454      3.498
REMARK  11 active torsions:
REMARK  status: ('A' for Active; 'I' for Inactive)
REMARK    1  A    between atoms: O2_2  and  C3_3 
REMARK    2  A    between atoms: C3_3  and  C4_4 
REMARK    3  A    between atoms: C4_4  and  C5_5 
REMARK    4  A    between atoms: C5_5  and  C6_6 
REMARK    5  A    between atoms: C6_6  and  C7_7 
REMARK    6  A    between atoms: C7_7  and  C13_13 
REMARK    7  A    between atoms: N8_8  and  O9_9 
REMARK    8  A    between atoms: O9_9  and  C10_10 
REMARK    9  A    between atoms: C10_10  and  C11_11 
REMARK   10  A    between atoms: C11_11  and  N12_12 
REMARK   11  A    between atoms: C16_16  and  C17_17 
ROOT
ATOM      1  C7  ZIN A   1      17.782   1.064  11.523  0.00  0.00     0.072 C 
ATOM      2  N8  ZIN A   1      17.361   2.207  11.960  0.00  0.00    -0.138 NA
ENDROOT
BRANCH   1   3
ATOM      3  C6  ZIN A   1      17.982  -0.081  12.482  0.00  0.00     0.062 C 
BRANCH   3   4
ATOM      4  C5  ZIN A   1      17.745   0.405  13.914  0.00  0.00     0.008 C 
BRANCH   4   5
ATOM      5  C4  ZIN A   1      18.837  -0.152  14.829  0.00  0.00     0.027 C 
BRANCH   5   6
ATOM      6  C3  ZIN A   1      18.195  -0.972  15.950  0.00  0.00     0.167 C 
BRANCH   6   7
ATOM      7  O2  ZIN A   1      19.152  -1.194  16.986  0.00  0.00    -0.396 OA
ATOM      8  C1  ZIN A   1      19.188  -0.165  17.976  0.00  0.00     0.201 C 
ENDBRANCH   6   7
ENDBRANCH   5   6
ENDBRANCH   4   5
ENDBRANCH   3   4
ENDBRANCH   1   3
BRANCH   1   9
ATOM      9  C13 ZIN A   1      18.066   0.882  10.086  0.00  0.00    -0.009 A 
ATOM     10  C22 ZIN A   1      19.157   1.526   9.501  0.00  0.00     0.014 A 
ATOM     11  C21 ZIN A   1      19.421   1.347   8.158  0.00  0.00     0.017 A 
ATOM     12  C16 ZIN A   1      18.600   0.540   7.390  0.00  0.00     0.048 A 
ATOM     13  C15 ZIN A   1      17.513  -0.096   7.963  0.00  0.00     0.017 A 
ATOM     14  C14 ZIN A   1      17.242   0.070   9.305  0.00  0.00     0.014 A 
BRANCH  12  15
ATOM     15  C17 ZIN A   1      18.891   0.354   5.924  0.00  0.00     0.417 C 
ATOM     16  F18 ZIN A   1      19.526  -0.878   5.727  0.00  0.00    -0.166 F 
ATOM     17  F19 ZIN A   1      17.692   0.381   5.203  0.00  0.00    -0.166 F 
ATOM     18  F20 ZIN A   1      19.725   1.385   5.479  0.00  0.00    -0.166 F 
ENDBRANCH  12  15
ENDBRANCH   1   9
BRANCH   2  19
ATOM     19  O9  ZIN A   1      17.049   3.242  11.046  0.00  0.00    -0.255 OA
BRANCH  19  20
ATOM     20  C10 ZIN A   1      17.795   4.444  11.250  0.00  0.00     0.233 C 
BRANCH  20  21
ATOM     21  C11 ZIN A   1      18.558   4.352  12.573  0.00  0.00     0.295 C 
BRANCH  21  22
ATOM     22  N12 ZIN A   1      19.949   3.961  12.309  0.00  0.00     0.080 N 
ATOM     23  H38 ZIN A   1      20.225   4.219  11.374  0.00  0.00     0.312 HD
ATOM     24  H39 ZIN A   1      20.573   4.361  12.994  0.00  0.00     0.312 HD
ENDBRANCH  21  22
ENDBRANCH  20  21
ENDBRANCH  19  20
ENDBRANCH   2  19
TORSDOF 11
ENDMDL
MODEL 5
REMARK VINA RESULT:      -6.6      4.038      5.713
REMARK  11 active torsions:
REMARK  status: ('A' for Active; 'I' for Inactive)
REMARK    1  A    between atoms: O2_2  and  C3_3 
REMARK    2  A    between atoms: C3_3  and  C4_4 
REMARK    3  A    between atoms: C4_4  and  C5_5 
REMARK    4  A    between atoms: C5_5  and  C6_6 
REMARK    5  A    between atoms: C6_6  and  C7_7 
REMARK    6  A    between atoms: C7_7  and  C13_13 
REMARK    7  A    between atoms: N8_8  and  O9_9 
REMARK    8  A    between atoms: O9_9  and  C10_10 
REMARK    9  A    between atoms: C10_10  and  C11_11 
REMARK   10  A    between atoms: C11_11  and  N12_12 
REMARK   11  A    between atoms: C16_16  and  C17_17 
ROOT
ATOM      1  C7  ZIN A   1      19.398  -1.278  13.134  0.00  0.00     0.072 C 
ATOM      2  N8  ZIN A   1      19.856  -0.209  12.569  0.00  0.00    -0.138 NA
ENDROOT
BRANCH   1   3
ATOM      3  C6  ZIN A   1      19.269  -1.340  14.635  0.00  0.00     0.062 C 
BRANCH   3   4
ATOM      4  C5  ZIN A   1      17.987  -0.625  15.067  0.00  0.00     0.008 C 
BRANCH   4   5
ATOM      5  C4  ZIN A   1      17.818  -0.752  16.582  0.00  0.00     0.027 C 
BRANCH   5   6
ATOM      6  C3  ZIN A   1      19.178  -1.032  17.225  0.00  0.00     0.167 C 
BRANCH   6   7
ATOM      7  O2  ZIN A   1      19.467  -0.018  18.189  0.00  0.00    -0.396 OA
ATOM      8  C1  ZIN A   1      18.327   0.743  18.592  0.00  0.00     0.201 C 
ENDBRANCH   6   7
ENDBRANCH   5   6
ENDBRANCH   4   5
ENDBRANCH   3   4
ENDBRANCH   1   3
BRANCH   1   9
ATOM      9  C13 ZIN A   1      19.004  -2.438  12.311  0.00  0.00    -0.009 A 
ATOM     10  C22 ZIN A   1      17.666  -2.626  11.961  0.00  0.00     0.014 A 
ATOM     11  C21 ZIN A   1      17.305  -3.709  11.186  0.00  0.00     0.017 A 
ATOM     12  C16 ZIN A   1      18.264  -4.613  10.765  0.00  0.00     0.048 A 
ATOM     13  C15 ZIN A   1      19.591  -4.436  11.113  0.00  0.00     0.017 A 
ATOM     14  C14 ZIN A   1      19.966  -3.354  11.883  0.00  0.00     0.014 A 
BRANCH  12  15
ATOM     15  C17 ZIN A   1      17.861  -5.796   9.923  0.00  0.00     0.417 C 
ATOM     16  F18 ZIN A   1      17.226  -6.748  10.730  0.00  0.00    -0.166 F 
ATOM     17  F19 ZIN A   1      16.983  -5.377   8.918  0.00  0.00    -0.166 F 
ATOM     18  F20 ZIN A   1      18.999  -6.364   9.341  0.00  0.00    -0.166 F 
ENDBRANCH  12  15
ENDBRANCH   1   9
BRANCH   2  19
ATOM     19  O9  ZIN A   1      19.856  -0.100  11.157  0.00  0.00    -0.255 OA
BRANCH  19  20
ATOM     20  C10 ZIN A   1      19.070   0.985  10.658  0.00  0.00     0.233 C 
BRANCH  20  21
ATOM     21  C11 ZIN A   1      19.236   2.199  11.575  0.00  0.00     0.295 C 
BRANCH  21  22
ATOM     22  N12 ZIN A   1      20.654   2.581  11.629  0.00  0.00     0.080 N 
ATOM     23  H38 ZIN A   1      21.032   2.433  12.552  0.00  0.00     0.312 HD
ATOM     24  H39 ZIN A   1      21.189   2.083  10.934  0.00  0.00     0.312 HD
ENDBRANCH  21  22
ENDBRANCH  20  21
ENDBRANCH  19  20
ENDBRANCH   2  19
TORSDOF 11
ENDMDL
MODEL 6
REMARK VINA RESULT:      -6.5      5.599      7.963
REMARK  11 active torsions:
REMARK  status: ('A' for Active; 'I' for Inactive)
REMARK    1  A    between atoms: O2_2  and  C3_3 
REMARK    2  A    between atoms: C3_3  and  C4_4 
REMARK    3  A    between atoms: C4_4  and  C5_5 
REMARK    4  A    between atoms: C5_5  and  C6_6 
REMARK    5  A    between atoms: C6_6  and  C7_7 
REMARK    6  A    between atoms: C7_7  and  C13_13 
REMARK    7  A    between atoms: N8_8  and  O9_9 
REMARK    8  A    between atoms: O9_9  and  C10_10 
REMARK    9  A    between atoms: C10_10  and  C11_11 
REMARK   10  A    between atoms: C11_11  and  N12_12 
REMARK   11  A    between atoms: C16_16  and  C17_17 
ROOT
ATOM      1  C7  ZIN A   1      18.264  -0.558  11.260  0.00  0.00     0.072 C 
ATOM      2  N8  ZIN A   1      17.704  -1.553  10.651  0.00  0.00    -0.138 NA
ENDROOT
BRANCH   1   3
ATOM      3  C6  ZIN A   1      18.764   0.623  10.469  0.00  0.00     0.062 C 
BRANCH   3   4
ATOM      4  C5  ZIN A   1      17.895   0.809   9.223  0.00  0.00     0.008 C 
BRANCH   4   5
ATOM      5  C4  ZIN A   1      18.772   1.255   8.052  0.00  0.00     0.027 C 
BRANCH   5   6
ATOM      6  C3  ZIN A   1      18.343   0.514   6.783  0.00  0.00     0.167 C 
BRANCH   6   7
ATOM      7  O2  ZIN A   1      19.325   0.708   5.764  0.00  0.00    -0.396 OA
ATOM      8  C1  ZIN A   1      19.133  -0.111   4.609  0.00  0.00     0.201 C 
ENDBRANCH   6   7
ENDBRANCH   5   6
ENDBRANCH   4   5
ENDBRANCH   3   4
ENDBRANCH   1   3
BRANCH   1   9
ATOM      9  C13 ZIN A   1      18.414  -0.582  12.728  0.00  0.00    -0.009 A 
ATOM     10  C22 ZIN A   1      19.416  -1.355  13.318  0.00  0.00     0.014 A 
ATOM     11  C21 ZIN A   1      19.555  -1.367  14.691  0.00  0.00     0.017 A 
ATOM     12  C16 ZIN A   1      18.697  -0.624  15.483  0.00  0.00     0.048 A 
ATOM     13  C15 ZIN A   1      17.698   0.139  14.905  0.00  0.00     0.017 A 
ATOM     14  C14 ZIN A   1      17.553   0.165  13.533  0.00  0.00     0.014 A 
BRANCH  12  15
ATOM     15  C17 ZIN A   1      18.851  -0.648  16.981  0.00  0.00     0.417 C 
ATOM     16  F18 ZIN A   1      19.410   0.561  17.411  0.00  0.00    -0.166 F 
ATOM     17  F19 ZIN A   1      17.596  -0.818  17.576  0.00  0.00    -0.166 F 
ATOM     18  F20 ZIN A   1      19.689  -1.706  17.348  0.00  0.00    -0.166 F 
ENDBRANCH  12  15
ENDBRANCH   1   9
BRANCH   2  19
ATOM     19  O9  ZIN A   1      17.118  -2.601  11.400  0.00  0.00    -0.255 OA
BRANCH  19  20
ATOM     20  C10 ZIN A   1      17.419  -3.908  10.906  0.00  0.00     0.233 C 
BRANCH  20  21
ATOM     21  C11 ZIN A   1      18.823  -4.314  11.358  0.00  0.00     0.295 C 
BRANCH  21  22
ATOM     22  N12 ZIN A   1      19.812  -3.808  10.397  0.00  0.00     0.080 N 
ATOM     23  H38 ZIN A   1      20.739  -3.819  10.794  0.00  0.00     0.312 HD
ATOM     24  H39 ZIN A   1      19.781  -4.334   9.536  0.00  0.00     0.312 HD
ENDBRANCH  21  22
ENDBRANCH  20  21
ENDBRANCH  19  20
ENDBRANCH   2  19
TORSDOF 11
ENDMDL
MODEL 7
REMARK VINA RESULT:      -6.5      5.490      7.098
REMARK  11 active torsions:
REMARK  status: ('A' for Active; 'I' for Inactive)
REMARK    1  A    between atoms: O2_2  and  C3_3 
REMARK    2  A    between atoms: C3_3  and  C4_4 
REMARK    3  A    between atoms: C4_4  and  C5_5 
REMARK    4  A    between atoms: C5_5  and  C6_6 
REMARK    5  A    between atoms: C6_6  and  C7_7 
REMARK    6  A    between atoms: C7_7  and  C13_13 
REMARK    7  A    between atoms: N8_8  and  O9_9 
REMARK    8  A    between atoms: O9_9  and  C10_10 
REMARK    9  A    between atoms: C10_10  and  C11_11 
REMARK   10  A    between atoms: C11_11  and  N12_12 
REMARK   11  A    between atoms: C16_16  and  C17_17 
ROOT
ATOM      1  C7  ZIN A   1      18.410  -0.485  11.190  0.00  0.00     0.072 C 
ATOM      2  N8  ZIN A   1      17.822  -1.445  10.554  0.00  0.00    -0.138 NA
ENDROOT
BRANCH   1   3
ATOM      3  C6  ZIN A   1      19.008   0.668  10.425  0.00  0.00     0.062 C 
BRANCH   3   4
ATOM      4  C5  ZIN A   1      17.893   1.610   9.966  0.00  0.00     0.008 C 
BRANCH   4   5
ATOM      5  C4  ZIN A   1      18.336   3.060  10.166  0.00  0.00     0.027 C 
BRANCH   5   6
ATOM      6  C3  ZIN A   1      17.434   3.730  11.204  0.00  0.00     0.167 C 
BRANCH   6   7
ATOM      7  O2  ZIN A   1      18.184   3.985  12.393  0.00  0.00    -0.396 OA
ATOM      8  C1  ZIN A   1      19.596   4.045  12.187  0.00  0.00     0.201 C 
ENDBRANCH   6   7
ENDBRANCH   5   6
ENDBRANCH   4   5
ENDBRANCH   3   4
ENDBRANCH   1   3
BRANCH   1   9
ATOM      9  C13 ZIN A   1      18.496  -0.518  12.663  0.00  0.00    -0.009 A 
ATOM     10  C22 ZIN A   1      19.453  -1.317  13.291  0.00  0.00     0.014 A 
ATOM     11  C21 ZIN A   1      19.532  -1.339  14.668  0.00  0.00     0.017 A 
ATOM     12  C16 ZIN A   1      18.658  -0.580  15.427  0.00  0.00     0.048 A 
ATOM     13  C15 ZIN A   1      17.703   0.209  14.811  0.00  0.00     0.017 A 
ATOM     14  C14 ZIN A   1      17.618   0.245  13.434  0.00  0.00     0.014 A 
BRANCH  12  15
ATOM     15  C17 ZIN A   1      18.747  -0.613  16.930  0.00  0.00     0.417 C 
ATOM     16  F18 ZIN A   1      19.639  -1.618  17.323  0.00  0.00    -0.166 F 
ATOM     17  F19 ZIN A   1      19.203   0.624  17.398  0.00  0.00    -0.166 F 
ATOM     18  F20 ZIN A   1      17.482  -0.878  17.467  0.00  0.00    -0.166 F 
ENDBRANCH  12  15
ENDBRANCH   1   9
BRANCH   2  19
ATOM     19  O9  ZIN A   1      17.146  -2.460  11.274  0.00  0.00    -0.255 OA
BRANCH  19  20
ATOM     20  C10 ZIN A   1      17.404  -3.782  10.796  0.00  0.00     0.233 C 
BRANCH  20  21
ATOM     21  C11 ZIN A   1      18.752  -4.266  11.337  0.00  0.00     0.295 C 
BRANCH  21  22
ATOM     22  N12 ZIN A   1      19.831  -3.787  10.462  0.00  0.00     0.080 N 
ATOM     23  H38 ZIN A   1      20.491  -4.524  10.266  0.00  0.00     0.312 HD
ATOM     24  H39 ZIN A   1      19.458  -3.398   9.609  0.00  0.00     0.312 HD
ENDBRANCH  21  22
ENDBRANCH  20  21
ENDBRANCH  19  20
ENDBRANCH   2  19
TORSDOF 11
ENDMDL
MODEL 8
REMARK VINA RESULT:      -6.4      4.360      7.029
REMARK  11 active torsions:
REMARK  status: ('A' for Active; 'I' for Inactive)
REMARK    1  A    between atoms: O2_2  and  C3_3 
REMARK    2  A    between atoms: C3_3  and  C4_4 
REMARK    3  A    between atoms: C4_4  and  C5_5 
REMARK    4  A    between atoms: C5_5  and  C6_6 
REMARK    5  A    between atoms: C6_6  and  C7_7 
REMARK    6  A    between atoms: C7_7  and  C13_13 
REMARK    7  A    between atoms: N8_8  and  O9_9 
REMARK    8  A    between atoms: O9_9  and  C10_10 
REMARK    9  A    between atoms: C10_10  and  C11_11 
REMARK   10  A    between atoms: C11_11  and  N12_12 
REMARK   11  A    between atoms: C16_16  and  C17_17 
ROOT
ATOM      1  C7  ZIN A   1      18.203  -0.293   8.981  0.00  0.00     0.072 C 
ATOM      2  N8  ZIN A   1      19.005  -1.278   9.222  0.00  0.00    -0.138 NA
ENDROOT
BRANCH   1   3
ATOM      3  C6  ZIN A   1      17.225  -0.381   7.837  0.00  0.00     0.062 C 
BRANCH   3   4
ATOM      4  C5  ZIN A   1      17.784   0.371   6.627  0.00  0.00     0.008 C 
BRANCH   4   5
ATOM      5  C4  ZIN A   1      17.779  -0.551   5.407  0.00  0.00     0.027 C 
BRANCH   5   6
ATOM      6  C3  ZIN A   1      19.037  -0.300   4.572  0.00  0.00     0.167 C 
BRANCH   6   7
ATOM      7  O2  ZIN A   1      19.766  -1.520   4.432  0.00  0.00    -0.396 OA
ATOM      8  C1  ZIN A   1      18.964  -2.695   4.562  0.00  0.00     0.201 C 
ENDBRANCH   6   7
ENDBRANCH   5   6
ENDBRANCH   4   5
ENDBRANCH   3   4
ENDBRANCH   1   3
BRANCH   1   9
ATOM      9  C13 ZIN A   1      18.245   0.918   9.824  0.00  0.00    -0.009 A 
ATOM     10  C22 ZIN A   1      17.450   1.003  10.968  0.00  0.00     0.014 A 
ATOM     11  C21 ZIN A   1      17.499   2.135  11.756  0.00  0.00     0.017 A 
ATOM     12  C16 ZIN A   1      18.326   3.189  11.408  0.00  0.00     0.048 A 
ATOM     13  C15 ZIN A   1      19.112   3.113  10.272  0.00  0.00     0.017 A 
ATOM     14  C14 ZIN A   1      19.077   1.985   9.479  0.00  0.00     0.014 A 
BRANCH  12  15
ATOM     15  C17 ZIN A   1      18.370   4.424  12.270  0.00  0.00     0.417 C 
ATOM     16  F18 ZIN A   1      17.476   5.376  11.766  0.00  0.00    -0.166 F 
ATOM     17  F19 ZIN A   1      18.008   4.092  13.580  0.00  0.00    -0.166 F 
ATOM     18  F20 ZIN A   1      19.665   4.952  12.263  0.00  0.00    -0.166 F 
ENDBRANCH  12  15
ENDBRANCH   1   9
BRANCH   2  19
ATOM     19  O9  ZIN A   1      19.832  -1.252  10.371  0.00  0.00    -0.255 OA
BRANCH  19  20
ATOM     20  C10 ZIN A   1      19.568  -2.305  11.301  0.00  0.00     0.233 C 
BRANCH  20  21
ATOM     21  C11 ZIN A   1      18.995  -3.512  10.555  0.00  0.00     0.295 C 
BRANCH  21  22
ATOM     22  N12 ZIN A   1      20.086  -4.246   9.900  0.00  0.00     0.080 N 
ATOM     23  H38 ZIN A   1      19.815  -5.197   9.704  0.00  0.00     0.312 HD
ATOM     24  H39 ZIN A   1      20.384  -3.775   9.059  0.00  0.00     0.312 HD
ENDBRANCH  21  22
ENDBRANCH  20  21
ENDBRANCH  19  20
ENDBRANCH   2  19
TORSDOF 11
ENDMDL
MODEL 9
REMARK VINA RESULT:      -6.4      4.908      7.650
REMARK  11 active torsions:
REMARK  status: ('A' for Active; 'I' for Inactive)
REMARK    1  A    between atoms: O2_2  and  C3_3 
REMARK    2  A    between atoms: C3_3  and  C4_4 
REMARK    3  A    between atoms: C4_4  and  C5_5 
REMARK    4  A    between atoms: C5_5  and  C6_6 
REMARK    5  A    between atoms: C6_6  and  C7_7 
REMARK    6  A    between atoms: C7_7  and  C13_13 
REMARK    7  A    between atoms: N8_8  and  O9_9 
REMARK    8  A    between atoms: O9_9  and  C10_10 
REMARK    9  A    between atoms: C10_10  and  C11_11 
REMARK   10  A    between atoms: C11_11  and  N12_12 
REMARK   11  A    between atoms: C16_16  and  C17_17 
ROOT
ATOM      1  C7  ZIN A   1      18.204   1.468  10.873  0.00  0.00     0.072 C 
ATOM      2  N8  ZIN A   1      17.495   2.536  10.698  0.00  0.00    -0.138 NA
ENDROOT
BRANCH   1   3
ATOM      3  C6  ZIN A   1      18.878   0.812   9.695  0.00  0.00     0.062 C 
BRANCH   3   4
ATOM      4  C5  ZIN A   1      19.269   1.878   8.670  0.00  0.00     0.008 C 
BRANCH   4   5
ATOM      5  C4  ZIN A   1      19.092   1.319   7.258  0.00  0.00     0.027 C 
BRANCH   5   6
ATOM      6  C3  ZIN A   1      18.859  -0.192   7.333  0.00  0.00     0.167 C 
BRANCH   6   7
ATOM      7  O2  ZIN A   1      19.303  -0.803   6.121  0.00  0.00    -0.396 OA
ATOM      8  C1  ZIN A   1      19.251   0.058   4.983  0.00  0.00     0.201 C 
ENDBRANCH   6   7
ENDBRANCH   5   6
ENDBRANCH   4   5
ENDBRANCH   3   4
ENDBRANCH   1   3
BRANCH   1   9
ATOM      9  C13 ZIN A   1      18.351   0.892  12.223  0.00  0.00    -0.009 A 
ATOM     10  C22 ZIN A   1      19.374   1.333  13.066  0.00  0.00     0.014 A 
ATOM     11  C21 ZIN A   1      19.503   0.794  14.330  0.00  0.00     0.017 A 
ATOM     12  C16 ZIN A   1      18.628  -0.188  14.759  0.00  0.00     0.048 A 
ATOM     13  C15 ZIN A   1      17.616  -0.634  13.927  0.00  0.00     0.017 A 
ATOM     14  C14 ZIN A   1      17.473  -0.099  12.663  0.00  0.00     0.014 A 
BRANCH  12  15
ATOM     15  C17 ZIN A   1      18.778  -0.776  16.138  0.00  0.00     0.417 C 
ATOM     16  F18 ZIN A   1      19.648  -1.870  16.086  0.00  0.00    -0.166 F 
ATOM     17  F19 ZIN A   1      19.298   0.193  17.003  0.00  0.00    -0.166 F 
ATOM     18  F20 ZIN A   1      17.528  -1.196  16.605  0.00  0.00    -0.166 F 
ENDBRANCH  12  15
ENDBRANCH   1   9
BRANCH   2  19
ATOM     19  O9  ZIN A   1      16.971   3.227  11.817  0.00  0.00    -0.255 OA
BRANCH  19  20
ATOM     20  C10 ZIN A   1      17.477   4.555  11.970  0.00  0.00     0.233 C 
BRANCH  20  21
ATOM     21  C11 ZIN A   1      16.818   5.474  10.939  0.00  0.00     0.295 C 
BRANCH  21  22
ATOM     22  N12 ZIN A   1      17.546   5.381   9.666  0.00  0.00     0.080 N 
ATOM     23  H38 ZIN A   1      17.449   4.462   9.261  0.00  0.00     0.312 HD
ATOM     24  H39 ZIN A   1      17.238   6.093   9.021  0.00  0.00     0.312 HD
ENDBRANCH  21  22
ENDBRANCH  20  21
ENDBRANCH  19  20
ENDBRANCH   2  19
TORSDOF 11
ENDMDL
