MODEL 1
REMARK VINA RESULT:      -7.1      0.000      0.000
REMARK  9 active torsions:
REMARK  status: ('A' for Active; 'I' for Inactive)
REMARK    1  A    between atoms: C2_2  and  O4_3 
REMARK    2  A    between atoms: C2_2  and  C5_4 
REMARK    3  A    between atoms: C5_4  and  N6_5 
REMARK    4  A    between atoms: N10_9  and  C11_10 
REMARK    5  A    between atoms: C11_10  and  C12_11 
REMARK    6  A    between atoms: N17_16  and  C19_18 
REMARK    7  A    between atoms: C19_18  and  C20_19 
REMARK    8  A    between atoms: N25_24  and  C26_25 
REMARK    9  A    between atoms: C26_25  and  C27_26 
ROOT
ATOM      1  N6  ZIN A   1      18.934  -3.131  10.424  0.00  0.00    -0.065 N 
ATOM      2  H7  ZIN A   1      19.394  -4.050  10.311  0.00  0.00     0.280 HD
ATOM      3  C8  ZIN A   1      18.902  -2.516   9.100  0.00  0.00     0.265 C 
ATOM      4  C9  ZIN A   1      17.878  -1.395   8.989  0.00  0.00     0.300 C 
ATOM      5  N10 ZIN A   1      18.516  -0.254   8.245  0.00  0.00     0.101 N 
ATOM      6  C15 ZIN A   1      17.857   0.981   8.799  0.00  0.00     0.300 C 
ATOM      7  C16 ZIN A   1      18.900   2.087   8.839  0.00  0.00     0.265 C 
ATOM      8  N17 ZIN A   1      18.890   2.853  10.081  0.00  0.00    -0.058 N 
ATOM      9  H18 ZIN A   1      19.349   3.755   9.872  0.00  0.00     0.280 HD
ATOM     10  C23 ZIN A   1      19.697   2.209  11.115  0.00  0.00     0.265 C 
ATOM     11  C24 ZIN A   1      18.945   1.129  11.876  0.00  0.00     0.300 C 
ATOM     12  N25 ZIN A   1      19.884  -0.031  12.076  0.00  0.00     0.101 N 
ATOM     13  C30 ZIN A   1      19.000  -1.248  12.054  0.00  0.00     0.300 C 
ATOM     14  C31 ZIN A   1      19.759  -2.364  11.353  0.00  0.00     0.265 C 
ENDROOT
BRANCH   1  15
ATOM     15  C5  ZIN A   1      17.597  -3.401  10.948  0.00  0.00     0.266 C 
BRANCH  15  16
ATOM     16  C2  ZIN A   1      17.282  -4.891  10.798  0.00  0.00     0.140 C 
ATOM     17  C1  ZIN A   1      17.455  -5.587  12.150  0.00  0.00     0.041 C 
BRANCH  16  18
ATOM     18  O4  ZIN A   1      15.935  -5.051  10.349  0.00  0.00    -0.394 OA
ATOM     19  H35 ZIN A   1      15.528  -4.235  10.028  0.00  0.00     0.210 HD
ENDBRANCH  16  18
ENDBRANCH  15  16
ENDBRANCH   1  15
BRANCH  12  20
ATOM     20  C26 ZIN A   1      20.324   0.088  13.509  0.00  0.00     0.385 C 
BRANCH  20  21
ATOM     21  C27 ZIN A   1      19.174  -0.260  14.418  0.00  0.00     0.202 C 
ATOM     22  O28 ZIN A   1      19.070  -1.390  14.865  0.00  0.00    -0.647 OA
ATOM     23  O29 ZIN A   1      18.349   0.589  14.709  0.00  0.00    -0.647 OA
ENDBRANCH  20  21
ENDBRANCH  12  20
BRANCH   5  24
ATOM     24  C11 ZIN A   1      17.976  -0.370   6.848  0.00  0.00     0.385 C 
BRANCH  24  25
ATOM     25  C12 ZIN A   1      19.120  -0.375   5.866  0.00  0.00     0.202 C 
ATOM     26  O13 ZIN A   1      19.671  -1.423   5.578  0.00  0.00    -0.647 OA
ATOM     27  O14 ZIN A   1      19.494   0.669   5.360  0.00  0.00    -0.647 OA
ENDBRANCH  24  25
ENDBRANCH   5  24
BRANCH   8  28
ATOM     28  C19 ZIN A   1      17.542   3.172  10.540  0.00  0.00     0.347 C 
BRANCH  28  29
ATOM     29  C20 ZIN A   1      17.356   4.667  10.553  0.00  0.00     0.199 C 
ATOM     30  O21 ZIN A   1      17.588   5.320   9.549  0.00  0.00    -0.647 OA
ATOM     31  O22 ZIN A   1      16.973   5.226  11.567  0.00  0.00    -0.647 OA
ENDBRANCH  28  29
ENDBRANCH   8  28
TORSDOF 9
ENDMDL
MODEL 2
REMARK VINA RESULT:      -7.1      3.157      6.687
REMARK  9 active torsions:
REMARK  status: ('A' for Active; 'I' for Inactive)
REMARK    1  A    between atoms: C2_2  and  O4_3 
REMARK    2  A    between atoms: C2_2  and  C5_4 
REMARK    3  A    between atoms: C5_4  and  N6_5 
REMARK    4  A    between atoms: N10_9  and  C11_10 
REMARK    5  A    between atoms: C11_10  and  C12_11 
REMARK    6  A    between atoms: N17_16  and  C19_18 
REMARK    7  A    between atoms: C19_18  and  C20_19 
REMARK    8  A    between atoms: N25_24  and  C26_25 
REMARK    9  A    between atoms: C26_25  and  C27_26 
ROOT
ATOM      1  N6  ZIN A   1      18.106  -0.754  12.185  0.00  0.00    -0.065 N 
ATOM      2  H7  ZIN A   1      17.526  -1.555  11.885  0.00  0.00     0.280 HD
ATOM      3  C8  ZIN A   1      17.947  -0.645  13.633  0.00  0.00     0.265 C 
ATOM      4  C9  ZIN A   1      19.055   0.163  14.293  0.00  0.00     0.300 C 
ATOM      5  N10 ZIN A   1      18.423   1.078  15.307  0.00  0.00     0.101 N 
ATOM      6  C15 ZIN A   1      19.321   2.285  15.348  0.00  0.00     0.300 C 
ATOM      7  C16 ZIN A   1      18.446   3.509  15.571  0.00  0.00     0.265 C 
ATOM      8  N17 ZIN A   1      18.793   4.637  14.714  0.00  0.00    -0.058 N 
ATOM      9  H18 ZIN A   1      18.413   5.481  15.174  0.00  0.00     0.280 HD
ATOM     10  C23 ZIN A   1      18.137   4.545  13.412  0.00  0.00     0.265 C 
ATOM     11  C24 ZIN A   1      18.891   3.672  12.421  0.00  0.00     0.300 C 
ATOM     12  N25 ZIN A   1      17.879   2.843  11.676  0.00  0.00     0.101 N 
ATOM     13  C30 ZIN A   1      18.589   1.552  11.373  0.00  0.00     0.300 C 
ATOM     14  C31 ZIN A   1      17.578   0.422  11.498  0.00  0.00     0.265 C 
ENDROOT
BRANCH   1  15
ATOM     15  C5  ZIN A   1      19.478  -1.068  11.795  0.00  0.00     0.266 C 
BRANCH  15  16
ATOM     16  C2  ZIN A   1      19.558  -2.528  11.346  0.00  0.00     0.140 C 
ATOM     17  C1  ZIN A   1      18.983  -2.659   9.934  0.00  0.00     0.041 C 
BRANCH  16  18
ATOM     18  O4  ZIN A   1      20.923  -2.952  11.344  0.00  0.00    -0.394 OA
ATOM     19  H35 ZIN A   1      21.037  -3.912  11.342  0.00  0.00     0.210 HD
ENDBRANCH  16  18
ENDBRANCH  15  16
ENDBRANCH   1  15
BRANCH  12  20
ATOM     20  C26 ZIN A   1      17.749   3.522  10.342  0.00  0.00     0.385 C 
BRANCH  20  21
ATOM     21  C27 ZIN A   1      16.958   4.795  10.501  0.00  0.00     0.202 C 
ATOM     22  O28 ZIN A   1      15.912   4.789  11.128  0.00  0.00    -0.647 OA
ATOM     23  O29 ZIN A   1      17.365   5.831  10.004  0.00  0.00    -0.647 OA
ENDBRANCH  20  21
ENDBRANCH  12  20
BRANCH   5  24
ATOM     24  C11 ZIN A   1      18.656   0.394  16.625  0.00  0.00     0.385 C 
BRANCH  24  25
ATOM     25  C12 ZIN A   1      17.373   0.374  17.416  0.00  0.00     0.202 C 
ATOM     26  O13 ZIN A   1      17.275   1.037  18.434  0.00  0.00    -0.647 OA
ATOM     27  O14 ZIN A   1      16.434  -0.304  17.037  0.00  0.00    -0.647 OA
ENDBRANCH  24  25
ENDBRANCH   5  24
BRANCH   8  28
ATOM     28  C19 ZIN A   1      20.234   4.842  14.602  0.00  0.00     0.347 C 
BRANCH  28  29
ATOM     29  C20 ZIN A   1      20.657   5.956  15.524  0.00  0.00     0.199 C 
ATOM     30  O21 ZIN A   1      21.826   6.304  15.565  0.00  0.00    -0.647 OA
ATOM     31  O22 ZIN A   1      19.832   6.510  16.231  0.00  0.00    -0.647 OA
ENDBRANCH  28  29
ENDBRANCH   8  28
TORSDOF 9
ENDMDL
MODEL 3
REMARK VINA RESULT:      -6.8      2.134      5.912
REMARK  9 active torsions:
REMARK  status: ('A' for Active; 'I' for Inactive)
REMARK    1  A    between atoms: C2_2  and  O4_3 
REMARK    2  A    between atoms: C2_2  and  C5_4 
REMARK    3  A    between atoms: C5_4  and  N6_5 
REMARK    4  A    between atoms: N10_9  and  C11_10 
REMARK    5  A    between atoms: C11_10  and  C12_11 
REMARK    6  A    between atoms: N17_16  and  C19_18 
REMARK    7  A    between atoms: C19_18  and  C20_19 
REMARK    8  A    between atoms: N25_24  and  C26_25 
REMARK    9  A    between atoms: C26_25  and  C27_26 
ROOT
ATOM      1  N6  ZIN A   1      18.880   0.368   8.983  0.00  0.00    -0.065 N 
ATOM      2  H7  ZIN A   1      19.312   0.591   8.071  0.00  0.00     0.280 HD
ATOM      3  C8  ZIN A   1      19.022   1.562   9.813  0.00  0.00     0.265 C 
ATOM      4  C9  ZIN A   1      18.064   1.581  10.995  0.00  0.00     0.300 C 
ATOM      5  N10 ZIN A   1      18.827   2.046  12.206  0.00  0.00     0.101 N 
ATOM      6  C15 ZIN A   1      18.160   1.357  13.366  0.00  0.00     0.300 C 
ATOM      7  C16 ZIN A   1      19.236   1.018  14.386  0.00  0.00     0.265 C 
ATOM      8  N17 ZIN A   1      19.119  -0.331  14.931  0.00  0.00    -0.058 N 
ATOM      9  H18 ZIN A   1      19.634  -0.330  15.827  0.00  0.00     0.280 HD
ATOM     10  C23 ZIN A   1      19.778  -1.315  14.076  0.00  0.00     0.265 C 
ATOM     11  C24 ZIN A   1      18.902  -1.795  12.929  0.00  0.00     0.300 C 
ATOM     12  N25 ZIN A   1      19.765  -1.887  11.699  0.00  0.00     0.101 N 
ATOM     13  C30 ZIN A   1      18.840  -1.562  10.558  0.00  0.00     0.300 C 
ATOM     14  C31 ZIN A   1      19.627  -0.760   9.532  0.00  0.00     0.265 C 
ENDROOT
BRANCH   1  15
ATOM     15  C5  ZIN A   1      17.483   0.041   8.708  0.00  0.00     0.266 C 
BRANCH  15  16
ATOM     16  C2  ZIN A   1      17.304  -0.210   7.210  0.00  0.00     0.140 C 
ATOM     17  C1  ZIN A   1      18.292   0.656   6.426  0.00  0.00     0.041 C 
BRANCH  16  18
ATOM     18  O4  ZIN A   1      17.549  -1.589   6.924  0.00  0.00    -0.394 OA
ATOM     19  H35 ZIN A   1      18.444  -1.883   7.143  0.00  0.00     0.210 HD
ENDBRANCH  16  18
ENDBRANCH  15  16
ENDBRANCH   1  15
BRANCH  12  20
ATOM     20  C26 ZIN A   1      20.046  -3.355  11.549  0.00  0.00     0.385 C 
BRANCH  20  21
ATOM     21  C27 ZIN A   1      18.784  -4.070  11.140  0.00  0.00     0.202 C 
ATOM     22  O28 ZIN A   1      17.994  -4.446  11.989  0.00  0.00    -0.647 OA
ATOM     23  O29 ZIN A   1      18.552  -4.269   9.959  0.00  0.00    -0.647 OA
ENDBRANCH  20  21
ENDBRANCH  12  20
BRANCH   5  24
ATOM     24  C11 ZIN A   1      18.443   3.490  12.359  0.00  0.00     0.385 C 
BRANCH  24  25
ATOM     25  C12 ZIN A   1      19.687   4.330  12.490  0.00  0.00     0.202 C 
ATOM     26  O13 ZIN A   1      20.675   4.064  11.827  0.00  0.00    -0.647 OA
ATOM     27  O14 ZIN A   1      19.707   5.275  13.261  0.00  0.00    -0.647 OA
ENDBRANCH  24  25
ENDBRANCH   5  24
BRANCH   8  28
ATOM     28  C19 ZIN A   1      17.741  -0.696  15.248  0.00  0.00     0.347 C 
BRANCH  28  29
ATOM     29  C20 ZIN A   1      17.490  -0.482  16.718  0.00  0.00     0.199 C 
ATOM     30  O21 ZIN A   1      18.408  -0.584  17.515  0.00  0.00    -0.647 OA
ATOM     31  O22 ZIN A   1      16.369  -0.207  17.112  0.00  0.00    -0.647 OA
ENDBRANCH  28  29
ENDBRANCH   8  28
TORSDOF 9
ENDMDL
MODEL 4
REMARK VINA RESULT:      -6.6      1.464      1.770
REMARK  9 active torsions:
REMARK  status: ('A' for Active; 'I' for Inactive)
REMARK    1  A    between atoms: C2_2  and  O4_3 
REMARK    2  A    between atoms: C2_2  and  C5_4 
REMARK    3  A    between atoms: C5_4  and  N6_5 
REMARK    4  A    between atoms: N10_9  and  C11_10 
REMARK    5  A    between atoms: C11_10  and  C12_11 
REMARK    6  A    between atoms: N17_16  and  C19_18 
REMARK    7  A    between atoms: C19_18  and  C20_19 
REMARK    8  A    between atoms: N25_24  and  C26_25 
REMARK    9  A    between atoms: C26_25  and  C27_26 
ROOT
ATOM      1  N6  ZIN A   1      18.412  -4.196   9.112  0.00  0.00    -0.065 N 
ATOM      2  H7  ZIN A   1      18.779  -5.133   8.877  0.00  0.00     0.280 HD
ATOM      3  C8  ZIN A   1      18.575  -3.374   7.916  0.00  0.00     0.265 C 
ATOM      4  C9  ZIN A   1      17.693  -2.133   7.922  0.00  0.00     0.300 C 
ATOM      5  N10 ZIN A   1      18.519  -0.972   7.439  0.00  0.00     0.101 N 
ATOM      6  C15 ZIN A   1      17.946   0.227   8.146  0.00  0.00     0.300 C 
ATOM      7  C16 ZIN A   1      19.094   1.175   8.457  0.00  0.00     0.265 C 
ATOM      8  N17 ZIN A   1      19.046   1.723   9.809  0.00  0.00    -0.058 N 
ATOM      9  H18 ZIN A   1      19.618   2.585   9.795  0.00  0.00     0.280 HD
ATOM     10  C23 ZIN A   1      19.675   0.826  10.775  0.00  0.00     0.265 C 
ATOM     11  C24 ZIN A   1      18.740  -0.264  11.277  0.00  0.00     0.300 C 
ATOM     12  N25 ZIN A   1      19.526  -1.547  11.345  0.00  0.00     0.101 N 
ATOM     13  C30 ZIN A   1      18.522  -2.627  11.044  0.00  0.00     0.300 C 
ATOM     14  C31 ZIN A   1      19.221  -3.698  10.220  0.00  0.00     0.265 C 
ENDROOT
BRANCH   1  15
ATOM     15  C5  ZIN A   1      17.009  -4.382   9.476  0.00  0.00     0.266 C 
BRANCH  15  16
ATOM     16  C2  ZIN A   1      16.384  -5.443   8.569  0.00  0.00     0.140 C 
ATOM     17  C1  ZIN A   1      16.859  -6.831   9.006  0.00  0.00     0.041 C 
BRANCH  16  18
ATOM     18  O4  ZIN A   1      14.960  -5.375   8.666  0.00  0.00    -0.394 OA
ATOM     19  H35 ZIN A   1      14.543  -4.845   7.973  0.00  0.00     0.210 HD
ENDBRANCH  16  18
ENDBRANCH  15  16
ENDBRANCH   1  15
BRANCH  12  20
ATOM     20  C26 ZIN A   1      19.835  -1.718  12.806  0.00  0.00     0.385 C 
BRANCH  20  21
ATOM     21  C27 ZIN A   1      18.979  -0.778  13.614  0.00  0.00     0.202 C 
ATOM     22  O28 ZIN A   1      19.475   0.213  14.123  0.00  0.00    -0.647 OA
ATOM     23  O29 ZIN A   1      17.790  -1.008  13.759  0.00  0.00    -0.647 OA
ENDBRANCH  20  21
ENDBRANCH  12  20
BRANCH   5  24
ATOM     24  C11 ZIN A   1      18.109  -0.792   6.005  0.00  0.00     0.385 C 
BRANCH  24  25
ATOM     25  C12 ZIN A   1      19.332  -0.813   5.125  0.00  0.00     0.202 C 
ATOM     26  O13 ZIN A   1      19.850   0.233   4.776  0.00  0.00    -0.647 OA
ATOM     27  O14 ZIN A   1      19.803  -1.877   4.762  0.00  0.00    -0.647 OA
ENDBRANCH  24  25
ENDBRANCH   5  24
BRANCH   8  28
ATOM     28  C19 ZIN A   1      17.702   2.126  10.210  0.00  0.00     0.347 C 
BRANCH  28  29
ATOM     29  C20 ZIN A   1      17.749   3.506  10.814  0.00  0.00     0.199 C 
ATOM     30  O21 ZIN A   1      16.718   4.051  11.172  0.00  0.00    -0.647 OA
ATOM     31  O22 ZIN A   1      18.818   4.078  10.945  0.00  0.00    -0.647 OA
ENDBRANCH  28  29
ENDBRANCH   8  28
TORSDOF 9
ENDMDL
MODEL 5
REMARK VINA RESULT:      -6.6      3.172      7.111
REMARK  9 active torsions:
REMARK  status: ('A' for Active; 'I' for Inactive)
REMARK    1  A    between atoms: C2_2  and  O4_3 
REMARK    2  A    between atoms: C2_2  and  C5_4 
REMARK    3  A    between atoms: C5_4  and  N6_5 
REMARK    4  A    between atoms: N10_9  and  C11_10 
REMARK    5  A    between atoms: C11_10  and  C12_11 
REMARK    6  A    between atoms: N17_16  and  C19_18 
REMARK    7  A    between atoms: C19_18  and  C20_19 
REMARK    8  A    between atoms: N25_24  and  C26_25 
REMARK    9  A    between atoms: C26_25  and  C27_26 
ROOT
ATOM      1  N6  ZIN A   1      18.784   4.257  14.773  0.00  0.00    -0.065 N 
ATOM      2  H7  ZIN A   1      18.398   5.056  15.302  0.00  0.00     0.280 HD
ATOM      3  C8  ZIN A   1      18.202   4.324  13.435  0.00  0.00     0.265 C 
ATOM      4  C9  ZIN A   1      18.985   3.523  12.404  0.00  0.00     0.300 C 
ATOM      5  N10 ZIN A   1      17.999   2.775  11.549  0.00  0.00     0.101 N 
ATOM      6  C15 ZIN A   1      18.725   1.522  11.135  0.00  0.00     0.300 C 
ATOM      7  C16 ZIN A   1      17.707   0.393  11.076  0.00  0.00     0.265 C 
ATOM      8  N17 ZIN A   1      18.176  -0.846  11.687  0.00  0.00    -0.058 N 
ATOM      9  H18 ZIN A   1      17.598  -1.605  11.289  0.00  0.00     0.280 HD
ATOM     10  C23 ZIN A   1      17.939  -0.858  13.128  0.00  0.00     0.265 C 
ATOM     11  C24 ZIN A   1      19.030  -0.156  13.921  0.00  0.00     0.300 C 
ATOM     12  N25 ZIN A   1      18.364   0.649  15.006  0.00  0.00     0.101 N 
ATOM     13  C30 ZIN A   1      19.254   1.847  15.195  0.00  0.00     0.300 C 
ATOM     14  C31 ZIN A   1      18.366   3.049  15.479  0.00  0.00     0.265 C 
ENDROOT
BRANCH   1  15
ATOM     15  C5  ZIN A   1      20.234   4.431  14.761  0.00  0.00     0.266 C 
BRANCH  15  16
ATOM     16  C2  ZIN A   1      20.584   5.820  15.297  0.00  0.00     0.140 C 
ATOM     17  C1  ZIN A   1      19.580   6.216  16.382  0.00  0.00     0.041 C 
BRANCH  16  18
ATOM     18  O4  ZIN A   1      21.901   5.800  15.852  0.00  0.00    -0.394 OA
ATOM     19  H35 ZIN A   1      22.475   5.118  15.479  0.00  0.00     0.210 HD
ENDBRANCH  16  18
ENDBRANCH  15  16
ENDBRANCH   1  15
BRANCH  12  20
ATOM     20  C26 ZIN A   1      18.561  -0.167  16.252  0.00  0.00     0.385 C 
BRANCH  20  21
ATOM     21  C27 ZIN A   1      17.431   0.100  17.212  0.00  0.00     0.202 C 
ATOM     22  O28 ZIN A   1      16.311  -0.316  16.967  0.00  0.00    -0.647 OA
ATOM     23  O29 ZIN A   1      17.637   0.732  18.234  0.00  0.00    -0.647 OA
ENDBRANCH  20  21
ENDBRANCH  12  20
BRANCH   5  24
ATOM     24  C11 ZIN A   1      17.906   3.586  10.287  0.00  0.00     0.385 C 
BRANCH  24  25
ATOM     25  C12 ZIN A   1      17.009   4.774  10.520  0.00  0.00     0.202 C 
ATOM     26  O13 ZIN A   1      15.982   4.646  11.165  0.00  0.00    -0.647 OA
ATOM     27  O14 ZIN A   1      17.309   5.864  10.062  0.00  0.00    -0.647 OA
ENDBRANCH  24  25
ENDBRANCH   5  24
BRANCH   8  28
ATOM     28  C19 ZIN A   1      19.560  -1.159  11.344  0.00  0.00     0.347 C 
BRANCH  28  29
ATOM     29  C20 ZIN A   1      19.687  -2.632  11.058  0.00  0.00     0.199 C 
ATOM     30  O21 ZIN A   1      20.220  -3.368  11.872  0.00  0.00    -0.647 OA
ATOM     31  O22 ZIN A   1      19.257  -3.091  10.013  0.00  0.00    -0.647 OA
ENDBRANCH  28  29
ENDBRANCH   8  28
TORSDOF 9
ENDMDL
MODEL 6
REMARK VINA RESULT:      -6.5      1.735      2.158
REMARK  9 active torsions:
REMARK  status: ('A' for Active; 'I' for Inactive)
REMARK    1  A    between atoms: C2_2  and  O4_3 
REMARK    2  A    between atoms: C2_2  and  C5_4 
REMARK    3  A    between atoms: C5_4  and  N6_5 
REMARK    4  A    between atoms: N10_9  and  C11_10 
REMARK    5  A    between atoms: C11_10  and  C12_11 
REMARK    6  A    between atoms: N17_16  and  C19_18 
REMARK    7  A    between atoms: C19_18  and  C20_19 
REMARK    8  A    between atoms: N25_24  and  C26_25 
REMARK    9  A    between atoms: C26_25  and  C27_26 
ROOT
ATOM      1  N6  ZIN A   1      19.028  -2.557  12.419  0.00  0.00    -0.065 N 
ATOM      2  H7  ZIN A   1      19.548  -3.405  12.699  0.00  0.00     0.280 HD
ATOM      3  C8  ZIN A   1      19.762  -1.970  11.300  0.00  0.00     0.265 C 
ATOM      4  C9  ZIN A   1      18.921  -1.003  10.480  0.00  0.00     0.300 C 
ATOM      5  N10 ZIN A   1      19.765   0.205  10.175  0.00  0.00     0.101 N 
ATOM      6  C15 ZIN A   1      18.785   1.345  10.089  0.00  0.00     0.300 C 
ATOM      7  C16 ZIN A   1      19.464   2.585  10.652  0.00  0.00     0.265 C 
ATOM      8  N17 ZIN A   1      18.611   3.359  11.548  0.00  0.00    -0.058 N 
ATOM      9  H18 ZIN A   1      19.008   4.313  11.577  0.00  0.00     0.280 HD
ATOM     10  C23 ZIN A   1      18.664   2.848  12.915  0.00  0.00     0.265 C 
ATOM     11  C24 ZIN A   1      17.714   1.684  13.156  0.00  0.00     0.300 C 
ATOM     12  N25 ZIN A   1      18.437   0.668  14.000  0.00  0.00     0.101 N 
ATOM     13  C30 ZIN A   1      17.883  -0.659  13.559  0.00  0.00     0.300 C 
ATOM     14  C31 ZIN A   1      19.020  -1.670  13.579  0.00  0.00     0.265 C 
ENDROOT
BRANCH   1  15
ATOM     15  C5  ZIN A   1      17.689  -3.001  12.038  0.00  0.00     0.266 C 
BRANCH  15  16
ATOM     16  C2  ZIN A   1      17.790  -4.309  11.253  0.00  0.00     0.140 C 
ATOM     17  C1  ZIN A   1      17.335  -5.471  12.138  0.00  0.00     0.041 C 
BRANCH  16  18
ATOM     18  O4  ZIN A   1      16.956  -4.237  10.096  0.00  0.00    -0.394 OA
ATOM     19  H35 ZIN A   1      16.438  -3.423  10.034  0.00  0.00     0.210 HD
ENDBRANCH  16  18
ENDBRANCH  15  16
ENDBRANCH   1  15
BRANCH  12  20
ATOM     20  C26 ZIN A   1      17.882   0.866  15.382  0.00  0.00     0.385 C 
BRANCH  20  21
ATOM     21  C27 ZIN A   1      18.995   1.258  16.319  0.00  0.00     0.202 C 
ATOM     22  O28 ZIN A   1      19.524   2.352  16.215  0.00  0.00    -0.647 OA
ATOM     23  O29 ZIN A   1      19.367   0.481  17.182  0.00  0.00    -0.647 OA
ENDBRANCH  20  21
ENDBRANCH  12  20
BRANCH   5  24
ATOM     24  C11 ZIN A   1      20.221  -0.003   8.759  0.00  0.00     0.385 C 
BRANCH  24  25
ATOM     25  C12 ZIN A   1      19.049   0.154   7.825  0.00  0.00     0.202 C 
ATOM     26  O13 ZIN A   1      18.838   1.228   7.288  0.00  0.00    -0.647 OA
ATOM     27  O14 ZIN A   1      18.311  -0.792   7.607  0.00  0.00    -0.647 OA
ENDBRANCH  24  25
ENDBRANCH   5  24
BRANCH   8  28
ATOM     28  C19 ZIN A   1      17.245   3.496  11.052  0.00  0.00     0.347 C 
BRANCH  28  29
ATOM     29  C20 ZIN A   1      16.838   4.946  11.095  0.00  0.00     0.199 C 
ATOM     30  O21 ZIN A   1      17.071   5.673  10.143  0.00  0.00    -0.647 OA
ATOM     31  O22 ZIN A   1      16.275   5.394  12.079  0.00  0.00    -0.647 OA
ENDBRANCH  28  29
ENDBRANCH   8  28
TORSDOF 9
ENDMDL
MODEL 7
REMARK VINA RESULT:      -6.3      3.013      4.374
REMARK  9 active torsions:
REMARK  status: ('A' for Active; 'I' for Inactive)
REMARK    1  A    between atoms: C2_2  and  O4_3 
REMARK    2  A    between atoms: C2_2  and  C5_4 
REMARK    3  A    between atoms: C5_4  and  N6_5 
REMARK    4  A    between atoms: N10_9  and  C11_10 
REMARK    5  A    between atoms: C11_10  and  C12_11 
REMARK    6  A    between atoms: N17_16  and  C19_18 
REMARK    7  A    between atoms: C19_18  and  C20_19 
REMARK    8  A    between atoms: N25_24  and  C26_25 
REMARK    9  A    between atoms: C26_25  and  C27_26 
ROOT
ATOM      1  N6  ZIN A   1      19.320  -1.043  13.220  0.00  0.00    -0.065 N 
ATOM      2  H7  ZIN A   1      19.933  -1.873  13.164  0.00  0.00     0.280 HD
ATOM      3  C8  ZIN A   1      19.904  -0.034  12.339  0.00  0.00     0.265 C 
ATOM      4  C9  ZIN A   1      18.917   1.055  11.945  0.00  0.00     0.300 C 
ATOM      5  N10 ZIN A   1      19.624   2.380  12.037  0.00  0.00     0.101 N 
ATOM      6  C15 ZIN A   1      18.546   3.366  12.397  0.00  0.00     0.300 C 
ATOM      7  C16 ZIN A   1      19.158   4.408  13.321  0.00  0.00     0.265 C 
ATOM      8  N17 ZIN A   1      18.318   4.734  14.469  0.00  0.00    -0.058 N 
ATOM      9  H18 ZIN A   1      18.632   5.659  14.807  0.00  0.00     0.280 HD
ATOM     10  C23 ZIN A   1      18.529   3.798  15.570  0.00  0.00     0.265 C 
ATOM     11  C24 ZIN A   1      17.707   2.524  15.440  0.00  0.00     0.300 C 
ATOM     12  N25 ZIN A   1      18.583   1.369  15.844  0.00  0.00     0.101 N 
ATOM     13  C30 ZIN A   1      18.113   0.217  14.999  0.00  0.00     0.300 C 
ATOM     14  C31 ZIN A   1      19.331  -0.609  14.614  0.00  0.00     0.265 C 
ENDROOT
BRANCH   1  15
ATOM     15  C5  ZIN A   1      17.998  -1.476  12.774  0.00  0.00     0.266 C 
BRANCH  15  16
ATOM     16  C2  ZIN A   1      18.122  -2.805  12.026  0.00  0.00     0.140 C 
ATOM     17  C1  ZIN A   1      17.783  -2.593  10.550  0.00  0.00     0.041 C 
BRANCH  16  18
ATOM     18  O4  ZIN A   1      19.460  -3.293  12.141  0.00  0.00    -0.394 OA
ATOM     19  H35 ZIN A   1      20.023  -2.767  12.725  0.00  0.00     0.210 HD
ENDBRANCH  16  18
ENDBRANCH  15  16
ENDBRANCH   1  15
BRANCH  12  20
ATOM     20  C26 ZIN A   1      18.130   1.024  17.235  0.00  0.00     0.385 C 
BRANCH  20  21
ATOM     21  C27 ZIN A   1      19.324   0.959  18.151  0.00  0.00     0.202 C 
ATOM     22  O28 ZIN A   1      19.770   1.981  18.646  0.00  0.00    -0.647 OA
ATOM     23  O29 ZIN A   1      19.844  -0.116  18.400  0.00  0.00    -0.647 OA
ENDBRANCH  20  21
ENDBRANCH  12  20
BRANCH   5  24
ATOM     24  C11 ZIN A   1      19.978   2.715  10.616  0.00  0.00     0.385 C 
BRANCH  24  25
ATOM     25  C12 ZIN A   1      18.720   2.797   9.791  0.00  0.00     0.202 C 
ATOM     26  O13 ZIN A   1      18.284   1.799   9.243  0.00  0.00    -0.647 OA
ATOM     27  O14 ZIN A   1      18.137   3.861   9.671  0.00  0.00    -0.647 OA
ENDBRANCH  24  25
ENDBRANCH   5  24
BRANCH   8  28
ATOM     28  C19 ZIN A   1      16.909   4.879  14.118  0.00  0.00     0.347 C 
BRANCH  28  29
ATOM     29  C20 ZIN A   1      16.347   6.105  14.789  0.00  0.00     0.199 C 
ATOM     30  O21 ZIN A   1      16.649   7.215  14.382  0.00  0.00    -0.647 OA
ATOM     31  O22 ZIN A   1      15.592   5.990  15.738  0.00  0.00    -0.647 OA
ENDBRANCH  28  29
ENDBRANCH   8  28
TORSDOF 9
ENDMDL
MODEL 8
REMARK VINA RESULT:      -6.0      2.358      6.288
REMARK  9 active torsions:
REMARK  status: ('A' for Active; 'I' for Inactive)
REMARK    1  A    between atoms: C2_2  and  O4_3 
REMARK    2  A    between atoms: C2_2  and  C5_4 
REMARK    3  A    between atoms: C5_4  and  N6_5 
REMARK    4  A    between atoms: N10_9  and  C11_10 
REMARK    5  A    between atoms: C11_10  and  C12_11 
REMARK    6  A    between atoms: N17_16  and  C19_18 
REMARK    7  A    between atoms: C19_18  and  C20_19 
REMARK    8  A    between atoms: N25_24  and  C26_25 
REMARK    9  A    between atoms: C26_25  and  C27_26 
ROOT
ATOM      1  N6  ZIN A   1      17.952   0.897  10.851  0.00  0.00    -0.065 N 
ATOM      2  H7  ZIN A   1      17.333   1.595  11.295  0.00  0.00     0.280 HD
ATOM      3  C8  ZIN A   1      17.754   1.024   9.409  0.00  0.00     0.265 C 
ATOM      4  C9  ZIN A   1      18.890   0.416   8.598  0.00  0.00     0.300 C 
ATOM      5  N10 ZIN A   1      18.286  -0.355   7.456  0.00  0.00     0.101 N 
ATOM      6  C15 ZIN A   1      19.258  -1.473   7.192  0.00  0.00     0.300 C 
ATOM      7  C16 ZIN A   1      18.456  -2.699   6.781  0.00  0.00     0.265 C 
ATOM      8  N17 ZIN A   1      18.902  -3.930   7.426  0.00  0.00    -0.058 N 
ATOM      9  H18 ZIN A   1      18.561  -4.708   6.837  0.00  0.00     0.280 HD
ATOM     10  C23 ZIN A   1      18.283  -4.104   8.737  0.00  0.00     0.265 C 
ATOM     11  C24 ZIN A   1      19.011  -3.361   9.847  0.00  0.00     0.300 C 
ATOM     12  N25 ZIN A   1      17.972  -2.741  10.743  0.00  0.00     0.101 N 
ATOM     13  C30 ZIN A   1      18.607  -1.474  11.247  0.00  0.00     0.300 C 
ATOM     14  C31 ZIN A   1      17.523  -0.411  11.338  0.00  0.00     0.265 C 
ENDROOT
BRANCH   1  15
ATOM     15  C5  ZIN A   1      19.313   1.234  11.261  0.00  0.00     0.266 C 
BRANCH  15  16
ATOM     16  C2  ZIN A   1      19.271   2.373  12.280  0.00  0.00     0.140 C 
ATOM     17  C1  ZIN A   1      19.190   1.790  13.693  0.00  0.00     0.041 C 
BRANCH  16  18
ATOM     18  O4  ZIN A   1      20.454   3.165  12.160  0.00  0.00    -0.394 OA
ATOM     19  H35 ZIN A   1      21.148   2.758  11.623  0.00  0.00     0.210 HD
ENDBRANCH  16  18
ENDBRANCH  15  16
ENDBRANCH   1  15
BRANCH  12  20
ATOM     20  C26 ZIN A   1      17.928  -3.643  11.945  0.00  0.00     0.385 C 
BRANCH  20  21
ATOM     21  C27 ZIN A   1      17.063  -4.839  11.643  0.00  0.00     0.202 C 
ATOM     22  O28 ZIN A   1      17.505  -5.966  11.795  0.00  0.00    -0.647 OA
ATOM     23  O29 ZIN A   1      15.920  -4.681  11.249  0.00  0.00    -0.647 OA
ENDBRANCH  20  21
ENDBRANCH  12  20
BRANCH   5  24
ATOM     24  C11 ZIN A   1      18.433   0.556   6.269  0.00  0.00     0.385 C 
BRANCH  24  25
ATOM     25  C12 ZIN A   1      18.304  -0.247   5.000  0.00  0.00     0.202 C 
ATOM     26  O13 ZIN A   1      17.228  -0.730   4.692  0.00  0.00    -0.647 OA
ATOM     27  O14 ZIN A   1      19.275  -0.415   4.283  0.00  0.00    -0.647 OA
ENDBRANCH  24  25
ENDBRANCH   5  24
BRANCH   8  28
ATOM     28  C19 ZIN A   1      20.355  -4.052   7.471  0.00  0.00     0.347 C 
BRANCH  28  29
ATOM     29  C20 ZIN A   1      20.746  -5.494   7.280  0.00  0.00     0.199 C 
ATOM     30  O21 ZIN A   1      20.009  -6.249   6.667  0.00  0.00    -0.647 OA
ATOM     31  O22 ZIN A   1      21.797  -5.908   7.737  0.00  0.00    -0.647 OA
ENDBRANCH  28  29
ENDBRANCH   8  28
TORSDOF 9
ENDMDL
MODEL 9
REMARK VINA RESULT:      -5.9      1.968      6.008
REMARK  9 active torsions:
REMARK  status: ('A' for Active; 'I' for Inactive)
REMARK    1  A    between atoms: C2_2  and  O4_3 
REMARK    2  A    between atoms: C2_2  and  C5_4 
REMARK    3  A    between atoms: C5_4  and  N6_5 
REMARK    4  A    between atoms: N10_9  and  C11_10 
REMARK    5  A    between atoms: C11_10  and  C12_11 
REMARK    6  A    between atoms: N17_16  and  C19_18 
REMARK    7  A    between atoms: C19_18  and  C20_19 
REMARK    8  A    between atoms: N25_24  and  C26_25 
REMARK    9  A    between atoms: C26_25  and  C27_26 
ROOT
ATOM      1  N6  ZIN A   1      18.261   2.183  11.708  0.00  0.00    -0.065 N 
ATOM      2  H7  ZIN A   1      17.784   3.061  11.970  0.00  0.00     0.280 HD
ATOM      3  C8  ZIN A   1      17.521   1.629  10.577  0.00  0.00     0.265 C 
ATOM      4  C9  ZIN A   1      18.324   0.609   9.783  0.00  0.00     0.300 C 
ATOM      5  N10 ZIN A   1      17.420  -0.552   9.469  0.00  0.00     0.101 N 
ATOM      6  C15 ZIN A   1      18.335  -1.746   9.413  0.00  0.00     0.300 C 
ATOM      7  C16 ZIN A   1      17.575  -2.941   9.969  0.00  0.00     0.265 C 
ATOM      8  N17 ZIN A   1      18.362  -3.754  10.890  0.00  0.00    -0.058 N 
ATOM      9  H18 ZIN A   1      17.911  -4.684  10.917  0.00  0.00     0.280 HD
ATOM     10  C23 ZIN A   1      18.308  -3.229  12.252  0.00  0.00     0.265 C 
ATOM     11  C24 ZIN A   1      19.316  -2.119  12.506  0.00  0.00     0.300 C 
ATOM     12  N25 ZIN A   1      18.633  -1.056  13.325  0.00  0.00     0.101 N 
ATOM     13  C30 ZIN A   1      19.271   0.234  12.888  0.00  0.00     0.300 C 
ATOM     14  C31 ZIN A   1      18.193   1.308  12.875  0.00  0.00     0.265 C 
ENDROOT
BRANCH   1  15
ATOM     15  C5  ZIN A   1      19.631   2.548  11.355  0.00  0.00     0.266 C 
BRANCH  15  16
ATOM     16  C2  ZIN A   1      19.840   4.043  11.600  0.00  0.00     0.140 C 
ATOM     17  C1  ZIN A   1      18.498   4.770  11.488  0.00  0.00     0.041 C 
BRANCH  16  18
ATOM     18  O4  ZIN A   1      20.381   4.241  12.907  0.00  0.00    -0.394 OA
ATOM     19  H35 ZIN A   1      19.841   3.870  13.618  0.00  0.00     0.210 HD
ENDBRANCH  16  18
ENDBRANCH  15  16
ENDBRANCH   1  15
BRANCH  12  20
ATOM     20  C26 ZIN A   1      19.145  -1.273  14.722  0.00  0.00     0.385 C 
BRANCH  20  21
ATOM     21  C27 ZIN A   1      18.010  -1.122  15.702  0.00  0.00     0.202 C 
ATOM     22  O28 ZIN A   1      17.409  -0.064  15.781  0.00  0.00    -0.647 OA
ATOM     23  O29 ZIN A   1      17.692  -2.059  16.414  0.00  0.00    -0.647 OA
ENDBRANCH  20  21
ENDBRANCH  12  20
BRANCH   5  24
ATOM     24  C11 ZIN A   1      17.008  -0.330   8.041  0.00  0.00     0.385 C 
BRANCH  24  25
ATOM     25  C12 ZIN A   1      18.236  -0.141   7.187  0.00  0.00     0.202 C 
ATOM     26  O13 ZIN A   1      18.775  -1.106   6.673  0.00  0.00    -0.647 OA
ATOM     27  O14 ZIN A   1      18.690   0.976   7.011  0.00  0.00    -0.647 OA
ENDBRANCH  24  25
ENDBRANCH   5  24
BRANCH   8  28
ATOM     28  C19 ZIN A   1      19.729  -3.973  10.427  0.00  0.00     0.347 C 
BRANCH  28  29
ATOM     29  C20 ZIN A   1      19.752  -5.115   9.445  0.00  0.00     0.199 C 
ATOM     30  O21 ZIN A   1      19.021  -6.077   9.612  0.00  0.00    -0.647 OA
ATOM     31  O22 ZIN A   1      20.500  -5.079   8.484  0.00  0.00    -0.647 OA
ENDBRANCH  28  29
ENDBRANCH   8  28
TORSDOF 9
ENDMDL
