MODEL 1
REMARK VINA RESULT:     -10.2      0.000      0.000
REMARK  4 active torsions:
REMARK  status: ('A' for Active; 'I' for Inactive)
REMARK    1  A    between atoms: C2_2  and  C10_10 
REMARK    2  A    between atoms: C3_3  and  C4_4 
REMARK    3  A    between atoms: C24_21  and  O26_22 
REMARK    4  A    between atoms: C35_30  and  O37_31 
ROOT
ATOM      1  C10 ZIN A   1      18.577  -2.096  10.947  0.00  0.00     0.115 C 
ATOM      2  C12 ZIN A   1      17.978  -1.215   9.848  0.00  0.00     0.064 C 
ATOM      3  C13 ZIN A   1      18.707   0.132   9.829  0.00  0.00     0.159 A 
ATOM      4  O15 ZIN A   1      17.903   1.313   9.800  0.00  0.00    -0.369 OA
ATOM      5  C16 ZIN A   1      18.574   0.999   8.576  0.00  0.00     0.084 A 
ATOM      6  C17 ZIN A   1      19.762   1.884   8.186  0.00  0.00     0.049 C 
ATOM      7  C18 ZIN A   1      17.729   0.460   7.421  0.00  0.00     0.040 C 
ATOM      8  C19 ZIN A   1      18.594  -0.386   6.490  0.00  0.00     0.004 C 
ATOM      9  C20 ZIN A   1      17.990  -1.790   6.349  0.00  0.00     0.007 C 
ATOM     10  C21 ZIN A   1      18.112  -2.238   4.893  0.00  0.00     0.011 C 
ATOM     11  C23 ZIN A   1      16.769  -2.080   4.183  0.00  0.00     0.012 C 
ATOM     12  C24 ZIN A   1      18.603  -3.680   4.822  0.00  0.00     0.132 C 
ATOM     13  C27 ZIN A   1      17.638  -4.631   5.541  0.00  0.00     0.081 C 
ATOM     14  C29 ZIN A   1      16.970  -5.513   4.477  0.00  0.00     0.020 C 
ATOM     15  C30 ZIN A   1      18.410  -5.499   6.502  0.00  0.00     0.143 C 
ATOM     16  O31 ZIN A   1      19.621  -5.455   6.460  0.00  0.00    -0.297 OA
ATOM     17  C32 ZIN A   1      17.722  -6.427   7.467  0.00  0.00     0.040 C 
ATOM     18  C33 ZIN A   1      16.261  -6.019   7.653  0.00  0.00     0.026 C 
ATOM     19  C34 ZIN A   1      17.733  -7.844   6.849  0.00  0.00     0.026 C 
ATOM     20  C35 ZIN A   1      18.443  -6.516   8.803  0.00  0.00     0.142 C 
ATOM     21  C38 ZIN A   1      17.835  -5.687   9.918  0.00  0.00     0.135 C 
ATOM     22  C39 ZIN A   1      18.294  -4.253   9.861  0.00  0.00     0.220 C 
ATOM     23  O40 ZIN A   1      18.927  -3.831   8.920  0.00  0.00    -0.274 OA
ATOM     24  N41 ZIN A   1      17.969  -3.439  10.905  0.00  0.00    -0.353 N 
ATOM     25  H77 ZIN A   1      17.361  -3.742  11.605  0.00  0.00     0.163 HD
ENDROOT
BRANCH   1  26
ATOM     26  C2  ZIN A   1      18.301  -1.469  12.292  0.00  0.00    -0.059 C 
ATOM     27  C1  ZIN A   1      17.031  -0.689  12.514  0.00  0.00     0.045 C 
ATOM     28  C3  ZIN A   1      19.177  -1.604  13.278  0.00  0.00     0.036 C 
BRANCH  28  29
ATOM     29  C4  ZIN A   1      18.985  -0.863  14.544  0.00  0.00     0.064 A 
ATOM     30  N9  ZIN A   1      19.275   0.424  14.677  0.00  0.00    -0.246 NA
ATOM     31  C7  ZIN A   1      19.061   0.958  15.829  0.00  0.00     0.071 A 
ATOM     32  S6  ZIN A   1      18.442  -0.202  16.921  0.00  0.00    -0.085 SA
ATOM     33  C8  ZIN A   1      19.324   2.402  16.169  0.00  0.00     0.078 C 
ATOM     34  C5  ZIN A   1      18.505  -1.438  15.667  0.00  0.00     0.083 A 
ENDBRANCH  28  29
ENDBRANCH   1  26
BRANCH  20  35
ATOM     35  O37 ZIN A   1      19.834  -6.205   8.669  0.00  0.00    -0.394 OA
ATOM     36  H74 ZIN A   1      20.394  -6.975   8.501  0.00  0.00     0.210 HD
ENDBRANCH  20  35
BRANCH  12  37
ATOM     37  O26 ZIN A   1      18.699  -4.075   3.447  0.00  0.00    -0.394 OA
ATOM     38  H64 ZIN A   1      18.169  -4.852   3.223  0.00  0.00     0.210 HD
ENDBRANCH  12  37
TORSDOF 4
ENDMDL
MODEL 2
REMARK VINA RESULT:      -9.7      4.042     10.707
REMARK  4 active torsions:
REMARK  status: ('A' for Active; 'I' for Inactive)
REMARK    1  A    between atoms: C2_2  and  C10_10 
REMARK    2  A    between atoms: C3_3  and  C4_4 
REMARK    3  A    between atoms: C24_21  and  O26_22 
REMARK    4  A    between atoms: C35_30  and  O37_31 
ROOT
ATOM      1  C10 ZIN A   1      18.959   1.615  11.289  0.00  0.00     0.115 C 
ATOM      2  C12 ZIN A   1      18.370   0.616  12.288  0.00  0.00     0.064 C 
ATOM      3  C13 ZIN A   1      19.033  -0.750  12.084  0.00  0.00     0.159 A 
ATOM      4  O15 ZIN A   1      18.176  -1.889  11.993  0.00  0.00    -0.369 OA
ATOM      5  C16 ZIN A   1      18.916  -1.777  13.212  0.00  0.00     0.084 A 
ATOM      6  C17 ZIN A   1      20.077  -2.756  13.415  0.00  0.00     0.049 C 
ATOM      7  C18 ZIN A   1      18.152  -1.369  14.473  0.00  0.00     0.040 C 
ATOM      8  C19 ZIN A   1      19.098  -0.697  15.464  0.00  0.00     0.004 C 
ATOM      9  C20 ZIN A   1      18.569   0.697  15.827  0.00  0.00     0.007 C 
ATOM     10  C21 ZIN A   1      18.779   0.933  17.322  0.00  0.00     0.011 C 
ATOM     11  C23 ZIN A   1      17.463   0.733  18.072  0.00  0.00     0.012 C 
ATOM     12  C24 ZIN A   1      19.341   2.330  17.564  0.00  0.00     0.132 C 
ATOM     13  C27 ZIN A   1      18.391   3.410  17.033  0.00  0.00     0.081 C 
ATOM     14  C29 ZIN A   1      17.816   4.162  18.241  0.00  0.00     0.020 C 
ATOM     15  C30 ZIN A   1      19.159   4.371  16.162  0.00  0.00     0.143 C 
ATOM     16  O31 ZIN A   1      20.367   4.272  16.134  0.00  0.00    -0.297 OA
ATOM     17  C32 ZIN A   1      18.473   5.452  15.369  0.00  0.00     0.040 C 
ATOM     18  C33 ZIN A   1      16.986   5.134  15.206  0.00  0.00     0.026 C 
ATOM     19  C34 ZIN A   1      18.580   6.767  16.174  0.00  0.00     0.026 C 
ATOM     20  C35 ZIN A   1      19.136   5.696  14.023  0.00  0.00     0.142 C 
ATOM     21  C38 ZIN A   1      18.438   5.055  12.838  0.00  0.00     0.135 C 
ATOM     22  C39 ZIN A   1      18.830   3.610  12.674  0.00  0.00     0.220 C 
ATOM     23  O40 ZIN A   1      19.484   3.036  13.514  0.00  0.00    -0.274 OA
ATOM     24  N41 ZIN A   1      18.419   2.963  11.547  0.00  0.00    -0.353 N 
ATOM     25  H77 ZIN A   1      17.795   3.386  10.927  0.00  0.00     0.163 HD
ENDROOT
BRANCH   1  26
ATOM     26  C2  ZIN A   1      18.592   1.193   9.888  0.00  0.00    -0.059 C 
ATOM     27  C1  ZIN A   1      17.170   0.817   9.561  0.00  0.00     0.045 C 
ATOM     28  C3  ZIN A   1      19.522   1.153   8.943  0.00  0.00     0.036 C 
BRANCH  28  29
ATOM     29  C4  ZIN A   1      19.201   0.593   7.613  0.00  0.00     0.064 A 
ATOM     30  N9  ZIN A   1      19.240  -0.706   7.349  0.00  0.00    -0.246 NA
ATOM     31  C7  ZIN A   1      18.935  -1.072   6.153  0.00  0.00     0.071 A 
ATOM     32  S6  ZIN A   1      18.557   0.288   5.189  0.00  0.00    -0.085 SA
ATOM     33  C8  ZIN A   1      18.919  -2.498   5.667  0.00  0.00     0.078 C 
ATOM     34  C5  ZIN A   1      18.847   1.358   6.559  0.00  0.00     0.083 A 
ENDBRANCH  28  29
ENDBRANCH   1  26
BRANCH  20  35
ATOM     35  O37 ZIN A   1      20.514   5.313  14.040  0.00  0.00    -0.394 OA
ATOM     36  H74 ZIN A   1      21.092   5.944  14.491  0.00  0.00     0.210 HD
ENDBRANCH  20  35
BRANCH  12  37
ATOM     37  O26 ZIN A   1      19.519   2.525  18.973  0.00  0.00    -0.394 OA
ATOM     38  H64 ZIN A   1      20.444   2.610  19.244  0.00  0.00     0.210 HD
ENDBRANCH  12  37
TORSDOF 4
ENDMDL
MODEL 3
REMARK VINA RESULT:      -9.6      1.873      2.254
REMARK  4 active torsions:
REMARK  status: ('A' for Active; 'I' for Inactive)
REMARK    1  A    between atoms: C2_2  and  C10_10 
REMARK    2  A    between atoms: C3_3  and  C4_4 
REMARK    3  A    between atoms: C24_21  and  O26_22 
REMARK    4  A    between atoms: C35_30  and  O37_31 
ROOT
ATOM      1  C10 ZIN A   1      18.377  -1.876   9.385  0.00  0.00     0.115 C 
ATOM      2  C12 ZIN A   1      17.779  -1.377   8.067  0.00  0.00     0.064 C 
ATOM      3  C13 ZIN A   1      18.604  -0.192   7.557  0.00  0.00     0.159 A 
ATOM      4  O15 ZIN A   1      17.891   0.975   7.143  0.00  0.00    -0.369 OA
ATOM      5  C16 ZIN A   1      18.459   0.199   6.085  0.00  0.00     0.084 A 
ATOM      6  C17 ZIN A   1      19.684   0.782   5.372  0.00  0.00     0.049 C 
ATOM      7  C18 ZIN A   1      17.507  -0.626   5.217  0.00  0.00     0.040 C 
ATOM      8  C19 ZIN A   1      18.246  -1.817   4.613  0.00  0.00     0.004 C 
ATOM      9  C20 ZIN A   1      17.531  -3.121   4.990  0.00  0.00     0.007 C 
ATOM     10  C21 ZIN A   1      17.528  -4.053   3.778  0.00  0.00     0.011 C 
ATOM     11  C23 ZIN A   1      16.159  -4.026   3.101  0.00  0.00     0.012 C 
ATOM     12  C24 ZIN A   1      17.904  -5.469   4.199  0.00  0.00     0.132 C 
ATOM     13  C27 ZIN A   1      16.917  -6.021   5.235  0.00  0.00     0.081 C 
ATOM     14  C29 ZIN A   1      16.121  -7.150   4.567  0.00  0.00     0.020 C 
ATOM     15  C30 ZIN A   1      17.680  -6.572   6.413  0.00  0.00     0.143 C 
ATOM     16  O31 ZIN A   1      18.887  -6.657   6.319  0.00  0.00    -0.297 OA
ATOM     17  C32 ZIN A   1      16.986  -7.043   7.663  0.00  0.00     0.040 C 
ATOM     18  C33 ZIN A   1      15.573  -6.464   7.741  0.00  0.00     0.026 C 
ATOM     19  C34 ZIN A   1      16.853  -8.581   7.577  0.00  0.00     0.026 C 
ATOM     20  C35 ZIN A   1      17.780  -6.732   8.922  0.00  0.00     0.142 C 
ATOM     21  C38 ZIN A   1      17.306  -5.517   9.696  0.00  0.00     0.135 C 
ATOM     22  C39 ZIN A   1      17.867  -4.239   9.129  0.00  0.00     0.220 C 
ATOM     23  O40 ZIN A   1      18.470  -4.228   8.080  0.00  0.00    -0.274 OA
ATOM     24  N41 ZIN A   1      17.668  -3.089   9.833  0.00  0.00    -0.353 N 
ATOM     25  H77 ZIN A   1      17.084  -3.075  10.614  0.00  0.00     0.163 HD
ENDROOT
BRANCH   1  26
ATOM     26  C2  ZIN A   1      18.233  -0.801  10.435  0.00  0.00    -0.059 C 
ATOM     27  C1  ZIN A   1      16.897  -0.143  10.661  0.00  0.00     0.045 C 
ATOM     28  C3  ZIN A   1      19.283  -0.437  11.158  0.00  0.00     0.036 C 
BRANCH  28  29
ATOM     29  C4  ZIN A   1      19.183   0.720  12.074  0.00  0.00     0.064 A 
ATOM     30  N9  ZIN A   1      19.373   1.971  11.680  0.00  0.00    -0.246 NA
ATOM     31  C7  ZIN A   1      19.255   2.892  12.572  0.00  0.00     0.071 A 
ATOM     32  S6  ZIN A   1      18.878   2.209  14.093  0.00  0.00    -0.085 SA
ATOM     33  C8  ZIN A   1      19.431   4.367  12.314  0.00  0.00     0.078 C 
ATOM     34  C5  ZIN A   1      18.896   0.594  13.387  0.00  0.00     0.083 A 
ENDBRANCH  28  29
ENDBRANCH   1  26
BRANCH  20  35
ATOM     35  O37 ZIN A   1      19.179  -6.616   8.643  0.00  0.00    -0.394 OA
ATOM     36  H74 ZIN A   1      19.654  -7.458   8.659  0.00  0.00     0.210 HD
ENDBRANCH  20  35
BRANCH  12  37
ATOM     37  O26 ZIN A   1      17.886  -6.321   3.046  0.00  0.00    -0.394 OA
ATOM     38  H64 ZIN A   1      18.479  -7.082   3.110  0.00  0.00     0.210 HD
ENDBRANCH  12  37
TORSDOF 4
ENDMDL
MODEL 4
REMARK VINA RESULT:      -9.2      4.847     11.616
REMARK  4 active torsions:
REMARK  status: ('A' for Active; 'I' for Inactive)
REMARK    1  A    between atoms: C2_2  and  C10_10 
REMARK    2  A    between atoms: C3_3  and  C4_4 
REMARK    3  A    between atoms: C24_21  and  O26_22 
REMARK    4  A    between atoms: C35_30  and  O37_31 
ROOT
ATOM      1  C10 ZIN A   1      18.514   1.524  13.525  0.00  0.00     0.115 C 
ATOM      2  C12 ZIN A   1      17.871   1.020  14.820  0.00  0.00     0.064 C 
ATOM      3  C13 ZIN A   1      18.631  -0.216  15.311  0.00  0.00     0.159 A 
ATOM      4  O15 ZIN A   1      17.857  -1.357  15.682  0.00  0.00    -0.369 OA
ATOM      5  C16 ZIN A   1      18.443  -0.637  16.769  0.00  0.00     0.084 A 
ATOM      6  C17 ZIN A   1      19.627  -1.296  17.485  0.00  0.00     0.049 C 
ATOM      7  C18 ZIN A   1      17.516   0.209  17.644  0.00  0.00     0.040 C 
ATOM      8  C19 ZIN A   1      18.300   1.347  18.291  0.00  0.00     0.004 C 
ATOM      9  C20 ZIN A   1      17.654   2.693  17.938  0.00  0.00     0.007 C 
ATOM     10  C21 ZIN A   1      17.675   3.592  19.174  0.00  0.00     0.011 C 
ATOM     11  C23 ZIN A   1      16.296   3.614  19.828  0.00  0.00     0.012 C 
ATOM     12  C24 ZIN A   1      18.125   5.000  18.796  0.00  0.00     0.132 C 
ATOM     13  C27 ZIN A   1      17.182   5.625  17.761  0.00  0.00     0.081 C 
ATOM     14  C29 ZIN A   1      16.429   6.773  18.446  0.00  0.00     0.020 C 
ATOM     15  C30 ZIN A   1      17.990   6.170  16.610  0.00  0.00     0.143 C 
ATOM     16  O31 ZIN A   1      19.197   6.194  16.724  0.00  0.00    -0.297 OA
ATOM     17  C32 ZIN A   1      17.339   6.706  15.363  0.00  0.00     0.040 C 
ATOM     18  C33 ZIN A   1      15.903   6.196  15.247  0.00  0.00     0.026 C 
ATOM     19  C34 ZIN A   1      17.277   8.245  15.487  0.00  0.00     0.026 C 
ATOM     20  C35 ZIN A   1      18.139   6.390  14.108  0.00  0.00     0.142 C 
ATOM     21  C38 ZIN A   1      17.621   5.219  13.294  0.00  0.00     0.135 C 
ATOM     22  C39 ZIN A   1      18.112   3.902  13.836  0.00  0.00     0.220 C 
ATOM     23  O40 ZIN A   1      18.696   3.834  14.893  0.00  0.00    -0.274 OA
ATOM     24  N41 ZIN A   1      17.871   2.781  13.099  0.00  0.00    -0.353 N 
ATOM     25  H77 ZIN A   1      17.300   2.815  12.308  0.00  0.00     0.163 HD
ENDROOT
BRANCH   1  26
ATOM     26  C2  ZIN A   1      18.337   0.485  12.445  0.00  0.00    -0.059 C 
ATOM     27  C1  ZIN A   1      16.974  -0.101  12.178  0.00  0.00     0.045 C 
ATOM     28  C3  ZIN A   1      19.380   0.088  11.730  0.00  0.00     0.036 C 
BRANCH  28  29
ATOM     29  C4  ZIN A   1      19.242  -1.038  10.782  0.00  0.00     0.064 A 
ATOM     30  N9  ZIN A   1      19.403  -2.306  11.138  0.00  0.00    -0.246 NA
ATOM     31  C7  ZIN A   1      19.252  -3.197  10.221  0.00  0.00     0.071 A 
ATOM     32  S6  ZIN A   1      18.877  -2.460   8.725  0.00  0.00    -0.085 SA
ATOM     33  C8  ZIN A   1      19.392  -4.682  10.434  0.00  0.00     0.078 C 
ATOM     34  C5  ZIN A   1      18.944  -0.868   9.476  0.00  0.00     0.083 A 
ENDBRANCH  28  29
ENDBRANCH   1  26
BRANCH  20  35
ATOM     35  O37 ZIN A   1      19.525   6.199  14.405  0.00  0.00    -0.394 OA
ATOM     36  H74 ZIN A   1      19.836   6.700  15.172  0.00  0.00     0.210 HD
ENDBRANCH  20  35
BRANCH  12  37
ATOM     37  O26 ZIN A   1      18.127   5.821  19.972  0.00  0.00    -0.394 OA
ATOM     38  H64 ZIN A   1      17.274   5.859  20.427  0.00  0.00     0.210 HD
ENDBRANCH  12  37
TORSDOF 4
ENDMDL
MODEL 5
REMARK VINA RESULT:      -8.6      4.513      7.425
REMARK  4 active torsions:
REMARK  status: ('A' for Active; 'I' for Inactive)
REMARK    1  A    between atoms: C2_2  and  C10_10 
REMARK    2  A    between atoms: C3_3  and  C4_4 
REMARK    3  A    between atoms: C24_21  and  O26_22 
REMARK    4  A    between atoms: C35_30  and  O37_31 
ROOT
ATOM      1  C10 ZIN A   1      18.826   2.681  16.389  0.00  0.00     0.115 C 
ATOM      2  C12 ZIN A   1      18.532   3.683  15.269  0.00  0.00     0.064 C 
ATOM      3  C13 ZIN A   1      19.393   4.934  15.475  0.00  0.00     0.159 A 
ATOM      4  O15 ZIN A   1      18.739   6.201  15.393  0.00  0.00    -0.369 OA
ATOM      5  C16 ZIN A   1      19.581   5.875  14.284  0.00  0.00     0.084 A 
ATOM      6  C17 ZIN A   1      20.908   6.632  14.170  0.00  0.00     0.049 C 
ATOM      7  C18 ZIN A   1      18.905   5.502  12.964  0.00  0.00     0.040 C 
ATOM      8  C19 ZIN A   1      19.826   4.609  12.137  0.00  0.00     0.004 C 
ATOM      9  C20 ZIN A   1      19.110   3.296  11.793  0.00  0.00     0.007 C 
ATOM     10  C21 ZIN A   1      19.443   2.914  10.351  0.00  0.00     0.011 C 
ATOM     11  C23 ZIN A   1      18.274   3.268   9.433  0.00  0.00     0.012 C 
ATOM     12  C24 ZIN A   1      19.781   1.429  10.261  0.00  0.00     0.132 C 
ATOM     13  C27 ZIN A   1      18.606   0.564  10.731  0.00  0.00     0.081 C 
ATOM     14  C29 ZIN A   1      18.050  -0.175   9.507  0.00  0.00     0.020 C 
ATOM     15  C30 ZIN A   1      19.095  -0.440  11.745  0.00  0.00     0.143 C 
ATOM     16  O31 ZIN A   1      20.292  -0.537  11.916  0.00  0.00    -0.297 OA
ATOM     17  C32 ZIN A   1      18.149  -1.329  12.507  0.00  0.00     0.040 C 
ATOM     18  C33 ZIN A   1      16.731  -0.760  12.467  0.00  0.00     0.026 C 
ATOM     19  C34 ZIN A   1      18.119  -2.702  11.799  0.00  0.00     0.026 C 
ATOM     20  C35 ZIN A   1      18.605  -1.573  13.937  0.00  0.00     0.142 C 
ATOM     21  C38 ZIN A   1      17.899  -0.737  14.988  0.00  0.00     0.135 C 
ATOM     22  C39 ZIN A   1      18.513   0.633  15.116  0.00  0.00     0.220 C 
ATOM     23  O40 ZIN A   1      19.345   1.026  14.332  0.00  0.00    -0.274 OA
ATOM     24  N41 ZIN A   1      18.094   1.424  16.144  0.00  0.00    -0.353 N 
ATOM     25  H77 ZIN A   1      17.341   1.158  16.705  0.00  0.00     0.163 HD
ENDROOT
BRANCH   1  26
ATOM     26  C2  ZIN A   1      18.382   3.265  17.707  0.00  0.00    -0.059 C 
ATOM     27  C1  ZIN A   1      18.801   2.613  19.000  0.00  0.00     0.045 C 
ATOM     28  C3  ZIN A   1      17.622   4.351  17.729  0.00  0.00     0.036 C 
BRANCH  28  29
ATOM     29  C4  ZIN A   1      17.058   4.834  19.008  0.00  0.00     0.064 A 
ATOM     30  N9  ZIN A   1      15.847   4.500  19.433  0.00  0.00    -0.246 NA
ATOM     31  C7  ZIN A   1      15.470   4.982  20.567  0.00  0.00     0.071 A 
ATOM     32  S6  ZIN A   1      16.692   5.974  21.233  0.00  0.00    -0.085 SA
ATOM     33  C8  ZIN A   1      14.135   4.714  21.213  0.00  0.00     0.078 C 
ATOM     34  C5  ZIN A   1      17.727   5.656  19.843  0.00  0.00     0.083 A 
ENDBRANCH  28  29
ENDBRANCH   1  26
BRANCH  20  35
ATOM     35  O37 ZIN A   1      20.022  -1.423  14.068  0.00  0.00    -0.394 OA
ATOM     36  H74 ZIN A   1      20.519  -1.681  13.280  0.00  0.00     0.210 HD
ENDBRANCH  20  35
BRANCH  12  37
ATOM     37  O26 ZIN A   1      20.080   1.099   8.898  0.00  0.00    -0.394 OA
ATOM     38  H64 ZIN A   1      19.309   0.829   8.381  0.00  0.00     0.210 HD
ENDBRANCH  12  37
TORSDOF 4
ENDMDL
MODEL 6
REMARK VINA RESULT:      -8.1      3.731      9.115
REMARK  4 active torsions:
REMARK  status: ('A' for Active; 'I' for Inactive)
REMARK    1  A    between atoms: C2_2  and  C10_10 
REMARK    2  A    between atoms: C3_3  and  C4_4 
REMARK    3  A    between atoms: C24_21  and  O26_22 
REMARK    4  A    between atoms: C35_30  and  O37_31 
ROOT
ATOM      1  C10 ZIN A   1      18.820  -2.768   6.569  0.00  0.00     0.115 C 
ATOM      2  C12 ZIN A   1      18.517  -3.595   7.822  0.00  0.00     0.064 C 
ATOM      3  C13 ZIN A   1      19.313  -4.902   7.767  0.00  0.00     0.159 A 
ATOM      4  O15 ZIN A   1      18.606  -6.114   8.036  0.00  0.00    -0.369 OA
ATOM      5  C16 ZIN A   1      19.496  -5.683   9.069  0.00  0.00     0.084 A 
ATOM      6  C17 ZIN A   1      20.791  -6.482   9.253  0.00  0.00     0.049 C 
ATOM      7  C18 ZIN A   1      18.879  -5.102  10.343  0.00  0.00     0.040 C 
ATOM      8  C19 ZIN A   1      19.865  -4.153  11.018  0.00  0.00     0.004 C 
ATOM      9  C20 ZIN A   1      19.220  -2.772  11.198  0.00  0.00     0.007 C 
ATOM     10  C21 ZIN A   1      19.614  -2.216  12.566  0.00  0.00     0.011 C 
ATOM     11  C23 ZIN A   1      18.460  -2.385  13.551  0.00  0.00     0.012 C 
ATOM     12  C24 ZIN A   1      20.021  -0.751  12.444  0.00  0.00     0.132 C 
ATOM     13  C27 ZIN A   1      18.873   0.100  11.890  0.00  0.00     0.081 C 
ATOM     14  C29 ZIN A   1      18.389   1.024  13.016  0.00  0.00     0.020 C 
ATOM     15  C30 ZIN A   1      19.375   0.932  10.738  0.00  0.00     0.143 C 
ATOM     16  O31 ZIN A   1      20.569   0.947  10.525  0.00  0.00    -0.297 OA
ATOM     17  C32 ZIN A   1      18.447   1.756   9.885  0.00  0.00     0.040 C 
ATOM     18  C33 ZIN A   1      17.006   1.268  10.037  0.00  0.00     0.026 C 
ATOM     19  C34 ZIN A   1      18.501   3.212  10.401  0.00  0.00     0.026 C 
ATOM     20  C35 ZIN A   1      18.868   1.783   8.424  0.00  0.00     0.142 C 
ATOM     21  C38 ZIN A   1      18.093   0.849   7.515  0.00  0.00     0.135 C 
ATOM     22  C39 ZIN A   1      18.640  -0.555   7.559  0.00  0.00     0.220 C 
ATOM     23  O40 ZIN A   1      19.478  -0.878   8.369  0.00  0.00    -0.274 OA
ATOM     24  N41 ZIN A   1      18.154  -1.455   6.659  0.00  0.00    -0.353 N 
ATOM     25  H77 ZIN A   1      17.397  -1.231   6.085  0.00  0.00     0.163 HD
ENDROOT
BRANCH   1  26
ATOM     26  C2  ZIN A   1      18.310  -3.502   5.354  0.00  0.00    -0.059 C 
ATOM     27  C1  ZIN A   1      18.818  -3.135   3.983  0.00  0.00     0.045 C 
ATOM     28  C3  ZIN A   1      17.414  -4.469   5.491  0.00  0.00     0.036 C 
BRANCH  28  29
ATOM     29  C4  ZIN A   1      16.797  -5.081   4.295  0.00  0.00     0.064 A 
ATOM     30  N9  ZIN A   1      15.622  -4.699   3.813  0.00  0.00    -0.246 NA
ATOM     31  C7  ZIN A   1      15.192  -5.307   2.762  0.00  0.00     0.071 A 
ATOM     32  S6  ZIN A   1      16.307  -6.503   2.264  0.00  0.00    -0.085 SA
ATOM     33  C8  ZIN A   1      13.886  -5.010   2.072  0.00  0.00     0.078 C 
ATOM     34  C5  ZIN A   1      17.377  -6.082   3.599  0.00  0.00     0.083 A 
ENDBRANCH  28  29
ENDBRANCH   1  26
BRANCH  20  35
ATOM     35  O37 ZIN A   1      20.272   1.547   8.280  0.00  0.00    -0.394 OA
ATOM     36  H74 ZIN A   1      20.652   1.917   7.471  0.00  0.00     0.210 HD
ENDBRANCH  20  35
BRANCH  12  37
ATOM     37  O26 ZIN A   1      20.377  -0.255  13.742  0.00  0.00    -0.394 OA
ATOM     38  H64 ZIN A   1      19.701  -0.403  14.418  0.00  0.00     0.210 HD
ENDBRANCH  12  37
TORSDOF 4
ENDMDL
MODEL 7
REMARK VINA RESULT:      -8.0      3.697     10.032
REMARK  4 active torsions:
REMARK  status: ('A' for Active; 'I' for Inactive)
REMARK    1  A    between atoms: C2_2  and  C10_10 
REMARK    2  A    between atoms: C3_3  and  C4_4 
REMARK    3  A    between atoms: C24_21  and  O26_22 
REMARK    4  A    between atoms: C35_30  and  O37_31 
ROOT
ATOM      1  C10 ZIN A   1      18.938   0.739   9.918  0.00  0.00     0.115 C 
ATOM      2  C12 ZIN A   1      18.473  -0.208  11.027  0.00  0.00     0.064 C 
ATOM      3  C13 ZIN A   1      19.257  -1.520  10.929  0.00  0.00     0.159 A 
ATOM      4  O15 ZIN A   1      18.511  -2.737  10.977  0.00  0.00    -0.369 OA
ATOM      5  C16 ZIN A   1      19.268  -2.439  12.152  0.00  0.00     0.084 A 
ATOM      6  C17 ZIN A   1      20.523  -3.282  12.406  0.00  0.00     0.049 C 
ATOM      7  C18 ZIN A   1      18.503  -1.982  13.395  0.00  0.00     0.040 C 
ATOM      8  C19 ZIN A   1      19.406  -1.132  14.285  0.00  0.00     0.004 C 
ATOM      9  C20 ZIN A   1      18.757   0.236  14.533  0.00  0.00     0.007 C 
ATOM     10  C21 ZIN A   1      18.983   0.634  15.991  0.00  0.00     0.011 C 
ATOM     11  C23 ZIN A   1      17.713   0.388  16.803  0.00  0.00     0.012 C 
ATOM     12  C24 ZIN A   1      19.415   2.094  16.079  0.00  0.00     0.132 C 
ATOM     13  C27 ZIN A   1      18.353   3.025  15.483  0.00  0.00     0.081 C 
ATOM     14  C29 ZIN A   1      17.742   3.835  16.634  0.00  0.00     0.020 C 
ATOM     15  C30 ZIN A   1      19.003   3.964  14.498  0.00  0.00     0.143 C 
ATOM     16  O31 ZIN A   1      20.214   3.974  14.437  0.00  0.00    -0.297 OA
ATOM     17  C32 ZIN A   1      18.197   4.894  13.632  0.00  0.00     0.040 C 
ATOM     18  C33 ZIN A   1      16.743   4.426  13.552  0.00  0.00     0.026 C 
ATOM     19  C34 ZIN A   1      18.200   6.286  14.304  0.00  0.00     0.026 C 
ATOM     20  C35 ZIN A   1      18.797   5.066  12.245  0.00  0.00     0.142 C 
ATOM     21  C38 ZIN A   1      18.133   4.251  11.152  0.00  0.00     0.135 C 
ATOM     22  C39 ZIN A   1      18.656   2.839  11.111  0.00  0.00     0.220 C 
ATOM     23  O40 ZIN A   1      19.384   2.412  11.978  0.00  0.00    -0.274 OA
ATOM     24  N41 ZIN A   1      18.278   2.050  10.066  0.00  0.00    -0.353 N 
ATOM     25  H77 ZIN A   1      17.601   2.351   9.431  0.00  0.00     0.163 HD
ENDROOT
BRANCH   1  26
ATOM     26  C2  ZIN A   1      18.576   0.151   8.576  0.00  0.00    -0.059 C 
ATOM     27  C1  ZIN A   1      17.167   0.272   8.055  0.00  0.00     0.045 C 
ATOM     28  C3  ZIN A   1      19.497  -0.474   7.856  0.00  0.00     0.036 C 
BRANCH  28  29
ATOM     29  C4  ZIN A   1      19.112  -1.185   6.619  0.00  0.00     0.064 A 
ATOM     30  N9  ZIN A   1      18.659  -2.431   6.614  0.00  0.00    -0.246 NA
ATOM     31  C7  ZIN A   1      18.353  -2.941   5.472  0.00  0.00     0.071 A 
ATOM     32  S6  ZIN A   1      18.641  -1.816   4.217  0.00  0.00    -0.085 SA
ATOM     33  C8  ZIN A   1      17.821  -4.336   5.267  0.00  0.00     0.078 C 
ATOM     34  C5  ZIN A   1      19.195  -0.626   5.393  0.00  0.00     0.083 A 
ENDBRANCH  28  29
ENDBRANCH   1  26
BRANCH  20  35
ATOM     35  O37 ZIN A   1      20.206   4.815  12.250  0.00  0.00    -0.394 OA
ATOM     36  H74 ZIN A   1      20.578   4.679  13.133  0.00  0.00     0.210 HD
ENDBRANCH  20  35
BRANCH  12  37
ATOM     37  O26 ZIN A   1      19.612   2.441  17.457  0.00  0.00    -0.394 OA
ATOM     38  H64 ZIN A   1      19.967   1.722  17.996  0.00  0.00     0.210 HD
ENDBRANCH  12  37
TORSDOF 4
ENDMDL
MODEL 8
REMARK VINA RESULT:      -7.6      3.554      9.471
REMARK  4 active torsions:
REMARK  status: ('A' for Active; 'I' for Inactive)
REMARK    1  A    between atoms: C2_2  and  C10_10 
REMARK    2  A    between atoms: C3_3  and  C4_4 
REMARK    3  A    between atoms: C24_21  and  O26_22 
REMARK    4  A    between atoms: C35_30  and  O37_31 
ROOT
ATOM      1  C10 ZIN A   1      18.838  -0.581   8.795  0.00  0.00     0.115 C 
ATOM      2  C12 ZIN A   1      18.204  -1.412   9.914  0.00  0.00     0.064 C 
ATOM      3  C13 ZIN A   1      18.802  -2.822   9.894  0.00  0.00     0.159 A 
ATOM      4  O15 ZIN A   1      17.892  -3.922   9.950  0.00  0.00    -0.369 OA
ATOM      5  C16 ZIN A   1      18.638  -3.685  11.147  0.00  0.00     0.084 A 
ATOM      6  C17 ZIN A   1      19.753  -4.682  11.483  0.00  0.00     0.049 C 
ATOM      7  C18 ZIN A   1      17.896  -3.080  12.340  0.00  0.00     0.040 C 
ATOM      8  C19 ZIN A   1      18.874  -2.328  13.239  0.00  0.00     0.004 C 
ATOM      9  C20 ZIN A   1      18.412  -0.875  13.412  0.00  0.00     0.007 C 
ATOM     10  C21 ZIN A   1      18.635  -0.454  14.865  0.00  0.00     0.011 C 
ATOM     11  C23 ZIN A   1      17.313  -0.492  15.629  0.00  0.00     0.012 C 
ATOM     12  C24 ZIN A   1      19.262   0.934  14.923  0.00  0.00     0.132 C 
ATOM     13  C27 ZIN A   1      18.364   1.979  14.251  0.00  0.00     0.081 C 
ATOM     14  C29 ZIN A   1      17.826   2.909  15.346  0.00  0.00     0.020 C 
ATOM     15  C30 ZIN A   1      19.175   2.780  13.264  0.00  0.00     0.143 C 
ATOM     16  O31 ZIN A   1      20.377   2.621  13.255  0.00  0.00    -0.297 OA
ATOM     17  C32 ZIN A   1      18.539   3.778  12.333  0.00  0.00     0.040 C 
ATOM     18  C33 ZIN A   1      17.039   3.511  12.206  0.00  0.00     0.026 C 
ATOM     19  C34 ZIN A   1      18.709   5.181  12.958  0.00  0.00     0.026 C 
ATOM     20  C35 ZIN A   1      19.211   3.811  10.969  0.00  0.00     0.142 C 
ATOM     21  C38 ZIN A   1      18.482   3.053   9.875  0.00  0.00     0.135 C 
ATOM     22  C39 ZIN A   1      18.805   1.582   9.905  0.00  0.00     0.220 C 
ATOM     23  O40 ZIN A   1      19.433   1.094  10.816  0.00  0.00    -0.274 OA
ATOM     24  N41 ZIN A   1      18.362   0.813   8.871  0.00  0.00    -0.353 N 
ATOM     25  H77 ZIN A   1      17.757   1.179   8.198  0.00  0.00     0.163 HD
ENDROOT
BRANCH   1  26
ATOM     26  C2  ZIN A   1      18.450  -1.167   7.460  0.00  0.00    -0.059 C 
ATOM     27  C1  ZIN A   1      17.372  -0.512   6.635  0.00  0.00     0.045 C 
ATOM     28  C3  ZIN A   1      19.057  -2.257   7.012  0.00  0.00     0.036 C 
BRANCH  28  29
ATOM     29  C4  ZIN A   1      18.573  -2.921   5.783  0.00  0.00     0.064 A 
ATOM     30  N9  ZIN A   1      17.762  -3.970   5.801  0.00  0.00    -0.246 NA
ATOM     31  C7  ZIN A   1      17.408  -4.457   4.662  0.00  0.00     0.071 A 
ATOM     32  S6  ZIN A   1      18.126  -3.578   3.384  0.00  0.00    -0.085 SA
ATOM     33  C8  ZIN A   1      16.493  -5.640   4.481  0.00  0.00     0.078 C 
ATOM     34  C5  ZIN A   1      18.922  -2.516   4.543  0.00  0.00     0.083 A 
ENDBRANCH  28  29
ENDBRANCH   1  26
BRANCH  20  35
ATOM     35  O37 ZIN A   1      20.569   3.369  11.044  0.00  0.00    -0.394 OA
ATOM     36  H74 ZIN A   1      20.963   3.162  10.185  0.00  0.00     0.210 HD
ENDBRANCH  20  35
BRANCH  12  37
ATOM     37  O26 ZIN A   1      19.452   1.305  16.296  0.00  0.00    -0.394 OA
ATOM     38  H64 ZIN A   1      20.346   1.613  16.499  0.00  0.00     0.210 HD
ENDBRANCH  12  37
TORSDOF 4
ENDMDL
