MODEL 1
REMARK VINA RESULT:      -7.6      0.000      0.000
REMARK  1 active torsions:
REMARK  status: ('A' for Active; 'I' for Inactive)
REMARK    1  A    between atoms: O2_2  and  C3_3 
ROOT
ATOM      1  C3  ZIN A   1      19.395   3.539  11.723  0.00  0.00     0.102 A 
ATOM      2  C4  ZIN A   1      18.404   3.805  10.781  0.00  0.00     0.040 A 
ATOM      3  C5  ZIN A   1      17.709   2.812  10.107  0.00  0.00     0.011 A 
ATOM      4  C6  ZIN A   1      17.996   1.480  10.343  0.00  0.00    -0.046 A 
ATOM      5  C7  ZIN A   1      17.244   0.327   9.762  0.00  0.00     0.072 C 
ATOM      6  C8  ZIN A   1      17.778  -1.029  10.195  0.00  0.00     0.197 C 
ATOM      7  C10 ZIN A   1      18.380  -1.053  11.603  0.00  0.00     0.033 C 
ATOM      8  C12 ZIN A   1      17.343  -0.593  12.626  0.00  0.00     0.015 C 
ATOM      9  C13 ZIN A   1      17.966  -0.662  14.021  0.00  0.00     0.081 C 
ATOM     10  C14 ZIN A   1      19.212   0.170  14.070  0.00  0.00     0.157 C 
ATOM     11  O15 ZIN A   1      19.422   0.833  15.058  0.00  0.00    -0.295 OA
ATOM     12  C16 ZIN A   1      20.209   0.219  12.950  0.00  0.00     0.212 C 
ATOM     13  O18 ZIN A   1      20.593   1.616  12.772  0.00  0.00    -0.334 OA
ATOM     14  C19 ZIN A   1      19.699   2.195  11.965  0.00  0.00     0.111 A 
ATOM     15  C20 ZIN A   1      19.015   1.236  11.235  0.00  0.00    -0.003 A 
ATOM     16  C21 ZIN A   1      19.579  -0.117  11.604  0.00  0.00     0.031 C 
ATOM     17  C22 ZIN A   1      20.607  -0.548  10.561  0.00  0.00     0.045 C 
ATOM     18  C23 ZIN A   1      19.927  -0.573   9.188  0.00  0.00     0.236 C 
ATOM     19  N24 ZIN A   1      18.791  -1.505   9.246  0.00  0.00    -0.070 N 
ATOM     20  H25 ZIN A   1      19.127  -2.422   9.498  0.00  0.00     0.279 HD
ATOM     21  C26 ZIN A   1      18.151  -1.570   7.926  0.00  0.00     0.270 C 
ENDROOT
BRANCH   1  22
ATOM     22  O2  ZIN A   1      20.043   4.543  12.374  0.00  0.00    -0.353 OA
ATOM     23  C1  ZIN A   1      19.467   4.999  13.600  0.00  0.00     0.210 C 
ENDBRANCH   1  22
TORSDOF 1
ENDMDL
MODEL 2
REMARK VINA RESULT:      -7.4      2.660      5.286
REMARK  1 active torsions:
REMARK  status: ('A' for Active; 'I' for Inactive)
REMARK    1  A    between atoms: O2_2  and  C3_3 
ROOT
ATOM      1  C3  ZIN A   1      18.671  -2.387   9.852  0.00  0.00     0.102 A 
ATOM      2  C4  ZIN A   1      17.683  -2.767  10.757  0.00  0.00     0.040 A 
ATOM      3  C5  ZIN A   1      17.283  -1.975  11.823  0.00  0.00     0.011 A 
ATOM      4  C6  ZIN A   1      17.879  -0.747  12.039  0.00  0.00    -0.046 A 
ATOM      5  C7  ZIN A   1      17.458   0.237  13.082  0.00  0.00     0.072 C 
ATOM      6  C8  ZIN A   1      18.293   1.507  13.092  0.00  0.00     0.197 C 
ATOM      7  C10 ZIN A   1      18.825   1.928  11.720  0.00  0.00     0.033 C 
ATOM      8  C12 ZIN A   1      17.667   2.118  10.743  0.00  0.00     0.015 C 
ATOM      9  C13 ZIN A   1      18.231   2.570   9.394  0.00  0.00     0.081 C 
ATOM     10  C14 ZIN A   1      19.231   1.571   8.895  0.00  0.00     0.157 C 
ATOM     11  O15 ZIN A   1      19.232   1.297   7.718  0.00  0.00    -0.295 OA
ATOM     12  C16 ZIN A   1      20.229   0.893   9.787  0.00  0.00     0.212 C 
ATOM     13  O18 ZIN A   1      20.263  -0.516   9.408  0.00  0.00    -0.334 OA
ATOM     14  C19 ZIN A   1      19.288  -1.149  10.065  0.00  0.00     0.111 A 
ATOM     15  C20 ZIN A   1      18.890  -0.410  11.169  0.00  0.00    -0.003 A 
ATOM     16  C21 ZIN A   1      19.755   0.827  11.234  0.00  0.00     0.031 C 
ATOM     17  C22 ZIN A   1      20.899   0.605  12.220  0.00  0.00     0.045 C 
ATOM     18  C23 ZIN A   1      20.301   0.258  13.588  0.00  0.00     0.236 C 
ATOM     19  N24 ZIN A   1      19.428   1.365  14.010  0.00  0.00    -0.070 N 
ATOM     20  H25 ZIN A   1      19.970   2.215  14.059  0.00  0.00     0.279 HD
ATOM     21  C26 ZIN A   1      18.877   1.066  15.339  0.00  0.00     0.270 C 
ENDROOT
BRANCH   1  22
ATOM     22  O2  ZIN A   1      19.025  -3.188   8.810  0.00  0.00    -0.353 OA
ATOM     23  C1  ZIN A   1      18.448  -2.889   7.537  0.00  0.00     0.210 C 
ENDBRANCH   1  22
TORSDOF 1
ENDMDL
MODEL 3
REMARK VINA RESULT:      -7.0      1.908      4.250
REMARK  1 active torsions:
REMARK  status: ('A' for Active; 'I' for Inactive)
REMARK    1  A    between atoms: O2_2  and  C3_3 
ROOT
ATOM      1  C3  ZIN A   1      18.250   0.342  15.976  0.00  0.00     0.102 A 
ATOM      2  C4  ZIN A   1      18.948  -0.850  16.145  0.00  0.00     0.040 A 
ATOM      3  C5  ZIN A   1      19.433  -1.605  15.087  0.00  0.00     0.011 A 
ATOM      4  C6  ZIN A   1      19.221  -1.192  13.785  0.00  0.00    -0.046 A 
ATOM      5  C7  ZIN A   1      19.787  -1.859  12.573  0.00  0.00     0.072 C 
ATOM      6  C8  ZIN A   1      19.390  -1.189  11.268  0.00  0.00     0.197 C 
ATOM      7  C10 ZIN A   1      19.193   0.327  11.368  0.00  0.00     0.033 C 
ATOM      8  C12 ZIN A   1      20.469   0.990  11.883  0.00  0.00     0.015 C 
ATOM      9  C13 ZIN A   1      20.249   2.502  11.937  0.00  0.00     0.081 C 
ATOM     10  C14 ZIN A   1      19.063   2.819  12.798  0.00  0.00     0.157 C 
ATOM     11  O15 ZIN A   1      19.129   3.769  13.541  0.00  0.00    -0.295 OA
ATOM     12  C16 ZIN A   1      17.799   2.010  12.782  0.00  0.00     0.212 C 
ATOM     13  O18 ZIN A   1      17.382   1.829  14.168  0.00  0.00    -0.334 OA
ATOM     14  C19 ZIN A   1      18.023   0.767  14.662  0.00  0.00     0.111 A 
ATOM     15  C20 ZIN A   1      18.483  -0.041  13.634  0.00  0.00    -0.003 A 
ATOM     16  C21 ZIN A   1      18.040   0.575  12.327  0.00  0.00     0.031 C 
ATOM     17  C22 ZIN A   1      16.767  -0.111  11.839  0.00  0.00     0.045 C 
ATOM     18  C23 ZIN A   1      17.049  -1.610  11.692  0.00  0.00     0.236 C 
ATOM     19  N24 ZIN A   1      18.158  -1.786  10.741  0.00  0.00    -0.070 N 
ATOM     20  H25 ZIN A   1      17.902  -1.379   9.854  0.00  0.00     0.279 HD
ATOM     21  C26 ZIN A   1      18.415  -3.221  10.559  0.00  0.00     0.270 C 
ENDROOT
BRANCH   1  22
ATOM     22  O2  ZIN A   1      17.803   1.061  17.042  0.00  0.00    -0.353 OA
ATOM     23  C1  ZIN A   1      18.175   0.594  18.340  0.00  0.00     0.210 C 
ENDBRANCH   1  22
TORSDOF 1
ENDMDL
MODEL 4
REMARK VINA RESULT:      -7.0      3.110      5.074
REMARK  1 active torsions:
REMARK  status: ('A' for Active; 'I' for Inactive)
REMARK    1  A    between atoms: O2_2  and  C3_3 
ROOT
ATOM      1  C3  ZIN A   1      18.201  -0.161   7.118  0.00  0.00     0.102 A 
ATOM      2  C4  ZIN A   1      18.882   1.047   6.987  0.00  0.00     0.040 A 
ATOM      3  C5  ZIN A   1      19.375   1.764   8.067  0.00  0.00     0.011 A 
ATOM      4  C6  ZIN A   1      19.189   1.296   9.355  0.00  0.00    -0.046 A 
ATOM      5  C7  ZIN A   1      19.766   1.921  10.584  0.00  0.00     0.072 C 
ATOM      6  C8  ZIN A   1      19.398   1.193  11.866  0.00  0.00     0.197 C 
ATOM      7  C10 ZIN A   1      19.218  -0.320  11.708  0.00  0.00     0.033 C 
ATOM      8  C12 ZIN A   1      20.494  -0.945  11.147  0.00  0.00     0.015 C 
ATOM      9  C13 ZIN A   1      20.291  -2.457  11.034  0.00  0.00     0.081 C 
ATOM     10  C14 ZIN A   1      19.096  -2.753  10.180  0.00  0.00     0.157 C 
ATOM     11  O15 ZIN A   1      19.161  -3.671   9.398  0.00  0.00    -0.295 OA
ATOM     12  C16 ZIN A   1      17.823  -1.963  10.249  0.00  0.00     0.212 C 
ATOM     13  O18 ZIN A   1      17.381  -1.731   8.877  0.00  0.00    -0.334 OA
ATOM     14  C19 ZIN A   1      18.001  -0.641   8.417  0.00  0.00     0.111 A 
ATOM     15  C20 ZIN A   1      18.467   0.130   9.471  0.00  0.00    -0.003 A 
ATOM     16  C21 ZIN A   1      18.053  -0.544  10.758  0.00  0.00     0.031 C 
ATOM     17  C22 ZIN A   1      16.780   0.105  11.293  0.00  0.00     0.045 C 
ATOM     18  C23 ZIN A   1      17.045   1.601  11.497  0.00  0.00     0.236 C 
ATOM     19  N24 ZIN A   1      18.168   1.752  12.437  0.00  0.00    -0.070 N 
ATOM     20  H25 ZIN A   1      17.931   1.307  13.310  0.00  0.00     0.279 HD
ATOM     21  C26 ZIN A   1      18.410   3.182  12.673  0.00  0.00     0.270 C 
ENDROOT
BRANCH   1  22
ATOM     22  O2  ZIN A   1      17.747  -0.841   6.031  0.00  0.00    -0.353 OA
ATOM     23  C1  ZIN A   1      18.339  -0.521   4.771  0.00  0.00     0.210 C 
ENDBRANCH   1  22
TORSDOF 1
ENDMDL
MODEL 5
REMARK VINA RESULT:      -6.9      3.434      6.171
REMARK  1 active torsions:
REMARK  status: ('A' for Active; 'I' for Inactive)
REMARK    1  A    between atoms: O2_2  and  C3_3 
ROOT
ATOM      1  C3  ZIN A   1      18.400  -4.320   9.566  0.00  0.00     0.102 A 
ATOM      2  C4  ZIN A   1      17.635  -4.325  10.729  0.00  0.00     0.040 A 
ATOM      3  C5  ZIN A   1      17.313  -3.174  11.433  0.00  0.00     0.011 A 
ATOM      4  C6  ZIN A   1      17.768  -1.943  10.999  0.00  0.00    -0.046 A 
ATOM      5  C7  ZIN A   1      17.397  -0.630  11.608  0.00  0.00     0.072 C 
ATOM      6  C8  ZIN A   1      18.045   0.563  10.924  0.00  0.00     0.197 C 
ATOM      7  C10 ZIN A   1      18.283   0.381   9.422  0.00  0.00     0.033 C 
ATOM      8  C12 ZIN A   1      16.965   0.075   8.714  0.00  0.00     0.015 C 
ATOM      9  C13 ZIN A   1      17.233  -0.067   7.215  0.00  0.00     0.081 C 
ATOM     10  C14 ZIN A   1      18.261  -1.131   6.975  0.00  0.00     0.157 C 
ATOM     11  O15 ZIN A   1      18.104  -1.882   6.042  0.00  0.00    -0.295 OA
ATOM     12  C16 ZIN A   1      19.474  -1.310   7.840  0.00  0.00     0.212 C 
ATOM     13  O18 ZIN A   1      19.633  -2.741   8.075  0.00  0.00    -0.334 OA
ATOM     14  C19 ZIN A   1      18.872  -3.080   9.119  0.00  0.00     0.111 A 
ATOM     15  C20 ZIN A   1      18.568  -1.961   9.879  0.00  0.00    -0.003 A 
ATOM     16  C21 ZIN A   1      19.258  -0.773   9.251  0.00  0.00     0.031 C 
ATOM     17  C22 ZIN A   1      20.569  -0.492   9.983  0.00  0.00     0.045 C 
ATOM     18  C23 ZIN A   1      20.256  -0.249  11.463  0.00  0.00     0.236 C 
ATOM     19  N24 ZIN A   1      19.325   0.886  11.564  0.00  0.00    -0.070 N 
ATOM     20  H25 ZIN A   1      19.749   1.701  11.147  0.00  0.00     0.279 HD
ATOM     21  C26 ZIN A   1      19.046   1.158  12.980  0.00  0.00     0.270 C 
ENDROOT
BRANCH   1  22
ATOM     22  O2  ZIN A   1      18.681  -5.471   8.896  0.00  0.00    -0.353 OA
ATOM     23  C1  ZIN A   1      19.999  -6.003   9.046  0.00  0.00     0.210 C 
ENDBRANCH   1  22
TORSDOF 1
ENDMDL
MODEL 6
REMARK VINA RESULT:      -6.9      2.706      5.157
REMARK  1 active torsions:
REMARK  status: ('A' for Active; 'I' for Inactive)
REMARK    1  A    between atoms: O2_2  and  C3_3 
ROOT
ATOM      1  C3  ZIN A   1      17.357  -3.945  10.719  0.00  0.00     0.102 A 
ATOM      2  C4  ZIN A   1      17.976  -4.457   9.582  0.00  0.00     0.040 A 
ATOM      3  C5  ZIN A   1      18.708  -3.678   8.698  0.00  0.00     0.011 A 
ATOM      4  C6  ZIN A   1      18.841  -2.319   8.914  0.00  0.00    -0.046 A 
ATOM      5  C7  ZIN A   1      19.692  -1.401   8.097  0.00  0.00     0.072 C 
ATOM      6  C8  ZIN A   1      19.649   0.045   8.563  0.00  0.00     0.197 C 
ATOM      7  C10 ZIN A   1      19.449   0.219  10.071  0.00  0.00     0.033 C 
ATOM      8  C12 ZIN A   1      20.557  -0.503  10.835  0.00  0.00     0.015 C 
ATOM      9  C13 ZIN A   1      20.346  -0.279  12.334  0.00  0.00     0.081 C 
ATOM     10  C14 ZIN A   1      18.983  -0.754  12.738  0.00  0.00     0.157 C 
ATOM     11  O15 ZIN A   1      18.866  -1.344  13.785  0.00  0.00    -0.295 OA
ATOM     12  C16 ZIN A   1      17.757  -0.534  11.901  0.00  0.00     0.212 C 
ATOM     13  O18 ZIN A   1      16.997  -1.779  11.909  0.00  0.00    -0.334 OA
ATOM     14  C19 ZIN A   1      17.478  -2.569  10.945  0.00  0.00     0.111 A 
ATOM     15  C20 ZIN A   1      18.178  -1.820  10.012  0.00  0.00    -0.003 A 
ATOM     16  C21 ZIN A   1      18.091  -0.368  10.423  0.00  0.00     0.031 C 
ATOM     17  C22 ZIN A   1      16.979   0.324   9.640  0.00  0.00     0.045 C 
ATOM     18  C23 ZIN A   1      17.273   0.175   8.143  0.00  0.00     0.236 C 
ATOM     19  N24 ZIN A   1      18.587   0.776   7.864  0.00  0.00    -0.070 N 
ATOM     20  H25 ZIN A   1      18.571   1.748   8.133  0.00  0.00     0.279 HD
ATOM     21  C26 ZIN A   1      18.867   0.677   6.425  0.00  0.00     0.270 C 
ENDROOT
BRANCH   1  22
ATOM     22  O2  ZIN A   1      16.660  -4.746  11.570  0.00  0.00    -0.353 OA
ATOM     23  C1  ZIN A   1      17.388  -5.786  12.224  0.00  0.00     0.210 C 
ENDBRANCH   1  22
TORSDOF 1
ENDMDL
MODEL 7
REMARK VINA RESULT:      -6.8      3.592      5.417
REMARK  1 active torsions:
REMARK  status: ('A' for Active; 'I' for Inactive)
REMARK    1  A    between atoms: O2_2  and  C3_3 
ROOT
ATOM      1  C3  ZIN A   1      18.551  -1.264   7.742  0.00  0.00     0.102 A 
ATOM      2  C4  ZIN A   1      19.444  -0.202   7.860  0.00  0.00     0.040 A 
ATOM      3  C5  ZIN A   1      20.005   0.190   9.065  0.00  0.00     0.011 A 
ATOM      4  C6  ZIN A   1      19.677  -0.472  10.234  0.00  0.00    -0.046 A 
ATOM      5  C7  ZIN A   1      20.298  -0.214  11.568  0.00  0.00     0.072 C 
ATOM      6  C8  ZIN A   1      19.743  -1.092  12.678  0.00  0.00     0.197 C 
ATOM      7  C10 ZIN A   1      19.301  -2.485  12.223  0.00  0.00     0.033 C 
ATOM      8  C12 ZIN A   1      20.468  -3.218  11.564  0.00  0.00     0.015 C 
ATOM      9  C13 ZIN A   1      20.002  -4.616  11.154  0.00  0.00     0.081 C 
ATOM     10  C14 ZIN A   1      18.815  -4.515  10.244  0.00  0.00     0.157 C 
ATOM     11  O15 ZIN A   1      18.751  -5.263   9.297  0.00  0.00    -0.295 OA
ATOM     12  C16 ZIN A   1      17.703  -3.529  10.452  0.00  0.00     0.212 C 
ATOM     13  O18 ZIN A   1      17.377  -2.961   9.148  0.00  0.00    -0.334 OA
ATOM     14  C19 ZIN A   1      18.204  -1.938   8.919  0.00  0.00     0.111 A 
ATOM     15  C20 ZIN A   1      18.752  -1.484  10.109  0.00  0.00    -0.003 A 
ATOM     16  C21 ZIN A   1      18.162  -2.303  11.233  0.00  0.00     0.031 C 
ATOM     17  C22 ZIN A   1      17.002  -1.542  11.871  0.00  0.00     0.045 C 
ATOM     18  C23 ZIN A   1      17.523  -0.189  12.369  0.00  0.00     0.236 C 
ATOM     19  N24 ZIN A   1      18.608  -0.432  13.333  0.00  0.00    -0.070 N 
ATOM     20  H25 ZIN A   1      18.253  -0.985  14.098  0.00  0.00     0.279 HD
ATOM     21  C26 ZIN A   1      19.093   0.855  13.849  0.00  0.00     0.270 C 
ENDROOT
BRANCH   1  22
ATOM     22  O2  ZIN A   1      18.033  -1.627   6.537  0.00  0.00    -0.353 OA
ATOM     23  C1  ZIN A   1      17.738  -0.576   5.615  0.00  0.00     0.210 C 
ENDBRANCH   1  22
TORSDOF 1
ENDMDL
MODEL 8
REMARK VINA RESULT:      -6.7      1.787      3.675
REMARK  1 active torsions:
REMARK  status: ('A' for Active; 'I' for Inactive)
REMARK    1  A    between atoms: O2_2  and  C3_3 
ROOT
ATOM      1  C3  ZIN A   1      18.648   2.135  13.750  0.00  0.00     0.102 A 
ATOM      2  C4  ZIN A   1      19.646   1.320  14.276  0.00  0.00     0.040 A 
ATOM      3  C5  ZIN A   1      20.146   0.207  13.618  0.00  0.00     0.011 A 
ATOM      4  C6  ZIN A   1      19.645  -0.153  12.380  0.00  0.00    -0.046 A 
ATOM      5  C7  ZIN A   1      20.176  -1.260  11.530  0.00  0.00     0.072 C 
ATOM      6  C8  ZIN A   1      19.431  -1.430  10.216  0.00  0.00     0.197 C 
ATOM      7  C10 ZIN A   1      18.869  -0.131   9.633  0.00  0.00     0.033 C 
ATOM      8  C12 ZIN A   1      19.993   0.880   9.423  0.00  0.00     0.015 C 
ATOM      9  C13 ZIN A   1      19.403   2.151   8.809  0.00  0.00     0.081 C 
ATOM     10  C14 ZIN A   1      18.317   2.691   9.690  0.00  0.00     0.157 C 
ATOM     11  O15 ZIN A   1      18.246   3.887   9.849  0.00  0.00    -0.295 OA
ATOM     12  C16 ZIN A   1      17.315   1.817  10.386  0.00  0.00     0.212 C 
ATOM     13  O18 ZIN A   1      17.169   2.323  11.747  0.00  0.00    -0.334 OA
ATOM     14  C19 ZIN A   1      18.127   1.778  12.501  0.00  0.00     0.111 A 
ATOM     15  C20 ZIN A   1      18.621   0.631  11.899  0.00  0.00    -0.003 A 
ATOM     16  C21 ZIN A   1      17.846   0.408  10.621  0.00  0.00     0.031 C 
ATOM     17  C22 ZIN A   1      16.734  -0.609  10.864  0.00  0.00     0.045 C 
ATOM     18  C23 ZIN A   1      17.366  -1.908  11.377  0.00  0.00     0.236 C 
ATOM     19  N24 ZIN A   1      18.330  -2.387  10.374  0.00  0.00    -0.070 N 
ATOM     20  H25 ZIN A   1      17.849  -2.541   9.501  0.00  0.00     0.279 HD
ATOM     21  C26 ZIN A   1      18.917  -3.653  10.834  0.00  0.00     0.270 C 
ENDROOT
BRANCH   1  22
ATOM     22  O2  ZIN A   1      18.195   3.229  14.422  0.00  0.00    -0.353 OA
ATOM     23  C1  ZIN A   1      18.797   4.483  14.099  0.00  0.00     0.210 C 
ENDBRANCH   1  22
TORSDOF 1
ENDMDL
MODEL 9
REMARK VINA RESULT:      -6.7      4.064      6.270
REMARK  1 active torsions:
REMARK  status: ('A' for Active; 'I' for Inactive)
REMARK    1  A    between atoms: O2_2  and  C3_3 
ROOT
ATOM      1  C3  ZIN A   1      19.238  -0.797   8.930  0.00  0.00     0.102 A 
ATOM      2  C4  ZIN A   1      19.749  -0.761  10.225  0.00  0.00     0.040 A 
ATOM      3  C5  ZIN A   1      19.827  -1.878  11.044  0.00  0.00     0.011 A 
ATOM      4  C6  ZIN A   1      19.372  -3.103  10.594  0.00  0.00    -0.046 A 
ATOM      5  C7  ZIN A   1      19.503  -4.392  11.339  0.00  0.00     0.072 C 
ATOM      6  C8  ZIN A   1      18.913  -5.583  10.603  0.00  0.00     0.197 C 
ATOM      7  C10 ZIN A   1      19.000  -5.493   9.077  0.00  0.00     0.033 C 
ATOM      8  C12 ZIN A   1      20.455  -5.329   8.643  0.00  0.00     0.015 C 
ATOM      9  C13 ZIN A   1      20.509  -5.277   7.115  0.00  0.00     0.081 C 
ATOM     10  C14 ZIN A   1      19.641  -4.165   6.608  0.00  0.00     0.157 C 
ATOM     11  O15 ZIN A   1      20.044  -3.494   5.687  0.00  0.00    -0.295 OA
ATOM     12  C16 ZIN A   1      18.296  -3.843   7.191  0.00  0.00     0.212 C 
ATOM     13  O18 ZIN A   1      18.209  -2.391   7.307  0.00  0.00    -0.334 OA
ATOM     14  C19 ZIN A   1      18.767  -2.031   8.466  0.00  0.00     0.111 A 
ATOM     15  C20 ZIN A   1      18.820  -3.111   9.333  0.00  0.00    -0.003 A 
ATOM     16  C21 ZIN A   1      18.177  -4.291   8.643  0.00  0.00     0.031 C 
ATOM     17  C22 ZIN A   1      16.727  -4.429   9.101  0.00  0.00     0.045 C 
ATOM     18  C23 ZIN A   1      16.712  -4.587  10.625  0.00  0.00     0.236 C 
ATOM     19  N24 ZIN A   1      17.508  -5.772  10.980  0.00  0.00    -0.070 N 
ATOM     20  H25 ZIN A   1      17.112  -6.584  10.531  0.00  0.00     0.279 HD
ATOM     21  C26 ZIN A   1      17.471  -5.960  12.437  0.00  0.00     0.270 C 
ENDROOT
BRANCH   1  22
ATOM     22  O2  ZIN A   1      19.193   0.319   8.153  0.00  0.00    -0.353 OA
ATOM     23  C1  ZIN A   1      19.334   1.577   8.816  0.00  0.00     0.210 C 
ENDBRANCH   1  22
TORSDOF 1
ENDMDL
