MODEL 1
REMARK VINA RESULT:      -4.0      0.000      0.000
REMARK  4 active torsions:
REMARK  status: ('A' for Active; 'I' for Inactive)
REMARK       I    between atoms: C2_2  and  N4_4 
REMARK    1  A    between atoms: N4_4  and  C5_5 
REMARK    2  A    between atoms: C5_5  and  C7_6 
REMARK    3  A    between atoms: C5_5  and  C9_8 
REMARK    4  A    between atoms: C7_6  and  S8_7 
ROOT
ATOM      1  C5  <0> d   1      19.242  -0.856   6.580  0.00  0.00     0.194 C 
ENDROOT
BRANCH   1   2
ATOM      2  N4  <0> d   1      18.875   0.445   7.143  0.00  0.00    -0.346 N 
ATOM      3  C2  <0> d   1      19.334   0.808   8.357  0.00  0.00     0.214 C 
ATOM      4  C1  <0> d   1      18.957   2.147   8.936  0.00  0.00     0.117 C 
ATOM      5  O3  <0> d   1      20.052   0.057   8.983  0.00  0.00    -0.274 OA
ATOM      6  H15 <0> d   1      18.301   1.046   6.643  0.00  0.00     0.163 HD
ENDBRANCH   1   2
BRANCH   1   7
ATOM      7  C7  <0> d   1      18.141  -1.874   6.886  0.00  0.00     0.106 C 
BRANCH   7   8
ATOM      8  S8  <0> d   1      18.835  -3.240   7.856  0.00  0.00    -0.180 SA
ATOM      9  H18 <0> d   1      19.982  -3.518   7.210  0.00  0.00     0.101 HD
ENDBRANCH   7   8
ENDBRANCH   1   7
BRANCH   1  10
ATOM     10  C9  <0> d   1      19.407  -0.729   5.087  0.00  0.00     0.197 C 
ATOM     11  O10 <0> d   1      19.234   0.349   4.544  0.00  0.00    -0.646 OA
ATOM     12  O11 <0> d   1      19.712  -1.705   4.423  0.00  0.00    -0.646 OA
ENDBRANCH   1  10
TORSDOF 4
ENDMDL
MODEL 2
REMARK VINA RESULT:      -3.9      4.643      6.587
REMARK  4 active torsions:
REMARK  status: ('A' for Active; 'I' for Inactive)
REMARK       I    between atoms: C2_2  and  N4_4 
REMARK    1  A    between atoms: N4_4  and  C5_5 
REMARK    2  A    between atoms: C5_5  and  C7_6 
REMARK    3  A    between atoms: C5_5  and  C9_8 
REMARK    4  A    between atoms: C7_6  and  S8_7 
ROOT
ATOM      1  C5  <0> d   1      18.092   3.547  11.009  0.00  0.00     0.194 C 
ENDROOT
BRANCH   1   2
ATOM      2  N4  <0> d   1      18.801   3.104   9.806  0.00  0.00    -0.346 N 
ATOM      3  C2  <0> d   1      18.534   1.896   9.273  0.00  0.00     0.214 C 
ATOM      4  C1  <0> d   1      19.264   1.441   8.035  0.00  0.00     0.117 C 
ATOM      5  O3  <0> d   1      17.707   1.174   9.788  0.00  0.00    -0.274 OA
ATOM      6  H15 <0> d   1      19.464   3.680   9.394  0.00  0.00     0.163 HD
ENDBRANCH   1   2
BRANCH   1   7
ATOM      7  C7  <0> d   1      19.104   4.027  12.051  0.00  0.00     0.106 C 
BRANCH   7   8
ATOM      8  S8  <0> d   1      18.538   3.552  13.707  0.00  0.00    -0.180 SA
ATOM      9  H18 <0> d   1      19.142   4.451  14.503  0.00  0.00     0.101 HD
ENDBRANCH   7   8
ENDBRANCH   1   7
BRANCH   1  10
ATOM     10  C9  <0> d   1      17.160   4.677  10.655  0.00  0.00     0.197 C 
ATOM     11  O10 <0> d   1      16.093   4.790  11.233  0.00  0.00    -0.646 OA
ATOM     12  O11 <0> d   1      17.474   5.478   9.791  0.00  0.00    -0.646 OA
ENDBRANCH   1  10
TORSDOF 4
ENDMDL
MODEL 3
REMARK VINA RESULT:      -3.8      3.841      5.444
REMARK  4 active torsions:
REMARK  status: ('A' for Active; 'I' for Inactive)
REMARK       I    between atoms: C2_2  and  N4_4 
REMARK    1  A    between atoms: N4_4  and  C5_5 
REMARK    2  A    between atoms: C5_5  and  C7_6 
REMARK    3  A    between atoms: C5_5  and  C9_8 
REMARK    4  A    between atoms: C7_6  and  S8_7 
ROOT
ATOM      1  C5  <0> d   1      18.351   0.220  11.423  0.00  0.00     0.194 C 
ENDROOT
BRANCH   1   2
ATOM      2  N4  <0> d   1      18.328   1.041  10.212  0.00  0.00    -0.346 N 
ATOM      3  C2  <0> d   1      19.219   0.815   9.226  0.00  0.00     0.214 C 
ATOM      4  C1  <0> d   1      19.195   1.660   7.978  0.00  0.00     0.117 C 
ATOM      5  O3  <0> d   1      20.041  -0.070   9.343  0.00  0.00    -0.274 OA
ATOM      6  H15 <0> d   1      17.672   1.749  10.117  0.00  0.00     0.163 HD
ENDBRANCH   1   2
BRANCH   1   7
ATOM      7  C7  <0> d   1      18.596   1.113  12.641  0.00  0.00     0.106 C 
BRANCH   7   8
ATOM      8  S8  <0> d   1      19.783   0.309  13.752  0.00  0.00    -0.180 SA
ATOM      9  H18 <0> d   1      20.511  -0.453  12.917  0.00  0.00     0.101 HD
ENDBRANCH   7   8
ENDBRANCH   1   7
BRANCH   1  10
ATOM     10  C9  <0> d   1      17.029  -0.487  11.577  0.00  0.00     0.197 C 
ATOM     11  O10 <0> d   1      15.990   0.147  11.529  0.00  0.00    -0.646 OA
ATOM     12  O11 <0> d   1      17.000  -1.694  11.750  0.00  0.00    -0.646 OA
ENDBRANCH   1  10
TORSDOF 4
ENDMDL
MODEL 4
REMARK VINA RESULT:      -3.8      5.156      5.885
REMARK  4 active torsions:
REMARK  status: ('A' for Active; 'I' for Inactive)
REMARK       I    between atoms: C2_2  and  N4_4 
REMARK    1  A    between atoms: N4_4  and  C5_5 
REMARK    2  A    between atoms: C5_5  and  C7_6 
REMARK    3  A    between atoms: C5_5  and  C9_8 
REMARK    4  A    between atoms: C7_6  and  S8_7 
ROOT
ATOM      1  C5  <0> d   1      18.127   0.601  11.346  0.00  0.00     0.194 C 
ENDROOT
BRANCH   1   2
ATOM      2  N4  <0> d   1      17.689   1.998  11.349  0.00  0.00    -0.346 N 
ATOM      3  C2  <0> d   1      18.091   2.832  10.369  0.00  0.00     0.214 C 
ATOM      4  C1  <0> d   1      17.640   4.270  10.371  0.00  0.00     0.117 C 
ATOM      5  O3  <0> d   1      18.816   2.425   9.485  0.00  0.00    -0.274 OA
ATOM      6  H15 <0> d   1      17.110   2.324  12.055  0.00  0.00     0.163 HD
ENDBRANCH   1   2
BRANCH   1   7
ATOM      7  C7  <0> d   1      19.165   0.389  12.450  0.00  0.00     0.106 C 
BRANCH   7   8
ATOM      8  S8  <0> d   1      18.611   1.212  13.968  0.00  0.00    -0.180 SA
ATOM      9  H18 <0> d   1      17.950   0.237  14.616  0.00  0.00     0.101 HD
ENDBRANCH   7   8
ENDBRANCH   1   7
BRANCH   1  10
ATOM     10  C9  <0> d   1      16.942  -0.298  11.593  0.00  0.00     0.197 C 
ATOM     11  O10 <0> d   1      17.115  -1.473  11.867  0.00  0.00    -0.646 OA
ATOM     12  O11 <0> d   1      15.811   0.151  11.518  0.00  0.00    -0.646 OA
ENDBRANCH   1  10
TORSDOF 4
ENDMDL
MODEL 5
REMARK VINA RESULT:      -3.8      6.108      7.211
REMARK  4 active torsions:
REMARK  status: ('A' for Active; 'I' for Inactive)
REMARK       I    between atoms: C2_2  and  N4_4 
REMARK    1  A    between atoms: N4_4  and  C5_5 
REMARK    2  A    between atoms: C5_5  and  C7_6 
REMARK    3  A    between atoms: C5_5  and  C9_8 
REMARK    4  A    between atoms: C7_6  and  S8_7 
ROOT
ATOM      1  C5  <0> d   1      17.724   0.455  13.032  0.00  0.00     0.194 C 
ENDROOT
BRANCH   1   2
ATOM      2  N4  <0> d   1      18.438  -0.453  13.932  0.00  0.00    -0.346 N 
ATOM      3  C2  <0> d   1      18.129  -0.482  15.244  0.00  0.00     0.214 C 
ATOM      4  C1  <0> d   1      18.863  -1.417  16.170  0.00  0.00     0.117 C 
ATOM      5  O3  <0> d   1      17.259   0.244  15.678  0.00  0.00    -0.274 OA
ATOM      6  H15 <0> d   1      19.133  -1.033  13.585  0.00  0.00     0.163 HD
ENDBRANCH   1   2
BRANCH   1   7
ATOM      7  C7  <0> d   1      18.734   1.291  12.244  0.00  0.00     0.106 C 
BRANCH   7   8
ATOM      8  S8  <0> d   1      20.343   0.452  12.241  0.00  0.00    -0.180 SA
ATOM      9  H18 <0> d   1      21.216   1.473  12.189  0.00  0.00     0.101 HD
ENDBRANCH   7   8
ENDBRANCH   1   7
BRANCH   1  10
ATOM     10  C9  <0> d   1      16.881  -0.347  12.074  0.00  0.00     0.197 C 
ATOM     11  O10 <0> d   1      17.101  -1.535  11.916  0.00  0.00    -0.646 OA
ATOM     12  O11 <0> d   1      15.978   0.193  11.457  0.00  0.00    -0.646 OA
ENDBRANCH   1  10
TORSDOF 4
ENDMDL
MODEL 6
REMARK VINA RESULT:      -3.8      3.226      3.984
REMARK  4 active torsions:
REMARK  status: ('A' for Active; 'I' for Inactive)
REMARK       I    between atoms: C2_2  and  N4_4 
REMARK    1  A    between atoms: N4_4  and  C5_5 
REMARK    2  A    between atoms: C5_5  and  C7_6 
REMARK    3  A    between atoms: C5_5  and  C9_8 
REMARK    4  A    between atoms: C7_6  and  S8_7 
ROOT
ATOM      1  C5  <0> d   1      18.946  -2.469   7.738  0.00  0.00     0.194 C 
ENDROOT
BRANCH   1   2
ATOM      2  N4  <0> d   1      19.520  -3.174   8.885  0.00  0.00    -0.346 N 
ATOM      3  C2  <0> d   1      18.711  -3.784   9.775  0.00  0.00     0.214 C 
ATOM      4  C1  <0> d   1      19.302  -4.511  10.956  0.00  0.00     0.117 C 
ATOM      5  O3  <0> d   1      17.508  -3.749   9.624  0.00  0.00    -0.274 OA
ATOM      6  H15 <0> d   1      20.482  -3.202   9.006  0.00  0.00     0.163 HD
ENDBRANCH   1   2
BRANCH   1   7
ATOM      7  C7  <0> d   1      19.074  -0.959   7.950  0.00  0.00     0.106 C 
BRANCH   7   8
ATOM      8  S8  <0> d   1      17.420  -0.223   8.068  0.00  0.00    -0.180 SA
ATOM      9  H18 <0> d   1      17.682   1.079   8.279  0.00  0.00     0.101 HD
ENDBRANCH   7   8
ENDBRANCH   1   7
BRANCH   1  10
ATOM     10  C9  <0> d   1      19.684  -2.863   6.485  0.00  0.00     0.197 C 
ATOM     11  O10 <0> d   1      20.356  -3.880   6.468  0.00  0.00    -0.646 OA
ATOM     12  O11 <0> d   1      19.610  -2.165   5.488  0.00  0.00    -0.646 OA
ENDBRANCH   1  10
TORSDOF 4
ENDMDL
MODEL 7
REMARK VINA RESULT:      -3.7      3.964      5.004
REMARK  4 active torsions:
REMARK  status: ('A' for Active; 'I' for Inactive)
REMARK       I    between atoms: C2_2  and  N4_4 
REMARK    1  A    between atoms: N4_4  and  C5_5 
REMARK    2  A    between atoms: C5_5  and  C7_6 
REMARK    3  A    between atoms: C5_5  and  C9_8 
REMARK    4  A    between atoms: C7_6  and  S8_7 
ROOT
ATOM      1  C5  <0> d   1      17.944   1.517   9.972  0.00  0.00     0.194 C 
ENDROOT
BRANCH   1   2
ATOM      2  N4  <0> d   1      18.259   0.696  11.143  0.00  0.00    -0.346 N 
ATOM      3  C2  <0> d   1      17.275   0.036  11.788  0.00  0.00     0.214 C 
ATOM      4  C1  <0> d   1      17.599  -0.809  12.992  0.00  0.00     0.117 C 
ATOM      5  O3  <0> d   1      16.130   0.124  11.398  0.00  0.00    -0.274 OA
ATOM      6  H15 <0> d   1      19.174   0.626  11.455  0.00  0.00     0.163 HD
ENDBRANCH   1   2
BRANCH   1   7
ATOM      7  C7  <0> d   1      17.953   2.995  10.368  0.00  0.00     0.106 C 
BRANCH   7   8
ATOM      8  S8  <0> d   1      19.328   3.307  11.509  0.00  0.00    -0.180 SA
ATOM      9  H18 <0> d   1      19.468   4.643  11.457  0.00  0.00     0.101 HD
ENDBRANCH   7   8
ENDBRANCH   1   7
BRANCH   1  10
ATOM     10  C9  <0> d   1      18.975   1.278   8.899  0.00  0.00     0.197 C 
ATOM     11  O10 <0> d   1      19.124   2.093   8.005  0.00  0.00    -0.646 OA
ATOM     12  O11 <0> d   1      19.659   0.269   8.925  0.00  0.00    -0.646 OA
ENDBRANCH   1  10
TORSDOF 4
ENDMDL
MODEL 8
REMARK VINA RESULT:      -3.7      3.439      5.129
REMARK  4 active torsions:
REMARK  status: ('A' for Active; 'I' for Inactive)
REMARK       I    between atoms: C2_2  and  N4_4 
REMARK    1  A    between atoms: N4_4  and  C5_5 
REMARK    2  A    between atoms: C5_5  and  C7_6 
REMARK    3  A    between atoms: C5_5  and  C9_8 
REMARK    4  A    between atoms: C7_6  and  S8_7 
ROOT
ATOM      1  C5  <0> d   1      18.046  -0.138  10.250  0.00  0.00     0.194 C 
ENDROOT
BRANCH   1   2
ATOM      2  N4  <0> d   1      17.421   0.208   8.972  0.00  0.00    -0.346 N 
ATOM      3  C2  <0> d   1      17.819  -0.405   7.839  0.00  0.00     0.214 C 
ATOM      4  C1  <0> d   1      17.174  -0.050   6.524  0.00  0.00     0.117 C 
ATOM      5  O3  <0> d   1      18.696  -1.241   7.878  0.00  0.00    -0.274 OA
ATOM      6  H15 <0> d   1      16.719   0.877   8.940  0.00  0.00     0.163 HD
ENDBRANCH   1   2
BRANCH   1   7
ATOM      7  C7  <0> d   1      18.792   1.080  10.799  0.00  0.00     0.106 C 
BRANCH   7   8
ATOM      8  S8  <0> d   1      20.139   0.528  11.880  0.00  0.00    -0.180 SA
ATOM      9  H18 <0> d   1      20.978   1.578  11.879  0.00  0.00     0.101 HD
ENDBRANCH   7   8
ENDBRANCH   1   7
BRANCH   1  10
ATOM     10  C9  <0> d   1      16.984  -0.561  11.231  0.00  0.00     0.197 C 
ATOM     11  O10 <0> d   1      16.062   0.191  11.494  0.00  0.00    -0.646 OA
ATOM     12  O11 <0> d   1      17.048  -1.657  11.763  0.00  0.00    -0.646 OA
ENDBRANCH   1  10
TORSDOF 4
ENDMDL
MODEL 9
REMARK VINA RESULT:      -3.6      5.100      5.866
REMARK  4 active torsions:
REMARK  status: ('A' for Active; 'I' for Inactive)
REMARK       I    between atoms: C2_2  and  N4_4 
REMARK    1  A    between atoms: N4_4  and  C5_5 
REMARK    2  A    between atoms: C5_5  and  C7_6 
REMARK    3  A    between atoms: C5_5  and  C9_8 
REMARK    4  A    between atoms: C7_6  and  S8_7 
ROOT
ATOM      1  C5  <0> d   1      18.439   0.001  11.683  0.00  0.00     0.194 C 
ENDROOT
BRANCH   1   2
ATOM      2  N4  <0> d   1      18.376  -1.415  11.316  0.00  0.00    -0.346 N 
ATOM      3  C2  <0> d   1      18.712  -2.361  12.217  0.00  0.00     0.214 C 
ATOM      4  C1  <0> d   1      18.647  -3.818  11.840  0.00  0.00     0.117 C 
ATOM      5  O3  <0> d   1      19.067  -2.038  13.331  0.00  0.00    -0.274 OA
ATOM      6  H15 <0> d   1      18.093  -1.674  10.426  0.00  0.00     0.163 HD
ENDBRANCH   1   2
BRANCH   1   7
ATOM      7  C7  <0> d   1      19.484   0.706  10.816  0.00  0.00     0.106 C 
BRANCH   7   8
ATOM      8  S8  <0> d   1      19.642  -0.163   9.232  0.00  0.00    -0.180 SA
ATOM      9  H18 <0> d   1      20.469  -1.181   9.527  0.00  0.00     0.101 HD
ENDBRANCH   7   8
ENDBRANCH   1   7
BRANCH   1  10
ATOM     10  C9  <0> d   1      17.091   0.638  11.463  0.00  0.00     0.197 C 
ATOM     11  O10 <0> d   1      17.008   1.839  11.274  0.00  0.00    -0.646 OA
ATOM     12  O11 <0> d   1      16.084  -0.049  11.474  0.00  0.00    -0.646 OA
ENDBRANCH   1  10
TORSDOF 4
ENDMDL
