MODEL 1
REMARK VINA RESULT:      -7.0      0.000      0.000
REMARK  5 active torsions:
REMARK  status: ('A' for Active; 'I' for Inactive)
REMARK    1  A    between atoms: C2_2  and  O3_3 
REMARK    2  A    between atoms: O3_3  and  C4_4 
REMARK    3  A    between atoms: C4_4  and  C5_5 
REMARK    4  A    between atoms: C5_5  and  N6_6 
REMARK    5  A    between atoms: C14_14  and  N15_15 
ROOT
ATOM      1  N6  ZIN A   1      17.851  -1.215  11.881  0.00  0.00    -0.318 N 
ATOM      2  C7  ZIN A   1      18.310  -2.304  11.159  0.00  0.00     0.066 A 
ATOM      3  C8  ZIN A   1      17.996  -2.838   9.920  0.00  0.00     0.032 A 
ATOM      4  C9  ZIN A   1      18.652  -3.966   9.471  0.00  0.00     0.002 A 
ATOM      5  C10 ZIN A   1      19.626  -4.569  10.251  0.00  0.00     0.002 A 
ATOM      6  C11 ZIN A   1      19.951  -4.052  11.486  0.00  0.00     0.034 A 
ATOM      7  C12 ZIN A   1      19.296  -2.911  11.955  0.00  0.00     0.087 A 
ATOM      8  N13 ZIN A   1      19.392  -2.183  13.098  0.00  0.00    -0.218 NA
ATOM      9  C14 ZIN A   1      18.547  -1.183  13.055  0.00  0.00     0.185 A 
ENDROOT
BRANCH   9  10
ATOM     10  N15 ZIN A   1      18.381  -0.243  14.050  0.00  0.00    -0.251 NA
ATOM     11  C22 ZIN A   1      18.304  -0.852  15.308  0.00  0.00     0.129 C 
ATOM     12  C21 ZIN A   1      17.919   0.151  16.414  0.00  0.00     0.286 C 
ATOM     13  N19 ZIN A   1      19.089   0.918  16.778  0.00  0.00     0.085 N 
ATOM     14  C18 ZIN A   1      19.211   2.205  16.055  0.00  0.00     0.273 C 
ATOM     15  C20 ZIN A   1      19.155   1.122  18.232  0.00  0.00     0.309 C 
ATOM     16  C17 ZIN A   1      18.851   2.078  14.567  0.00  0.00     0.045 C 
ATOM     17  C16 ZIN A   1      19.407   0.817  13.954  0.00  0.00     0.100 C 
ENDBRANCH   9  10
BRANCH   1  18
ATOM     18  C5  ZIN A   1      16.814  -0.268  11.461  0.00  0.00     0.158 C 
BRANCH  18  19
ATOM     19  C4  ZIN A   1      17.465   0.918  10.746  0.00  0.00     0.187 C 
BRANCH  19  20
ATOM     20  O3  ZIN A   1      17.051   2.135  11.369  0.00  0.00    -0.390 OA
BRANCH  20  21
ATOM     21  C2  ZIN A   1      17.738   3.294  10.895  0.00  0.00     0.163 C 
ATOM     22  C1  ZIN A   1      18.616   2.915   9.700  0.00  0.00     0.033 C 
ENDBRANCH  20  21
ENDBRANCH  19  20
ENDBRANCH  18  19
ENDBRANCH   1  18
TORSDOF 5
ENDMDL
MODEL 2
REMARK VINA RESULT:      -7.0      1.963      5.717
REMARK  5 active torsions:
REMARK  status: ('A' for Active; 'I' for Inactive)
REMARK    1  A    between atoms: C2_2  and  O3_3 
REMARK    2  A    between atoms: O3_3  and  C4_4 
REMARK    3  A    between atoms: C4_4  and  C5_5 
REMARK    4  A    between atoms: C5_5  and  N6_6 
REMARK    5  A    between atoms: C14_14  and  N15_15 
ROOT
ATOM      1  N6  ZIN A   1      18.956   1.139  13.326  0.00  0.00    -0.318 N 
ATOM      2  C7  ZIN A   1      18.936   0.739  14.651  0.00  0.00     0.066 A 
ATOM      3  C8  ZIN A   1      19.056   1.406  15.860  0.00  0.00     0.032 A 
ATOM      4  C9  ZIN A   1      18.992   0.700  17.044  0.00  0.00     0.002 A 
ATOM      5  C10 ZIN A   1      18.808  -0.674  17.033  0.00  0.00     0.002 A 
ATOM      6  C11 ZIN A   1      18.686  -1.353  15.842  0.00  0.00     0.034 A 
ATOM      7  C12 ZIN A   1      18.749  -0.654  14.635  0.00  0.00     0.087 A 
ATOM      8  N13 ZIN A   1      18.665  -1.030  13.332  0.00  0.00    -0.218 NA
ATOM      9  C14 ZIN A   1      18.782   0.022  12.561  0.00  0.00     0.185 A 
ENDROOT
BRANCH   9  10
ATOM     10  N15 ZIN A   1      18.742   0.003  11.183  0.00  0.00    -0.251 NA
ATOM     11  C22 ZIN A   1      19.782  -0.775  10.661  0.00  0.00     0.129 C 
ATOM     12  C21 ZIN A   1      19.882  -0.653   9.127  0.00  0.00     0.286 C 
ATOM     13  N19 ZIN A   1      18.864  -1.483   8.524  0.00  0.00     0.085 N 
ATOM     14  C18 ZIN A   1      17.611  -0.759   8.209  0.00  0.00     0.273 C 
ATOM     15  C20 ZIN A   1      19.384  -2.176   7.337  0.00  0.00     0.309 C 
ATOM     16  C17 ZIN A   1      17.198   0.213   9.325  0.00  0.00     0.045 C 
ATOM     17  C16 ZIN A   1      17.399  -0.381  10.697  0.00  0.00     0.100 C 
ENDBRANCH   9  10
BRANCH   1  18
ATOM     18  C5  ZIN A   1      19.126   2.509  12.835  0.00  0.00     0.158 C 
BRANCH  18  19
ATOM     19  C4  ZIN A   1      17.774   3.224  12.836  0.00  0.00     0.187 C 
BRANCH  19  20
ATOM     20  O3  ZIN A   1      17.138   3.043  11.569  0.00  0.00    -0.390 OA
BRANCH  20  21
ATOM     21  C2  ZIN A   1      17.834   3.647  10.477  0.00  0.00     0.163 C 
ATOM     22  C1  ZIN A   1      17.443   5.122  10.375  0.00  0.00     0.033 C 
ENDBRANCH  20  21
ENDBRANCH  19  20
ENDBRANCH  18  19
ENDBRANCH   1  18
TORSDOF 5
ENDMDL
MODEL 3
REMARK VINA RESULT:      -6.9      2.491      4.365
REMARK  5 active torsions:
REMARK  status: ('A' for Active; 'I' for Inactive)
REMARK    1  A    between atoms: C2_2  and  O3_3 
REMARK    2  A    between atoms: O3_3  and  C4_4 
REMARK    3  A    between atoms: C4_4  and  C5_5 
REMARK    4  A    between atoms: C5_5  and  N6_6 
REMARK    5  A    between atoms: C14_14  and  N15_15 
ROOT
ATOM      1  N6  ZIN A   1      17.471   1.030  10.916  0.00  0.00    -0.318 N 
ATOM      2  C7  ZIN A   1      17.830   0.838   9.592  0.00  0.00     0.066 A 
ATOM      3  C8  ZIN A   1      17.554  -0.143   8.653  0.00  0.00     0.032 A 
ATOM      4  C9  ZIN A   1      18.079  -0.043   7.381  0.00  0.00     0.002 A 
ATOM      5  C10 ZIN A   1      18.880   1.033   7.034  0.00  0.00     0.002 A 
ATOM      6  C11 ZIN A   1      19.165   2.018   7.954  0.00  0.00     0.034 A 
ATOM      7  C12 ZIN A   1      18.642   1.932   9.246  0.00  0.00     0.087 A 
ATOM      8  N13 ZIN A   1      18.739   2.721  10.347  0.00  0.00    -0.218 NA
ATOM      9  C14 ZIN A   1      18.048   2.197  11.329  0.00  0.00     0.185 A 
ENDROOT
BRANCH   9  10
ATOM     10  N15 ZIN A   1      17.927   2.737  12.591  0.00  0.00    -0.251 NA
ATOM     11  C22 ZIN A   1      18.897   2.215  13.456  0.00  0.00     0.129 C 
ATOM     12  C21 ZIN A   1      18.663   2.648  14.917  0.00  0.00     0.286 C 
ATOM     13  N19 ZIN A   1      19.140   4.002  15.086  0.00  0.00     0.085 N 
ATOM     14  C18 ZIN A   1      18.089   5.033  14.916  0.00  0.00     0.273 C 
ATOM     15  C20 ZIN A   1      19.831   4.161  16.373  0.00  0.00     0.309 C 
ATOM     16  C17 ZIN A   1      17.152   4.728  13.738  0.00  0.00     0.045 C 
ATOM     17  C16 ZIN A   1      17.902   4.215  12.534  0.00  0.00     0.100 C 
ENDBRANCH   9  10
BRANCH   1  18
ATOM     18  C5  ZIN A   1      16.624   0.148  11.723  0.00  0.00     0.158 C 
BRANCH  18  19
ATOM     19  C4  ZIN A   1      17.464  -1.011  12.265  0.00  0.00     0.187 C 
BRANCH  19  20
ATOM     20  O3  ZIN A   1      17.063  -2.227  11.631  0.00  0.00    -0.390 OA
BRANCH  20  21
ATOM     21  C2  ZIN A   1      18.133  -2.933  10.999  0.00  0.00     0.163 C 
ATOM     22  C1  ZIN A   1      19.322  -3.024  11.956  0.00  0.00     0.033 C 
ENDBRANCH  20  21
ENDBRANCH  19  20
ENDBRANCH  18  19
ENDBRANCH   1  18
TORSDOF 5
ENDMDL
MODEL 4
REMARK VINA RESULT:      -6.8      2.401      3.583
REMARK  5 active torsions:
REMARK  status: ('A' for Active; 'I' for Inactive)
REMARK    1  A    between atoms: C2_2  and  O3_3 
REMARK    2  A    between atoms: O3_3  and  C4_4 
REMARK    3  A    between atoms: C4_4  and  C5_5 
REMARK    4  A    between atoms: C5_5  and  N6_6 
REMARK    5  A    between atoms: C14_14  and  N15_15 
ROOT
ATOM      1  N6  ZIN A   1      19.261   1.337  10.935  0.00  0.00    -0.318 N 
ATOM      2  C7  ZIN A   1      18.945   1.135   9.602  0.00  0.00     0.066 A 
ATOM      3  C8  ZIN A   1      19.250   1.807   8.429  0.00  0.00     0.032 A 
ATOM      4  C9  ZIN A   1      18.768   1.339   7.224  0.00  0.00     0.002 A 
ATOM      5  C10 ZIN A   1      17.981   0.199   7.177  0.00  0.00     0.002 A 
ATOM      6  C11 ZIN A   1      17.668  -0.482   8.333  0.00  0.00     0.034 A 
ATOM      7  C12 ZIN A   1      18.148  -0.021   9.561  0.00  0.00     0.087 A 
ATOM      8  N13 ZIN A   1      18.017  -0.461  10.839  0.00  0.00    -0.218 NA
ATOM      9  C14 ZIN A   1      18.673   0.332  11.648  0.00  0.00     0.185 A 
ENDROOT
BRANCH   9  10
ATOM     10  N15 ZIN A   1      18.753   0.179  13.016  0.00  0.00    -0.251 NA
ATOM     11  C22 ZIN A   1      17.675   0.802  13.655  0.00  0.00     0.129 C 
ATOM     12  C21 ZIN A   1      17.842   0.821  15.188  0.00  0.00     0.286 C 
ATOM     13  N19 ZIN A   1      17.492  -0.480  15.712  0.00  0.00     0.085 N 
ATOM     14  C18 ZIN A   1      18.651  -1.387  15.887  0.00  0.00     0.273 C 
ATOM     15  C20 ZIN A   1      16.727  -0.357  16.960  0.00  0.00     0.309 C 
ATOM     16  C17 ZIN A   1      19.638  -1.311  14.712  0.00  0.00     0.045 C 
ATOM     17  C16 ZIN A   1      18.931  -1.243  13.381  0.00  0.00     0.100 C 
ENDBRANCH   9  10
BRANCH   1  18
ATOM     18  C5  ZIN A   1      20.079   2.424  11.479  0.00  0.00     0.158 C 
BRANCH  18  19
ATOM     19  C4  ZIN A   1      19.263   3.718  11.495  0.00  0.00     0.187 C 
BRANCH  19  20
ATOM     20  O3  ZIN A   1      18.804   3.976  12.824  0.00  0.00    -0.390 OA
BRANCH  20  21
ATOM     21  C2  ZIN A   1      17.469   4.481  12.890  0.00  0.00     0.163 C 
ATOM     22  C1  ZIN A   1      16.909   4.635  11.475  0.00  0.00     0.033 C 
ENDBRANCH  20  21
ENDBRANCH  19  20
ENDBRANCH  18  19
ENDBRANCH   1  18
TORSDOF 5
ENDMDL
MODEL 5
REMARK VINA RESULT:      -6.7      1.779      5.950
REMARK  5 active torsions:
REMARK  status: ('A' for Active; 'I' for Inactive)
REMARK    1  A    between atoms: C2_2  and  O3_3 
REMARK    2  A    between atoms: O3_3  and  C4_4 
REMARK    3  A    between atoms: C4_4  and  C5_5 
REMARK    4  A    between atoms: C5_5  and  N6_6 
REMARK    5  A    between atoms: C14_14  and  N15_15 
ROOT
ATOM      1  N6  ZIN A   1      17.484  -0.686  12.241  0.00  0.00    -0.318 N 
ATOM      2  C7  ZIN A   1      17.816  -0.346  13.542  0.00  0.00     0.066 A 
ATOM      3  C8  ZIN A   1      17.543   0.747  14.349  0.00  0.00     0.032 A 
ATOM      4  C9  ZIN A   1      18.033   0.788  15.638  0.00  0.00     0.002 A 
ATOM      5  C10 ZIN A   1      18.798  -0.257  16.133  0.00  0.00     0.002 A 
ATOM      6  C11 ZIN A   1      19.080  -1.351  15.344  0.00  0.00     0.034 A 
ATOM      7  C12 ZIN A   1      18.590  -1.408  14.037  0.00  0.00     0.087 A 
ATOM      8  N13 ZIN A   1      18.694  -2.326  13.041  0.00  0.00    -0.218 NA
ATOM      9  C14 ZIN A   1      18.041  -1.907  11.986  0.00  0.00     0.185 A 
ENDROOT
BRANCH   9  10
ATOM     10  N15 ZIN A   1      17.937  -2.592  10.794  0.00  0.00    -0.251 NA
ATOM     11  C22 ZIN A   1      19.071  -2.390   9.998  0.00  0.00     0.129 C 
ATOM     12  C21 ZIN A   1      18.898  -2.978   8.584  0.00  0.00     0.286 C 
ATOM     13  N19 ZIN A   1      19.106  -4.407   8.642  0.00  0.00     0.085 N 
ATOM     14  C18 ZIN A   1      17.858  -5.188   8.806  0.00  0.00     0.273 C 
ATOM     15  C20 ZIN A   1      19.873  -4.877   7.480  0.00  0.00     0.309 C 
ATOM     16  C17 ZIN A   1      16.891  -4.546   9.812  0.00  0.00     0.045 C 
ATOM     17  C16 ZIN A   1      17.609  -4.015  11.028  0.00  0.00     0.100 C 
ENDBRANCH   9  10
BRANCH   1  18
ATOM     18  C5  ZIN A   1      16.680   0.112  11.312  0.00  0.00     0.158 C 
BRANCH  18  19
ATOM     19  C4  ZIN A   1      17.566   1.167  10.646  0.00  0.00     0.187 C 
BRANCH  19  20
ATOM     20  O3  ZIN A   1      17.133   2.470  11.039  0.00  0.00    -0.390 OA
BRANCH  20  21
ATOM     21  C2  ZIN A   1      17.859   3.535  10.422  0.00  0.00     0.163 C 
ATOM     22  C1  ZIN A   1      17.128   4.858  10.661  0.00  0.00     0.033 C 
ENDBRANCH  20  21
ENDBRANCH  19  20
ENDBRANCH  18  19
ENDBRANCH   1  18
TORSDOF 5
ENDMDL
MODEL 6
REMARK VINA RESULT:      -6.7      2.096      5.145
REMARK  5 active torsions:
REMARK  status: ('A' for Active; 'I' for Inactive)
REMARK    1  A    between atoms: C2_2  and  O3_3 
REMARK    2  A    between atoms: O3_3  and  C4_4 
REMARK    3  A    between atoms: C4_4  and  C5_5 
REMARK    4  A    between atoms: C5_5  and  N6_6 
REMARK    5  A    between atoms: C14_14  and  N15_15 
ROOT
ATOM      1  N6  ZIN A   1      18.927   1.974  12.252  0.00  0.00    -0.318 N 
ATOM      2  C7  ZIN A   1      18.413   2.999  11.474  0.00  0.00     0.066 A 
ATOM      3  C8  ZIN A   1      18.559   3.363  10.145  0.00  0.00     0.032 A 
ATOM      4  C9  ZIN A   1      17.894   4.470   9.659  0.00  0.00     0.002 A 
ATOM      5  C10 ZIN A   1      17.078   5.221  10.491  0.00  0.00     0.002 A 
ATOM      6  C11 ZIN A   1      16.921   4.873  11.814  0.00  0.00     0.034 A 
ATOM      7  C12 ZIN A   1      17.587   3.755  12.322  0.00  0.00     0.087 A 
ATOM      8  N13 ZIN A   1      17.634   3.174  13.549  0.00  0.00    -0.218 NA
ATOM      9  C14 ZIN A   1      18.416   2.124  13.510  0.00  0.00     0.185 A 
ENDROOT
BRANCH   9  10
ATOM     10  N15 ZIN A   1      18.689   1.298  14.579  0.00  0.00    -0.251 NA
ATOM     11  C22 ZIN A   1      18.757   2.027  15.772  0.00  0.00     0.129 C 
ATOM     12  C21 ZIN A   1      19.256   1.166  16.949  0.00  0.00     0.286 C 
ATOM     13  N19 ZIN A   1      18.163   0.350  17.428  0.00  0.00     0.085 N 
ATOM     14  C18 ZIN A   1      18.121  -1.005  16.832  0.00  0.00     0.273 C 
ATOM     15  C20 ZIN A   1      18.161   0.280  18.896  0.00  0.00     0.309 C 
ATOM     16  C17 ZIN A   1      18.421  -0.993  15.325  0.00  0.00     0.045 C 
ATOM     17  C16 ZIN A   1      17.747   0.158  14.621  0.00  0.00     0.100 C 
ENDBRANCH   9  10
BRANCH   1  18
ATOM     18  C5  ZIN A   1      19.844   0.922  11.807  0.00  0.00     0.158 C 
BRANCH  18  19
ATOM     19  C4  ZIN A   1      19.045  -0.213  11.162  0.00  0.00     0.187 C 
BRANCH  19  20
ATOM     20  O3  ZIN A   1      19.839  -1.400  11.135  0.00  0.00    -0.390 OA
BRANCH  20  21
ATOM     21  C2  ZIN A   1      19.319  -2.466  11.933  0.00  0.00     0.163 C 
ATOM     22  C1  ZIN A   1      17.791  -2.456  11.865  0.00  0.00     0.033 C 
ENDBRANCH  20  21
ENDBRANCH  19  20
ENDBRANCH  18  19
ENDBRANCH   1  18
TORSDOF 5
ENDMDL
MODEL 7
REMARK VINA RESULT:      -6.6      2.079      6.321
REMARK  5 active torsions:
REMARK  status: ('A' for Active; 'I' for Inactive)
REMARK    1  A    between atoms: C2_2  and  O3_3 
REMARK    2  A    between atoms: O3_3  and  C4_4 
REMARK    3  A    between atoms: C4_4  and  C5_5 
REMARK    4  A    between atoms: C5_5  and  N6_6 
REMARK    5  A    between atoms: C14_14  and  N15_15 
ROOT
ATOM      1  N6  ZIN A   1      19.232   0.668  12.563  0.00  0.00    -0.318 N 
ATOM      2  C7  ZIN A   1      18.960   1.956  12.132  0.00  0.00     0.066 A 
ATOM      3  C8  ZIN A   1      19.274   3.218  12.612  0.00  0.00     0.032 A 
ATOM      4  C9  ZIN A   1      18.841   4.339  11.934  0.00  0.00     0.002 A 
ATOM      5  C10 ZIN A   1      18.094   4.212  10.773  0.00  0.00     0.002 A 
ATOM      6  C11 ZIN A   1      17.772   2.966  10.281  0.00  0.00     0.034 A 
ATOM      7  C12 ZIN A   1      18.203   1.822  10.956  0.00  0.00     0.087 A 
ATOM      8  N13 ZIN A   1      18.051   0.491  10.729  0.00  0.00    -0.218 NA
ATOM      9  C14 ZIN A   1      18.659  -0.189  11.669  0.00  0.00     0.185 A 
ENDROOT
BRANCH   9  10
ATOM     10  N15 ZIN A   1      18.707  -1.564  11.747  0.00  0.00    -0.251 NA
ATOM     11  C22 ZIN A   1      17.499  -2.134  11.329  0.00  0.00     0.129 C 
ATOM     12  C21 ZIN A   1      17.451  -3.652  11.593  0.00  0.00     0.286 C 
ATOM     13  N19 ZIN A   1      18.208  -4.330  10.565  0.00  0.00     0.085 N 
ATOM     14  C18 ZIN A   1      19.616  -4.601  10.938  0.00  0.00     0.273 C 
ATOM     15  C20 ZIN A   1      17.531  -5.561  10.135  0.00  0.00     0.309 C 
ATOM     16  C17 ZIN A   1      20.268  -3.418  11.669  0.00  0.00     0.045 C 
ATOM     17  C16 ZIN A   1      19.898  -2.094  11.048  0.00  0.00     0.100 C 
ENDBRANCH   9  10
BRANCH   1  18
ATOM     18  C5  ZIN A   1      19.999   0.295  13.755  0.00  0.00     0.158 C 
BRANCH  18  19
ATOM     19  C4  ZIN A   1      19.071   0.272  14.972  0.00  0.00     0.187 C 
BRANCH  19  20
ATOM     20  O3  ZIN A   1      19.185  -0.990  15.633  0.00  0.00    -0.390 OA
BRANCH  20  21
ATOM     21  C2  ZIN A   1      17.977  -1.430  16.257  0.00  0.00     0.163 C 
ATOM     22  C1  ZIN A   1      17.207  -0.221  16.791  0.00  0.00     0.033 C 
ENDBRANCH  20  21
ENDBRANCH  19  20
ENDBRANCH  18  19
ENDBRANCH   1  18
TORSDOF 5
ENDMDL
MODEL 8
REMARK VINA RESULT:      -6.4      2.588      6.546
REMARK  5 active torsions:
REMARK  status: ('A' for Active; 'I' for Inactive)
REMARK    1  A    between atoms: C2_2  and  O3_3 
REMARK    2  A    between atoms: O3_3  and  C4_4 
REMARK    3  A    between atoms: C4_4  and  C5_5 
REMARK    4  A    between atoms: C5_5  and  N6_6 
REMARK    5  A    between atoms: C14_14  and  N15_15 
ROOT
ATOM      1  N6  ZIN A   1      19.147  -1.303  12.468  0.00  0.00    -0.318 N 
ATOM      2  C7  ZIN A   1      18.749  -1.027  13.766  0.00  0.00     0.066 A 
ATOM      3  C8  ZIN A   1      18.976  -1.633  14.991  0.00  0.00     0.032 A 
ATOM      4  C9  ZIN A   1      18.421  -1.098  16.135  0.00  0.00     0.002 A 
ATOM      5  C10 ZIN A   1      17.638   0.044  16.069  0.00  0.00     0.002 A 
ATOM      6  C11 ZIN A   1      17.403   0.660  14.860  0.00  0.00     0.034 A 
ATOM      7  C12 ZIN A   1      17.957   0.131  13.692  0.00  0.00     0.087 A 
ATOM      8  N13 ZIN A   1      17.908   0.499  12.385  0.00  0.00    -0.218 NA
ATOM      9  C14 ZIN A   1      18.611  -0.339  11.664  0.00  0.00     0.185 A 
ENDROOT
BRANCH   9  10
ATOM     10  N15 ZIN A   1      18.778  -0.263  10.298  0.00  0.00    -0.251 NA
ATOM     11  C22 ZIN A   1      17.802  -1.013   9.630  0.00  0.00     0.129 C 
ATOM     12  C21 ZIN A   1      18.081  -1.109   8.117  0.00  0.00     0.286 C 
ATOM     13  N19 ZIN A   1      17.667   0.123   7.486  0.00  0.00     0.085 N 
ATOM     14  C18 ZIN A   1      18.758   1.113   7.330  0.00  0.00     0.273 C 
ATOM     15  C20 ZIN A   1      17.007  -0.139   6.199  0.00  0.00     0.309 C 
ATOM     16  C17 ZIN A   1      19.660   1.192   8.571  0.00  0.00     0.045 C 
ATOM     17  C16 ZIN A   1      18.866   1.145   9.853  0.00  0.00     0.100 C 
ENDBRANCH   9  10
BRANCH   1  18
ATOM     18  C5  ZIN A   1      19.992  -2.421  12.038  0.00  0.00     0.158 C 
BRANCH  18  19
ATOM     19  C4  ZIN A   1      19.127  -3.666  11.834  0.00  0.00     0.187 C 
BRANCH  19  20
ATOM     20  O3  ZIN A   1      19.794  -4.570  10.951  0.00  0.00    -0.390 OA
BRANCH  20  21
ATOM     21  C2  ZIN A   1      19.303  -4.539   9.609  0.00  0.00     0.163 C 
ATOM     22  C1  ZIN A   1      19.765  -5.795   8.867  0.00  0.00     0.033 C 
ENDBRANCH  20  21
ENDBRANCH  19  20
ENDBRANCH  18  19
ENDBRANCH   1  18
TORSDOF 5
ENDMDL
MODEL 9
REMARK VINA RESULT:      -6.4      1.441      5.789
REMARK  5 active torsions:
REMARK  status: ('A' for Active; 'I' for Inactive)
REMARK    1  A    between atoms: C2_2  and  O3_3 
REMARK    2  A    between atoms: O3_3  and  C4_4 
REMARK    3  A    between atoms: C4_4  and  C5_5 
REMARK    4  A    between atoms: C5_5  and  N6_6 
REMARK    5  A    between atoms: C14_14  and  N15_15 
ROOT
ATOM      1  N6  ZIN A   1      19.454  -0.117  13.377  0.00  0.00    -0.318 N 
ATOM      2  C7  ZIN A   1      19.018   0.195  14.654  0.00  0.00     0.066 A 
ATOM      3  C8  ZIN A   1      19.253   1.253  15.518  0.00  0.00     0.032 A 
ATOM      4  C9  ZIN A   1      18.651   1.271  16.760  0.00  0.00     0.002 A 
ATOM      5  C10 ZIN A   1      17.813   0.239  17.150  0.00  0.00     0.002 A 
ATOM      6  C11 ZIN A   1      17.569  -0.820  16.305  0.00  0.00     0.034 A 
ATOM      7  C12 ZIN A   1      18.169  -0.854  15.044  0.00  0.00     0.087 A 
ATOM      8  N13 ZIN A   1      18.127  -1.738  14.013  0.00  0.00    -0.218 NA
ATOM      9  C14 ZIN A   1      18.877  -1.305  13.030  0.00  0.00     0.185 A 
ENDROOT
BRANCH   9  10
ATOM     10  N15 ZIN A   1      19.061  -1.955  11.829  0.00  0.00    -0.251 NA
ATOM     11  C22 ZIN A   1      19.536  -3.256  12.029  0.00  0.00     0.129 C 
ATOM     12  C21 ZIN A   1      19.940  -3.935  10.705  0.00  0.00     0.286 C 
ATOM     13  N19 ZIN A   1      18.747  -4.398  10.034  0.00  0.00     0.085 N 
ATOM     14  C18 ZIN A   1      18.207  -3.440   9.042  0.00  0.00     0.273 C 
ATOM     15  C20 ZIN A   1      18.963  -5.719   9.426  0.00  0.00     0.309 C 
ATOM     16  C17 ZIN A   1      18.249  -1.989   9.544  0.00  0.00     0.045 C 
ATOM     17  C16 ZIN A   1      17.843  -1.879  10.993  0.00  0.00     0.100 C 
ENDBRANCH   9  10
BRANCH   1  18
ATOM     18  C5  ZIN A   1      20.361   0.681  12.549  0.00  0.00     0.158 C 
BRANCH  18  19
ATOM     19  C4  ZIN A   1      19.584   1.828  11.900  0.00  0.00     0.187 C 
BRANCH  19  20
ATOM     20  O3  ZIN A   1      19.049   1.393  10.649  0.00  0.00    -0.390 OA
BRANCH  20  21
ATOM     21  C2  ZIN A   1      17.752   1.918  10.357  0.00  0.00     0.163 C 
ATOM     22  C1  ZIN A   1      17.755   3.433  10.571  0.00  0.00     0.033 C 
ENDBRANCH  20  21
ENDBRANCH  19  20
ENDBRANCH  18  19
ENDBRANCH   1  18
TORSDOF 5
ENDMDL
