MODEL 1
REMARK VINA RESULT:      -8.4      0.000      0.000
REMARK  8 active torsions:
REMARK  status: ('A' for Active; 'I' for Inactive)
REMARK    1  A    between atoms: O1_1  and  C2_2 
REMARK    2  A    between atoms: C2_2  and  C4_3 
REMARK    3  A    between atoms: C2_2  and  C24_21 
REMARK    4  A    between atoms: C4_3  and  N5_4 
REMARK    5  A    between atoms: N5_4  and  C8_7 
REMARK    6  A    between atoms: C8_7  and  C9_8 
REMARK    7  A    between atoms: C9_8  and  O11_9 
REMARK    8  A    between atoms: C9_8  and  C12_10 
ROOT
ATOM      1  N5  ZIN A   1      19.565  -2.936   7.195  0.00  0.00    -0.070 N 
ATOM      2  H6  ZIN A   1      19.384  -2.095   7.721  0.00  0.00     0.277 HD
ATOM      3  H7  ZIN A   1      20.511  -3.243   7.365  0.00  0.00     0.277 HD
ENDROOT
BRANCH   1   4
ATOM      4  C4  ZIN A   1      18.628  -3.987   7.612  0.00  0.00     0.266 C 
BRANCH   4   5
ATOM      5  C2  ZIN A   1      19.058  -4.544   8.971  0.00  0.00     0.173 C 
BRANCH   5   6
ATOM      6  O1  ZIN A   1      20.459  -4.825   8.949  0.00  0.00    -0.391 OA
ATOM      7  H36 ZIN A   1      20.676  -5.717   8.644  0.00  0.00     0.210 HD
ENDBRANCH   5   6
BRANCH   5   8
ATOM      8  C24 ZIN A   1      18.763  -3.512  10.061  0.00  0.00     0.159 C 
ATOM      9  O35 ZIN A   1      19.831  -2.566  10.131  0.00  0.00    -0.343 OA
ATOM     10  C34 ZIN A   1      19.857  -1.714  11.190  0.00  0.00     0.075 A 
ATOM     11  C28 ZIN A   1      19.123  -1.955  12.337  0.00  0.00    -0.022 A 
ATOM     12  C33 ZIN A   1      20.652  -0.577  11.105  0.00  0.00     0.040 A 
ATOM     13  C27 ZIN A   1      18.244  -3.173  12.467  0.00  0.00     0.044 C 
ATOM     14  C29 ZIN A   1      19.188  -1.066  13.397  0.00  0.00     0.052 A 
ATOM     15  C26 ZIN A   1      18.647  -4.214  11.420  0.00  0.00     0.040 C 
ATOM     16  C30 ZIN A   1      19.982   0.064  13.311  0.00  0.00     0.117 A 
ATOM     17  F31 ZIN A   1      20.041   0.928  14.348  0.00  0.00    -0.206 F 
ATOM     18  C32 ZIN A   1      20.713   0.309  12.162  0.00  0.00     0.045 A 
ENDBRANCH   5   8
ENDBRANCH   4   5
ENDBRANCH   1   4
BRANCH   1  19
ATOM     19  C8  ZIN A   1      19.390  -2.664   5.762  0.00  0.00     0.266 C 
BRANCH  19  20
ATOM     20  C9  ZIN A   1      18.807  -1.261   5.577  0.00  0.00     0.173 C 
BRANCH  20  21
ATOM     21  O11 ZIN A   1      19.474  -0.607   4.496  0.00  0.00    -0.391 OA
ATOM     22  H41 ZIN A   1      20.151   0.025   4.776  0.00  0.00     0.210 HD
ENDBRANCH  20  21
BRANCH  20  23
ATOM     23  C12 ZIN A   1      19.005  -0.453   6.861  0.00  0.00     0.159 C 
ATOM     24  O23 ZIN A   1      17.907  -0.680   7.747  0.00  0.00    -0.343 OA
ATOM     25  C22 ZIN A   1      17.792   0.126   8.835  0.00  0.00     0.075 A 
ATOM     26  C16 ZIN A   1      18.462   1.334   8.922  0.00  0.00    -0.022 A 
ATOM     27  C21 ZIN A   1      16.969  -0.284   9.879  0.00  0.00     0.040 A 
ATOM     28  C15 ZIN A   1      19.368   1.811   7.816  0.00  0.00     0.044 C 
ATOM     29  C17 ZIN A   1      18.306   2.129  10.044  0.00  0.00     0.052 A 
ATOM     30  C14 ZIN A   1      19.058   1.043   6.528  0.00  0.00     0.040 C 
ATOM     31  C18 ZIN A   1      17.486   1.720  11.082  0.00  0.00     0.117 A 
ATOM     32  F19 ZIN A   1      17.339   2.500  12.174  0.00  0.00    -0.206 F 
ATOM     33  C20 ZIN A   1      16.819   0.510  10.997  0.00  0.00     0.045 A 
ENDBRANCH  20  23
ENDBRANCH  19  20
ENDBRANCH   1  19
TORSDOF 8
ENDMDL
MODEL 2
REMARK VINA RESULT:      -8.4      5.392      8.950
REMARK  8 active torsions:
REMARK  status: ('A' for Active; 'I' for Inactive)
REMARK    1  A    between atoms: O1_1  and  C2_2 
REMARK    2  A    between atoms: C2_2  and  C4_3 
REMARK    3  A    between atoms: C2_2  and  C24_21 
REMARK    4  A    between atoms: C4_3  and  N5_4 
REMARK    5  A    between atoms: N5_4  and  C8_7 
REMARK    6  A    between atoms: C8_7  and  C9_8 
REMARK    7  A    between atoms: C9_8  and  O11_9 
REMARK    8  A    between atoms: C9_8  and  C12_10 
ROOT
ATOM      1  N5  ZIN A   1      17.822   4.134  16.874  0.00  0.00    -0.070 N 
ATOM      2  H6  ZIN A   1      17.041   3.672  17.317  0.00  0.00     0.277 HD
ATOM      3  H7  ZIN A   1      17.737   4.052  15.872  0.00  0.00     0.277 HD
ENDROOT
BRANCH   1   4
ATOM      4  C4  ZIN A   1      17.829   5.553  17.250  0.00  0.00     0.266 C 
BRANCH   4   5
ATOM      5  C2  ZIN A   1      17.887   6.415  15.987  0.00  0.00     0.173 C 
BRANCH   5   6
ATOM      6  O1  ZIN A   1      19.205   6.945  15.832  0.00  0.00    -0.391 OA
ATOM      7  H36 ZIN A   1      19.615   6.736  14.982  0.00  0.00     0.210 HD
ENDBRANCH   5   6
BRANCH   5   8
ATOM      8  C24 ZIN A   1      17.535   5.560  14.769  0.00  0.00     0.159 C 
ATOM      9  O35 ZIN A   1      18.733   5.115  14.131  0.00  0.00    -0.343 OA
ATOM     10  C34 ZIN A   1      18.624   4.538  12.905  0.00  0.00     0.075 A 
ATOM     11  C28 ZIN A   1      17.487   4.684  12.130  0.00  0.00    -0.022 A 
ATOM     12  C33 ZIN A   1      19.692   3.788  12.428  0.00  0.00     0.040 A 
ATOM     13  C27 ZIN A   1      16.303   5.483  12.613  0.00  0.00     0.044 C 
ATOM     14  C29 ZIN A   1      17.423   4.088  10.881  0.00  0.00     0.052 A 
ATOM     15  C26 ZIN A   1      16.733   6.396  13.764  0.00  0.00     0.040 C 
ATOM     16  C30 ZIN A   1      18.489   3.344  10.408  0.00  0.00     0.117 A 
ATOM     17  F31 ZIN A   1      18.420   2.765   9.189  0.00  0.00    -0.206 F 
ATOM     18  C32 ZIN A   1      19.625   3.193  11.184  0.00  0.00     0.045 A 
ENDBRANCH   5   8
ENDBRANCH   4   5
ENDBRANCH   1   4
BRANCH   1  19
ATOM     19  C8  ZIN A   1      19.075   3.505  17.312  0.00  0.00     0.266 C 
BRANCH  19  20
ATOM     20  C9  ZIN A   1      18.790   2.078  17.788  0.00  0.00     0.173 C 
BRANCH  20  21
ATOM     21  O11 ZIN A   1      19.688   1.741  18.847  0.00  0.00    -0.391 OA
ATOM     22  H41 ZIN A   1      19.860   0.793  18.930  0.00  0.00     0.210 HD
ENDBRANCH  20  21
BRANCH  20  23
ATOM     23  C12 ZIN A   1      18.986   1.104  16.624  0.00  0.00     0.159 C 
ATOM     24  O23 ZIN A   1      18.117   1.459  15.547  0.00  0.00    -0.343 OA
ATOM     25  C22 ZIN A   1      17.982   0.576  14.522  0.00  0.00     0.075 A 
ATOM     26  C16 ZIN A   1      18.359  -0.749  14.647  0.00  0.00    -0.022 A 
ATOM     27  C21 ZIN A   1      17.444   1.031  13.323  0.00  0.00     0.040 A 
ATOM     28  C15 ZIN A   1      18.953  -1.280  15.927  0.00  0.00     0.044 C 
ATOM     29  C17 ZIN A   1      18.194  -1.616  13.581  0.00  0.00     0.052 A 
ATOM     30  C14 ZIN A   1      18.640  -0.319  17.078  0.00  0.00     0.040 C 
ATOM     31  C18 ZIN A   1      17.657  -1.163  12.389  0.00  0.00     0.117 A 
ATOM     32  F19 ZIN A   1      17.499  -2.013  11.352  0.00  0.00    -0.206 F 
ATOM     33  C20 ZIN A   1      17.283   0.164  12.261  0.00  0.00     0.045 A 
ENDBRANCH  20  23
ENDBRANCH  19  20
ENDBRANCH   1  19
TORSDOF 8
ENDMDL
MODEL 3
REMARK VINA RESULT:      -8.3      0.661      4.688
REMARK  8 active torsions:
REMARK  status: ('A' for Active; 'I' for Inactive)
REMARK    1  A    between atoms: O1_1  and  C2_2 
REMARK    2  A    between atoms: C2_2  and  C4_3 
REMARK    3  A    between atoms: C2_2  and  C24_21 
REMARK    4  A    between atoms: C4_3  and  N5_4 
REMARK    5  A    between atoms: N5_4  and  C8_7 
REMARK    6  A    between atoms: C8_7  and  C9_8 
REMARK    7  A    between atoms: C9_8  and  O11_9 
REMARK    8  A    between atoms: C9_8  and  C12_10 
ROOT
ATOM      1  N5  ZIN A   1      19.534  -2.754   7.249  0.00  0.00    -0.070 N 
ATOM      2  H6  ZIN A   1      20.515  -2.964   7.357  0.00  0.00     0.277 HD
ATOM      3  H7  ZIN A   1      19.294  -1.962   7.827  0.00  0.00     0.277 HD
ENDROOT
BRANCH   1   4
ATOM      4  C4  ZIN A   1      19.252  -2.437   5.844  0.00  0.00     0.266 C 
BRANCH   4   5
ATOM      5  C2  ZIN A   1      18.577  -1.066   5.755  0.00  0.00     0.173 C 
BRANCH   5   6
ATOM      6  O1  ZIN A   1      17.169  -1.239   5.575  0.00  0.00    -0.391 OA
ATOM      7  H36 ZIN A   1      16.700  -1.506   6.378  0.00  0.00     0.210 HD
ENDBRANCH   5   6
BRANCH   5   8
ATOM      8  C24 ZIN A   1      18.833  -0.287   7.047  0.00  0.00     0.159 C 
ATOM      9  O35 ZIN A   1      17.764  -0.515   7.967  0.00  0.00    -0.343 OA
ATOM     10  C34 ZIN A   1      17.701   0.271   9.074  0.00  0.00     0.075 A 
ATOM     11  C28 ZIN A   1      18.392   1.466   9.160  0.00  0.00    -0.022 A 
ATOM     12  C33 ZIN A   1      16.911  -0.148  10.139  0.00  0.00     0.040 A 
ATOM     13  C27 ZIN A   1      19.264   1.953   8.030  0.00  0.00     0.044 C 
ATOM     14  C29 ZIN A   1      18.289   2.241  10.303  0.00  0.00     0.052 A 
ATOM     15  C26 ZIN A   1      18.897   1.214   6.741  0.00  0.00     0.040 C 
ATOM     16  C30 ZIN A   1      17.501   1.824  11.360  0.00  0.00     0.117 A 
ATOM     17  F31 ZIN A   1      17.405   2.584  12.473  0.00  0.00    -0.206 F 
ATOM     18  C32 ZIN A   1      16.812   0.626  11.278  0.00  0.00     0.045 A 
ENDBRANCH   5   8
ENDBRANCH   4   5
ENDBRANCH   1   4
BRANCH   1  19
ATOM     19  C8  ZIN A   1      18.737  -3.917   7.659  0.00  0.00     0.266 C 
BRANCH  19  20
ATOM     20  C9  ZIN A   1      19.243  -4.433   9.008  0.00  0.00     0.173 C 
BRANCH  20  21
ATOM     21  O11 ZIN A   1      18.617  -5.683   9.305  0.00  0.00    -0.391 OA
ATOM     22  H41 ZIN A   1      18.314  -6.166   8.525  0.00  0.00     0.210 HD
ENDBRANCH  20  21
BRANCH  20  23
ATOM     23  C12 ZIN A   1      18.903  -3.419  10.102  0.00  0.00     0.159 C 
ATOM     24  O23 ZIN A   1      19.949  -2.451  10.203  0.00  0.00    -0.343 OA
ATOM     25  C22 ZIN A   1      19.935  -1.610  11.271  0.00  0.00     0.075 A 
ATOM     26  C16 ZIN A   1      19.183  -1.879  12.401  0.00  0.00    -0.022 A 
ATOM     27  C21 ZIN A   1      20.707  -0.455  11.214  0.00  0.00     0.040 A 
ATOM     28  C15 ZIN A   1      18.327  -3.116  12.499  0.00  0.00     0.044 C 
ATOM     29  C17 ZIN A   1      19.207  -0.999  13.470  0.00  0.00     0.052 A 
ATOM     30  C14 ZIN A   1      18.776  -4.138  11.451  0.00  0.00     0.040 C 
ATOM     31  C18 ZIN A   1      19.977   0.149  13.412  0.00  0.00     0.117 A 
ATOM     32  F19 ZIN A   1      19.996   1.003  14.458  0.00  0.00    -0.206 F 
ATOM     33  C20 ZIN A   1      20.727   0.421  12.281  0.00  0.00     0.045 A 
ENDBRANCH  20  23
ENDBRANCH  19  20
ENDBRANCH   1  19
TORSDOF 8
ENDMDL
MODEL 4
REMARK VINA RESULT:      -8.3      3.814      5.301
REMARK  8 active torsions:
REMARK  status: ('A' for Active; 'I' for Inactive)
REMARK    1  A    between atoms: O1_1  and  C2_2 
REMARK    2  A    between atoms: C2_2  and  C4_3 
REMARK    3  A    between atoms: C2_2  and  C24_21 
REMARK    4  A    between atoms: C4_3  and  N5_4 
REMARK    5  A    between atoms: N5_4  and  C8_7 
REMARK    6  A    between atoms: C8_7  and  C9_8 
REMARK    7  A    between atoms: C9_8  and  O11_9 
REMARK    8  A    between atoms: C9_8  and  C12_10 
ROOT
ATOM      1  N5  ZIN A   1      19.756  -1.971  11.895  0.00  0.00    -0.070 N 
ATOM      2  H6  ZIN A   1      20.676  -1.618  12.109  0.00  0.00     0.277 HD
ATOM      3  H7  ZIN A   1      19.800  -2.971  11.769  0.00  0.00     0.277 HD
ENDROOT
BRANCH   1   4
ATOM      4  C4  ZIN A   1      18.840  -1.657  12.999  0.00  0.00     0.266 C 
BRANCH   4   5
ATOM      5  C2  ZIN A   1      19.630  -1.043  14.157  0.00  0.00     0.173 C 
BRANCH   5   6
ATOM      6  O1  ZIN A   1      20.549  -0.075  13.647  0.00  0.00    -0.391 OA
ATOM      7  H36 ZIN A   1      21.448  -0.167  13.991  0.00  0.00     0.210 HD
ENDBRANCH   5   6
BRANCH   5   8
ATOM      8  C24 ZIN A   1      18.664  -0.364  15.130  0.00  0.00     0.159 C 
ATOM      9  O35 ZIN A   1      19.293   0.777  15.717  0.00  0.00    -0.343 OA
ATOM     10  C34 ZIN A   1      18.677   1.369  16.773  0.00  0.00     0.075 A 
ATOM     11  C28 ZIN A   1      17.689   0.724  17.497  0.00  0.00    -0.022 A 
ATOM     12  C33 ZIN A   1      19.062   2.657  17.128  0.00  0.00     0.040 A 
ATOM     13  C27 ZIN A   1      17.238  -0.670  17.141  0.00  0.00     0.044 C 
ATOM     14  C29 ZIN A   1      17.096   1.362  18.573  0.00  0.00     0.052 A 
ATOM     15  C26 ZIN A   1      18.287  -1.340  16.251  0.00  0.00     0.040 C 
ATOM     16  C30 ZIN A   1      17.483   2.642  18.926  0.00  0.00     0.117 A 
ATOM     17  F31 ZIN A   1      16.900   3.259  19.976  0.00  0.00    -0.206 F 
ATOM     18  C32 ZIN A   1      18.467   3.291  18.200  0.00  0.00     0.045 A 
ENDBRANCH   5   8
ENDBRANCH   4   5
ENDBRANCH   1   4
BRANCH   1  19
ATOM     19  C8  ZIN A   1      19.267  -1.345  10.660  0.00  0.00     0.266 C 
BRANCH  19  20
ATOM     20  C9  ZIN A   1      20.351  -0.426  10.090  0.00  0.00     0.173 C 
BRANCH  20  21
ATOM     21  O11 ZIN A   1      21.564  -0.609  10.822  0.00  0.00    -0.391 OA
ATOM     22  H41 ZIN A   1      21.953   0.213  11.150  0.00  0.00     0.210 HD
ENDBRANCH  20  21
BRANCH  20  23
ATOM     23  C12 ZIN A   1      19.899   1.031  10.209  0.00  0.00     0.159 C 
ATOM     24  O23 ZIN A   1      19.320   1.252  11.496  0.00  0.00    -0.343 OA
ATOM     25  C22 ZIN A   1      18.655   2.420  11.702  0.00  0.00     0.075 A 
ATOM     26  C16 ZIN A   1      18.227   3.210  10.649  0.00  0.00    -0.022 A 
ATOM     27  C21 ZIN A   1      18.399   2.815  13.010  0.00  0.00     0.040 A 
ATOM     28  C15 ZIN A   1      18.491   2.821   9.217  0.00  0.00     0.044 C 
ATOM     29  C17 ZIN A   1      17.543   4.386  10.904  0.00  0.00     0.052 A 
ATOM     30  C14 ZIN A   1      18.838   1.332   9.143  0.00  0.00     0.040 C 
ATOM     31  C18 ZIN A   1      17.288   4.777  12.207  0.00  0.00     0.117 A 
ATOM     32  F19 ZIN A   1      16.620   5.925  12.450  0.00  0.00    -0.206 F 
ATOM     33  C20 ZIN A   1      17.719   3.989  13.261  0.00  0.00     0.045 A 
ENDBRANCH  20  23
ENDBRANCH  19  20
ENDBRANCH   1  19
TORSDOF 8
ENDMDL
MODEL 5
REMARK VINA RESULT:      -8.1      3.209      6.640
REMARK  8 active torsions:
REMARK  status: ('A' for Active; 'I' for Inactive)
REMARK    1  A    between atoms: O1_1  and  C2_2 
REMARK    2  A    between atoms: C2_2  and  C4_3 
REMARK    3  A    between atoms: C2_2  and  C24_21 
REMARK    4  A    between atoms: C4_3  and  N5_4 
REMARK    5  A    between atoms: N5_4  and  C8_7 
REMARK    6  A    between atoms: C8_7  and  C9_8 
REMARK    7  A    between atoms: C9_8  and  O11_9 
REMARK    8  A    between atoms: C9_8  and  C12_10 
ROOT
ATOM      1  N5  ZIN A   1      20.082  -1.212  13.302  0.00  0.00    -0.070 N 
ATOM      2  H6  ZIN A   1      20.900  -1.183  12.712  0.00  0.00     0.277 HD
ATOM      3  H7  ZIN A   1      20.354  -1.454  14.243  0.00  0.00     0.277 HD
ENDROOT
BRANCH   1   4
ATOM      4  C4  ZIN A   1      19.433   0.105  13.304  0.00  0.00     0.266 C 
BRANCH   4   5
ATOM      5  C2  ZIN A   1      20.159   1.033  12.326  0.00  0.00     0.173 C 
BRANCH   5   6
ATOM      6  O1  ZIN A   1      21.483   0.546  12.101  0.00  0.00    -0.391 OA
ATOM      7  H36 ZIN A   1      22.175   1.205  12.246  0.00  0.00     0.210 HD
ENDBRANCH   5   6
BRANCH   5   8
ATOM      8  C24 ZIN A   1      19.398   1.073  11.000  0.00  0.00     0.159 C 
ATOM      9  O35 ZIN A   1      19.816  -0.014  10.172  0.00  0.00    -0.343 OA
ATOM     10  C34 ZIN A   1      19.422  -0.010   8.871  0.00  0.00     0.075 A 
ATOM     11  C28 ZIN A   1      18.952   1.137   8.255  0.00  0.00    -0.022 A 
ATOM     12  C33 ZIN A   1      19.503  -1.196   8.151  0.00  0.00     0.040 A 
ATOM     13  C27 ZIN A   1      18.843   2.442   9.003  0.00  0.00     0.044 C 
ATOM     14  C29 ZIN A   1      18.572   1.098   6.924  0.00  0.00     0.052 A 
ATOM     15  C26 ZIN A   1      19.702   2.386  10.268  0.00  0.00     0.040 C 
ATOM     16  C30 ZIN A   1      18.656  -0.083   6.209  0.00  0.00     0.117 A 
ATOM     17  F31 ZIN A   1      18.283  -0.115   4.911  0.00  0.00    -0.206 F 
ATOM     18  C32 ZIN A   1      19.121  -1.232   6.825  0.00  0.00     0.045 A 
ENDBRANCH   5   8
ENDBRANCH   4   5
ENDBRANCH   1   4
BRANCH   1  19
ATOM     19  C8  ZIN A   1      19.144  -2.219  12.790  0.00  0.00     0.266 C 
BRANCH  19  20
ATOM     20  C9  ZIN A   1      19.918  -3.290  12.017  0.00  0.00     0.173 C 
BRANCH  20  21
ATOM     21  O11 ZIN A   1      20.755  -2.665  11.043  0.00  0.00    -0.391 OA
ATOM     22  H41 ZIN A   1      21.701  -2.793  11.197  0.00  0.00     0.210 HD
ENDBRANCH  20  21
BRANCH  20  23
ATOM     23  C12 ZIN A   1      18.931  -4.227  11.316  0.00  0.00     0.159 C 
ATOM     24  O23 ZIN A   1      19.085  -4.115   9.900  0.00  0.00    -0.343 OA
ATOM     25  C22 ZIN A   1      18.141  -4.695   9.112  0.00  0.00     0.075 A 
ATOM     26  C16 ZIN A   1      16.903  -5.063   9.607  0.00  0.00    -0.022 A 
ATOM     27  C21 ZIN A   1      18.441  -4.912   7.771  0.00  0.00     0.040 A 
ATOM     28  C15 ZIN A   1      16.542  -4.852  11.055  0.00  0.00     0.044 C 
ATOM     29  C17 ZIN A   1      15.968  -5.641   8.765  0.00  0.00     0.052 A 
ATOM     30  C14 ZIN A   1      17.495  -3.831  11.681  0.00  0.00     0.040 C 
ATOM     31  C18 ZIN A   1      16.267  -5.854   7.431  0.00  0.00     0.117 A 
ATOM     32  F19 ZIN A   1      15.351  -6.418   6.615  0.00  0.00    -0.206 F 
ATOM     33  C20 ZIN A   1      17.507  -5.490   6.935  0.00  0.00     0.045 A 
ENDBRANCH  20  23
ENDBRANCH  19  20
ENDBRANCH   1  19
TORSDOF 8
ENDMDL
MODEL 6
REMARK VINA RESULT:      -8.1      3.394      6.769
REMARK  8 active torsions:
REMARK  status: ('A' for Active; 'I' for Inactive)
REMARK    1  A    between atoms: O1_1  and  C2_2 
REMARK    2  A    between atoms: C2_2  and  C4_3 
REMARK    3  A    between atoms: C2_2  and  C24_21 
REMARK    4  A    between atoms: C4_3  and  N5_4 
REMARK    5  A    between atoms: N5_4  and  C8_7 
REMARK    6  A    between atoms: C8_7  and  C9_8 
REMARK    7  A    between atoms: C9_8  and  O11_9 
REMARK    8  A    between atoms: C9_8  and  C12_10 
ROOT
ATOM      1  N5  ZIN A   1      18.686  -1.793  11.508  0.00  0.00    -0.070 N 
ATOM      2  H6  ZIN A   1      17.705  -1.562  11.473  0.00  0.00     0.277 HD
ATOM      3  H7  ZIN A   1      19.036  -1.913  10.569  0.00  0.00     0.277 HD
ENDROOT
BRANCH   1   4
ATOM      4  C4  ZIN A   1      19.423  -0.709  12.170  0.00  0.00     0.266 C 
BRANCH   4   5
ATOM      5  C2  ZIN A   1      20.193   0.098  11.122  0.00  0.00     0.173 C 
BRANCH   5   6
ATOM      6  O1  ZIN A   1      21.435  -0.549  10.841  0.00  0.00    -0.391 OA
ATOM      7  H36 ZIN A   1      21.397  -1.170  10.101  0.00  0.00     0.210 HD
ENDBRANCH   5   6
BRANCH   5   8
ATOM      8  C24 ZIN A   1      19.365   0.191   9.839  0.00  0.00     0.159 C 
ATOM      9  O35 ZIN A   1      19.695  -0.897   8.974  0.00  0.00    -0.343 OA
ATOM     10  C34 ZIN A   1      19.233  -0.855   7.696  0.00  0.00     0.075 A 
ATOM     11  C28 ZIN A   1      18.778   0.320   7.124  0.00  0.00    -0.022 A 
ATOM     12  C33 ZIN A   1      19.228  -2.031   6.954  0.00  0.00     0.040 A 
ATOM     13  C27 ZIN A   1      18.760   1.615   7.895  0.00  0.00     0.044 C 
ATOM     14  C29 ZIN A   1      18.327   0.319   5.814  0.00  0.00     0.052 A 
ATOM     15  C26 ZIN A   1      19.683   1.503   9.112  0.00  0.00     0.040 C 
ATOM     16  C30 ZIN A   1      18.326  -0.852   5.078  0.00  0.00     0.117 A 
ATOM     17  F31 ZIN A   1      17.884  -0.847   3.801  0.00  0.00    -0.206 F 
ATOM     18  C32 ZIN A   1      18.776  -2.029   5.650  0.00  0.00     0.045 A 
ENDBRANCH   5   8
ENDBRANCH   4   5
ENDBRANCH   1   4
BRANCH   1  19
ATOM     19  C8  ZIN A   1      18.869  -3.041  12.260  0.00  0.00     0.266 C 
BRANCH  19  20
ATOM     20  C9  ZIN A   1      19.795  -3.977  11.479  0.00  0.00     0.173 C 
BRANCH  20  21
ATOM     21  O11 ZIN A   1      21.064  -3.347  11.296  0.00  0.00    -0.391 OA
ATOM     22  H41 ZIN A   1      21.026  -2.381  11.288  0.00  0.00     0.210 HD
ENDBRANCH  20  21
BRANCH  20  23
ATOM     23  C12 ZIN A   1      19.176  -4.284  10.114  0.00  0.00     0.159 C 
ATOM     24  O23 ZIN A   1      17.839  -4.757  10.287  0.00  0.00    -0.343 OA
ATOM     25  C22 ZIN A   1      17.212  -5.297   9.209  0.00  0.00     0.075 A 
ATOM     26  C16 ZIN A   1      17.913  -5.715   8.092  0.00  0.00    -0.022 A 
ATOM     27  C21 ZIN A   1      15.828  -5.433   9.247  0.00  0.00     0.040 A 
ATOM     28  C15 ZIN A   1      19.412  -5.580   8.008  0.00  0.00     0.044 C 
ATOM     29  C17 ZIN A   1      17.234  -6.270   7.020  0.00  0.00     0.052 A 
ATOM     30  C14 ZIN A   1      19.990  -5.377   9.411  0.00  0.00     0.040 C 
ATOM     31  C18 ZIN A   1      15.858  -6.406   7.060  0.00  0.00     0.117 A 
ATOM     32  F19 ZIN A   1      15.201  -6.948   6.012  0.00  0.00    -0.206 F 
ATOM     33  C20 ZIN A   1      15.155  -5.984   8.176  0.00  0.00     0.045 A 
ENDBRANCH  20  23
ENDBRANCH  19  20
ENDBRANCH   1  19
TORSDOF 8
ENDMDL
MODEL 7
REMARK VINA RESULT:      -8.0      1.804      4.479
REMARK  8 active torsions:
REMARK  status: ('A' for Active; 'I' for Inactive)
REMARK    1  A    between atoms: O1_1  and  C2_2 
REMARK    2  A    between atoms: C2_2  and  C4_3 
REMARK    3  A    between atoms: C2_2  and  C24_21 
REMARK    4  A    between atoms: C4_3  and  N5_4 
REMARK    5  A    between atoms: N5_4  and  C8_7 
REMARK    6  A    between atoms: C8_7  and  C9_8 
REMARK    7  A    between atoms: C9_8  and  O11_9 
REMARK    8  A    between atoms: C9_8  and  C12_10 
ROOT
ATOM      1  N5  ZIN A   1      17.786  -2.881   7.594  0.00  0.00    -0.070 N 
ATOM      2  H6  ZIN A   1      17.385  -2.553   8.460  0.00  0.00     0.277 HD
ATOM      3  H7  ZIN A   1      17.057  -2.984   6.904  0.00  0.00     0.277 HD
ENDROOT
BRANCH   1   4
ATOM      4  C4  ZIN A   1      18.779  -1.912   7.115  0.00  0.00     0.266 C 
BRANCH   4   5
ATOM      5  C2  ZIN A   1      18.214  -0.496   7.244  0.00  0.00     0.173 C 
BRANCH   5   6
ATOM      6  O1  ZIN A   1      16.806  -0.521   7.001  0.00  0.00    -0.391 OA
ATOM      7  H36 ZIN A   1      16.382   0.346   7.058  0.00  0.00     0.210 HD
ENDBRANCH   5   6
BRANCH   5   8
ATOM      8  C24 ZIN A   1      18.478   0.032   8.656  0.00  0.00     0.159 C 
ATOM      9  O35 ZIN A   1      18.173   1.426   8.713  0.00  0.00    -0.343 OA
ATOM     10  C34 ZIN A   1      18.561   2.117   9.818  0.00  0.00     0.075 A 
ATOM     11  C28 ZIN A   1      19.515   1.620  10.690  0.00  0.00    -0.022 A 
ATOM     12  C33 ZIN A   1      17.981   3.356  10.063  0.00  0.00     0.040 A 
ATOM     13  C27 ZIN A   1      20.164   0.278  10.464  0.00  0.00     0.044 C 
ATOM     14  C29 ZIN A   1      19.889   2.363  11.797  0.00  0.00     0.052 A 
ATOM     15  C26 ZIN A   1      19.958  -0.156   9.010  0.00  0.00     0.040 C 
ATOM     16  C30 ZIN A   1      19.312   3.597  12.037  0.00  0.00     0.117 A 
ATOM     17  F31 ZIN A   1      19.681   4.316  13.119  0.00  0.00    -0.206 F 
ATOM     18  C32 ZIN A   1      18.354   4.093  11.169  0.00  0.00     0.045 A 
ENDBRANCH   5   8
ENDBRANCH   4   5
ENDBRANCH   1   4
BRANCH   1  19
ATOM     19  C8  ZIN A   1      18.436  -4.180   7.816  0.00  0.00     0.266 C 
BRANCH  19  20
ATOM     20  C9  ZIN A   1      17.678  -4.951   8.899  0.00  0.00     0.173 C 
BRANCH  20  21
ATOM     21  O11 ZIN A   1      16.272  -4.810   8.689  0.00  0.00    -0.391 OA
ATOM     22  H41 ZIN A   1      15.887  -4.032   9.115  0.00  0.00     0.210 HD
ENDBRANCH  20  21
BRANCH  20  23
ATOM     23  C12 ZIN A   1      18.046  -4.392  10.276  0.00  0.00     0.159 C 
ATOM     24  O23 ZIN A   1      17.467  -3.096  10.439  0.00  0.00    -0.343 OA
ATOM     25  C22 ZIN A   1      17.873  -2.348  11.500  0.00  0.00     0.075 A 
ATOM     26  C16 ZIN A   1      19.036  -2.636  12.191  0.00  0.00    -0.022 A 
ATOM     27  C21 ZIN A   1      17.090  -1.265  11.884  0.00  0.00     0.040 A 
ATOM     28  C15 ZIN A   1      19.908  -3.805  11.811  0.00  0.00     0.044 C 
ATOM     29  C17 ZIN A   1      19.417  -1.841  13.259  0.00  0.00     0.052 A 
ATOM     30  C14 ZIN A   1      19.569  -4.259  10.389  0.00  0.00     0.040 C 
ATOM     31  C18 ZIN A   1      18.638  -0.762  13.639  0.00  0.00     0.117 A 
ATOM     32  F19 ZIN A   1      19.016   0.011  14.680  0.00  0.00    -0.206 F 
ATOM     33  C20 ZIN A   1      17.472  -0.476  12.950  0.00  0.00     0.045 A 
ENDBRANCH  20  23
ENDBRANCH  19  20
ENDBRANCH   1  19
TORSDOF 8
ENDMDL
MODEL 8
REMARK VINA RESULT:      -8.0      3.320      6.701
REMARK  8 active torsions:
REMARK  status: ('A' for Active; 'I' for Inactive)
REMARK    1  A    between atoms: O1_1  and  C2_2 
REMARK    2  A    between atoms: C2_2  and  C4_3 
REMARK    3  A    between atoms: C2_2  and  C24_21 
REMARK    4  A    between atoms: C4_3  and  N5_4 
REMARK    5  A    between atoms: N5_4  and  C8_7 
REMARK    6  A    between atoms: C8_7  and  C9_8 
REMARK    7  A    between atoms: C9_8  and  O11_9 
REMARK    8  A    between atoms: C9_8  and  C12_10 
ROOT
ATOM      1  N5  ZIN A   1      19.441   2.148  13.650  0.00  0.00    -0.070 N 
ATOM      2  H6  ZIN A   1      20.380   1.982  13.321  0.00  0.00     0.277 HD
ATOM      3  H7  ZIN A   1      19.475   2.671  14.512  0.00  0.00     0.277 HD
ENDROOT
BRANCH   1   4
ATOM      4  C4  ZIN A   1      18.695   2.913  12.643  0.00  0.00     0.266 C 
BRANCH   4   5
ATOM      5  C2  ZIN A   1      19.493   2.950  11.337  0.00  0.00     0.173 C 
BRANCH   5   6
ATOM      6  O1  ZIN A   1      20.885   2.800  11.625  0.00  0.00    -0.391 OA
ATOM      7  H36 ZIN A   1      21.104   1.985  12.096  0.00  0.00     0.210 HD
ENDBRANCH   5   6
BRANCH   5   8
ATOM      8  C24 ZIN A   1      19.036   1.808  10.427  0.00  0.00     0.159 C 
ATOM      9  O35 ZIN A   1      19.294   2.148   9.063  0.00  0.00    -0.343 OA
ATOM     10  C34 ZIN A   1      18.748   1.361   8.099  0.00  0.00     0.075 A 
ATOM     11  C28 ZIN A   1      17.704   0.494   8.370  0.00  0.00    -0.022 A 
ATOM     12  C33 ZIN A   1      19.259   1.443   6.808  0.00  0.00     0.040 A 
ATOM     13  C27 ZIN A   1      17.125   0.370   9.756  0.00  0.00     0.044 C 
ATOM     14  C29 ZIN A   1      17.170  -0.281   7.354  0.00  0.00     0.052 A 
ATOM     15  C26 ZIN A   1      17.528   1.586  10.594  0.00  0.00     0.040 C 
ATOM     16  C30 ZIN A   1      17.679  -0.195   6.070  0.00  0.00     0.117 A 
ATOM     17  F31 ZIN A   1      17.155  -0.954   5.083  0.00  0.00    -0.206 F 
ATOM     18  C32 ZIN A   1      18.727   0.668   5.798  0.00  0.00     0.045 A 
ENDBRANCH   5   8
ENDBRANCH   4   5
ENDBRANCH   1   4
BRANCH   1  19
ATOM     19  C8  ZIN A   1      18.770   0.863  13.885  0.00  0.00     0.266 C 
BRANCH  19  20
ATOM     20  C9  ZIN A   1      19.734  -0.282  13.562  0.00  0.00     0.173 C 
BRANCH  20  21
ATOM     21  O11 ZIN A   1      21.011   0.255  13.211  0.00  0.00    -0.391 OA
ATOM     22  H41 ZIN A   1      21.655   0.239  13.932  0.00  0.00     0.210 HD
ENDBRANCH  20  21
BRANCH  20  23
ATOM     23  C12 ZIN A   1      19.183  -1.097  12.389  0.00  0.00     0.159 C 
ATOM     24  O23 ZIN A   1      18.788  -2.391  12.846  0.00  0.00    -0.343 OA
ATOM     25  C22 ZIN A   1      18.493  -3.332  11.910  0.00  0.00     0.075 A 
ATOM     26  C16 ZIN A   1      18.888  -3.197  10.591  0.00  0.00    -0.022 A 
ATOM     27  C21 ZIN A   1      17.778  -4.458  12.305  0.00  0.00     0.040 A 
ATOM     28  C15 ZIN A   1      19.657  -1.989  10.120  0.00  0.00     0.044 C 
ATOM     29  C17 ZIN A   1      18.574  -4.185   9.673  0.00  0.00     0.052 A 
ATOM     30  C14 ZIN A   1      20.272  -1.269  11.323  0.00  0.00     0.040 C 
ATOM     31  C18 ZIN A   1      17.864  -5.305  10.068  0.00  0.00     0.117 A 
ATOM     32  F19 ZIN A   1      17.561  -6.266   9.169  0.00  0.00    -0.206 F 
ATOM     33  C20 ZIN A   1      17.465  -5.439  11.387  0.00  0.00     0.045 A 
ENDBRANCH  20  23
ENDBRANCH  19  20
ENDBRANCH   1  19
TORSDOF 8
ENDMDL
MODEL 9
REMARK VINA RESULT:      -7.9      4.481      6.859
REMARK  8 active torsions:
REMARK  status: ('A' for Active; 'I' for Inactive)
REMARK    1  A    between atoms: O1_1  and  C2_2 
REMARK    2  A    between atoms: C2_2  and  C4_3 
REMARK    3  A    between atoms: C2_2  and  C24_21 
REMARK    4  A    between atoms: C4_3  and  N5_4 
REMARK    5  A    between atoms: N5_4  and  C8_7 
REMARK    6  A    between atoms: C8_7  and  C9_8 
REMARK    7  A    between atoms: C9_8  and  O11_9 
REMARK    8  A    between atoms: C9_8  and  C12_10 
ROOT
ATOM      1  N5  ZIN A   1      18.866   4.810  13.008  0.00  0.00    -0.070 N 
ATOM      2  H6  ZIN A   1      19.117   5.749  12.740  0.00  0.00     0.277 HD
ATOM      3  H7  ZIN A   1      19.591   4.422  13.593  0.00  0.00     0.277 HD
ENDROOT
BRANCH   1   4
ATOM      4  C4  ZIN A   1      17.600   4.833  13.751  0.00  0.00     0.266 C 
BRANCH   4   5
ATOM      5  C2  ZIN A   1      17.886   5.038  15.241  0.00  0.00     0.173 C 
BRANCH   5   6
ATOM      6  O1  ZIN A   1      16.656   5.241  15.939  0.00  0.00    -0.391 OA
ATOM      7  H36 ZIN A   1      16.329   4.455  16.397  0.00  0.00     0.210 HD
ENDBRANCH   5   6
BRANCH   5   8
ATOM      8  C24 ZIN A   1      18.591   3.801  15.800  0.00  0.00     0.159 C 
ATOM      9  O35 ZIN A   1      18.132   2.634  15.115  0.00  0.00    -0.343 OA
ATOM     10  C34 ZIN A   1      18.471   1.422  15.627  0.00  0.00     0.075 A 
ATOM     11  C28 ZIN A   1      18.921   1.280  16.928  0.00  0.00    -0.022 A 
ATOM     12  C33 ZIN A   1      18.353   0.302  14.812  0.00  0.00     0.040 A 
ATOM     13  C27 ZIN A   1      19.069   2.470  17.842  0.00  0.00     0.044 C 
ATOM     14  C29 ZIN A   1      19.244   0.024  17.412  0.00  0.00     0.052 A 
ATOM     15  C26 ZIN A   1      18.263   3.648  17.290  0.00  0.00     0.040 C 
ATOM     16  C30 ZIN A   1      19.123  -1.090  16.600  0.00  0.00     0.117 A 
ATOM     17  F31 ZIN A   1      19.441  -2.312  17.078  0.00  0.00    -0.206 F 
ATOM     18  C32 ZIN A   1      18.679  -0.949  15.297  0.00  0.00     0.045 A 
ENDBRANCH   5   8
ENDBRANCH   4   5
ENDBRANCH   1   4
BRANCH   1  19
ATOM     19  C8  ZIN A   1      18.712   3.981  11.805  0.00  0.00     0.266 C 
BRANCH  19  20
ATOM     20  C9  ZIN A   1      19.646   2.772  11.896  0.00  0.00     0.173 C 
BRANCH  20  21
ATOM     21  O11 ZIN A   1      20.973   3.167  11.544  0.00  0.00    -0.391 OA
ATOM     22  H41 ZIN A   1      21.021   4.015  11.082  0.00  0.00     0.210 HD
ENDBRANCH  20  21
BRANCH  20  23
ATOM     23  C12 ZIN A   1      19.166   1.683  10.934  0.00  0.00     0.159 C 
ATOM     24  O23 ZIN A   1      19.331   2.125   9.586  0.00  0.00    -0.343 OA
ATOM     25  C22 ZIN A   1      18.748   1.390   8.601  0.00  0.00     0.075 A 
ATOM     26  C16 ZIN A   1      17.747   0.475   8.870  0.00  0.00    -0.022 A 
ATOM     27  C21 ZIN A   1      19.177   1.580   7.292  0.00  0.00     0.040 A 
ATOM     28  C15 ZIN A   1      17.258   0.234  10.276  0.00  0.00     0.044 C 
ATOM     29  C17 ZIN A   1      17.173  -0.244   7.835  0.00  0.00     0.052 A 
ATOM     30  C14 ZIN A   1      17.678   1.402  11.174  0.00  0.00     0.040 C 
ATOM     31  C18 ZIN A   1      17.600  -0.053   6.533  0.00  0.00     0.117 A 
ATOM     32  F19 ZIN A   1      17.037  -0.757   5.527  0.00  0.00    -0.206 F 
ATOM     33  C20 ZIN A   1      18.605   0.860   6.263  0.00  0.00     0.045 A 
ENDBRANCH  20  23
ENDBRANCH  19  20
ENDBRANCH   1  19
TORSDOF 8
ENDMDL
