MODEL 1
REMARK VINA RESULT:      -7.1      0.000      0.000
REMARK  8 active torsions:
REMARK  status: ('A' for Active; 'I' for Inactive)
REMARK    1  A    between atoms: C2_2  and  C3_3 
REMARK    2  A    between atoms: C3_3  and  C4_4 
REMARK    3  A    between atoms: C3_3  and  C6_6 
REMARK    4  A    between atoms: C6_6  and  N8_7 
REMARK    5  A    between atoms: C6_6  and  C12_11 
REMARK       I    between atoms: N8_7  and  C9_8 
REMARK    6  A    between atoms: C14_12  and  N16_13 
REMARK       I    between atoms: N16_13  and  C17_14 
REMARK       I    between atoms: C17_14  and  N18_15 
REMARK    7  A    between atoms: C23_20  and  C25_21 
REMARK    8  A    between atoms: C28_24  and  O30_25 
ROOT
ATOM      1  C12 ZIN A   1      18.000   0.666  13.446  0.00  0.00     0.061 C 
ATOM      2  C14 ZIN A   1      19.471   0.213  13.623  0.00  0.00     0.108 C 
ATOM      3  C22 ZIN A   1      19.401  -0.694  14.876  0.00  0.00     0.044 C 
ATOM      4  C23 ZIN A   1      18.385   0.012  15.797  0.00  0.00     0.118 C 
ATOM      5  C28 ZIN A   1      17.490   0.876  14.887  0.00  0.00     0.140 C 
ENDROOT
BRANCH   1   6
ATOM      6  C6  ZIN A   1      17.935   1.977  12.659  0.00  0.00     0.097 C 
BRANCH   6   7
ATOM      7  C3  ZIN A   1      17.978   1.674  11.160  0.00  0.00     0.008 C 
BRANCH   7   8
ATOM      8  C2  ZIN A   1      16.958   0.582  10.831  0.00  0.00     0.002 C 
ATOM      9  C1  ZIN A   1      17.534  -0.350   9.764  0.00  0.00     0.005 C 
ENDBRANCH   7   8
BRANCH   7  10
ATOM     10  C4  ZIN A   1      17.641   2.942  10.373  0.00  0.00     0.002 C 
ATOM     11  C5  ZIN A   1      18.653   3.124   9.241  0.00  0.00     0.005 C 
ENDBRANCH   7  10
ENDBRANCH   6   7
BRANCH   6  12
ATOM     12  N8  ZIN A   1      19.077   2.820  13.020  0.00  0.00    -0.356 N 
ATOM     13  C9  ZIN A   1      18.888   4.118  13.326  0.00  0.00     0.213 C 
ATOM     14  C10 ZIN A   1      20.073   5.012  13.588  0.00  0.00     0.117 C 
ATOM     15  O11 ZIN A   1      17.763   4.569  13.389  0.00  0.00    -0.274 OA
ATOM     16  H42 ZIN A   1      19.971   2.442  13.039  0.00  0.00     0.162 HD
ENDBRANCH   6  12
ENDBRANCH   1   6
BRANCH   5  17
ATOM     17  O30 ZIN A   1      17.607   2.252  15.251  0.00  0.00    -0.394 OA
ATOM     18  H51 ZIN A   1      18.508   2.528  15.468  0.00  0.00     0.210 HD
ENDBRANCH   5  17
BRANCH   2  19
ATOM     19  N16 ZIN A   1      19.924  -0.544  12.453  0.00  0.00    -0.222 N 
ATOM     20  C17 ZIN A   1      21.036  -0.141  11.765  0.00  0.00     0.665 C 
ATOM     21  N18 ZIN A   1      21.705   0.942  12.158  0.00  0.00    -0.235 N 
ATOM     22  N19 ZIN A   1      21.447  -0.829  10.702  0.00  0.00    -0.235 N 
ATOM     23  H47 ZIN A   1      21.404   1.443  12.933  0.00  0.00     0.174 HD
ATOM     24  H48 ZIN A   1      22.493   1.228  11.671  0.00  0.00     0.174 HD
ATOM     25  H20 ZIN A   1      20.960  -1.617  10.416  0.00  0.00     0.174 HD
ATOM     26  H21 ZIN A   1      22.236  -0.543  10.215  0.00  0.00     0.174 HD
ATOM     27  H46 ZIN A   1      19.437  -1.332  12.166  0.00  0.00     0.178 HD
ENDBRANCH   2  19
BRANCH   4  28
ATOM     28  C25 ZIN A   1      17.547  -1.011  16.520  0.00  0.00     0.179 C 
ATOM     29  O26 ZIN A   1      16.507  -0.675  17.062  0.00  0.00    -0.648 OA
ATOM     30  O27 ZIN A   1      17.907  -2.175  16.563  0.00  0.00    -0.648 OA
ENDBRANCH   4  28
TORSDOF 8
ENDMDL
MODEL 2
REMARK VINA RESULT:      -6.8      1.167      1.632
REMARK  8 active torsions:
REMARK  status: ('A' for Active; 'I' for Inactive)
REMARK    1  A    between atoms: C2_2  and  C3_3 
REMARK    2  A    between atoms: C3_3  and  C4_4 
REMARK    3  A    between atoms: C3_3  and  C6_6 
REMARK    4  A    between atoms: C6_6  and  N8_7 
REMARK    5  A    between atoms: C6_6  and  C12_11 
REMARK       I    between atoms: N8_7  and  C9_8 
REMARK    6  A    between atoms: C14_12  and  N16_13 
REMARK       I    between atoms: N16_13  and  C17_14 
REMARK       I    between atoms: C17_14  and  N18_15 
REMARK    7  A    between atoms: C23_20  and  C25_21 
REMARK    8  A    between atoms: C28_24  and  O30_25 
ROOT
ATOM      1  C12 ZIN A   1      17.934   1.587  13.499  0.00  0.00     0.061 C 
ATOM      2  C14 ZIN A   1      19.336   0.941  13.368  0.00  0.00     0.108 C 
ATOM      3  C22 ZIN A   1      19.307  -0.163  14.452  0.00  0.00     0.044 C 
ATOM      4  C23 ZIN A   1      18.533   0.477  15.624  0.00  0.00     0.118 C 
ATOM      5  C28 ZIN A   1      17.657   1.590  15.017  0.00  0.00     0.140 C 
ENDROOT
BRANCH   1   6
ATOM      6  C6  ZIN A   1      17.951   3.018  12.956  0.00  0.00     0.097 C 
BRANCH   6   7
ATOM      7  C3  ZIN A   1      17.661   2.995  11.453  0.00  0.00     0.008 C 
BRANCH   7   8
ATOM      8  C2  ZIN A   1      16.688   4.123  11.104  0.00  0.00     0.002 C 
ATOM      9  C1  ZIN A   1      17.469   5.319  10.556  0.00  0.00     0.005 C 
ENDBRANCH   7   8
BRANCH   7  10
ATOM     10  C4  ZIN A   1      18.967   3.190  10.680  0.00  0.00     0.002 C 
ATOM     11  C5  ZIN A   1      18.864   2.491   9.323  0.00  0.00     0.005 C 
ENDBRANCH   7  10
ENDBRANCH   6   7
BRANCH   6  12
ATOM     12  N8  ZIN A   1      19.268   3.613  13.190  0.00  0.00    -0.356 N 
ATOM     13  C9  ZIN A   1      19.365   4.858  13.697  0.00  0.00     0.213 C 
ATOM     14  C10 ZIN A   1      20.716   5.513  13.834  0.00  0.00     0.117 C 
ATOM     15  O11 ZIN A   1      18.366   5.452  14.042  0.00  0.00    -0.274 OA
ATOM     16  H42 ZIN A   1      20.072   3.111  12.980  0.00  0.00     0.162 HD
ENDBRANCH   6  12
ENDBRANCH   1   6
BRANCH   5  17
ATOM     17  O30 ZIN A   1      18.014   2.854  15.577  0.00  0.00    -0.394 OA
ATOM     18  H51 ZIN A   1      18.421   3.464  14.946  0.00  0.00     0.210 HD
ENDBRANCH   5  17
BRANCH   2  19
ATOM     19  N16 ZIN A   1      19.517   0.362  12.035  0.00  0.00    -0.222 N 
ATOM     20  C17 ZIN A   1      20.775   0.207  11.521  0.00  0.00     0.665 C 
ATOM     21  N18 ZIN A   1      21.836   0.585  12.232  0.00  0.00    -0.235 N 
ATOM     22  N19 ZIN A   1      20.939  -0.321  10.308  0.00  0.00    -0.235 N 
ATOM     23  H47 ZIN A   1      21.716   0.970  13.115  0.00  0.00     0.174 HD
ATOM     24  H48 ZIN A   1      22.729   0.475  11.868  0.00  0.00     0.174 HD
ATOM     25  H20 ZIN A   1      20.167  -0.596   9.791  0.00  0.00     0.174 HD
ATOM     26  H21 ZIN A   1      21.832  -0.430   9.944  0.00  0.00     0.174 HD
ATOM     27  H46 ZIN A   1      18.745   0.087  11.516  0.00  0.00     0.178 HD
ENDBRANCH   2  19
BRANCH   4  28
ATOM     28  C25 ZIN A   1      17.663  -0.556  16.293  0.00  0.00     0.179 C 
ATOM     29  O26 ZIN A   1      16.633  -0.216  16.851  0.00  0.00    -0.648 OA
ATOM     30  O27 ZIN A   1      17.987  -1.731  16.275  0.00  0.00    -0.648 OA
ENDBRANCH   4  28
TORSDOF 8
ENDMDL
MODEL 3
REMARK VINA RESULT:      -6.7      1.175      1.692
REMARK  8 active torsions:
REMARK  status: ('A' for Active; 'I' for Inactive)
REMARK    1  A    between atoms: C2_2  and  C3_3 
REMARK    2  A    between atoms: C3_3  and  C4_4 
REMARK    3  A    between atoms: C3_3  and  C6_6 
REMARK    4  A    between atoms: C6_6  and  N8_7 
REMARK    5  A    between atoms: C6_6  and  C12_11 
REMARK       I    between atoms: N8_7  and  C9_8 
REMARK    6  A    between atoms: C14_12  and  N16_13 
REMARK       I    between atoms: N16_13  and  C17_14 
REMARK       I    between atoms: C17_14  and  N18_15 
REMARK    7  A    between atoms: C23_20  and  C25_21 
REMARK    8  A    between atoms: C28_24  and  O30_25 
ROOT
ATOM      1  C12 ZIN A   1      18.608   1.823  12.972  0.00  0.00     0.061 C 
ATOM      2  C14 ZIN A   1      20.073   1.493  13.357  0.00  0.00     0.108 C 
ATOM      3  C22 ZIN A   1      19.909   0.306  14.337  0.00  0.00     0.044 C 
ATOM      4  C23 ZIN A   1      18.646   0.658  15.151  0.00  0.00     0.118 C 
ATOM      5  C28 ZIN A   1      17.816   1.622  14.281  0.00  0.00     0.140 C 
ENDROOT
BRANCH   1   6
ATOM      6  C6  ZIN A   1      18.494   3.272  12.495  0.00  0.00     0.097 C 
BRANCH   6   7
ATOM      7  C3  ZIN A   1      18.575   3.313  10.967  0.00  0.00     0.008 C 
BRANCH   7   8
ATOM      8  C2  ZIN A   1      17.832   2.109  10.385  0.00  0.00     0.002 C 
ATOM      9  C1  ZIN A   1      18.564   1.611   9.138  0.00  0.00     0.005 C 
ENDBRANCH   7   8
BRANCH   7  10
ATOM     10  C4  ZIN A   1      17.933   4.604  10.457  0.00  0.00     0.002 C 
ATOM     11  C5  ZIN A   1      16.568   4.792  11.121  0.00  0.00     0.005 C 
ENDBRANCH   7  10
ENDBRANCH   6   7
BRANCH   6  12
ATOM     12  N8  ZIN A   1      19.590   4.060  13.063  0.00  0.00    -0.356 N 
ATOM     13  C9  ZIN A   1      19.323   5.178  13.767  0.00  0.00     0.213 C 
ATOM     14  C10 ZIN A   1      20.452   6.049  14.256  0.00  0.00     0.117 C 
ATOM     15  O11 ZIN A   1      18.174   5.484  14.007  0.00  0.00    -0.274 OA
ATOM     16  H42 ZIN A   1      20.509   3.778  12.932  0.00  0.00     0.162 HD
ENDBRANCH   6  12
ENDBRANCH   1   6
BRANCH   5  17
ATOM     17  O30 ZIN A   1      17.656   2.873  14.953  0.00  0.00    -0.394 OA
ATOM     18  H51 ZIN A   1      18.323   3.043  15.631  0.00  0.00     0.210 HD
ENDBRANCH   5  17
BRANCH   2  19
ATOM     19  N16 ZIN A   1      20.841   1.094  12.175  0.00  0.00    -0.222 N 
ATOM     20  C17 ZIN A   1      20.679  -0.157  11.645  0.00  0.00     0.665 C 
ATOM     21  N18 ZIN A   1      19.825  -1.012  12.204  0.00  0.00    -0.235 N 
ATOM     22  N19 ZIN A   1      21.378  -0.520  10.570  0.00  0.00    -0.235 N 
ATOM     23  H47 ZIN A   1      19.317  -0.748  12.987  0.00  0.00     0.174 HD
ATOM     24  H48 ZIN A   1      19.710  -1.899  11.828  0.00  0.00     0.174 HD
ATOM     25  H20 ZIN A   1      22.000   0.103  10.163  0.00  0.00     0.174 HD
ATOM     26  H21 ZIN A   1      21.263  -1.407  10.194  0.00  0.00     0.174 HD
ATOM     27  H46 ZIN A   1      21.464   1.716  11.768  0.00  0.00     0.178 HD
ENDBRANCH   2  19
BRANCH   4  28
ATOM     28  C25 ZIN A   1      17.852  -0.590  15.437  0.00  0.00     0.179 C 
ATOM     29  O26 ZIN A   1      18.013  -1.586  14.751  0.00  0.00    -0.648 OA
ATOM     30  O27 ZIN A   1      17.049  -0.606  16.354  0.00  0.00    -0.648 OA
ENDBRANCH   4  28
TORSDOF 8
ENDMDL
MODEL 4
REMARK VINA RESULT:      -6.6      5.499      8.177
REMARK  8 active torsions:
REMARK  status: ('A' for Active; 'I' for Inactive)
REMARK    1  A    between atoms: C2_2  and  C3_3 
REMARK    2  A    between atoms: C3_3  and  C4_4 
REMARK    3  A    between atoms: C3_3  and  C6_6 
REMARK    4  A    between atoms: C6_6  and  N8_7 
REMARK    5  A    between atoms: C6_6  and  C12_11 
REMARK       I    between atoms: N8_7  and  C9_8 
REMARK    6  A    between atoms: C14_12  and  N16_13 
REMARK       I    between atoms: N16_13  and  C17_14 
REMARK       I    between atoms: C17_14  and  N18_15 
REMARK    7  A    between atoms: C23_20  and  C25_21 
REMARK    8  A    between atoms: C28_24  and  O30_25 
ROOT
ATOM      1  C12 ZIN A   1      18.079  -2.446   8.469  0.00  0.00     0.061 C 
ATOM      2  C14 ZIN A   1      19.250  -1.876   9.307  0.00  0.00     0.108 C 
ATOM      3  C22 ZIN A   1      19.424  -0.452   8.726  0.00  0.00     0.044 C 
ATOM      4  C23 ZIN A   1      19.183  -0.628   7.213  0.00  0.00     0.118 C 
ATOM      5  C28 ZIN A   1      18.324  -1.897   7.049  0.00  0.00     0.140 C 
ENDROOT
BRANCH   1   6
ATOM      6  C6  ZIN A   1      18.118  -3.976   8.465  0.00  0.00     0.097 C 
BRANCH   6   7
ATOM      7  C3  ZIN A   1      17.223  -4.511   9.585  0.00  0.00     0.008 C 
BRANCH   7   8
ATOM      8  C2  ZIN A   1      16.124  -5.390   8.983  0.00  0.00     0.002 C 
ATOM      9  C1  ZIN A   1      16.681  -6.789   8.715  0.00  0.00     0.005 C 
ENDBRANCH   7   8
BRANCH   7  10
ATOM     10  C4  ZIN A   1      18.064  -5.340  10.558  0.00  0.00     0.002 C 
ATOM     11  C5  ZIN A   1      17.470  -5.233  11.963  0.00  0.00     0.005 C 
ENDBRANCH   7  10
ENDBRANCH   6   7
BRANCH   6  12
ATOM     12  N8  ZIN A   1      19.494  -4.429   8.682  0.00  0.00    -0.356 N 
ATOM     13  C9  ZIN A   1      20.065  -5.289   7.817  0.00  0.00     0.213 C 
ATOM     14  C10 ZIN A   1      21.439  -5.842   8.099  0.00  0.00     0.117 C 
ATOM     15  O11 ZIN A   1      19.473  -5.621   6.811  0.00  0.00    -0.274 OA
ATOM     16  H42 ZIN A   1      19.995  -4.108   9.449  0.00  0.00     0.162 HD
ENDBRANCH   6  12
ENDBRANCH   1   6
BRANCH   5  17
ATOM     17  O30 ZIN A   1      19.024  -2.864   6.264  0.00  0.00    -0.394 OA
ATOM     18  H51 ZIN A   1      18.882  -2.775   5.312  0.00  0.00     0.210 HD
ENDBRANCH   5  17
BRANCH   2  19
ATOM     19  N16 ZIN A   1      18.893  -1.822  10.727  0.00  0.00    -0.222 N 
ATOM     20  C17 ZIN A   1      19.771  -2.282  11.671  0.00  0.00     0.665 C 
ATOM     21  N18 ZIN A   1      20.948  -2.780  11.298  0.00  0.00    -0.235 N 
ATOM     22  N19 ZIN A   1      19.446  -2.233  12.962  0.00  0.00    -0.235 N 
ATOM     23  H47 ZIN A   1      21.184  -2.816  10.358  0.00  0.00     0.174 HD
ATOM     24  H48 ZIN A   1      21.571  -3.106  11.967  0.00  0.00     0.174 HD
ATOM     25  H20 ZIN A   1      18.589  -1.870  13.233  0.00  0.00     0.174 HD
ATOM     26  H21 ZIN A   1      20.068  -2.559  13.631  0.00  0.00     0.174 HD
ATOM     27  H46 ZIN A   1      18.036  -1.460  10.999  0.00  0.00     0.178 HD
ENDBRANCH   2  19
BRANCH   4  28
ATOM     28  C25 ZIN A   1      18.447   0.567   6.665  0.00  0.00     0.179 C 
ATOM     29  O26 ZIN A   1      17.453   0.408   5.976  0.00  0.00    -0.648 OA
ATOM     30  O27 ZIN A   1      18.842   1.693   6.911  0.00  0.00    -0.648 OA
ENDBRANCH   4  28
TORSDOF 8
ENDMDL
MODEL 5
REMARK VINA RESULT:      -6.4      4.251      6.513
REMARK  8 active torsions:
REMARK  status: ('A' for Active; 'I' for Inactive)
REMARK    1  A    between atoms: C2_2  and  C3_3 
REMARK    2  A    between atoms: C3_3  and  C4_4 
REMARK    3  A    between atoms: C3_3  and  C6_6 
REMARK    4  A    between atoms: C6_6  and  N8_7 
REMARK    5  A    between atoms: C6_6  and  C12_11 
REMARK       I    between atoms: N8_7  and  C9_8 
REMARK    6  A    between atoms: C14_12  and  N16_13 
REMARK       I    between atoms: N16_13  and  C17_14 
REMARK       I    between atoms: C17_14  and  N18_15 
REMARK    7  A    between atoms: C23_20  and  C25_21 
REMARK    8  A    between atoms: C28_24  and  O30_25 
ROOT
ATOM      1  C12 ZIN A   1      19.025   0.085   8.604  0.00  0.00     0.061 C 
ATOM      2  C14 ZIN A   1      18.965  -1.440   8.872  0.00  0.00     0.108 C 
ATOM      3  C22 ZIN A   1      19.274  -2.044   7.480  0.00  0.00     0.044 C 
ATOM      4  C23 ZIN A   1      18.552  -1.106   6.491  0.00  0.00     0.118 C 
ATOM      5  C28 ZIN A   1      18.395   0.251   7.205  0.00  0.00     0.140 C 
ENDROOT
BRANCH   1   6
ATOM      6  C6  ZIN A   1      18.209   0.845   9.652  0.00  0.00     0.097 C 
BRANCH   6   7
ATOM      7  C3  ZIN A   1      18.724   2.282   9.754  0.00  0.00     0.008 C 
BRANCH   7   8
ATOM      8  C2  ZIN A   1      17.660   3.160  10.417  0.00  0.00     0.002 C 
ATOM      9  C1  ZIN A   1      17.714   4.567   9.819  0.00  0.00     0.005 C 
ENDBRANCH   7   8
BRANCH   7  10
ATOM     10  C4  ZIN A   1      20.002   2.307  10.594  0.00  0.00     0.002 C 
ATOM     11  C5  ZIN A   1      19.765   3.136  11.857  0.00  0.00     0.005 C 
ENDBRANCH   7  10
ENDBRANCH   6   7
BRANCH   6  12
ATOM     12  N8  ZIN A   1      18.348   0.184  10.951  0.00  0.00    -0.356 N 
ATOM     13  C9  ZIN A   1      17.252  -0.103  11.682  0.00  0.00     0.213 C 
ATOM     14  C10 ZIN A   1      17.400  -0.681  13.066  0.00  0.00     0.117 C 
ATOM     15  O11 ZIN A   1      16.147   0.105  11.227  0.00  0.00    -0.274 OA
ATOM     16  H42 ZIN A   1      19.229  -0.048  11.286  0.00  0.00     0.162 HD
ENDBRANCH   6  12
ENDBRANCH   1   6
BRANCH   5  17
ATOM     17  O30 ZIN A   1      17.011   0.582   7.328  0.00  0.00    -0.394 OA
ATOM     18  H51 ZIN A   1      16.463  -0.137   7.671  0.00  0.00     0.210 HD
ENDBRANCH   5  17
BRANCH   2  19
ATOM     19  N16 ZIN A   1      19.980  -1.834   9.851  0.00  0.00    -0.222 N 
ATOM     20  C17 ZIN A   1      19.723  -2.848  10.733  0.00  0.00     0.665 C 
ATOM     21  N18 ZIN A   1      18.549  -3.475  10.702  0.00  0.00    -0.235 N 
ATOM     22  N19 ZIN A   1      20.647  -3.206  11.624  0.00  0.00    -0.235 N 
ATOM     23  H47 ZIN A   1      17.876  -3.213  10.054  0.00  0.00     0.174 HD
ATOM     24  H48 ZIN A   1      18.365  -4.194  11.328  0.00  0.00     0.174 HD
ATOM     25  H20 ZIN A   1      21.502  -2.750  11.646  0.00  0.00     0.174 HD
ATOM     26  H21 ZIN A   1      20.464  -3.925  12.249  0.00  0.00     0.174 HD
ATOM     27  H46 ZIN A   1      20.836  -1.378   9.875  0.00  0.00     0.178 HD
ENDBRANCH   2  19
BRANCH   4  28
ATOM     28  C25 ZIN A   1      19.379  -0.938   5.242  0.00  0.00     0.179 C 
ATOM     29  O26 ZIN A   1      19.679   0.179   4.856  0.00  0.00    -0.648 OA
ATOM     30  O27 ZIN A   1      19.748  -1.918   4.619  0.00  0.00    -0.648 OA
ENDBRANCH   4  28
TORSDOF 8
ENDMDL
MODEL 6
REMARK VINA RESULT:      -6.4      2.312      3.417
REMARK  8 active torsions:
REMARK  status: ('A' for Active; 'I' for Inactive)
REMARK    1  A    between atoms: C2_2  and  C3_3 
REMARK    2  A    between atoms: C3_3  and  C4_4 
REMARK    3  A    between atoms: C3_3  and  C6_6 
REMARK    4  A    between atoms: C6_6  and  N8_7 
REMARK    5  A    between atoms: C6_6  and  C12_11 
REMARK       I    between atoms: N8_7  and  C9_8 
REMARK    6  A    between atoms: C14_12  and  N16_13 
REMARK       I    between atoms: N16_13  and  C17_14 
REMARK       I    between atoms: C17_14  and  N18_15 
REMARK    7  A    between atoms: C23_20  and  C25_21 
REMARK    8  A    between atoms: C28_24  and  O30_25 
ROOT
ATOM      1  C12 ZIN A   1      18.026   2.533  14.675  0.00  0.00     0.061 C 
ATOM      2  C14 ZIN A   1      19.170   2.095  13.725  0.00  0.00     0.108 C 
ATOM      3  C22 ZIN A   1      19.405   0.620  14.133  0.00  0.00     0.044 C 
ATOM      4  C23 ZIN A   1      19.233   0.618  15.666  0.00  0.00     0.118 C 
ATOM      5  C28 ZIN A   1      18.352   1.835  16.011  0.00  0.00     0.140 C 
ENDROOT
BRANCH   1   6
ATOM      6  C6  ZIN A   1      18.029   4.053  14.851  0.00  0.00     0.097 C 
BRANCH   6   7
ATOM      7  C3  ZIN A   1      16.978   4.675  13.928  0.00  0.00     0.008 C 
BRANCH   7   8
ATOM      8  C2  ZIN A   1      16.136   5.679  14.719  0.00  0.00     0.002 C 
ATOM      9  C1  ZIN A   1      16.721   7.082  14.547  0.00  0.00     0.005 C 
ENDBRANCH   7   8
BRANCH   7  10
ATOM     10  C4  ZIN A   1      17.676   5.393  12.772  0.00  0.00     0.002 C 
ATOM     11  C5  ZIN A   1      16.878   5.182  11.485  0.00  0.00     0.005 C 
ENDBRANCH   7  10
ENDBRANCH   6   7
BRANCH   6  12
ATOM     12  N8  ZIN A   1      19.352   4.581  14.509  0.00  0.00    -0.356 N 
ATOM     13  C9  ZIN A   1      19.980   5.424  15.352  0.00  0.00     0.213 C 
ATOM     14  C10 ZIN A   1      21.290   6.054  14.951  0.00  0.00     0.117 C 
ATOM     15  O11 ZIN A   1      19.492   5.677  16.433  0.00  0.00    -0.274 OA
ATOM     16  H42 ZIN A   1      19.776   4.323  13.675  0.00  0.00     0.162 HD
ENDBRANCH   6  12
ENDBRANCH   1   6
BRANCH   5  17
ATOM     17  O30 ZIN A   1      19.066   2.728  16.868  0.00  0.00    -0.394 OA
ATOM     18  H51 ZIN A   1      18.944   3.662  16.653  0.00  0.00     0.210 HD
ENDBRANCH   5  17
BRANCH   2  19
ATOM     19  N16 ZIN A   1      18.746   2.191  12.326  0.00  0.00    -0.222 N 
ATOM     20  C17 ZIN A   1      19.620   2.647  11.377  0.00  0.00     0.665 C 
ATOM     21  N18 ZIN A   1      20.854   3.006  11.726  0.00  0.00    -0.235 N 
ATOM     22  N19 ZIN A   1      19.235   2.734  10.105  0.00  0.00    -0.235 N 
ATOM     23  H47 ZIN A   1      21.134   2.943  12.653  0.00  0.00     0.174 HD
ATOM     24  H48 ZIN A   1      21.474   3.330  11.053  0.00  0.00     0.174 HD
ATOM     25  H20 ZIN A   1      18.337   2.473   9.851  0.00  0.00     0.174 HD
ATOM     26  H21 ZIN A   1      19.855   3.058   9.432  0.00  0.00     0.174 HD
ATOM     27  H46 ZIN A   1      17.847   1.931  12.072  0.00  0.00     0.178 HD
ENDBRANCH   2  19
BRANCH   4  28
ATOM     28  C25 ZIN A   1      18.552  -0.652  16.106  0.00  0.00     0.179 C 
ATOM     29  O26 ZIN A   1      17.334  -0.709  16.144  0.00  0.00    -0.648 OA
ATOM     30  O27 ZIN A   1      19.217  -1.622  16.424  0.00  0.00    -0.648 OA
ENDBRANCH   4  28
TORSDOF 8
ENDMDL
MODEL 7
REMARK VINA RESULT:      -6.4      3.765      6.169
REMARK  8 active torsions:
REMARK  status: ('A' for Active; 'I' for Inactive)
REMARK    1  A    between atoms: C2_2  and  C3_3 
REMARK    2  A    between atoms: C3_3  and  C4_4 
REMARK    3  A    between atoms: C3_3  and  C6_6 
REMARK    4  A    between atoms: C6_6  and  N8_7 
REMARK    5  A    between atoms: C6_6  and  C12_11 
REMARK       I    between atoms: N8_7  and  C9_8 
REMARK    6  A    between atoms: C14_12  and  N16_13 
REMARK       I    between atoms: N16_13  and  C17_14 
REMARK       I    between atoms: C17_14  and  N18_15 
REMARK    7  A    between atoms: C23_20  and  C25_21 
REMARK    8  A    between atoms: C28_24  and  O30_25 
ROOT
ATOM      1  C12 ZIN A   1      18.608   0.095  10.128  0.00  0.00     0.061 C 
ATOM      2  C14 ZIN A   1      19.283   1.476   9.940  0.00  0.00     0.108 C 
ATOM      3  C22 ZIN A   1      19.002   1.795   8.452  0.00  0.00     0.044 C 
ATOM      4  C23 ZIN A   1      19.144   0.434   7.740  0.00  0.00     0.118 C 
ATOM      5  C28 ZIN A   1      18.890  -0.650   8.806  0.00  0.00     0.140 C 
ENDROOT
BRANCH   1   6
ATOM      6  C6  ZIN A   1      19.235  -0.652  11.307  0.00  0.00     0.097 C 
BRANCH   6   7
ATOM      7  C3  ZIN A   1      18.897  -2.142  11.204  0.00  0.00     0.008 C 
BRANCH   7   8
ATOM      8  C2  ZIN A   1      19.803  -2.936  12.148  0.00  0.00     0.002 C 
ATOM      9  C1  ZIN A   1      20.438  -4.100  11.385  0.00  0.00     0.005 C 
ENDBRANCH   7   8
BRANCH   7  10
ATOM     10  C4  ZIN A   1      17.434  -2.361  11.596  0.00  0.00     0.002 C 
ATOM     11  C5  ZIN A   1      17.043  -3.812  11.313  0.00  0.00     0.005 C 
ENDBRANCH   7  10
ENDBRANCH   6   7
BRANCH   6  12
ATOM     12  N8  ZIN A   1      18.702  -0.117  12.562  0.00  0.00    -0.356 N 
ATOM     13  C9  ZIN A   1      19.543   0.349  13.506  0.00  0.00     0.213 C 
ATOM     14  C10 ZIN A   1      19.003   0.797  14.841  0.00  0.00     0.117 C 
ATOM     15  O11 ZIN A   1      20.734   0.408  13.284  0.00  0.00    -0.274 OA
ATOM     16  H42 ZIN A   1      17.744  -0.098  12.713  0.00  0.00     0.162 HD
ENDBRANCH   6  12
ENDBRANCH   1   6
BRANCH   5  17
ATOM     17  O30 ZIN A   1      20.046  -1.477   8.948  0.00  0.00    -0.394 OA
ATOM     18  H51 ZIN A   1      20.872  -0.985   9.049  0.00  0.00     0.210 HD
ENDBRANCH   5  17
BRANCH   2  19
ATOM     19  N16 ZIN A   1      18.667   2.477  10.815  0.00  0.00    -0.222 N 
ATOM     20  C17 ZIN A   1      19.453   3.273  11.604  0.00  0.00     0.665 C 
ATOM     21  N18 ZIN A   1      20.777   3.136  11.577  0.00  0.00    -0.235 N 
ATOM     22  N19 ZIN A   1      18.893   4.182  12.399  0.00  0.00    -0.235 N 
ATOM     23  H47 ZIN A   1      21.185   2.473  10.998  0.00  0.00     0.174 HD
ATOM     24  H48 ZIN A   1      21.335   3.700  12.136  0.00  0.00     0.174 HD
ATOM     25  H20 ZIN A   1      17.929   4.282  12.419  0.00  0.00     0.174 HD
ATOM     26  H21 ZIN A   1      19.451   4.747  12.958  0.00  0.00     0.174 HD
ATOM     27  H46 ZIN A   1      17.703   2.577  10.836  0.00  0.00     0.178 HD
ENDBRANCH   2  19
BRANCH   4  28
ATOM     28  C25 ZIN A   1      18.123   0.319   6.637  0.00  0.00     0.179 C 
ATOM     29  O26 ZIN A   1      18.435   0.579   5.487  0.00  0.00    -0.648 OA
ATOM     30  O27 ZIN A   1      16.984  -0.033   6.894  0.00  0.00    -0.648 OA
ENDBRANCH   4  28
TORSDOF 8
ENDMDL
MODEL 8
REMARK VINA RESULT:      -6.4      3.057      6.031
REMARK  8 active torsions:
REMARK  status: ('A' for Active; 'I' for Inactive)
REMARK    1  A    between atoms: C2_2  and  C3_3 
REMARK    2  A    between atoms: C3_3  and  C4_4 
REMARK    3  A    between atoms: C3_3  and  C6_6 
REMARK    4  A    between atoms: C6_6  and  N8_7 
REMARK    5  A    between atoms: C6_6  and  C12_11 
REMARK       I    between atoms: N8_7  and  C9_8 
REMARK    6  A    between atoms: C14_12  and  N16_13 
REMARK       I    between atoms: N16_13  and  C17_14 
REMARK       I    between atoms: C17_14  and  N18_15 
REMARK    7  A    between atoms: C23_20  and  C25_21 
REMARK    8  A    between atoms: C28_24  and  O30_25 
ROOT
ATOM      1  C12 ZIN A   1      17.805   3.097  13.820  0.00  0.00     0.061 C 
ATOM      2  C14 ZIN A   1      17.993   4.479  14.497  0.00  0.00     0.108 C 
ATOM      3  C22 ZIN A   1      17.622   5.467  13.365  0.00  0.00     0.044 C 
ATOM      4  C23 ZIN A   1      18.199   4.817  12.090  0.00  0.00     0.118 C 
ATOM      5  C28 ZIN A   1      18.312   3.307  12.379  0.00  0.00     0.140 C 
ENDROOT
BRANCH   1   6
ATOM      6  C6  ZIN A   1      18.642   2.033  14.533  0.00  0.00     0.097 C 
BRANCH   6   7
ATOM      7  C3  ZIN A   1      18.809   0.819  13.617  0.00  0.00     0.008 C 
BRANCH   7   8
ATOM      8  C2  ZIN A   1      19.983  -0.032  14.107  0.00  0.00     0.002 C 
ATOM      9  C1  ZIN A   1      19.455  -1.344  14.687  0.00  0.00     0.005 C 
ENDBRANCH   7   8
BRANCH   7  10
ATOM     10  C4  ZIN A   1      17.528  -0.018  13.641  0.00  0.00     0.002 C 
ATOM     11  C5  ZIN A   1      16.988  -0.164  12.218  0.00  0.00     0.005 C 
ENDBRANCH   7  10
ENDBRANCH   6   7
BRANCH   6  12
ATOM     12  N8  ZIN A   1      17.965   1.625  15.766  0.00  0.00    -0.356 N 
ATOM     13  C9  ZIN A   1      18.607   1.709  16.948  0.00  0.00     0.213 C 
ATOM     14  C10 ZIN A   1      17.952   1.185  18.200  0.00  0.00     0.117 C 
ATOM     15  O11 ZIN A   1      19.713   2.204  17.004  0.00  0.00    -0.274 OA
ATOM     16  H42 ZIN A   1      17.053   1.294  15.732  0.00  0.00     0.162 HD
ENDBRANCH   6  12
ENDBRANCH   1   6
BRANCH   5  17
ATOM     17  O30 ZIN A   1      19.675   2.890  12.275  0.00  0.00    -0.394 OA
ATOM     18  H51 ZIN A   1      19.930   2.594  11.390  0.00  0.00     0.210 HD
ENDBRANCH   5  17
BRANCH   2  19
ATOM     19  N16 ZIN A   1      17.086   4.625  15.638  0.00  0.00    -0.222 N 
ATOM     20  C17 ZIN A   1      17.571   5.040  16.848  0.00  0.00     0.665 C 
ATOM     21  N18 ZIN A   1      18.868   5.310  16.989  0.00  0.00    -0.235 N 
ATOM     22  N19 ZIN A   1      16.746   5.173  17.885  0.00  0.00    -0.235 N 
ATOM     23  H47 ZIN A   1      19.468   5.212  16.233  0.00  0.00     0.174 HD
ATOM     24  H48 ZIN A   1      19.212   5.605  17.847  0.00  0.00     0.174 HD
ATOM     25  H20 ZIN A   1      15.802   4.977  17.783  0.00  0.00     0.174 HD
ATOM     26  H21 ZIN A   1      17.090   5.468  18.744  0.00  0.00     0.174 HD
ATOM     27  H46 ZIN A   1      16.142   4.428  15.536  0.00  0.00     0.178 HD
ENDBRANCH   2  19
BRANCH   4  28
ATOM     28  C25 ZIN A   1      17.269   5.049  10.927  0.00  0.00     0.179 C 
ATOM     29  O26 ZIN A   1      16.092   4.743  11.016  0.00  0.00    -0.648 OA
ATOM     30  O27 ZIN A   1      17.693   5.544   9.897  0.00  0.00    -0.648 OA
ENDBRANCH   4  28
TORSDOF 8
ENDMDL
MODEL 9
REMARK VINA RESULT:      -6.4      4.503      6.274
REMARK  8 active torsions:
REMARK  status: ('A' for Active; 'I' for Inactive)
REMARK    1  A    between atoms: C2_2  and  C3_3 
REMARK    2  A    between atoms: C3_3  and  C4_4 
REMARK    3  A    between atoms: C3_3  and  C6_6 
REMARK    4  A    between atoms: C6_6  and  N8_7 
REMARK    5  A    between atoms: C6_6  and  C12_11 
REMARK       I    between atoms: N8_7  and  C9_8 
REMARK    6  A    between atoms: C14_12  and  N16_13 
REMARK       I    between atoms: N16_13  and  C17_14 
REMARK       I    between atoms: C17_14  and  N18_15 
REMARK    7  A    between atoms: C23_20  and  C25_21 
REMARK    8  A    between atoms: C28_24  and  O30_25 
ROOT
ATOM      1  C12 ZIN A   1      18.208  -1.753   9.948  0.00  0.00     0.061 C 
ATOM      2  C14 ZIN A   1      18.262  -3.281  10.200  0.00  0.00     0.108 C 
ATOM      3  C22 ZIN A   1      18.462  -3.368  11.732  0.00  0.00     0.044 C 
ATOM      4  C23 ZIN A   1      19.416  -2.200  12.057  0.00  0.00     0.118 C 
ATOM      5  C28 ZIN A   1      19.253  -1.170  10.922  0.00  0.00     0.140 C 
ENDROOT
BRANCH   1   6
ATOM      6  C6  ZIN A   1      18.590  -1.435   8.501  0.00  0.00     0.097 C 
BRANCH   6   7
ATOM      7  C3  ZIN A   1      18.020  -0.069   8.112  0.00  0.00     0.008 C 
BRANCH   7   8
ATOM      8  C2  ZIN A   1      19.169   0.904   7.839  0.00  0.00     0.002 C 
ATOM      9  C1  ZIN A   1      19.114   2.054   8.847  0.00  0.00     0.005 C 
ENDBRANCH   7   8
BRANCH   7  10
ATOM     10  C4  ZIN A   1      17.163  -0.214   6.853  0.00  0.00     0.002 C 
ATOM     11  C5  ZIN A   1      17.894   0.416   5.665  0.00  0.00     0.005 C 
ENDBRANCH   7  10
ENDBRANCH   6   7
BRANCH   6  12
ATOM     12  N8  ZIN A   1      18.040  -2.463   7.614  0.00  0.00    -0.356 N 
ATOM     13  C9  ZIN A   1      18.836  -3.073   6.715  0.00  0.00     0.213 C 
ATOM     14  C10 ZIN A   1      18.248  -4.050   5.728  0.00  0.00     0.117 C 
ATOM     15  O11 ZIN A   1      20.026  -2.837   6.697  0.00  0.00    -0.274 OA
ATOM     16  H42 ZIN A   1      17.102  -2.705   7.675  0.00  0.00     0.162 HD
ENDBRANCH   6  12
ENDBRANCH   1   6
BRANCH   5  17
ATOM     17  O30 ZIN A   1      20.499  -0.983  10.249  0.00  0.00    -0.394 OA
ATOM     18  H51 ZIN A   1      20.422  -0.932   9.286  0.00  0.00     0.210 HD
ENDBRANCH   5  17
BRANCH   2  19
ATOM     19  N16 ZIN A   1      17.004  -3.916   9.799  0.00  0.00    -0.222 N 
ATOM     20  C17 ZIN A   1      17.009  -5.195   9.311  0.00  0.00     0.665 C 
ATOM     21  N18 ZIN A   1      18.157  -5.860   9.199  0.00  0.00    -0.235 N 
ATOM     22  N19 ZIN A   1      15.865  -5.772   8.946  0.00  0.00    -0.235 N 
ATOM     23  H47 ZIN A   1      18.990  -5.439   9.464  0.00  0.00     0.174 HD
ATOM     24  H48 ZIN A   1      18.161  -6.767   8.853  0.00  0.00     0.174 HD
ATOM     25  H20 ZIN A   1      15.029  -5.288   9.028  0.00  0.00     0.174 HD
ATOM     26  H21 ZIN A   1      15.869  -6.679   8.600  0.00  0.00     0.174 HD
ATOM     27  H46 ZIN A   1      16.168  -3.432   9.879  0.00  0.00     0.178 HD
ENDBRANCH   2  19
BRANCH   4  28
ATOM     28  C25 ZIN A   1      19.039  -1.577  13.376  0.00  0.00     0.179 C 
ATOM     29  O26 ZIN A   1      19.814  -1.624  14.316  0.00  0.00    -0.648 OA
ATOM     30  O27 ZIN A   1      17.959  -1.026  13.503  0.00  0.00    -0.648 OA
ENDBRANCH   4  28
TORSDOF 8
ENDMDL
