MODEL 1
REMARK VINA RESULT:      -7.8      0.000      0.000
REMARK  8 active torsions:
REMARK  status: ('A' for Active; 'I' for Inactive)
REMARK    1  A    between atoms: C2_2  and  C3_3 
REMARK    2  A    between atoms: C3_3  and  C23_23 
REMARK    3  A    between atoms: C4_4  and  C5_5 
REMARK    4  A    between atoms: C4_4  and  C11_11 
REMARK    5  A    between atoms: C14_14  and  O15_15 
REMARK    6  A    between atoms: O15_15  and  C16_16 
REMARK    7  A    between atoms: C16_16  and  C17_17 
REMARK    8  A    between atoms: C17_17  and  N18_18 
ROOT
ATOM      1  C3  <0> d   1      18.895  -0.613  12.266  0.00  0.00    -0.036 C 
ATOM      2  C4  <0> d   1      18.755   0.347  11.321  0.00  0.00    -0.009 C 
ENDROOT
BRANCH   2   3
ATOM      3  C5  <0> d   1      18.784   1.775  11.708  0.00  0.00    -0.025 A 
ATOM      4  C10 <0> d   1      17.629   2.396  12.183  0.00  0.00     0.012 A 
ATOM      5  C9  <0> d   1      17.664   3.726  12.548  0.00  0.00     0.001 A 
ATOM      6  C8  <0> d   1      18.839   4.448  12.431  0.00  0.00     0.000 A 
ATOM      7  C7  <0> d   1      19.987   3.839  11.955  0.00  0.00     0.001 A 
ATOM      8  C6  <0> d   1      19.966   2.508  11.593  0.00  0.00     0.012 A 
ENDBRANCH   2   3
BRANCH   2   9
ATOM      9  C11 <0> d   1      18.571  -0.031   9.903  0.00  0.00    -0.024 A 
ATOM     10  C22 <0> d   1      19.654  -0.503   9.158  0.00  0.00     0.015 A 
ATOM     11  C21 <0> d   1      19.478  -0.860   7.839  0.00  0.00     0.037 A 
ATOM     12  C14 <0> d   1      18.228  -0.740   7.246  0.00  0.00     0.068 A 
ATOM     13  C13 <0> d   1      17.149  -0.265   7.981  0.00  0.00     0.037 A 
ATOM     14  C12 <0> d   1      17.315   0.088   9.303  0.00  0.00     0.015 A 
BRANCH  12  15
ATOM     15  O15 <0> d   1      18.059  -1.087   5.943  0.00  0.00    -0.349 OA
BRANCH  15  16
ATOM     16  C16 <0> d   1      19.205  -1.587   5.252  0.00  0.00     0.206 C 
BRANCH  16  17
ATOM     17  C17 <0> d   1      18.867  -2.936   4.613  0.00  0.00     0.297 C 
BRANCH  17  18
ATOM     18  N18 <0> d   1      18.513  -3.900   5.664  0.00  0.00     0.082 N 
ATOM     19  C19 <0> d   1      17.866  -5.088   5.092  0.00  0.00     0.309 C 
ATOM     20  C20 <0> d   1      19.694  -4.273   6.455  0.00  0.00     0.309 C 
ENDBRANCH  17  18
ENDBRANCH  16  17
ENDBRANCH  15  16
ENDBRANCH  12  15
ENDBRANCH   2   9
BRANCH   1  21
ATOM     21  C2  <0> d   1      19.223  -0.231  13.686  0.00  0.00     0.036 C 
ATOM     22  C1  <0> d   1      18.011  -0.505  14.580  0.00  0.00     0.010 C 
ENDBRANCH   1  21
BRANCH   1  23
ATOM     23  C23 <0> d   1      18.728  -2.030  11.905  0.00  0.00    -0.029 A 
ATOM     24  C28 <0> d   1      17.452  -2.547  11.662  0.00  0.00     0.012 A 
ATOM     25  C27 <0> d   1      17.304  -3.875  11.319  0.00  0.00     0.001 A 
ATOM     26  C26 <0> d   1      18.413  -4.697  11.226  0.00  0.00     0.000 A 
ATOM     27  C25 <0> d   1      19.680  -4.194  11.470  0.00  0.00     0.001 A 
ATOM     28  C24 <0> d   1      19.844  -2.867  11.809  0.00  0.00     0.012 A 
ENDBRANCH   1  23
TORSDOF 8
ENDMDL
MODEL 2
REMARK VINA RESULT:      -7.7      3.979      7.950
REMARK  8 active torsions:
REMARK  status: ('A' for Active; 'I' for Inactive)
REMARK    1  A    between atoms: C2_2  and  C3_3 
REMARK    2  A    between atoms: C3_3  and  C23_23 
REMARK    3  A    between atoms: C4_4  and  C5_5 
REMARK    4  A    between atoms: C4_4  and  C11_11 
REMARK    5  A    between atoms: C14_14  and  O15_15 
REMARK    6  A    between atoms: O15_15  and  C16_16 
REMARK    7  A    between atoms: C16_16  and  C17_17 
REMARK    8  A    between atoms: C17_17  and  N18_18 
ROOT
ATOM      1  C3  <0> d   1      18.395   3.314  10.850  0.00  0.00    -0.036 C 
ATOM      2  C4  <0> d   1      18.485   1.968  10.716  0.00  0.00    -0.009 C 
ENDROOT
BRANCH   2   3
ATOM      3  C5  <0> d   1      18.309   1.344   9.386  0.00  0.00    -0.025 A 
ATOM      4  C10 <0> d   1      17.316   0.385   9.189  0.00  0.00     0.012 A 
ATOM      5  C9  <0> d   1      17.152  -0.190   7.945  0.00  0.00     0.001 A 
ATOM      6  C8  <0> d   1      17.979   0.175   6.897  0.00  0.00     0.000 A 
ATOM      7  C7  <0> d   1      18.969   1.123   7.088  0.00  0.00     0.001 A 
ATOM      8  C6  <0> d   1      19.139   1.709   8.325  0.00  0.00     0.012 A 
ENDBRANCH   2   3
BRANCH   2   9
ATOM      9  C11 <0> d   1      18.760   1.124  11.899  0.00  0.00    -0.024 A 
ATOM     10  C22 <0> d   1      17.707   0.511  12.582  0.00  0.00     0.015 A 
ATOM     11  C21 <0> d   1      17.969  -0.279  13.680  0.00  0.00     0.037 A 
ATOM     12  C14 <0> d   1      19.275  -0.458  14.115  0.00  0.00     0.068 A 
ATOM     13  C13 <0> d   1      20.324   0.155  13.443  0.00  0.00     0.037 A 
ATOM     14  C12 <0> d   1      20.073   0.942  12.340  0.00  0.00     0.015 A 
BRANCH  12  15
ATOM     15  O15 <0> d   1      19.528  -1.233  15.203  0.00  0.00    -0.349 OA
BRANCH  15  16
ATOM     16  C16 <0> d   1      18.536  -1.251  16.230  0.00  0.00     0.206 C 
BRANCH  16  17
ATOM     17  C17 <0> d   1      18.972  -0.338  17.378  0.00  0.00     0.297 C 
BRANCH  17  18
ATOM     18  N18 <0> d   1      18.230   0.928  17.305  0.00  0.00     0.082 N 
ATOM     19  C19 <0> d   1      17.633   1.263  18.605  0.00  0.00     0.309 C 
ATOM     20  C20 <0> d   1      19.093   2.017  16.826  0.00  0.00     0.309 C 
ENDBRANCH  17  18
ENDBRANCH  16  17
ENDBRANCH  15  16
ENDBRANCH  12  15
ENDBRANCH   2   9
BRANCH   1  21
ATOM     21  C2  <0> d   1      18.257   4.185   9.629  0.00  0.00     0.036 C 
ATOM     22  C1  <0> d   1      17.341   5.369   9.948  0.00  0.00     0.010 C 
ENDBRANCH   1  21
BRANCH   1  23
ATOM     23  C23 <0> d   1      18.432   3.924  12.189  0.00  0.00    -0.029 A 
ATOM     24  C28 <0> d   1      19.600   4.542  12.647  0.00  0.00     0.012 A 
ATOM     25  C27 <0> d   1      19.626   5.116  13.901  0.00  0.00     0.001 A 
ATOM     26  C26 <0> d   1      18.503   5.071  14.709  0.00  0.00     0.000 A 
ATOM     27  C25 <0> d   1      17.345   4.457  14.265  0.00  0.00     0.001 A 
ATOM     28  C24 <0> d   1      17.302   3.883  13.011  0.00  0.00     0.012 A 
ENDBRANCH   1  23
TORSDOF 8
ENDMDL
MODEL 3
REMARK VINA RESULT:      -7.6      1.127      4.722
REMARK  8 active torsions:
REMARK  status: ('A' for Active; 'I' for Inactive)
REMARK    1  A    between atoms: C2_2  and  C3_3 
REMARK    2  A    between atoms: C3_3  and  C23_23 
REMARK    3  A    between atoms: C4_4  and  C5_5 
REMARK    4  A    between atoms: C4_4  and  C11_11 
REMARK    5  A    between atoms: C14_14  and  O15_15 
REMARK    6  A    between atoms: O15_15  and  C16_16 
REMARK    7  A    between atoms: C16_16  and  C17_17 
REMARK    8  A    between atoms: C17_17  and  N18_18 
ROOT
ATOM      1  C3  <0> d   1      18.405  -0.074  11.993  0.00  0.00    -0.036 C 
ATOM      2  C4  <0> d   1      18.466  -0.934  10.948  0.00  0.00    -0.009 C 
ENDROOT
BRANCH   2   3
ATOM      3  C5  <0> d   1      18.494  -2.393  11.192  0.00  0.00    -0.025 A 
ATOM      4  C10 <0> d   1      17.303  -3.095  11.382  0.00  0.00     0.012 A 
ATOM      5  C9  <0> d   1      17.335  -4.456  11.603  0.00  0.00     0.001 A 
ATOM      6  C8  <0> d   1      18.547  -5.124  11.649  0.00  0.00     0.000 A 
ATOM      7  C7  <0> d   1      19.732  -4.433  11.466  0.00  0.00     0.001 A 
ATOM      8  C6  <0> d   1      19.712  -3.073  11.238  0.00  0.00     0.012 A 
ENDBRANCH   2   3
BRANCH   2   9
ATOM      9  C11 <0> d   1      18.504  -0.414   9.564  0.00  0.00    -0.024 A 
ATOM     10  C22 <0> d   1      17.370  -0.499   8.752  0.00  0.00     0.015 A 
ATOM     11  C21 <0> d   1      17.409  -0.009   7.465  0.00  0.00     0.037 A 
ATOM     12  C14 <0> d   1      18.575   0.560   6.971  0.00  0.00     0.068 A 
ATOM     13  C13 <0> d   1      19.706   0.641   7.772  0.00  0.00     0.037 A 
ATOM     14  C12 <0> d   1      19.675   0.158   9.063  0.00  0.00     0.015 A 
BRANCH  12  15
ATOM     15  O15 <0> d   1      18.611   1.036   5.699  0.00  0.00    -0.349 OA
BRANCH  15  16
ATOM     16  C16 <0> d   1      18.398   0.093   4.647  0.00  0.00     0.206 C 
BRANCH  16  17
ATOM     17  C17 <0> d   1      19.508  -0.961   4.674  0.00  0.00     0.297 C 
BRANCH  17  18
ATOM     18  N18 <0> d   1      18.912  -2.301   4.583  0.00  0.00     0.082 N 
ATOM     19  C19 <0> d   1      19.203  -3.089   5.787  0.00  0.00     0.309 C 
ATOM     20  C20 <0> d   1      17.464  -2.218   4.345  0.00  0.00     0.309 C 
ENDBRANCH  17  18
ENDBRANCH  16  17
ENDBRANCH  15  16
ENDBRANCH  12  15
ENDBRANCH   2   9
BRANCH   1  21
ATOM     21  C2  <0> d   1      18.224  -0.600  13.394  0.00  0.00     0.036 C 
ATOM     22  C1  <0> d   1      19.588  -0.710  14.078  0.00  0.00     0.010 C 
ENDBRANCH   1  21
BRANCH   1  23
ATOM     23  C23 <0> d   1      18.517   1.375  11.761  0.00  0.00    -0.029 A 
ATOM     24  C28 <0> d   1      17.396   2.111  11.362  0.00  0.00     0.012 A 
ATOM     25  C27 <0> d   1      17.507   3.469  11.152  0.00  0.00     0.001 A 
ATOM     26  C26 <0> d   1      18.727   4.102  11.323  0.00  0.00     0.000 A 
ATOM     27  C25 <0> d   1      19.842   3.380  11.713  0.00  0.00     0.001 A 
ATOM     28  C24 <0> d   1      19.745   2.022  11.932  0.00  0.00     0.012 A 
ENDBRANCH   1  23
TORSDOF 8
ENDMDL
MODEL 4
REMARK VINA RESULT:      -7.5      3.911      8.552
REMARK  8 active torsions:
REMARK  status: ('A' for Active; 'I' for Inactive)
REMARK    1  A    between atoms: C2_2  and  C3_3 
REMARK    2  A    between atoms: C3_3  and  C23_23 
REMARK    3  A    between atoms: C4_4  and  C5_5 
REMARK    4  A    between atoms: C4_4  and  C11_11 
REMARK    5  A    between atoms: C14_14  and  O15_15 
REMARK    6  A    between atoms: O15_15  and  C16_16 
REMARK    7  A    between atoms: C16_16  and  C17_17 
REMARK    8  A    between atoms: C17_17  and  N18_18 
ROOT
ATOM      1  C3  <0> d   1      18.870  -0.219  10.752  0.00  0.00    -0.036 C 
ATOM      2  C4  <0> d   1      18.653  -1.105  11.754  0.00  0.00    -0.009 C 
ENDROOT
BRANCH   2   3
ATOM      3  C5  <0> d   1      18.570  -2.552  11.457  0.00  0.00    -0.025 A 
ATOM      4  C10 <0> d   1      19.735  -3.301  11.289  0.00  0.00     0.012 A 
ATOM      5  C9  <0> d   1      19.651  -4.651  11.017  0.00  0.00     0.001 A 
ATOM      6  C8  <0> d   1      18.414  -5.260  10.899  0.00  0.00     0.000 A 
ATOM      7  C7  <0> d   1      17.255  -4.522  11.059  0.00  0.00     0.001 A 
ATOM      8  C6  <0> d   1      17.325  -3.173  11.337  0.00  0.00     0.012 A 
ENDBRANCH   2   3
BRANCH   2   9
ATOM      9  C11 <0> d   1      18.499  -0.626  13.145  0.00  0.00    -0.024 A 
ATOM     10  C22 <0> d   1      17.391   0.146  13.501  0.00  0.00     0.015 A 
ATOM     11  C21 <0> d   1      17.249   0.586  14.799  0.00  0.00     0.037 A 
ATOM     12  C14 <0> d   1      18.211   0.272  15.750  0.00  0.00     0.068 A 
ATOM     13  C13 <0> d   1      19.317  -0.491  15.399  0.00  0.00     0.037 A 
ATOM     14  C12 <0> d   1      19.464  -0.940  14.104  0.00  0.00     0.015 A 
BRANCH  12  15
ATOM     15  O15 <0> d   1      18.070   0.713  17.028  0.00  0.00    -0.349 OA
BRANCH  15  16
ATOM     16  C16 <0> d   1      19.269   0.916  17.779  0.00  0.00     0.206 C 
BRANCH  16  17
ATOM     17  C17 <0> d   1      19.239   2.304  18.421  0.00  0.00     0.297 C 
BRANCH  17  18
ATOM     18  N18 <0> d   1      18.667   3.270  17.473  0.00  0.00     0.082 N 
ATOM     19  C19 <0> d   1      17.872   4.288  18.174  0.00  0.00     0.309 C 
ATOM     20  C20 <0> d   1      19.718   3.893  16.657  0.00  0.00     0.309 C 
ENDBRANCH  17  18
ENDBRANCH  16  17
ENDBRANCH  15  16
ENDBRANCH  12  15
ENDBRANCH   2   9
BRANCH   1  21
ATOM     21  C2  <0> d   1      19.167  -0.713   9.360  0.00  0.00     0.036 C 
ATOM     22  C1  <0> d   1      17.881  -0.708   8.531  0.00  0.00     0.010 C 
ENDBRANCH   1  21
BRANCH   1  23
ATOM     23  C23 <0> d   1      18.815   1.226  11.024  0.00  0.00    -0.029 A 
ATOM     24  C28 <0> d   1      19.912   1.876  11.599  0.00  0.00     0.012 A 
ATOM     25  C27 <0> d   1      19.855   3.231  11.845  0.00  0.00     0.001 A 
ATOM     26  C26 <0> d   1      18.711   3.946  11.536  0.00  0.00     0.000 A 
ATOM     27  C25 <0> d   1      17.619   3.311  10.971  0.00  0.00     0.001 A 
ATOM     28  C24 <0> d   1      17.663   1.956  10.713  0.00  0.00     0.012 A 
ENDBRANCH   1  23
TORSDOF 8
ENDMDL
MODEL 5
REMARK VINA RESULT:      -7.4      1.819      4.575
REMARK  8 active torsions:
REMARK  status: ('A' for Active; 'I' for Inactive)
REMARK    1  A    between atoms: C2_2  and  C3_3 
REMARK    2  A    between atoms: C3_3  and  C23_23 
REMARK    3  A    between atoms: C4_4  and  C5_5 
REMARK    4  A    between atoms: C4_4  and  C11_11 
REMARK    5  A    between atoms: C14_14  and  O15_15 
REMARK    6  A    between atoms: O15_15  and  C16_16 
REMARK    7  A    between atoms: C16_16  and  C17_17 
REMARK    8  A    between atoms: C17_17  and  N18_18 
ROOT
ATOM      1  C3  <0> d   1      18.271   0.278  12.204  0.00  0.00    -0.036 C 
ATOM      2  C4  <0> d   1      18.343  -0.868  12.924  0.00  0.00    -0.009 C 
ENDROOT
BRANCH   2   3
ATOM      3  C5  <0> d   1      18.304  -0.816  14.402  0.00  0.00    -0.025 A 
ATOM      4  C10 <0> d   1      17.274  -0.136  15.052  0.00  0.00     0.012 A 
ATOM      5  C9  <0> d   1      17.240  -0.096  16.431  0.00  0.00     0.001 A 
ATOM      6  C8  <0> d   1      18.233  -0.718  17.169  0.00  0.00     0.000 A 
ATOM      7  C7  <0> d   1      19.259  -1.390  16.530  0.00  0.00     0.001 A 
ATOM      8  C6  <0> d   1      19.301  -1.442  15.152  0.00  0.00     0.012 A 
ENDBRANCH   2   3
BRANCH   2   9
ATOM      9  C11 <0> d   1      18.460  -2.170  12.233  0.00  0.00    -0.024 A 
ATOM     10  C22 <0> d   1      17.324  -2.790  11.708  0.00  0.00     0.015 A 
ATOM     11  C21 <0> d   1      17.440  -4.001  11.060  0.00  0.00     0.037 A 
ATOM     12  C14 <0> d   1      18.681  -4.610  10.937  0.00  0.00     0.068 A 
ATOM     13  C13 <0> d   1      19.813  -4.000  11.462  0.00  0.00     0.037 A 
ATOM     14  C12 <0> d   1      19.708  -2.786  12.107  0.00  0.00     0.015 A 
BRANCH  12  15
ATOM     15  O15 <0> d   1      18.790  -5.807  10.303  0.00  0.00    -0.349 OA
BRANCH  15  16
ATOM     16  C16 <0> d   1      18.639  -5.803   8.882  0.00  0.00     0.206 C 
BRANCH  16  17
ATOM     17  C17 <0> d   1      20.003  -5.587   8.224  0.00  0.00     0.297 C 
BRANCH  17  18
ATOM     18  N18 <0> d   1      19.817  -4.973   6.903  0.00  0.00     0.082 N 
ATOM     19  C19 <0> d   1      18.756  -5.655   6.150  0.00  0.00     0.309 C 
ATOM     20  C20 <0> d   1      19.534  -3.536   7.025  0.00  0.00     0.309 C 
ENDBRANCH  17  18
ENDBRANCH  16  17
ENDBRANCH  15  16
ENDBRANCH  12  15
ENDBRANCH   2   9
BRANCH   1  21
ATOM     21  C2  <0> d   1      18.009   1.589  12.898  0.00  0.00     0.036 C 
ATOM     22  C1  <0> d   1      19.168   2.551  12.625  0.00  0.00     0.010 C 
ENDBRANCH   1  21
BRANCH   1  23
ATOM     23  C23 <0> d   1      18.448   0.241  10.744  0.00  0.00    -0.029 A 
ATOM     24  C28 <0> d   1      19.731   0.145  10.194  0.00  0.00     0.012 A 
ATOM     25  C27 <0> d   1      19.889   0.106   8.824  0.00  0.00     0.001 A 
ATOM     26  C26 <0> d   1      18.782   0.172   7.995  0.00  0.00     0.000 A 
ATOM     27  C25 <0> d   1      17.510   0.272   8.531  0.00  0.00     0.001 A 
ATOM     28  C24 <0> d   1      17.336   0.306   9.898  0.00  0.00     0.012 A 
ENDBRANCH   1  23
TORSDOF 8
ENDMDL
MODEL 6
REMARK VINA RESULT:      -7.4      2.359      5.401
REMARK  8 active torsions:
REMARK  status: ('A' for Active; 'I' for Inactive)
REMARK    1  A    between atoms: C2_2  and  C3_3 
REMARK    2  A    between atoms: C3_3  and  C23_23 
REMARK    3  A    between atoms: C4_4  and  C5_5 
REMARK    4  A    between atoms: C4_4  and  C11_11 
REMARK    5  A    between atoms: C14_14  and  O15_15 
REMARK    6  A    between atoms: O15_15  and  C16_16 
REMARK    7  A    between atoms: C16_16  and  C17_17 
REMARK    8  A    between atoms: C17_17  and  N18_18 
ROOT
ATOM      1  C3  <0> d   1      18.282   2.529  14.038  0.00  0.00    -0.036 C 
ATOM      2  C4  <0> d   1      18.270   1.250  14.483  0.00  0.00    -0.009 C 
ENDROOT
BRANCH   2   3
ATOM      3  C5  <0> d   1      18.298   0.971  15.936  0.00  0.00    -0.025 A 
ATOM      4  C10 <0> d   1      19.303   1.516  16.735  0.00  0.00     0.012 A 
ATOM      5  C9  <0> d   1      19.320   1.258  18.090  0.00  0.00     0.001 A 
ATOM      6  C8  <0> d   1      18.349   0.450  18.656  0.00  0.00     0.000 A 
ATOM      7  C7  <0> d   1      17.353  -0.098  17.868  0.00  0.00     0.001 A 
ATOM      8  C6  <0> d   1      17.321   0.158  16.513  0.00  0.00     0.012 A 
ENDBRANCH   2   3
BRANCH   2   9
ATOM      9  C11 <0> d   1      18.231   0.131  13.517  0.00  0.00    -0.024 A 
ATOM     10  C22 <0> d   1      19.315  -0.742  13.410  0.00  0.00     0.015 A 
ATOM     11  C21 <0> d   1      19.272  -1.786  12.512  0.00  0.00     0.037 A 
ATOM     12  C14 <0> d   1      18.155  -1.965  11.706  0.00  0.00     0.068 A 
ATOM     13  C13 <0> d   1      17.077  -1.096  11.804  0.00  0.00     0.037 A 
ATOM     14  C12 <0> d   1      17.110  -0.052  12.704  0.00  0.00     0.015 A 
BRANCH  12  15
ATOM     15  O15 <0> d   1      18.119  -2.992  10.816  0.00  0.00    -0.349 OA
BRANCH  15  16
ATOM     16  C16 <0> d   1      18.976  -2.894   9.678  0.00  0.00     0.206 C 
BRANCH  16  17
ATOM     17  C17 <0> d   1      18.145  -2.543   8.442  0.00  0.00     0.297 C 
BRANCH  17  18
ATOM     18  N18 <0> d   1      18.456  -1.172   8.016  0.00  0.00     0.082 N 
ATOM     19  C19 <0> d   1      17.303  -0.284   8.216  0.00  0.00     0.309 C 
ATOM     20  C20 <0> d   1      19.642  -0.660   8.716  0.00  0.00     0.309 C 
ENDBRANCH  17  18
ENDBRANCH  16  17
ENDBRANCH  15  16
ENDBRANCH  12  15
ENDBRANCH   2   9
BRANCH   1  21
ATOM     21  C2  <0> d   1      18.180   3.669  15.019  0.00  0.00     0.036 C 
ATOM     22  C1  <0> d   1      19.270   4.700  14.718  0.00  0.00     0.010 C 
ENDBRANCH   1  21
BRANCH   1  23
ATOM     23  C23 <0> d   1      18.394   2.806  12.598  0.00  0.00    -0.029 A 
ATOM     24  C28 <0> d   1      19.544   2.428  11.897  0.00  0.00     0.012 A 
ATOM     25  C27 <0> d   1      19.640   2.686  10.546  0.00  0.00     0.001 A 
ATOM     26  C26 <0> d   1      18.607   3.328   9.886  0.00  0.00     0.000 A 
ATOM     27  C25 <0> d   1      17.467   3.711  10.573  0.00  0.00     0.001 A 
ATOM     28  C24 <0> d   1      17.355   3.454  11.923  0.00  0.00     0.012 A 
ENDBRANCH   1  23
TORSDOF 8
ENDMDL
MODEL 7
REMARK VINA RESULT:      -7.4      3.658      7.250
REMARK  8 active torsions:
REMARK  status: ('A' for Active; 'I' for Inactive)
REMARK    1  A    between atoms: C2_2  and  C3_3 
REMARK    2  A    between atoms: C3_3  and  C23_23 
REMARK    3  A    between atoms: C4_4  and  C5_5 
REMARK    4  A    between atoms: C4_4  and  C11_11 
REMARK    5  A    between atoms: C14_14  and  O15_15 
REMARK    6  A    between atoms: O15_15  and  C16_16 
REMARK    7  A    between atoms: C16_16  and  C17_17 
REMARK    8  A    between atoms: C17_17  and  N18_18 
ROOT
ATOM      1  C3  <0> d   1      18.128  -0.650  10.677  0.00  0.00    -0.036 C 
ATOM      2  C4  <0> d   1      18.255   0.507   9.984  0.00  0.00    -0.009 C 
ENDROOT
BRANCH   2   3
ATOM      3  C5  <0> d   1      18.190   0.494   8.506  0.00  0.00    -0.025 A 
ATOM      4  C10 <0> d   1      19.199   1.097   7.755  0.00  0.00     0.012 A 
ATOM      5  C9  <0> d   1      19.137   1.077   6.377  0.00  0.00     0.001 A 
ATOM      6  C8  <0> d   1      18.068   0.471   5.739  0.00  0.00     0.000 A 
ATOM      7  C7  <0> d   1      17.061  -0.125   6.478  0.00  0.00     0.001 A 
ATOM      8  C6  <0> d   1      17.116  -0.117   7.856  0.00  0.00     0.012 A 
ENDBRANCH   2   3
BRANCH   2   9
ATOM      9  C11 <0> d   1      18.458   1.782  10.704  0.00  0.00    -0.024 A 
ATOM     10  C22 <0> d   1      19.710   2.093  11.239  0.00  0.00     0.015 A 
ATOM     11  C21 <0> d   1      19.896   3.285  11.905  0.00  0.00     0.037 A 
ATOM     12  C14 <0> d   1      18.839   4.172  12.054  0.00  0.00     0.068 A 
ATOM     13  C13 <0> d   1      17.590   3.864  11.530  0.00  0.00     0.037 A 
ATOM     14  C12 <0> d   1      17.397   2.677  10.857  0.00  0.00     0.015 A 
BRANCH  12  15
ATOM     15  O15 <0> d   1      19.025   5.344  12.717  0.00  0.00    -0.349 OA
BRANCH  15  16
ATOM     16  C16 <0> d   1      19.755   5.285  13.944  0.00  0.00     0.206 C 
BRANCH  16  17
ATOM     17  C17 <0> d   1      18.786   5.409  15.122  0.00  0.00     0.297 C 
BRANCH  17  18
ATOM     18  N18 <0> d   1      19.126   4.408  16.142  0.00  0.00     0.082 N 
ATOM     19  C19 <0> d   1      18.273   4.556  17.329  0.00  0.00     0.309 C 
ATOM     20  C20 <0> d   1      19.035   3.047  15.595  0.00  0.00     0.309 C 
ENDBRANCH  17  18
ENDBRANCH  16  17
ENDBRANCH  15  16
ENDBRANCH  12  15
ENDBRANCH   2   9
BRANCH   1  21
ATOM     21  C2  <0> d   1      17.780  -1.927   9.956  0.00  0.00     0.036 C 
ATOM     22  C1  <0> d   1      19.061  -2.711   9.660  0.00  0.00     0.010 C 
ENDBRANCH   1  21
BRANCH   1  23
ATOM     23  C23 <0> d   1      18.330  -0.661  12.135  0.00  0.00    -0.029 A 
ATOM     24  C28 <0> d   1      19.511  -1.178  12.677  0.00  0.00     0.012 A 
ATOM     25  C27 <0> d   1      19.695  -1.179  14.044  0.00  0.00     0.001 A 
ATOM     26  C26 <0> d   1      18.710  -0.680  14.878  0.00  0.00     0.000 A 
ATOM     27  C25 <0> d   1      17.536  -0.171  14.350  0.00  0.00     0.001 A 
ATOM     28  C24 <0> d   1      17.340  -0.158  12.985  0.00  0.00     0.012 A 
ENDBRANCH   1  23
TORSDOF 8
ENDMDL
MODEL 8
REMARK VINA RESULT:      -7.2      3.745      7.349
REMARK  8 active torsions:
REMARK  status: ('A' for Active; 'I' for Inactive)
REMARK    1  A    between atoms: C2_2  and  C3_3 
REMARK    2  A    between atoms: C3_3  and  C23_23 
REMARK    3  A    between atoms: C4_4  and  C5_5 
REMARK    4  A    between atoms: C4_4  and  C11_11 
REMARK    5  A    between atoms: C14_14  and  O15_15 
REMARK    6  A    between atoms: O15_15  and  C16_16 
REMARK    7  A    between atoms: C16_16  and  C17_17 
REMARK    8  A    between atoms: C17_17  and  N18_18 
ROOT
ATOM      1  C3  <0> d   1      18.156  -0.599  10.761  0.00  0.00    -0.036 C 
ATOM      2  C4  <0> d   1      18.289   0.550  10.055  0.00  0.00    -0.009 C 
ENDROOT
BRANCH   2   3
ATOM      3  C5  <0> d   1      18.208   0.522   8.577  0.00  0.00    -0.025 A 
ATOM      4  C10 <0> d   1      17.158  -0.143   7.945  0.00  0.00     0.012 A 
ATOM      5  C9  <0> d   1      17.085  -0.160   6.567  0.00  0.00     0.001 A 
ATOM      6  C8  <0> d   1      18.059   0.471   5.812  0.00  0.00     0.000 A 
ATOM      7  C7  <0> d   1      19.106   1.129   6.433  0.00  0.00     0.001 A 
ATOM      8  C6  <0> d   1      19.186   1.158   7.810  0.00  0.00     0.012 A 
ENDBRANCH   2   3
BRANCH   2   9
ATOM      9  C11 <0> d   1      18.515   1.830  10.759  0.00  0.00    -0.024 A 
ATOM     10  C22 <0> d   1      17.457   2.723  10.947  0.00  0.00     0.015 A 
ATOM     11  C21 <0> d   1      17.671   3.912  11.609  0.00  0.00     0.037 A 
ATOM     12  C14 <0> d   1      18.938   4.229  12.080  0.00  0.00     0.068 A 
ATOM     13  C13 <0> d   1      19.994   3.347  11.891  0.00  0.00     0.037 A 
ATOM     14  C12 <0> d   1      19.788   2.152  11.235  0.00  0.00     0.015 A 
BRANCH  12  15
ATOM     15  O15 <0> d   1      19.146   5.406  12.727  0.00  0.00    -0.349 OA
BRANCH  15  16
ATOM     16  C16 <0> d   1      19.457   5.334  14.120  0.00  0.00     0.206 C 
BRANCH  16  17
ATOM     17  C17 <0> d   1      18.713   6.443  14.867  0.00  0.00     0.297 C 
BRANCH  17  18
ATOM     18  N18 <0> d   1      17.668   5.848  15.711  0.00  0.00     0.082 N 
ATOM     19  C19 <0> d   1      16.437   5.622  14.943  0.00  0.00     0.309 C 
ATOM     20  C20 <0> d   1      18.138   4.601  16.330  0.00  0.00     0.309 C 
ENDBRANCH  17  18
ENDBRANCH  16  17
ENDBRANCH  15  16
ENDBRANCH  12  15
ENDBRANCH   2   9
BRANCH   1  21
ATOM     21  C2  <0> d   1      17.786  -1.879  10.057  0.00  0.00     0.036 C 
ATOM     22  C1  <0> d   1      17.451  -2.953  11.095  0.00  0.00     0.010 C 
ENDBRANCH   1  21
BRANCH   1  23
ATOM     23  C23 <0> d   1      18.373  -0.596  12.217  0.00  0.00    -0.029 A 
ATOM     24  C28 <0> d   1      19.565  -1.098  12.750  0.00  0.00     0.012 A 
ATOM     25  C27 <0> d   1      19.763  -1.087  14.115  0.00  0.00     0.001 A 
ATOM     26  C26 <0> d   1      18.782  -0.591  14.956  0.00  0.00     0.000 A 
ATOM     27  C25 <0> d   1      17.598  -0.097  14.437  0.00  0.00     0.001 A 
ATOM     28  C24 <0> d   1      17.388  -0.096  13.074  0.00  0.00     0.012 A 
ENDBRANCH   1  23
TORSDOF 8
ENDMDL
MODEL 9
REMARK VINA RESULT:      -7.1      2.604      5.126
REMARK  8 active torsions:
REMARK  status: ('A' for Active; 'I' for Inactive)
REMARK    1  A    between atoms: C2_2  and  C3_3 
REMARK    2  A    between atoms: C3_3  and  C23_23 
REMARK    3  A    between atoms: C4_4  and  C5_5 
REMARK    4  A    between atoms: C4_4  and  C11_11 
REMARK    5  A    between atoms: C14_14  and  O15_15 
REMARK    6  A    between atoms: O15_15  and  C16_16 
REMARK    7  A    between atoms: C16_16  and  C17_17 
REMARK    8  A    between atoms: C17_17  and  N18_18 
ROOT
ATOM      1  C3  <0> d   1      18.301   3.404  10.765  0.00  0.00    -0.036 C 
ATOM      2  C4  <0> d   1      18.620   3.051  12.034  0.00  0.00    -0.009 C 
ENDROOT
BRANCH   2   3
ATOM      3  C5  <0> d   1      18.756   4.091  13.078  0.00  0.00    -0.025 A 
ATOM      4  C10 <0> d   1      17.713   4.326  13.973  0.00  0.00     0.012 A 
ATOM      5  C9  <0> d   1      17.847   5.293  14.948  0.00  0.00     0.001 A 
ATOM      6  C8  <0> d   1      19.012   6.037  15.032  0.00  0.00     0.000 A 
ATOM      7  C7  <0> d   1      20.049   5.811  14.145  0.00  0.00     0.001 A 
ATOM      8  C6  <0> d   1      19.928   4.844  13.169  0.00  0.00     0.012 A 
ENDBRANCH   2   3
BRANCH   2   9
ATOM      9  C11 <0> d   1      18.832   1.628  12.375  0.00  0.00    -0.024 A 
ATOM     10  C22 <0> d   1      17.813   0.894  12.986  0.00  0.00     0.015 A 
ATOM     11  C21 <0> d   1      18.013  -0.433  13.297  0.00  0.00     0.037 A 
ATOM     12  C14 <0> d   1      19.230  -1.039  13.014  0.00  0.00     0.068 A 
ATOM     13  C13 <0> d   1      20.248  -0.312  12.413  0.00  0.00     0.037 A 
ATOM     14  C12 <0> d   1      20.055   1.015  12.093  0.00  0.00     0.015 A 
BRANCH  12  15
ATOM     15  O15 <0> d   1      19.425  -2.347  13.329  0.00  0.00    -0.349 OA
BRANCH  15  16
ATOM     16  C16 <0> d   1      19.588  -3.257  12.240  0.00  0.00     0.206 C 
BRANCH  16  17
ATOM     17  C17 <0> d   1      18.226  -3.839  11.853  0.00  0.00     0.297 C 
BRANCH  17  18
ATOM     18  N18 <0> d   1      18.375  -4.680  10.659  0.00  0.00     0.082 N 
ATOM     19  C19 <0> d   1      17.490  -4.222   9.579  0.00  0.00     0.309 C 
ATOM     20  C20 <0> d   1      19.774  -4.718  10.212  0.00  0.00     0.309 C 
ENDBRANCH  17  18
ENDBRANCH  16  17
ENDBRANCH  15  16
ENDBRANCH  12  15
ENDBRANCH   2   9
BRANCH   1  21
ATOM     21  C2  <0> d   1      17.947   4.833  10.446  0.00  0.00     0.036 C 
ATOM     22  C1  <0> d   1      16.462   5.067  10.733  0.00  0.00     0.010 C 
ENDBRANCH   1  21
BRANCH   1  23
ATOM     23  C23 <0> d   1      18.301   2.390   9.699  0.00  0.00    -0.029 A 
ATOM     24  C28 <0> d   1      19.221   2.476   8.648  0.00  0.00     0.012 A 
ATOM     25  C27 <0> d   1      19.219   1.519   7.655  0.00  0.00     0.001 A 
ATOM     26  C26 <0> d   1      18.301   0.483   7.690  0.00  0.00     0.000 A 
ATOM     27  C25 <0> d   1      17.384   0.394   8.723  0.00  0.00     0.001 A 
ATOM     28  C24 <0> d   1      17.378   1.340   9.726  0.00  0.00     0.012 A 
ENDBRANCH   1  23
TORSDOF 8
ENDMDL
