MODEL 1
REMARK VINA RESULT:      -6.6      0.000      0.000
REMARK  1 active torsions:
REMARK  status: ('A' for Active; 'I' for Inactive)
REMARK    1  A    between atoms: C8_8  and  C9_9 
ROOT
ATOM      1  C1  ZIN A   1      17.387   5.111  10.756  0.00  0.00     0.048 C 
ATOM      2  C2  ZIN A   1      18.028   3.750  10.830  0.00  0.00    -0.055 A 
ATOM      3  C3  ZIN A   1      18.520   3.283  12.014  0.00  0.00     0.083 A 
ATOM      4  C4  ZIN A   1      19.113   2.009  12.057  0.00  0.00     0.274 A 
ATOM      5  O5  ZIN A   1      19.557   1.579  13.109  0.00  0.00    -0.266 OA
ATOM      6  N6  ZIN A   1      19.193   1.264  10.939  0.00  0.00    -0.155 N 
ATOM      7  O7  ZIN A   1      19.791  -0.019  10.992  0.00  0.00    -0.077 OA
ATOM      8  C8  ZIN A   1      18.703   1.726   9.760  0.00  0.00     0.052 A 
ATOM      9  C15 ZIN A   1      18.121   2.947   9.684  0.00  0.00     0.035 A 
ENDROOT
BRANCH   8  10
ATOM     10  C9  ZIN A   1      18.804   0.871   8.523  0.00  0.00     0.038 C 
ATOM     11  C14 ZIN A   1      19.076   1.761   7.309  0.00  0.00     0.011 C 
ATOM     12  C13 ZIN A   1      19.179   0.893   6.053  0.00  0.00     0.001 C 
ATOM     13  C12 ZIN A   1      17.866   0.136   5.847  0.00  0.00     0.000 C 
ATOM     14  C11 ZIN A   1      17.594  -0.754   7.062  0.00  0.00     0.001 C 
ATOM     15  C10 ZIN A   1      17.491   0.114   8.318  0.00  0.00     0.011 C 
ENDBRANCH   8  10
TORSDOF 1
ENDMDL
MODEL 2
REMARK VINA RESULT:      -6.6      2.834      4.059
REMARK  1 active torsions:
REMARK  status: ('A' for Active; 'I' for Inactive)
REMARK    1  A    between atoms: C8_8  and  C9_9 
ROOT
ATOM      1  C1  ZIN A   1      20.002  -3.767  11.551  0.00  0.00     0.048 C 
ATOM      2  C2  ZIN A   1      19.206  -2.488  11.595  0.00  0.00    -0.055 A 
ATOM      3  C3  ZIN A   1      18.711  -2.026  12.779  0.00  0.00     0.083 A 
ATOM      4  C4  ZIN A   1      17.973  -0.830  12.794  0.00  0.00     0.274 A 
ATOM      5  O5  ZIN A   1      17.523  -0.404  13.846  0.00  0.00    -0.266 OA
ATOM      6  N6  ZIN A   1      17.760  -0.153  11.650  0.00  0.00    -0.155 N 
ATOM      7  O7  ZIN A   1      17.016   1.052  11.676  0.00  0.00    -0.077 OA
ATOM      8  C8  ZIN A   1      18.253  -0.611  10.471  0.00  0.00     0.052 A 
ATOM      9  C15 ZIN A   1      18.973  -1.757  10.421  0.00  0.00     0.035 A 
ENDROOT
BRANCH   8  10
ATOM     10  C9  ZIN A   1      18.002   0.166   9.205  0.00  0.00     0.038 C 
ATOM     11  C14 ZIN A   1      17.565  -0.794   8.096  0.00  0.00     0.011 C 
ATOM     12  C13 ZIN A   1      17.309  -0.005   6.810  0.00  0.00     0.001 C 
ATOM     13  C12 ZIN A   1      18.592   0.713   6.388  0.00  0.00     0.000 C 
ATOM     14  C11 ZIN A   1      19.029   1.673   7.497  0.00  0.00     0.001 C 
ATOM     15  C10 ZIN A   1      19.285   0.883   8.783  0.00  0.00     0.011 C 
ENDBRANCH   8  10
TORSDOF 1
ENDMDL
MODEL 3
REMARK VINA RESULT:      -6.5      2.306      5.391
REMARK  1 active torsions:
REMARK  status: ('A' for Active; 'I' for Inactive)
REMARK    1  A    between atoms: C8_8  and  C9_9 
ROOT
ATOM      1  C1  ZIN A   1      18.859   0.022   4.342  0.00  0.00     0.048 C 
ATOM      2  C2  ZIN A   1      18.987  -0.585   5.715  0.00  0.00    -0.055 A 
ATOM      3  C3  ZIN A   1      19.208  -1.924   5.859  0.00  0.00     0.083 A 
ATOM      4  C4  ZIN A   1      19.326  -2.466   7.150  0.00  0.00     0.274 A 
ATOM      5  O5  ZIN A   1      19.523  -3.662   7.294  0.00  0.00    -0.266 OA
ATOM      6  N6  ZIN A   1      19.220  -1.668   8.229  0.00  0.00    -0.155 N 
ATOM      7  O7  ZIN A   1      19.341  -2.223   9.526  0.00  0.00    -0.077 OA
ATOM      8  C8  ZIN A   1      19.002  -0.335   8.088  0.00  0.00     0.052 A 
ATOM      9  C15 ZIN A   1      18.888   0.220   6.858  0.00  0.00     0.035 A 
ENDROOT
BRANCH   8  10
ATOM     10  C9  ZIN A   1      18.889   0.536   9.312  0.00  0.00     0.038 C 
ATOM     11  C14 ZIN A   1      17.468   0.447   9.871  0.00  0.00     0.011 C 
ATOM     12  C13 ZIN A   1      17.352   1.332  11.115  0.00  0.00     0.001 C 
ATOM     13  C12 ZIN A   1      17.664   2.781  10.741  0.00  0.00     0.000 C 
ATOM     14  C11 ZIN A   1      19.086   2.870  10.181  0.00  0.00     0.001 C 
ATOM     15  C10 ZIN A   1      19.201   1.985   8.938  0.00  0.00     0.011 C 
ENDBRANCH   8  10
TORSDOF 1
ENDMDL
MODEL 4
REMARK VINA RESULT:      -6.5      4.093      5.907
REMARK  1 active torsions:
REMARK  status: ('A' for Active; 'I' for Inactive)
REMARK    1  A    between atoms: C8_8  and  C9_9 
ROOT
ATOM      1  C1  ZIN A   1      19.431   5.369  14.575  0.00  0.00     0.048 C 
ATOM      2  C2  ZIN A   1      18.764   4.264  13.798  0.00  0.00    -0.055 A 
ATOM      3  C3  ZIN A   1      18.174   4.526  12.596  0.00  0.00     0.083 A 
ATOM      4  C4  ZIN A   1      17.559   3.478  11.889  0.00  0.00     0.274 A 
ATOM      5  O5  ZIN A   1      17.027   3.698  10.813  0.00  0.00    -0.266 OA
ATOM      6  N6  ZIN A   1      17.554   2.232  12.399  0.00  0.00    -0.155 N 
ATOM      7  O7  ZIN A   1      16.933   1.183  11.679  0.00  0.00    -0.077 OA
ATOM      8  C8  ZIN A   1      18.142   1.969  13.594  0.00  0.00     0.052 A 
ATOM      9  C15 ZIN A   1      18.748   2.954  14.299  0.00  0.00     0.035 A 
ENDROOT
BRANCH   8  10
ATOM     10  C9  ZIN A   1      18.123   0.565  14.141  0.00  0.00     0.038 C 
ATOM     11  C14 ZIN A   1      17.625   0.588  15.587  0.00  0.00     0.011 C 
ATOM     12  C13 ZIN A   1      17.606  -0.837  16.143  0.00  0.00     0.001 C 
ATOM     13  C12 ZIN A   1      19.019  -1.421  16.099  0.00  0.00     0.000 C 
ATOM     14  C11 ZIN A   1      19.518  -1.444  14.653  0.00  0.00     0.001 C 
ATOM     15  C10 ZIN A   1      19.537  -0.018  14.097  0.00  0.00     0.011 C 
ENDBRANCH   8  10
TORSDOF 1
ENDMDL
MODEL 5
REMARK VINA RESULT:      -6.4      2.380      3.489
REMARK  1 active torsions:
REMARK  status: ('A' for Active; 'I' for Inactive)
REMARK    1  A    between atoms: C8_8  and  C9_9 
ROOT
ATOM      1  C1  ZIN A   1      19.311   1.189  14.835  0.00  0.00     0.048 C 
ATOM      2  C2  ZIN A   1      18.615   2.043  13.806  0.00  0.00    -0.055 A 
ATOM      3  C3  ZIN A   1      18.056   3.235  14.165  0.00  0.00     0.083 A 
ATOM      4  C4  ZIN A   1      17.414   4.014  13.187  0.00  0.00     0.274 A 
ATOM      5  O5  ZIN A   1      16.909   5.082  13.493  0.00  0.00    -0.266 OA
ATOM      6  N6  ZIN A   1      17.353   3.583  11.913  0.00  0.00    -0.155 N 
ATOM      7  O7  ZIN A   1      16.705   4.375  10.935  0.00  0.00    -0.077 OA
ATOM      8  C8  ZIN A   1      17.910   2.398  11.555  0.00  0.00     0.052 A 
ATOM      9  C15 ZIN A   1      18.541   1.625  12.470  0.00  0.00     0.035 A 
ENDROOT
BRANCH   8  10
ATOM     10  C9  ZIN A   1      17.829   1.939  10.122  0.00  0.00     0.038 C 
ATOM     11  C14 ZIN A   1      17.500   0.445  10.082  0.00  0.00     0.011 C 
ATOM     12  C13 ZIN A   1      17.417  -0.021   8.627  0.00  0.00     0.001 C 
ATOM     13  C12 ZIN A   1      18.760   0.224   7.936  0.00  0.00     0.000 C 
ATOM     14  C11 ZIN A   1      19.090   1.718   7.975  0.00  0.00     0.001 C 
ATOM     15  C10 ZIN A   1      19.172   2.184   9.431  0.00  0.00     0.011 C 
ENDBRANCH   8  10
TORSDOF 1
ENDMDL
MODEL 6
REMARK VINA RESULT:      -6.4      3.319      5.990
REMARK  1 active torsions:
REMARK  status: ('A' for Active; 'I' for Inactive)
REMARK    1  A    between atoms: C8_8  and  C9_9 
ROOT
ATOM      1  C1  ZIN A   1      18.613   3.832  11.471  0.00  0.00     0.048 C 
ATOM      2  C2  ZIN A   1      18.174   2.391  11.524  0.00  0.00    -0.055 A 
ATOM      3  C3  ZIN A   1      17.779   1.748  10.388  0.00  0.00     0.083 A 
ATOM      4  C4  ZIN A   1      17.376   0.404  10.464  0.00  0.00     0.274 A 
ATOM      5  O5  ZIN A   1      17.020  -0.184   9.455  0.00  0.00    -0.266 OA
ATOM      6  N6  ZIN A   1      17.380  -0.236  11.648  0.00  0.00    -0.155 N 
ATOM      7  O7  ZIN A   1      16.972  -1.590  11.715  0.00  0.00    -0.077 OA
ATOM      8  C8  ZIN A   1      17.774   0.402  12.780  0.00  0.00     0.052 A 
ATOM      9  C15 ZIN A   1      18.173   1.695  12.742  0.00  0.00     0.035 A 
ENDROOT
BRANCH   8  10
ATOM     10  C9  ZIN A   1      17.770  -0.338  14.093  0.00  0.00     0.038 C 
ATOM     11  C14 ZIN A   1      17.328   0.609  15.210  0.00  0.00     0.011 C 
ATOM     12  C13 ZIN A   1      17.324  -0.142  16.544  0.00  0.00     0.001 C 
ATOM     13  C12 ZIN A   1      18.732  -0.661  16.841  0.00  0.00     0.000 C 
ATOM     14  C11 ZIN A   1      19.174  -1.608  15.723  0.00  0.00     0.001 C 
ATOM     15  C10 ZIN A   1      19.178  -0.857  14.390  0.00  0.00     0.011 C 
ENDBRANCH   8  10
TORSDOF 1
ENDMDL
MODEL 7
REMARK VINA RESULT:      -6.3      2.311      5.216
REMARK  1 active torsions:
REMARK  status: ('A' for Active; 'I' for Inactive)
REMARK    1  A    between atoms: C8_8  and  C9_9 
ROOT
ATOM      1  C1  ZIN A   1      16.815   4.912  10.923  0.00  0.00     0.048 C 
ATOM      2  C2  ZIN A   1      17.688   3.684  10.883  0.00  0.00    -0.055 A 
ATOM      3  C3  ZIN A   1      18.288   3.302   9.719  0.00  0.00     0.083 A 
ATOM      4  C4  ZIN A   1      19.099   2.155   9.708  0.00  0.00     0.274 A 
ATOM      5  O5  ZIN A   1      19.641   1.801   8.673  0.00  0.00    -0.266 OA
ATOM      6  N6  ZIN A   1      19.277   1.444  10.837  0.00  0.00    -0.155 N 
ATOM      7  O7  ZIN A   1      20.097   0.289  10.817  0.00  0.00    -0.077 OA
ATOM      8  C8  ZIN A   1      18.682   1.823  11.997  0.00  0.00     0.052 A 
ATOM      9  C15 ZIN A   1      17.898   2.926  12.044  0.00  0.00     0.035 A 
ENDROOT
BRANCH   8  10
ATOM     10  C9  ZIN A   1      18.899   1.010  13.247  0.00  0.00     0.038 C 
ATOM     11  C14 ZIN A   1      17.800  -0.049  13.363  0.00  0.00     0.011 C 
ATOM     12  C13 ZIN A   1      18.020  -0.875  14.633  0.00  0.00     0.001 C 
ATOM     13  C12 ZIN A   1      17.975   0.044  15.854  0.00  0.00     0.000 C 
ATOM     14  C11 ZIN A   1      19.074   1.104  15.738  0.00  0.00     0.001 C 
ATOM     15  C10 ZIN A   1      18.853   1.929  14.468  0.00  0.00     0.011 C 
ENDBRANCH   8  10
TORSDOF 1
ENDMDL
MODEL 8
REMARK VINA RESULT:      -6.2      4.107      7.071
REMARK  1 active torsions:
REMARK  status: ('A' for Active; 'I' for Inactive)
REMARK    1  A    between atoms: C8_8  and  C9_9 
ROOT
ATOM      1  C1  ZIN A   1      20.180  -3.720  11.609  0.00  0.00     0.048 C 
ATOM      2  C2  ZIN A   1      19.282  -2.522  11.787  0.00  0.00    -0.055 A 
ATOM      3  C3  ZIN A   1      18.649  -1.969  10.712  0.00  0.00     0.083 A 
ATOM      4  C4  ZIN A   1      17.817  -0.854  10.905  0.00  0.00     0.274 A 
ATOM      5  O5  ZIN A   1      17.244  -0.349   9.953  0.00  0.00    -0.266 OA
ATOM      6  N6  ZIN A   1      17.650  -0.340  12.139  0.00  0.00    -0.155 N 
ATOM      7  O7  ZIN A   1      16.809   0.784  12.323  0.00  0.00    -0.077 OA
ATOM      8  C8  ZIN A   1      18.279  -0.890  13.209  0.00  0.00     0.052 A 
ATOM      9  C15 ZIN A   1      19.084  -1.968  13.060  0.00  0.00     0.035 A 
ENDROOT
BRANCH   8  10
ATOM     10  C9  ZIN A   1      18.075  -0.296  14.579  0.00  0.00     0.038 C 
ATOM     11  C14 ZIN A   1      19.181   0.722  14.863  0.00  0.00     0.011 C 
ATOM     12  C13 ZIN A   1      18.974   1.325  16.254  0.00  0.00     0.001 C 
ATOM     13  C12 ZIN A   1      19.022   0.214  17.304  0.00  0.00     0.000 C 
ATOM     14  C11 ZIN A   1      17.916  -0.805  17.020  0.00  0.00     0.001 C 
ATOM     15  C10 ZIN A   1      18.122  -1.408  15.629  0.00  0.00     0.011 C 
ENDBRANCH   8  10
TORSDOF 1
ENDMDL
MODEL 9
REMARK VINA RESULT:      -6.2      4.197      5.264
REMARK  1 active torsions:
REMARK  status: ('A' for Active; 'I' for Inactive)
REMARK    1  A    between atoms: C8_8  and  C9_9 
ROOT
ATOM      1  C1  ZIN A   1      18.856  -1.232  16.494  0.00  0.00     0.048 C 
ATOM      2  C2  ZIN A   1      18.913  -0.768  15.061  0.00  0.00    -0.055 A 
ATOM      3  C3  ZIN A   1      19.024   0.560  14.770  0.00  0.00     0.083 A 
ATOM      4  C4  ZIN A   1      19.076   0.967  13.426  0.00  0.00     0.274 A 
ATOM      5  O5  ZIN A   1      19.176   2.152  13.151  0.00  0.00    -0.266 OA
ATOM      6  N6  ZIN A   1      19.015   0.051  12.441  0.00  0.00    -0.155 N 
ATOM      7  O7  ZIN A   1      19.069   0.470  11.089  0.00  0.00    -0.077 OA
ATOM      8  C8  ZIN A   1      18.905  -1.271  12.729  0.00  0.00     0.052 A 
ATOM      9  C15 ZIN A   1      18.857  -1.698  14.013  0.00  0.00     0.035 A 
ENDROOT
BRANCH   8  10
ATOM     10  C9  ZIN A   1      18.840  -2.275  11.607  0.00  0.00     0.038 C 
ATOM     11  C14 ZIN A   1      17.448  -2.908  11.570  0.00  0.00     0.011 C 
ATOM     12  C13 ZIN A   1      17.380  -3.928  10.431  0.00  0.00     0.001 C 
ATOM     13  C12 ZIN A   1      18.430  -5.017  10.659  0.00  0.00     0.000 C 
ATOM     14  C11 ZIN A   1      19.823  -4.384  10.697  0.00  0.00     0.001 C 
ATOM     15  C10 ZIN A   1      19.889  -3.364  11.835  0.00  0.00     0.011 C 
ENDBRANCH   8  10
TORSDOF 1
ENDMDL
