MODEL 1
REMARK VINA RESULT:      -6.8      0.000      0.000
REMARK  6 active torsions:
REMARK  status: ('A' for Active; 'I' for Inactive)
REMARK    1  A    between atoms: N2_2  and  C4_4 
REMARK    2  A    between atoms: C4_4  and  C5_5 
REMARK    3  A    between atoms: C5_5  and  O6_6 
REMARK    4  A    between atoms: O6_6  and  C7_7 
REMARK    5  A    between atoms: C7_7  and  C9_8 
REMARK    6  A    between atoms: C7_7  and  C16_15 
ROOT
ATOM      1  C7  ZIN A   1      19.216   1.955  10.653  0.00  0.00     0.206 C 
ENDROOT
BRANCH   1   2
ATOM      2  O6  ZIN A   1      19.126   0.992  11.704  0.00  0.00    -0.373 OA
BRANCH   2   3
ATOM      3  C5  ZIN A   1      20.392   0.564  12.211  0.00  0.00     0.199 C 
BRANCH   3   4
ATOM      4  C4  ZIN A   1      20.244   0.163  13.680  0.00  0.00     0.297 C 
BRANCH   4   5
ATOM      5  N2  ZIN A   1      18.919   0.567  14.167  0.00  0.00     0.082 N 
ATOM      6  C1  ZIN A   1      18.148  -0.596  14.626  0.00  0.00     0.309 C 
ATOM      7  C3  ZIN A   1      19.034   1.574  15.231  0.00  0.00     0.309 C 
ENDBRANCH   4   5
ENDBRANCH   3   4
ENDBRANCH   2   3
ENDBRANCH   1   2
BRANCH   1   8
ATOM      8  C9  ZIN A   1      18.746   1.335   9.363  0.00  0.00    -0.024 A 
ATOM      9  C15 ZIN A   1      17.683   0.450   9.368  0.00  0.00     0.012 A 
ATOM     10  C14 ZIN A   1      17.248  -0.115   8.184  0.00  0.00     0.024 A 
ATOM     11  C12 ZIN A   1      17.884   0.196   6.995  0.00  0.00     0.034 A 
ATOM     12  C11 ZIN A   1      18.951   1.077   6.991  0.00  0.00     0.024 A 
ATOM     13 Cl13 ZIN A   1      17.343  -0.520   5.509  0.00  0.00    -0.084 Cl
ATOM     14  C10 ZIN A   1      19.382   1.645   8.174  0.00  0.00     0.012 A 
ENDBRANCH   1   8
BRANCH   1  15
ATOM     15  C16 ZIN A   1      18.350   3.143  10.985  0.00  0.00     0.067 A 
ATOM     16  N21 ZIN A   1      17.884   3.287  12.210  0.00  0.00    -0.263 NA
ATOM     17  C20 ZIN A   1      17.127   4.313  12.548  0.00  0.00     0.117 A 
ATOM     18  C19 ZIN A   1      16.782   5.274  11.617  0.00  0.00     0.019 A 
ATOM     19  C18 ZIN A   1      17.247   5.152  10.317  0.00  0.00     0.003 A 
ATOM     20  C17 ZIN A   1      18.046   4.063  10.000  0.00  0.00     0.030 A 
ENDBRANCH   1  15
TORSDOF 6
ENDMDL
MODEL 2
REMARK VINA RESULT:      -6.7      1.913      2.574
REMARK  6 active torsions:
REMARK  status: ('A' for Active; 'I' for Inactive)
REMARK    1  A    between atoms: N2_2  and  C4_4 
REMARK    2  A    between atoms: C4_4  and  C5_5 
REMARK    3  A    between atoms: C5_5  and  O6_6 
REMARK    4  A    between atoms: O6_6  and  C7_7 
REMARK    5  A    between atoms: C7_7  and  C9_8 
REMARK    6  A    between atoms: C7_7  and  C16_15 
ROOT
ATOM      1  C7  ZIN A   1      18.170   0.684  10.518  0.00  0.00     0.206 C 
ENDROOT
BRANCH   1   2
ATOM      2  O6  ZIN A   1      16.926   0.147  10.970  0.00  0.00    -0.373 OA
BRANCH   2   3
ATOM      3  C5  ZIN A   1      17.043  -0.724  12.097  0.00  0.00     0.199 C 
BRANCH   3   4
ATOM      4  C4  ZIN A   1      17.551  -2.091  11.635  0.00  0.00     0.297 C 
BRANCH   4   5
ATOM      5  N2  ZIN A   1      18.615  -2.549  12.537  0.00  0.00     0.082 N 
ATOM      6  C1  ZIN A   1      19.748  -3.099  11.780  0.00  0.00     0.309 C 
ATOM      7  C3  ZIN A   1      19.054  -1.465  13.427  0.00  0.00     0.309 C 
ENDBRANCH   4   5
ENDBRANCH   3   4
ENDBRANCH   2   3
ENDBRANCH   1   2
BRANCH   1   8
ATOM      8  C9  ZIN A   1      18.240   0.592   9.015  0.00  0.00    -0.024 A 
ATOM      9  C15 ZIN A   1      19.155   1.361   8.318  0.00  0.00     0.012 A 
ATOM     10  C14 ZIN A   1      19.223   1.273   6.941  0.00  0.00     0.024 A 
ATOM     11  C12 ZIN A   1      18.369   0.425   6.258  0.00  0.00     0.034 A 
ATOM     12  C11 ZIN A   1      17.451  -0.340   6.956  0.00  0.00     0.024 A 
ATOM     13 Cl13 ZIN A   1      18.449   0.321   4.527  0.00  0.00    -0.084 Cl
ATOM     14  C10 ZIN A   1      17.386  -0.256   8.334  0.00  0.00     0.012 A 
ENDBRANCH   1   8
BRANCH   1  15
ATOM     15  C16 ZIN A   1      18.277   2.127  10.939  0.00  0.00     0.067 A 
ATOM     16  N21 ZIN A   1      17.251   2.936  10.757  0.00  0.00    -0.263 NA
ATOM     17  C20 ZIN A   1      17.297   4.205  11.114  0.00  0.00     0.117 A 
ATOM     18  C19 ZIN A   1      18.436   4.738  11.686  0.00  0.00     0.019 A 
ATOM     19  C18 ZIN A   1      19.536   3.919  11.888  0.00  0.00     0.003 A 
ATOM     20  C17 ZIN A   1      19.449   2.589  11.505  0.00  0.00     0.030 A 
ENDBRANCH   1  15
TORSDOF 6
ENDMDL
MODEL 3
REMARK VINA RESULT:      -6.7      3.403      5.870
REMARK  6 active torsions:
REMARK  status: ('A' for Active; 'I' for Inactive)
REMARK    1  A    between atoms: N2_2  and  C4_4 
REMARK    2  A    between atoms: C4_4  and  C5_5 
REMARK    3  A    between atoms: C5_5  and  O6_6 
REMARK    4  A    between atoms: O6_6  and  C7_7 
REMARK    5  A    between atoms: C7_7  and  C9_8 
REMARK    6  A    between atoms: C7_7  and  C16_15 
ROOT
ATOM      1  C7  ZIN A   1      17.987  -0.086  12.124  0.00  0.00     0.206 C 
ENDROOT
BRANCH   1   2
ATOM      2  O6  ZIN A   1      18.865  -0.959  11.411  0.00  0.00    -0.373 OA
BRANCH   2   3
ATOM      3  C5  ZIN A   1      18.407  -1.301  10.101  0.00  0.00     0.199 C 
BRANCH   3   4
ATOM      4  C4  ZIN A   1      19.456  -0.884   9.069  0.00  0.00     0.297 C 
BRANCH   4   5
ATOM      5  N2  ZIN A   1      18.831  -0.024   8.056  0.00  0.00     0.082 N 
ATOM      6  C1  ZIN A   1      17.367  -0.045   8.176  0.00  0.00     0.309 C 
ATOM      7  C3  ZIN A   1      19.346   1.349   8.140  0.00  0.00     0.309 C 
ENDBRANCH   4   5
ENDBRANCH   3   4
ENDBRANCH   2   3
ENDBRANCH   1   2
BRANCH   1   8
ATOM      8  C9  ZIN A   1      18.236  -0.222  13.604  0.00  0.00    -0.024 A 
ATOM      9  C15 ZIN A   1      17.573   0.602  14.495  0.00  0.00     0.012 A 
ATOM     10  C14 ZIN A   1      17.796   0.473  15.853  0.00  0.00     0.024 A 
ATOM     11  C12 ZIN A   1      18.693  -0.472  16.319  0.00  0.00     0.034 A 
ATOM     12  C11 ZIN A   1      19.360  -1.293  15.427  0.00  0.00     0.024 A 
ATOM     13 Cl13 ZIN A   1      18.980  -0.628  18.024  0.00  0.00    -0.084 Cl
ATOM     14  C10 ZIN A   1      19.131  -1.167  14.070  0.00  0.00     0.012 A 
ENDBRANCH   1   8
BRANCH   1  15
ATOM     15  C16 ZIN A   1      18.242   1.338  11.700  0.00  0.00     0.067 A 
ATOM     16  N21 ZIN A   1      17.256   2.055  11.197  0.00  0.00    -0.263 NA
ATOM     17  C20 ZIN A   1      17.431   3.306  10.818  0.00  0.00     0.117 A 
ATOM     18  C19 ZIN A   1      18.669   3.911  10.926  0.00  0.00     0.019 A 
ATOM     19  C18 ZIN A   1      19.731   3.187  11.445  0.00  0.00     0.003 A 
ATOM     20  C17 ZIN A   1      19.507   1.876  11.838  0.00  0.00     0.030 A 
ENDBRANCH   1  15
TORSDOF 6
ENDMDL
MODEL 4
REMARK VINA RESULT:      -6.7      1.525      3.791
REMARK  6 active torsions:
REMARK  status: ('A' for Active; 'I' for Inactive)
REMARK    1  A    between atoms: N2_2  and  C4_4 
REMARK    2  A    between atoms: C4_4  and  C5_5 
REMARK    3  A    between atoms: C5_5  and  O6_6 
REMARK    4  A    between atoms: O6_6  and  C7_7 
REMARK    5  A    between atoms: C7_7  and  C9_8 
REMARK    6  A    between atoms: C7_7  and  C16_15 
ROOT
ATOM      1  C7  ZIN A   1      17.683   1.976  11.347  0.00  0.00     0.206 C 
ENDROOT
BRANCH   1   2
ATOM      2  O6  ZIN A   1      18.219   3.284  11.549  0.00  0.00    -0.373 OA
BRANCH   2   3
ATOM      3  C5  ZIN A   1      17.255   4.249  11.975  0.00  0.00     0.199 C 
BRANCH   3   4
ATOM      4  C4  ZIN A   1      17.441   4.533  13.466  0.00  0.00     0.297 C 
BRANCH   4   5
ATOM      5  N2  ZIN A   1      18.826   4.235  13.852  0.00  0.00     0.082 N 
ATOM      6  C1  ZIN A   1      19.610   5.469  14.000  0.00  0.00     0.309 C 
ATOM      7  C3  ZIN A   1      18.869   3.435  15.084  0.00  0.00     0.309 C 
ENDBRANCH   4   5
ENDBRANCH   3   4
ENDBRANCH   2   3
ENDBRANCH   1   2
BRANCH   1   8
ATOM      8  C9  ZIN A   1      18.020   1.504   9.956  0.00  0.00    -0.024 A 
ATOM      9  C15 ZIN A   1      17.435   0.355   9.456  0.00  0.00     0.012 A 
ATOM     10  C14 ZIN A   1      17.739  -0.075   8.178  0.00  0.00     0.024 A 
ATOM     11  C12 ZIN A   1      18.638   0.638   7.404  0.00  0.00     0.034 A 
ATOM     12  C11 ZIN A   1      19.226   1.785   7.907  0.00  0.00     0.024 A 
ATOM     13 Cl13 ZIN A   1      19.027   0.095   5.802  0.00  0.00    -0.084 Cl
ATOM     14  C10 ZIN A   1      18.917   2.217   9.183  0.00  0.00     0.012 A 
ENDBRANCH   1   8
BRANCH   1  15
ATOM     15  C16 ZIN A   1      18.278   1.028  12.357  0.00  0.00     0.067 A 
ATOM     16  N21 ZIN A   1      19.585   0.994  12.527  0.00  0.00    -0.263 NA
ATOM     17  C20 ZIN A   1      20.150   0.185  13.402  0.00  0.00     0.117 A 
ATOM     18  C19 ZIN A   1      19.384  -0.672  14.170  0.00  0.00     0.019 A 
ATOM     19  C18 ZIN A   1      18.007  -0.669  14.014  0.00  0.00     0.003 A 
ATOM     20  C17 ZIN A   1      17.448   0.199  13.088  0.00  0.00     0.030 A 
ENDBRANCH   1  15
TORSDOF 6
ENDMDL
MODEL 5
REMARK VINA RESULT:      -6.6      3.906      6.928
REMARK  6 active torsions:
REMARK  status: ('A' for Active; 'I' for Inactive)
REMARK    1  A    between atoms: N2_2  and  C4_4 
REMARK    2  A    between atoms: C4_4  and  C5_5 
REMARK    3  A    between atoms: C5_5  and  O6_6 
REMARK    4  A    between atoms: O6_6  and  C7_7 
REMARK    5  A    between atoms: C7_7  and  C9_8 
REMARK    6  A    between atoms: C7_7  and  C16_15 
ROOT
ATOM      1  C7  ZIN A   1      19.235  -0.994  12.035  0.00  0.00     0.206 C 
ENDROOT
BRANCH   1   2
ATOM      2  O6  ZIN A   1      18.593  -0.106  11.119  0.00  0.00    -0.373 OA
BRANCH   2   3
ATOM      3  C5  ZIN A   1      19.409   0.271  10.007  0.00  0.00     0.199 C 
BRANCH   3   4
ATOM      4  C4  ZIN A   1      19.186   1.751   9.690  0.00  0.00     0.297 C 
BRANCH   4   5
ATOM      5  N2  ZIN A   1      18.744   2.451  10.902  0.00  0.00     0.082 N 
ATOM      6  C1  ZIN A   1      19.859   3.173  11.531  0.00  0.00     0.309 C 
ATOM      7  C3  ZIN A   1      17.628   3.361  10.608  0.00  0.00     0.309 C 
ENDBRANCH   4   5
ENDBRANCH   3   4
ENDBRANCH   2   3
ENDBRANCH   1   2
BRANCH   1   8
ATOM      8  C9  ZIN A   1      18.779  -0.683  13.438  0.00  0.00    -0.024 A 
ATOM      9  C15 ZIN A   1      17.841   0.310  13.655  0.00  0.00     0.012 A 
ATOM     10  C14 ZIN A   1      17.419   0.592  14.940  0.00  0.00     0.024 A 
ATOM     11  C12 ZIN A   1      17.944  -0.111  16.011  0.00  0.00     0.034 A 
ATOM     12  C11 ZIN A   1      18.886  -1.101  15.793  0.00  0.00     0.024 A 
ATOM     13 Cl13 ZIN A   1      17.419   0.248  17.626  0.00  0.00    -0.084 Cl
ATOM     14  C10 ZIN A   1      19.303  -1.386  14.507  0.00  0.00     0.012 A 
ENDBRANCH   1   8
BRANCH   1  15
ATOM     15  C16 ZIN A   1      18.872  -2.417  11.693  0.00  0.00     0.067 A 
ATOM     16  N21 ZIN A   1      17.602  -2.762  11.606  0.00  0.00    -0.263 NA
ATOM     17  C20 ZIN A   1      17.238  -3.993  11.304  0.00  0.00     0.117 A 
ATOM     18  C19 ZIN A   1      18.183  -4.975  11.077  0.00  0.00     0.019 A 
ATOM     19  C18 ZIN A   1      19.528  -4.650  11.166  0.00  0.00     0.003 A 
ATOM     20  C17 ZIN A   1      19.873  -3.345  11.480  0.00  0.00     0.030 A 
ENDBRANCH   1  15
TORSDOF 6
ENDMDL
MODEL 6
REMARK VINA RESULT:      -6.5      4.044      7.259
REMARK  6 active torsions:
REMARK  status: ('A' for Active; 'I' for Inactive)
REMARK    1  A    between atoms: N2_2  and  C4_4 
REMARK    2  A    between atoms: C4_4  and  C5_5 
REMARK    3  A    between atoms: C5_5  and  O6_6 
REMARK    4  A    between atoms: O6_6  and  C7_7 
REMARK    5  A    between atoms: C7_7  and  C9_8 
REMARK    6  A    between atoms: C7_7  and  C16_15 
ROOT
ATOM      1  C7  ZIN A   1      19.505  -1.090  12.089  0.00  0.00     0.206 C 
ENDROOT
BRANCH   1   2
ATOM      2  O6  ZIN A   1      19.042  -0.139  11.128  0.00  0.00    -0.373 OA
BRANCH   2   3
ATOM      3  C5  ZIN A   1      19.823  -0.094   9.932  0.00  0.00     0.199 C 
BRANCH   3   4
ATOM      4  C4  ZIN A   1      19.221   0.929   8.968  0.00  0.00     0.297 C 
BRANCH   4   5
ATOM      5  N2  ZIN A   1      18.739   0.243   7.763  0.00  0.00     0.082 N 
ATOM      6  C1  ZIN A   1      17.342  -0.183   7.922  0.00  0.00     0.309 C 
ATOM      7  C3  ZIN A   1      18.898   1.091   6.574  0.00  0.00     0.309 C 
ENDBRANCH   4   5
ENDBRANCH   3   4
ENDBRANCH   2   3
ENDBRANCH   1   2
BRANCH   1   8
ATOM      8  C9  ZIN A   1      18.942  -0.748  13.444  0.00  0.00    -0.024 A 
ATOM      9  C15 ZIN A   1      19.371  -1.437  14.564  0.00  0.00     0.012 A 
ATOM     10  C14 ZIN A   1      18.859  -1.120  15.809  0.00  0.00     0.024 A 
ATOM     11  C12 ZIN A   1      17.908  -0.122  15.931  0.00  0.00     0.034 A 
ATOM     12  C11 ZIN A   1      17.475   0.562  14.810  0.00  0.00     0.024 A 
ATOM     13 Cl13 ZIN A   1      17.259   0.270  17.493  0.00  0.00    -0.084 Cl
ATOM     14  C10 ZIN A   1      17.991   0.249  13.567  0.00  0.00     0.012 A 
ENDBRANCH   1   8
BRANCH   1  15
ATOM     15  C16 ZIN A   1      19.049  -2.470  11.689  0.00  0.00     0.067 A 
ATOM     16  N21 ZIN A   1      17.763  -2.707  11.518  0.00  0.00    -0.263 NA
ATOM     17  C20 ZIN A   1      17.319  -3.897  11.163  0.00  0.00     0.117 A 
ATOM     18  C19 ZIN A   1      18.193  -4.949  10.968  0.00  0.00     0.019 A 
ATOM     19  C18 ZIN A   1      19.552  -4.739  11.144  0.00  0.00     0.003 A 
ATOM     20  C17 ZIN A   1      19.982  -3.473  11.512  0.00  0.00     0.030 A 
ENDBRANCH   1  15
TORSDOF 6
ENDMDL
MODEL 7
REMARK VINA RESULT:      -6.4      1.894      4.172
REMARK  6 active torsions:
REMARK  status: ('A' for Active; 'I' for Inactive)
REMARK    1  A    between atoms: N2_2  and  C4_4 
REMARK    2  A    between atoms: C4_4  and  C5_5 
REMARK    3  A    between atoms: C5_5  and  O6_6 
REMARK    4  A    between atoms: O6_6  and  C7_7 
REMARK    5  A    between atoms: C7_7  and  C9_8 
REMARK    6  A    between atoms: C7_7  and  C16_15 
ROOT
ATOM      1  C7  ZIN A   1      18.243   1.112   9.962  0.00  0.00     0.206 C 
ENDROOT
BRANCH   1   2
ATOM      2  O6  ZIN A   1      19.311   2.014  10.256  0.00  0.00    -0.373 OA
BRANCH   2   3
ATOM      3  C5  ZIN A   1      18.879   3.303  10.697  0.00  0.00     0.199 C 
BRANCH   3   4
ATOM      4  C4  ZIN A   1      17.466   3.198  11.274  0.00  0.00     0.297 C 
BRANCH   4   5
ATOM      5  N2  ZIN A   1      17.353   4.065  12.454  0.00  0.00     0.082 N 
ATOM      6  C1  ZIN A   1      18.679   4.404  12.988  0.00  0.00     0.309 C 
ATOM      7  C3  ZIN A   1      16.585   5.278  12.144  0.00  0.00     0.309 C 
ENDBRANCH   4   5
ENDBRANCH   3   4
ENDBRANCH   2   3
ENDBRANCH   1   2
BRANCH   1   8
ATOM      8  C9  ZIN A   1      18.247   0.792   8.490  0.00  0.00    -0.024 A 
ATOM      9  C15 ZIN A   1      17.320  -0.095   7.973  0.00  0.00     0.012 A 
ATOM     10  C14 ZIN A   1      17.319  -0.385   6.622  0.00  0.00     0.024 A 
ATOM     11  C12 ZIN A   1      18.254   0.204   5.788  0.00  0.00     0.034 A 
ATOM     12  C11 ZIN A   1      19.184   1.088   6.306  0.00  0.00     0.024 A 
ATOM     13 Cl13 ZIN A   1      18.258  -0.166   4.092  0.00  0.00    -0.084 Cl
ATOM     14  C10 ZIN A   1      19.180   1.381   7.657  0.00  0.00     0.012 A 
ENDBRANCH   1   8
BRANCH   1  15
ATOM     15  C16 ZIN A   1      18.427  -0.158  10.753  0.00  0.00     0.067 A 
ATOM     16  N21 ZIN A   1      19.566  -0.818  10.669  0.00  0.00    -0.263 NA
ATOM     17  C20 ZIN A   1      19.774  -1.931  11.346  0.00  0.00     0.117 A 
ATOM     18  C19 ZIN A   1      18.792  -2.454  12.166  0.00  0.00     0.019 A 
ATOM     19  C18 ZIN A   1      17.580  -1.791  12.274  0.00  0.00     0.003 A 
ATOM     20  C17 ZIN A   1      17.399  -0.621  11.552  0.00  0.00     0.030 A 
ENDBRANCH   1  15
TORSDOF 6
ENDMDL
MODEL 8
REMARK VINA RESULT:      -6.3      3.333      4.548
REMARK  6 active torsions:
REMARK  status: ('A' for Active; 'I' for Inactive)
REMARK    1  A    between atoms: N2_2  and  C4_4 
REMARK    2  A    between atoms: C4_4  and  C5_5 
REMARK    3  A    between atoms: C5_5  and  O6_6 
REMARK    4  A    between atoms: O6_6  and  C7_7 
REMARK    5  A    between atoms: C7_7  and  C9_8 
REMARK    6  A    between atoms: C7_7  and  C16_15 
ROOT
ATOM      1  C7  ZIN A   1      19.589  -0.626  12.024  0.00  0.00     0.206 C 
ENDROOT
BRANCH   1   2
ATOM      2  O6  ZIN A   1      18.893  -0.045  13.127  0.00  0.00    -0.373 OA
BRANCH   2   3
ATOM      3  C5  ZIN A   1      19.703   0.152  14.288  0.00  0.00     0.199 C 
BRANCH   3   4
ATOM      4  C4  ZIN A   1      18.845   0.717  15.420  0.00  0.00     0.297 C 
BRANCH   4   5
ATOM      5  N2  ZIN A   1      18.801  -0.244  16.529  0.00  0.00     0.082 N 
ATOM      6  C1  ZIN A   1      19.263   0.373  17.780  0.00  0.00     0.309 C 
ATOM      7  C3  ZIN A   1      17.453  -0.807  16.686  0.00  0.00     0.309 C 
ENDBRANCH   4   5
ENDBRANCH   3   4
ENDBRANCH   2   3
ENDBRANCH   1   2
BRANCH   1   8
ATOM      8  C9  ZIN A   1      19.051  -2.010  11.764  0.00  0.00    -0.024 A 
ATOM      9  C15 ZIN A   1      19.918  -3.084  11.686  0.00  0.00     0.012 A 
ATOM     10  C14 ZIN A   1      19.425  -4.354  11.453  0.00  0.00     0.024 A 
ATOM     11  C12 ZIN A   1      18.065  -4.548  11.286  0.00  0.00     0.034 A 
ATOM     12  C11 ZIN A   1      17.199  -3.472  11.359  0.00  0.00     0.024 A 
ATOM     13 Cl13 ZIN A   1      17.446  -6.142  10.985  0.00  0.00    -0.084 Cl
ATOM     14  C10 ZIN A   1      17.692  -2.203  11.597  0.00  0.00     0.012 A 
ENDBRANCH   1   8
BRANCH   1  15
ATOM     15  C16 ZIN A   1      19.390   0.229  10.798  0.00  0.00     0.067 A 
ATOM     16  N21 ZIN A   1      19.868  -0.174   9.638  0.00  0.00    -0.263 NA
ATOM     17  C20 ZIN A   1      19.714   0.538   8.538  0.00  0.00     0.117 A 
ATOM     18  C19 ZIN A   1      19.049   1.749   8.568  0.00  0.00     0.019 A 
ATOM     19  C18 ZIN A   1      18.537   2.208   9.771  0.00  0.00     0.003 A 
ATOM     20  C17 ZIN A   1      18.713   1.429  10.905  0.00  0.00     0.030 A 
ENDBRANCH   1  15
TORSDOF 6
ENDMDL
MODEL 9
REMARK VINA RESULT:      -6.3      2.780      3.942
REMARK  6 active torsions:
REMARK  status: ('A' for Active; 'I' for Inactive)
REMARK    1  A    between atoms: N2_2  and  C4_4 
REMARK    2  A    between atoms: C4_4  and  C5_5 
REMARK    3  A    between atoms: C5_5  and  O6_6 
REMARK    4  A    between atoms: O6_6  and  C7_7 
REMARK    5  A    between atoms: C7_7  and  C9_8 
REMARK    6  A    between atoms: C7_7  and  C16_15 
ROOT
ATOM      1  C7  ZIN A   1      18.504   0.508  13.132  0.00  0.00     0.206 C 
ENDROOT
BRANCH   1   2
ATOM      2  O6  ZIN A   1      17.378   0.672  13.996  0.00  0.00    -0.373 OA
BRANCH   2   3
ATOM      3  C5  ZIN A   1      17.593   0.202  15.328  0.00  0.00     0.199 C 
BRANCH   3   4
ATOM      4  C4  ZIN A   1      18.953   0.692  15.828  0.00  0.00     0.297 C 
BRANCH   4   5
ATOM      5  N2  ZIN A   1      18.756   1.683  16.894  0.00  0.00     0.082 N 
ATOM      6  C1  ZIN A   1      19.260   1.181  18.179  0.00  0.00     0.309 C 
ATOM      7  C3  ZIN A   1      19.386   2.964  16.546  0.00  0.00     0.309 C 
ENDBRANCH   4   5
ENDBRANCH   3   4
ENDBRANCH   2   3
ENDBRANCH   1   2
BRANCH   1   8
ATOM      8  C9  ZIN A   1      18.501  -0.887  12.562  0.00  0.00    -0.024 A 
ATOM      9  C15 ZIN A   1      17.390  -1.354  11.884  0.00  0.00     0.012 A 
ATOM     10  C14 ZIN A   1      17.388  -2.631  11.357  0.00  0.00     0.024 A 
ATOM     11  C12 ZIN A   1      18.494  -3.447  11.518  0.00  0.00     0.034 A 
ATOM     12  C11 ZIN A   1      19.604  -2.981  12.202  0.00  0.00     0.024 A 
ATOM     13 Cl13 ZIN A   1      18.490  -5.055  10.863  0.00  0.00    -0.084 Cl
ATOM     14  C10 ZIN A   1      19.606  -1.702  12.724  0.00  0.00     0.012 A 
ENDBRANCH   1   8
BRANCH   1  15
ATOM     15  C16 ZIN A   1      18.425   1.510  12.008  0.00  0.00     0.067 A 
ATOM     16  N21 ZIN A   1      17.457   2.406  12.002  0.00  0.00    -0.263 NA
ATOM     17  C20 ZIN A   1      17.351   3.305  11.042  0.00  0.00     0.117 A 
ATOM     18  C19 ZIN A   1      18.252   3.331   9.995  0.00  0.00     0.019 A 
ATOM     19  C18 ZIN A   1      19.279   2.400   9.965  0.00  0.00     0.003 A 
ATOM     20  C17 ZIN A   1      19.362   1.474  10.993  0.00  0.00     0.030 A 
ENDBRANCH   1  15
TORSDOF 6
ENDMDL
