MODEL 1
REMARK VINA RESULT:      -5.0      0.000      0.000
REMARK  1 active torsions:
REMARK  status: ('A' for Active; 'I' for Inactive)
REMARK    1  A    between atoms: N1_1  and  C2_2 
ROOT
ATOM      1  C2  <0> d   1      20.650   0.296  11.575  0.00  0.00     0.701 A 
ATOM      2  N3  <0> d   1      20.548   0.333  12.885  0.00  0.00    -0.045 NA
ATOM      3  C4  <0> d   1      19.719   1.192  13.490  0.00  0.00     0.179 A 
ATOM      4  C5  <0> d   1      18.946   2.069  12.721  0.00  0.00     0.143 A 
ATOM      5  N6  <0> d   1      18.209   2.814  13.579  0.00  0.00    -0.237 NA
ATOM      6  C7  <0> d   1      18.477   2.456  14.801  0.00  0.00     0.209 A 
ATOM      7  N8  <0> d   1      19.406   1.456  14.796  0.00  0.00    -0.333 N 
ATOM      8  C9  <0> d   1      19.066   2.019  11.313  0.00  0.00     0.149 A 
ATOM      9  S10 <0> d   1      18.147   3.065  10.317  0.00  0.00    -0.057 SA
ATOM     10  N11 <0> d   1      19.927   1.129  10.773  0.00  0.00    -0.178 N 
ATOM     11  H15 <0> d   1      19.775   1.013  15.576  0.00  0.00     0.168 HD
ATOM     12  H16 <0> d   1      20.026   1.076   9.809  0.00  0.00     0.185 HD
ENDROOT
BRANCH   1  13
ATOM     13  N1  <0> d   1      21.512  -0.602  10.999  0.00  0.00    -0.233 N 
ATOM     14  H12 <0> d   1      21.640  -1.477  11.399  0.00  0.00     0.174 HD
ATOM     15  H13 <0> d   1      21.990  -0.366  10.189  0.00  0.00     0.174 HD
ENDBRANCH   1  13
TORSDOF 1
ENDMDL
MODEL 2
REMARK VINA RESULT:      -4.9      2.115      4.070
REMARK  1 active torsions:
REMARK  status: ('A' for Active; 'I' for Inactive)
REMARK    1  A    between atoms: N1_1  and  C2_2 
ROOT
ATOM      1  C2  <0> d   1      20.595   0.487  11.732  0.00  0.00     0.701 A 
ATOM      2  N3  <0> d   1      20.623  -0.507  10.872  0.00  0.00    -0.045 NA
ATOM      3  C4  <0> d   1      19.981  -0.427   9.701  0.00  0.00     0.179 A 
ATOM      4  C5  <0> d   1      19.265   0.732   9.381  0.00  0.00     0.143 A 
ATOM      5  N6  <0> d   1      18.722   0.544   8.153  0.00  0.00    -0.237 NA
ATOM      6  C7  <0> d   1      19.054  -0.634   7.711  0.00  0.00     0.209 A 
ATOM      7  N8  <0> d   1      19.833  -1.271   8.634  0.00  0.00    -0.333 N 
ATOM      8  C9  <0> d   1      19.243   1.794  10.314  0.00  0.00     0.149 A 
ATOM      9  S10 <0> d   1      18.384   3.237   9.981  0.00  0.00    -0.057 SA
ATOM     10  N11 <0> d   1      19.910   1.638  11.478  0.00  0.00    -0.178 N 
ATOM     11  H15 <0> d   1      20.211  -2.160   8.549  0.00  0.00     0.168 HD
ATOM     12  H16 <0> d   1      19.909   2.353  12.135  0.00  0.00     0.185 HD
ENDROOT
BRANCH   1  13
ATOM     13  N1  <0> d   1      21.269   0.360  12.920  0.00  0.00    -0.233 N 
ATOM     14  H12 <0> d   1      21.943   1.013  13.168  0.00  0.00     0.174 HD
ATOM     15  H13 <0> d   1      21.069  -0.379  13.515  0.00  0.00     0.174 HD
ENDBRANCH   1  13
TORSDOF 1
ENDMDL
MODEL 3
REMARK VINA RESULT:      -4.9      3.182      4.170
REMARK  1 active torsions:
REMARK  status: ('A' for Active; 'I' for Inactive)
REMARK    1  A    between atoms: N1_1  and  C2_2 
ROOT
ATOM      1  C2  <0> d   1      20.588  -0.175  11.478  0.00  0.00     0.701 A 
ATOM      2  N3  <0> d   1      19.910  -1.005  12.238  0.00  0.00    -0.045 NA
ATOM      3  C4  <0> d   1      18.987  -1.823  11.717  0.00  0.00     0.179 A 
ATOM      4  C5  <0> d   1      18.737  -1.798  10.341  0.00  0.00     0.143 A 
ATOM      5  N6  <0> d   1      17.770  -2.715  10.091  0.00  0.00    -0.237 NA
ATOM      6  C7  <0> d   1      17.420  -3.287  11.206  0.00  0.00     0.209 A 
ATOM      7  N8  <0> d   1      18.146  -2.768  12.239  0.00  0.00    -0.333 N 
ATOM      8  C9  <0> d   1      19.474  -0.901   9.535  0.00  0.00     0.149 A 
ATOM      9  S10 <0> d   1      19.214  -0.823   7.844  0.00  0.00    -0.057 SA
ATOM     10  N11 <0> d   1      20.385  -0.102  10.133  0.00  0.00    -0.178 N 
ATOM     11  H15 <0> d   1      18.077  -3.024  13.172  0.00  0.00     0.168 HD
ATOM     12  H16 <0> d   1      20.903   0.523   9.600  0.00  0.00     0.185 HD
ENDROOT
BRANCH   1  13
ATOM     13  N1  <0> d   1      21.525   0.644  12.057  0.00  0.00    -0.233 N 
ATOM     14  H12 <0> d   1      21.277   1.211  12.805  0.00  0.00     0.174 HD
ATOM     15  H13 <0> d   1      22.435   0.653  11.724  0.00  0.00     0.174 HD
ENDBRANCH   1  13
TORSDOF 1
ENDMDL
MODEL 4
REMARK VINA RESULT:      -4.9      2.300      2.689
REMARK  1 active torsions:
REMARK  status: ('A' for Active; 'I' for Inactive)
REMARK    1  A    between atoms: N1_1  and  C2_2 
ROOT
ATOM      1  C2  <0> d   1      20.448   0.607  13.014  0.00  0.00     0.701 A 
ATOM      2  N3  <0> d   1      20.103  -0.465  13.690  0.00  0.00    -0.045 NA
ATOM      3  C4  <0> d   1      19.121  -0.424  14.599  0.00  0.00     0.179 A 
ATOM      4  C5  <0> d   1      18.447   0.780  14.836  0.00  0.00     0.143 A 
ATOM      5  N6  <0> d   1      17.515   0.538  15.790  0.00  0.00    -0.237 NA
ATOM      6  C7  <0> d   1      17.575  -0.713  16.144  0.00  0.00     0.209 A 
ATOM      7  N8  <0> d   1      18.554  -1.347  15.434  0.00  0.00    -0.333 N 
ATOM      8  C9  <0> d   1      18.829   1.926  14.101  0.00  0.00     0.149 A 
ATOM      9  S10 <0> d   1      18.043   3.427  14.347  0.00  0.00    -0.057 SA
ATOM     10  N11 <0> d   1      19.833   1.808  13.205  0.00  0.00    -0.178 N 
ATOM     11  H15 <0> d   1      18.801  -2.282  15.509  0.00  0.00     0.168 HD
ATOM     12  H16 <0> d   1      20.113   2.581  12.689  0.00  0.00     0.185 HD
ENDROOT
BRANCH   1  13
ATOM     13  N1  <0> d   1      21.461   0.516  12.092  0.00  0.00    -0.233 N 
ATOM     14  H12 <0> d   1      21.336   0.869  11.197  0.00  0.00     0.174 HD
ATOM     15  H13 <0> d   1      22.304   0.103  12.336  0.00  0.00     0.174 HD
ENDBRANCH   1  13
TORSDOF 1
ENDMDL
MODEL 5
REMARK VINA RESULT:      -4.8      3.837      5.567
REMARK  1 active torsions:
REMARK  status: ('A' for Active; 'I' for Inactive)
REMARK    1  A    between atoms: N1_1  and  C2_2 
ROOT
ATOM      1  C2  <0> d   1      20.669  -0.620  10.917  0.00  0.00     0.701 A 
ATOM      2  N3  <0> d   1      20.273  -0.174   9.746  0.00  0.00    -0.045 NA
ATOM      3  C4  <0> d   1      19.504  -0.920   8.945  0.00  0.00     0.179 A 
ATOM      4  C5  <0> d   1      19.112  -2.199   9.356  0.00  0.00     0.143 A 
ATOM      5  N6  <0> d   1      18.349  -2.724   8.366  0.00  0.00    -0.237 NA
ATOM      6  C7  <0> d   1      18.252  -1.863   7.395  0.00  0.00     0.209 A 
ATOM      7  N8  <0> d   1      18.950  -0.733   7.708  0.00  0.00    -0.333 N 
ATOM      8  C9  <0> d   1      19.545  -2.667  10.618  0.00  0.00     0.149 A 
ATOM      9  S10 <0> d   1      19.098  -4.223  11.176  0.00  0.00    -0.057 SA
ATOM     10  N11 <0> d   1      20.324  -1.859  11.369  0.00  0.00    -0.178 N 
ATOM     11  H15 <0> d   1      19.037   0.059   7.154  0.00  0.00     0.168 HD
ATOM     12  H16 <0> d   1      20.634  -2.159  12.238  0.00  0.00     0.185 HD
ENDROOT
BRANCH   1  13
ATOM     13  N1  <0> d   1      21.457   0.181  11.705  0.00  0.00    -0.233 N 
ATOM     14  H12 <0> d   1      21.669  -0.088  12.613  0.00  0.00     0.174 HD
ATOM     15  H13 <0> d   1      21.806   1.015  11.353  0.00  0.00     0.174 HD
ENDBRANCH   1  13
TORSDOF 1
ENDMDL
MODEL 6
REMARK VINA RESULT:      -4.8      2.181      2.675
REMARK  1 active torsions:
REMARK  status: ('A' for Active; 'I' for Inactive)
REMARK    1  A    between atoms: N1_1  and  C2_2 
ROOT
ATOM      1  C2  <0> d   1      20.631   0.092  11.936  0.00  0.00     0.701 A 
ATOM      2  N3  <0> d   1      20.206   1.323  11.760  0.00  0.00    -0.045 NA
ATOM      3  C4  <0> d   1      19.378   1.901  12.637  0.00  0.00     0.179 A 
ATOM      4  C5  <0> d   1      18.953   1.187  13.764  0.00  0.00     0.143 A 
ATOM      5  N6  <0> d   1      18.133   2.002  14.471  0.00  0.00    -0.237 NA
ATOM      6  C7  <0> d   1      18.032   3.147  13.861  0.00  0.00     0.209 A 
ATOM      7  N8  <0> d   1      18.784   3.131  12.721  0.00  0.00    -0.333 N 
ATOM      8  C9  <0> d   1      19.418  -0.136  13.941  0.00  0.00     0.149 A 
ATOM      9  S10 <0> d   1      18.934  -1.061  15.298  0.00  0.00    -0.057 SA
ATOM     10  N11 <0> d   1      20.248  -0.655  13.010  0.00  0.00    -0.178 N 
ATOM     11  H15 <0> d   1      18.880   3.860  12.088  0.00  0.00     0.168 HD
ATOM     12  H16 <0> d   1      20.579  -1.562  13.109  0.00  0.00     0.185 HD
ENDROOT
BRANCH   1  13
ATOM     13  N1  <0> d   1      21.480  -0.459  11.009  0.00  0.00    -0.233 N 
ATOM     14  H12 <0> d   1      21.243  -0.451  10.068  0.00  0.00     0.174 HD
ATOM     15  H13 <0> d   1      22.320  -0.853  11.293  0.00  0.00     0.174 HD
ENDBRANCH   1  13
TORSDOF 1
ENDMDL
MODEL 7
REMARK VINA RESULT:      -4.8      6.358      7.719
REMARK  1 active torsions:
REMARK  status: ('A' for Active; 'I' for Inactive)
REMARK    1  A    between atoms: N1_1  and  C2_2 
ROOT
ATOM      1  C2  <0> d   1      19.861  -3.809   6.570  0.00  0.00     0.701 A 
ATOM      2  N3  <0> d   1      19.572  -3.327   5.382  0.00  0.00    -0.045 NA
ATOM      3  C4  <0> d   1      19.190  -2.054   5.226  0.00  0.00     0.179 A 
ATOM      4  C5  <0> d   1      19.093  -1.218   6.344  0.00  0.00     0.143 A 
ATOM      5  N6  <0> d   1      18.690  -0.001   5.902  0.00  0.00    -0.237 NA
ATOM      6  C7  <0> d   1      18.538  -0.040   4.611  0.00  0.00     0.209 A 
ATOM      7  N8  <0> d   1      18.835  -1.290   4.148  0.00  0.00    -0.333 N 
ATOM      8  C9  <0> d   1      19.406  -1.749   7.616  0.00  0.00     0.149 A 
ATOM      9  S10 <0> d   1      19.306  -0.776   9.022  0.00  0.00    -0.057 SA
ATOM     10  N11 <0> d   1      19.780  -3.045   7.696  0.00  0.00    -0.178 N 
ATOM     11  H15 <0> d   1      18.801  -1.581   3.223  0.00  0.00     0.168 HD
ATOM     12  H16 <0> d   1      19.998  -3.432   8.559  0.00  0.00     0.185 HD
ENDROOT
BRANCH   1  13
ATOM     13  N1  <0> d   1      20.249  -5.121   6.681  0.00  0.00    -0.233 N 
ATOM     14  H12 <0> d   1      20.332  -5.671   5.886  0.00  0.00     0.174 HD
ATOM     15  H13 <0> d   1      20.447  -5.497   7.553  0.00  0.00     0.174 HD
ENDBRANCH   1  13
TORSDOF 1
ENDMDL
MODEL 8
REMARK VINA RESULT:      -4.6      1.953      2.615
REMARK  1 active torsions:
REMARK  status: ('A' for Active; 'I' for Inactive)
REMARK    1  A    between atoms: N1_1  and  C2_2 
ROOT
ATOM      1  C2  <0> d   1      20.251   1.251  11.899  0.00  0.00     0.701 A 
ATOM      2  N3  <0> d   1      19.555   2.138  12.575  0.00  0.00    -0.045 NA
ATOM      3  C4  <0> d   1      18.669   2.934  11.964  0.00  0.00     0.179 A 
ATOM      4  C5  <0> d   1      18.476   2.824  10.582  0.00  0.00     0.143 A 
ATOM      5  N6  <0> d   1      17.535   3.736  10.233  0.00  0.00    -0.237 NA
ATOM      6  C7  <0> d   1      17.149   4.383  11.294  0.00  0.00     0.209 A 
ATOM      7  N8  <0> d   1      17.822   3.922  12.388  0.00  0.00    -0.333 N 
ATOM      8  C9  <0> d   1      19.231   1.866   9.867  0.00  0.00     0.149 A 
ATOM      9  S10 <0> d   1      19.040   1.684   8.175  0.00  0.00    -0.057 SA
ATOM     10  N11 <0> d   1      20.111   1.102  10.551  0.00  0.00    -0.178 N 
ATOM     11  H15 <0> d   1      17.718   4.237  13.299  0.00  0.00     0.168 HD
ATOM     12  H16 <0> d   1      20.641   0.438  10.082  0.00  0.00     0.185 HD
ENDROOT
BRANCH   1  13
ATOM     13  N1  <0> d   1      21.147   0.457  12.568  0.00  0.00    -0.233 N 
ATOM     14  H12 <0> d   1      21.382   0.659  13.488  0.00  0.00     0.174 HD
ATOM     15  H13 <0> d   1      21.543  -0.309  12.125  0.00  0.00     0.174 HD
ENDBRANCH   1  13
TORSDOF 1
ENDMDL
MODEL 9
REMARK VINA RESULT:      -4.6      2.143      2.510
REMARK  1 active torsions:
REMARK  status: ('A' for Active; 'I' for Inactive)
REMARK    1  A    between atoms: N1_1  and  C2_2 
ROOT
ATOM      1  C2  <0> d   1      20.318  -0.999  10.929  0.00  0.00     0.701 A 
ATOM      2  N3  <0> d   1      20.324  -0.087  11.875  0.00  0.00    -0.045 NA
ATOM      3  C4  <0> d   1      19.929   1.168  11.630  0.00  0.00     0.179 A 
ATOM      4  C5  <0> d   1      19.502   1.521  10.344  0.00  0.00     0.143 A 
ATOM      5  N6  <0> d   1      19.165   2.834  10.379  0.00  0.00    -0.237 NA
ATOM      6  C7  <0> d   1      19.355   3.296  11.580  0.00  0.00     0.209 A 
ATOM      7  N8  <0> d   1      19.828   2.302  12.388  0.00  0.00    -0.333 N 
ATOM      8  C9  <0> d   1      19.501   0.531   9.336  0.00  0.00     0.149 A 
ATOM      9  S10 <0> d   1      18.989   0.901   7.744  0.00  0.00    -0.057 SA
ATOM     10  N11 <0> d   1      19.918  -0.713   9.658  0.00  0.00    -0.178 N 
ATOM     11  H15 <0> d   1      20.050   2.386  13.329  0.00  0.00     0.168 HD
ATOM     12  H16 <0> d   1      19.926  -1.410   8.981  0.00  0.00     0.185 HD
ENDROOT
BRANCH   1  13
ATOM     13  N1  <0> d   1      20.730  -2.273  11.228  0.00  0.00    -0.233 N 
ATOM     14  H12 <0> d   1      20.989  -2.879  10.516  0.00  0.00     0.174 HD
ATOM     15  H13 <0> d   1      20.769  -2.566  12.152  0.00  0.00     0.174 HD
ENDBRANCH   1  13
TORSDOF 1
ENDMDL
