MODEL 1
REMARK VINA RESULT:      -8.1      0.000      0.000
REMARK  5 active torsions:
REMARK  status: ('A' for Active; 'I' for Inactive)
REMARK    1  A    between atoms: C2_2  and  C3_3 
REMARK    2  A    between atoms: C3_3  and  C4_4 
REMARK    3  A    between atoms: C7_7  and  C8_8 
REMARK    4  A    between atoms: N18_18  and  C19_19 
REMARK    5  A    between atoms: C21_21  and  C22_22 
ROOT
ATOM      1  C4  <0> d   1      19.050   1.647  13.736  0.00  0.00     0.005 A 
ATOM      2  C5  <0> d   1      19.080   2.686  14.651  0.00  0.00     0.099 A 
ATOM      3  O6  <0> d   1      19.347   2.440  15.950  0.00  0.00    -0.302 OA
ATOM      4  C7  <0> d   1      19.097   3.347  16.905  0.00  0.00     0.156 C 
ATOM      5  C11 <0> d   1      18.863   4.653  16.637  0.00  0.00     0.100 C 
ATOM      6  C12 <0> d   1      18.866   5.087  15.226  0.00  0.00     0.187 C 
ATOM      7  O13 <0> d   1      18.890   6.263  14.913  0.00  0.00    -0.287 OA
ATOM      8  C14 <0> d   1      18.838   4.009  14.217  0.00  0.00     0.050 A 
ATOM      9  C15 <0> d   1      18.581   4.282  12.880  0.00  0.00     0.036 A 
ATOM     10  C16 <0> d   1      18.558   3.233  11.967  0.00  0.00     0.043 A 
ATOM     11  C17 <0> d   1      18.794   1.906  12.395  0.00  0.00     0.058 A 
ATOM     12  N18 <0> d   1      18.754   0.882  11.479  0.00  0.00    -0.340 N 
ATOM     13  C21 <0> d   1      18.784   1.117  10.132  0.00  0.00     0.116 C 
ATOM     14  C25 <0> d   1      18.560   2.354   9.616  0.00  0.00     0.092 C 
ATOM     15  C26 <0> d   1      18.296   3.469  10.536  0.00  0.00     0.186 C 
ATOM     16  O27 <0> d   1      17.868   4.537  10.136  0.00  0.00    -0.287 OA
ENDROOT
BRANCH   1  17
ATOM     17  C3  <0> d   1      19.299   0.233  14.194  0.00  0.00     0.043 C 
BRANCH  17  18
ATOM     18  C2  <0> d   1      18.232  -0.168  15.214  0.00  0.00     0.000 C 
ATOM     19  C1  <0> d   1      18.803  -1.227  16.159  0.00  0.00     0.005 C 
ENDBRANCH  17  18
ENDBRANCH   1  17
BRANCH  12  20
ATOM     20  C19 <0> d   1      18.676  -0.500  11.960  0.00  0.00     0.125 C 
ATOM     21  C20 <0> d   1      17.240  -1.008  11.826  0.00  0.00     0.027 C 
ENDBRANCH  12  20
BRANCH  13  22
ATOM     22  C22 <0> d   1      19.066  -0.008   9.211  0.00  0.00     0.227 C 
ATOM     23  O23 <0> d   1      18.164  -0.489   8.541  0.00  0.00    -0.643 OA
ATOM     24  O24 <0> d   1      20.200  -0.453   9.120  0.00  0.00    -0.643 OA
ENDBRANCH  13  22
BRANCH   4  25
ATOM     25  C8  <0> d   1      19.079   2.900  18.317  0.00  0.00     0.234 C 
ATOM     26  O9  <0> d   1      18.401   3.498  19.139  0.00  0.00    -0.642 OA
ATOM     27  O10 <0> d   1      19.743   1.932  18.660  0.00  0.00    -0.642 OA
ENDBRANCH   4  25
TORSDOF 5
ENDMDL
MODEL 2
REMARK VINA RESULT:      -8.1      3.549      6.388
REMARK  5 active torsions:
REMARK  status: ('A' for Active; 'I' for Inactive)
REMARK    1  A    between atoms: C2_2  and  C3_3 
REMARK    2  A    between atoms: C3_3  and  C4_4 
REMARK    3  A    between atoms: C7_7  and  C8_8 
REMARK    4  A    between atoms: N18_18  and  C19_19 
REMARK    5  A    between atoms: C21_21  and  C22_22 
ROOT
ATOM      1  C4  <0> d   1      18.561  -1.777   9.953  0.00  0.00     0.005 A 
ATOM      2  C5  <0> d   1      18.639  -0.401   9.807  0.00  0.00     0.099 A 
ATOM      3  O6  <0> d   1      18.415   0.407  10.862  0.00  0.00    -0.302 OA
ATOM      4  C7  <0> d   1      18.188   1.720  10.710  0.00  0.00     0.156 C 
ATOM      5  C11 <0> d   1      18.464   2.386   9.564  0.00  0.00     0.100 C 
ATOM      6  C12 <0> d   1      19.024   1.622   8.430  0.00  0.00     0.187 C 
ATOM      7  O13 <0> d   1      19.506   2.173   7.457  0.00  0.00    -0.287 OA
ATOM      8  C14 <0> d   1      18.963   0.152   8.547  0.00  0.00     0.050 A 
ATOM      9  C15 <0> d   1      19.215  -0.669   7.455  0.00  0.00     0.036 A 
ATOM     10  C16 <0> d   1      19.140  -2.048   7.613  0.00  0.00     0.043 A 
ATOM     11  C17 <0> d   1      18.811  -2.608   8.869  0.00  0.00     0.058 A 
ATOM     12  N18 <0> d   1      18.729  -3.974   9.000  0.00  0.00    -0.340 N 
ATOM     13  C21 <0> d   1      19.231  -4.822   8.052  0.00  0.00     0.116 C 
ATOM     14  C25 <0> d   1      19.569  -4.387   6.809  0.00  0.00     0.092 C 
ATOM     15  C26 <0> d   1      19.404  -2.963   6.488  0.00  0.00     0.186 C 
ATOM     16  O27 <0> d   1      19.472  -2.557   5.341  0.00  0.00    -0.287 OA
ENDROOT
BRANCH   1  17
ATOM     17  C3  <0> d   1      18.208  -2.372  11.291  0.00  0.00     0.043 C 
BRANCH  17  18
ATOM     18  C2  <0> d   1      19.408  -2.257  12.233  0.00  0.00     0.000 C 
ATOM     19  C1  <0> d   1      18.945  -1.706  13.584  0.00  0.00     0.005 C 
ENDBRANCH  17  18
ENDBRANCH   1  17
BRANCH  12  20
ATOM     20  C19 <0> d   1      18.084  -4.537  10.189  0.00  0.00     0.125 C 
ATOM     21  C20 <0> d   1      16.657  -4.966   9.842  0.00  0.00     0.027 C 
ENDBRANCH  12  20
BRANCH  13  22
ATOM     22  C22 <0> d   1      19.410  -6.254   8.387  0.00  0.00     0.227 C 
ATOM     23  O23 <0> d   1      18.602  -7.080   7.988  0.00  0.00    -0.643 OA
ATOM     24  O24 <0> d   1      20.365  -6.608   9.060  0.00  0.00    -0.643 OA
ENDBRANCH  13  22
BRANCH   4  25
ATOM     25  C8  <0> d   1      17.611   2.474  11.845  0.00  0.00     0.234 C 
ATOM     26  O9  <0> d   1      17.758   2.067  12.988  0.00  0.00    -0.642 OA
ATOM     27  O10 <0> d   1      16.987   3.506  11.639  0.00  0.00    -0.642 OA
ENDBRANCH   4  25
TORSDOF 5
ENDMDL
MODEL 3
REMARK VINA RESULT:      -8.1      1.972      6.711
REMARK  5 active torsions:
REMARK  status: ('A' for Active; 'I' for Inactive)
REMARK    1  A    between atoms: C2_2  and  C3_3 
REMARK    2  A    between atoms: C3_3  and  C4_4 
REMARK    3  A    between atoms: C7_7  and  C8_8 
REMARK    4  A    between atoms: N18_18  and  C19_19 
REMARK    5  A    between atoms: C21_21  and  C22_22 
ROOT
ATOM      1  C4  <0> d   1      18.562   2.342  13.268  0.00  0.00     0.005 A 
ATOM      2  C5  <0> d   1      18.632   0.962  13.371  0.00  0.00     0.099 A 
ATOM      3  O6  <0> d   1      18.402   0.188  12.291  0.00  0.00    -0.302 OA
ATOM      4  C7  <0> d   1      18.166  -1.127  12.404  0.00  0.00     0.156 C 
ATOM      5  C11 <0> d   1      18.440  -1.830  13.528  0.00  0.00     0.100 C 
ATOM      6  C12 <0> d   1      19.006  -1.106  14.683  0.00  0.00     0.187 C 
ATOM      7  O13 <0> d   1      19.486  -1.690  15.638  0.00  0.00    -0.287 OA
ATOM      8  C14 <0> d   1      18.955   0.368  14.612  0.00  0.00     0.050 A 
ATOM      9  C15 <0> d   1      19.214   1.152  15.729  0.00  0.00     0.036 A 
ATOM     10  C16 <0> d   1      19.147   2.536  15.615  0.00  0.00     0.043 A 
ATOM     11  C17 <0> d   1      18.820   3.138  14.377  0.00  0.00     0.058 A 
ATOM     12  N18 <0> d   1      18.746   4.507  14.289  0.00  0.00    -0.340 N 
ATOM     13  C21 <0> d   1      19.255   5.322  15.262  0.00  0.00     0.116 C 
ATOM     14  C25 <0> d   1      19.592   4.846  16.490  0.00  0.00     0.092 C 
ATOM     15  C26 <0> d   1      19.419   3.414  16.767  0.00  0.00     0.186 C 
ATOM     16  O27 <0> d   1      19.485   2.972  17.901  0.00  0.00    -0.287 OA
ENDROOT
BRANCH   1  17
ATOM     17  C3  <0> d   1      18.211   2.981  11.949  0.00  0.00     0.043 C 
BRANCH  17  18
ATOM     18  C2  <0> d   1      19.385   2.826  10.980  0.00  0.00     0.000 C 
ATOM     19  C1  <0> d   1      18.851   2.494   9.584  0.00  0.00     0.005 C 
ENDBRANCH  17  18
ENDBRANCH   1  17
BRANCH  12  20
ATOM     20  C19 <0> d   1      18.103   5.111  13.119  0.00  0.00     0.125 C 
ATOM     21  C20 <0> d   1      16.653   5.461  13.456  0.00  0.00     0.027 C 
ENDBRANCH  12  20
BRANCH  13  22
ATOM     22  C22 <0> d   1      19.443   6.762  14.972  0.00  0.00     0.227 C 
ATOM     23  O23 <0> d   1      18.608   7.574  15.344  0.00  0.00    -0.643 OA
ATOM     24  O24 <0> d   1      20.431   7.138  14.361  0.00  0.00    -0.643 OA
ENDBRANCH  13  22
BRANCH   4  25
ATOM     25  C8  <0> d   1      17.582  -1.842  11.246  0.00  0.00     0.234 C 
ATOM     26  O9  <0> d   1      17.044  -2.928  11.406  0.00  0.00    -0.642 OA
ATOM     27  O10 <0> d   1      17.638  -1.346  10.130  0.00  0.00    -0.642 OA
ENDBRANCH   4  25
TORSDOF 5
ENDMDL
MODEL 4
REMARK VINA RESULT:      -7.9      1.866      7.453
REMARK  5 active torsions:
REMARK  status: ('A' for Active; 'I' for Inactive)
REMARK    1  A    between atoms: C2_2  and  C3_3 
REMARK    2  A    between atoms: C3_3  and  C4_4 
REMARK    3  A    between atoms: C7_7  and  C8_8 
REMARK    4  A    between atoms: N18_18  and  C19_19 
REMARK    5  A    between atoms: C21_21  and  C22_22 
ROOT
ATOM      1  C4  <0> d   1      19.348   1.114  12.476  0.00  0.00     0.005 A 
ATOM      2  C5  <0> d   1      19.411  -0.045  11.719  0.00  0.00     0.099 A 
ATOM      3  O6  <0> d   1      19.624   0.022  10.390  0.00  0.00    -0.302 OA
ATOM      4  C7  <0> d   1      19.398  -1.026   9.585  0.00  0.00     0.156 C 
ATOM      5  C11 <0> d   1      19.246  -2.289  10.047  0.00  0.00     0.100 C 
ATOM      6  C12 <0> d   1      19.316  -2.512  11.505  0.00  0.00     0.187 C 
ATOM      7  O13 <0> d   1      19.415  -3.627  11.983  0.00  0.00    -0.287 OA
ATOM      8  C14 <0> d   1      19.257  -1.301  12.349  0.00  0.00     0.050 A 
ATOM      9  C15 <0> d   1      19.054  -1.388  13.720  0.00  0.00     0.036 A 
ATOM     10  C16 <0> d   1      18.999  -0.220  14.472  0.00  0.00     0.043 A 
ATOM     11  C17 <0> d   1      19.148   1.041  13.848  0.00  0.00     0.058 A 
ATOM     12  N18 <0> d   1      19.077   2.184  14.607  0.00  0.00    -0.340 N 
ATOM     13  C21 <0> d   1      19.160   2.151  15.972  0.00  0.00     0.116 C 
ATOM     14  C25 <0> d   1      19.021   0.992  16.669  0.00  0.00     0.092 C 
ATOM     15  C26 <0> d   1      18.794  -0.257  15.930  0.00  0.00     0.186 C 
ATOM     16  O27 <0> d   1      18.439  -1.276  16.497  0.00  0.00    -0.287 OA
ENDROOT
BRANCH   1  17
ATOM     17  C3  <0> d   1      19.504   2.456  11.809  0.00  0.00     0.043 C 
BRANCH  17  18
ATOM     18  C2  <0> d   1      18.537   2.554  10.628  0.00  0.00     0.000 C 
ATOM     19  C1  <0> d   1      18.127   4.014  10.424  0.00  0.00     0.005 C 
ENDBRANCH  17  18
ENDBRANCH   1  17
BRANCH  12  20
ATOM     20  C19 <0> d   1      18.907   3.475  13.935  0.00  0.00     0.125 C 
ATOM     21  C20 <0> d   1      17.458   3.942  14.084  0.00  0.00     0.027 C 
ENDBRANCH  12  20
BRANCH  13  22
ATOM     22  C22 <0> d   1      19.405   3.411  16.710  0.00  0.00     0.227 C 
ATOM     23  O23 <0> d   1      20.506   3.939  16.668  0.00  0.00    -0.643 OA
ATOM     24  O24 <0> d   1      18.506   3.922  17.361  0.00  0.00    -0.643 OA
ENDBRANCH  13  22
BRANCH   4  25
ATOM     25  C8  <0> d   1      19.313  -0.792   8.125  0.00  0.00     0.234 C 
ATOM     26  O9  <0> d   1      19.187   0.345   7.695  0.00  0.00    -0.642 OA
ATOM     27  O10 <0> d   1      19.369  -1.736   7.351  0.00  0.00    -0.642 OA
ENDBRANCH   4  25
TORSDOF 5
ENDMDL
MODEL 5
REMARK VINA RESULT:      -7.8      3.797      7.146
REMARK  5 active torsions:
REMARK  status: ('A' for Active; 'I' for Inactive)
REMARK    1  A    between atoms: C2_2  and  C3_3 
REMARK    2  A    between atoms: C3_3  and  C4_4 
REMARK    3  A    between atoms: C7_7  and  C8_8 
REMARK    4  A    between atoms: N18_18  and  C19_19 
REMARK    5  A    between atoms: C21_21  and  C22_22 
ROOT
ATOM      1  C4  <0> d   1      17.792  -1.463   8.977  0.00  0.00     0.005 A 
ATOM      2  C5  <0> d   1      17.636  -0.597  10.047  0.00  0.00     0.099 A 
ATOM      3  O6  <0> d   1      17.438   0.719   9.831  0.00  0.00    -0.302 OA
ATOM      4  C7  <0> d   1      17.579   1.624  10.811  0.00  0.00     0.156 C 
ATOM      5  C11 <0> d   1      17.618   1.288  12.122  0.00  0.00     0.100 C 
ATOM      6  C12 <0> d   1      17.519  -0.142  12.480  0.00  0.00     0.187 C 
ATOM      7  O13 <0> d   1      17.320  -0.508  13.624  0.00  0.00    -0.287 OA
ATOM      8  C14 <0> d   1      17.676  -1.100  11.367  0.00  0.00     0.050 A 
ATOM      9  C15 <0> d   1      17.860  -2.456  11.605  0.00  0.00     0.036 A 
ATOM     10  C16 <0> d   1      18.010  -3.319  10.525  0.00  0.00     0.043 A 
ATOM     11  C17 <0> d   1      17.975  -2.821   9.201  0.00  0.00     0.058 A 
ATOM     12  N18 <0> d   1      18.139  -3.690   8.149  0.00  0.00    -0.340 N 
ATOM     13  C21 <0> d   1      18.044  -5.045   8.308  0.00  0.00     0.116 C 
ATOM     14  C25 <0> d   1      18.077  -5.625   9.537  0.00  0.00     0.092 C 
ATOM     15  C26 <0> d   1      18.201  -4.766  10.723  0.00  0.00     0.186 C 
ATOM     16  O27 <0> d   1      18.462  -5.229  11.819  0.00  0.00    -0.287 OA
ENDROOT
BRANCH   1  17
ATOM     17  C3  <0> d   1      17.757  -0.932   7.568  0.00  0.00     0.043 C 
BRANCH  17  18
ATOM     18  C2  <0> d   1      18.855   0.119   7.392  0.00  0.00     0.000 C 
ATOM     19  C1  <0> d   1      18.861   0.612   5.943  0.00  0.00     0.005 C 
ENDBRANCH  17  18
ENDBRANCH   1  17
BRANCH  12  20
ATOM     20  C19 <0> d   1      18.425  -3.147   6.817  0.00  0.00     0.125 C 
ATOM     21  C20 <0> d   1      19.904  -3.353   6.488  0.00  0.00     0.027 C 
ENDBRANCH  12  20
BRANCH  13  22
ATOM     22  C22 <0> d   1      17.903  -5.903   7.110  0.00  0.00     0.227 C 
ATOM     23  O23 <0> d   1      16.851  -5.915   6.487  0.00  0.00    -0.643 OA
ATOM     24  O24 <0> d   1      18.838  -6.599   6.744  0.00  0.00    -0.643 OA
ENDBRANCH  13  22
BRANCH   4  25
ATOM     25  C8  <0> d   1      17.694   3.053  10.443  0.00  0.00     0.234 C 
ATOM     26  O9  <0> d   1      18.537   3.410   9.633  0.00  0.00    -0.642 OA
ATOM     27  O10 <0> d   1      16.947   3.877  10.950  0.00  0.00    -0.642 OA
ENDBRANCH   4  25
TORSDOF 5
ENDMDL
MODEL 6
REMARK VINA RESULT:      -7.8      2.556      6.194
REMARK  5 active torsions:
REMARK  status: ('A' for Active; 'I' for Inactive)
REMARK    1  A    between atoms: C2_2  and  C3_3 
REMARK    2  A    between atoms: C3_3  and  C4_4 
REMARK    3  A    between atoms: C7_7  and  C8_8 
REMARK    4  A    between atoms: N18_18  and  C19_19 
REMARK    5  A    between atoms: C21_21  and  C22_22 
ROOT
ATOM      1  C4  <0> d   1      17.977   1.463  12.274  0.00  0.00     0.005 A 
ATOM      2  C5  <0> d   1      18.250   0.561  11.257  0.00  0.00     0.099 A 
ATOM      3  O6  <0> d   1      18.459  -0.740  11.541  0.00  0.00    -0.302 OA
ATOM      4  C7  <0> d   1      19.011  -1.576  10.650  0.00  0.00     0.156 C 
ATOM      5  C11 <0> d   1      19.112  -1.285   9.332  0.00  0.00     0.100 C 
ATOM      6  C12 <0> d   1      18.607   0.022   8.865  0.00  0.00     0.187 C 
ATOM      7  O13 <0> d   1      18.453   0.269   7.683  0.00  0.00    -0.287 OA
ATOM      8  C14 <0> d   1      18.300   1.011   9.918  0.00  0.00     0.050 A 
ATOM      9  C15 <0> d   1      18.068   2.344   9.607  0.00  0.00     0.036 A 
ATOM     10  C16 <0> d   1      17.789   3.240  10.633  0.00  0.00     0.043 A 
ATOM     11  C17 <0> d   1      17.742   2.799  11.976  0.00  0.00     0.058 A 
ATOM     12  N18 <0> d   1      17.478   3.703  12.977  0.00  0.00    -0.340 N 
ATOM     13  C21 <0> d   1      16.974   4.947  12.712  0.00  0.00     0.116 C 
ATOM     14  C25 <0> d   1      16.980   5.469  11.457  0.00  0.00     0.092 C 
ATOM     15  C26 <0> d   1      17.529   4.664  10.357  0.00  0.00     0.186 C 
ATOM     16  O27 <0> d   1      17.769   5.155   9.268  0.00  0.00    -0.287 OA
ENDROOT
BRANCH   1  17
ATOM     17  C3  <0> d   1      17.930   0.991  13.704  0.00  0.00     0.043 C 
BRANCH  17  18
ATOM     18  C2  <0> d   1      19.280   0.380  14.084  0.00  0.00     0.000 C 
ATOM     19  C1  <0> d   1      19.055  -0.821  15.005  0.00  0.00     0.005 C 
ENDBRANCH  17  18
ENDBRANCH   1  17
BRANCH  12  20
ATOM     20  C19 <0> d   1      17.745   3.324  14.367  0.00  0.00     0.125 C 
ATOM     21  C20 <0> d   1      19.043   3.981  14.836  0.00  0.00     0.027 C 
ENDBRANCH  12  20
BRANCH  13  22
ATOM     22  C22 <0> d   1      16.408   5.747  13.822  0.00  0.00     0.227 C 
ATOM     23  O23 <0> d   1      17.036   6.692  14.276  0.00  0.00    -0.643 OA
ATOM     24  O24 <0> d   1      15.313   5.462  14.283  0.00  0.00    -0.643 OA
ENDBRANCH  13  22
BRANCH   4  25
ATOM     25  C8  <0> d   1      19.530  -2.877  11.129  0.00  0.00     0.234 C 
ATOM     26  O9  <0> d   1      19.898  -3.000  12.288  0.00  0.00    -0.642 OA
ATOM     27  O10 <0> d   1      19.592  -3.830  10.365  0.00  0.00    -0.642 OA
ENDBRANCH   4  25
TORSDOF 5
ENDMDL
MODEL 7
REMARK VINA RESULT:      -7.6      2.362      7.565
REMARK  5 active torsions:
REMARK  status: ('A' for Active; 'I' for Inactive)
REMARK    1  A    between atoms: C2_2  and  C3_3 
REMARK    2  A    between atoms: C3_3  and  C4_4 
REMARK    3  A    between atoms: C7_7  and  C8_8 
REMARK    4  A    between atoms: N18_18  and  C19_19 
REMARK    5  A    between atoms: C21_21  and  C22_22 
ROOT
ATOM      1  C4  <0> d   1      18.807   0.649  10.569  0.00  0.00     0.005 A 
ATOM      2  C5  <0> d   1      18.732  -0.728  10.428  0.00  0.00     0.099 A 
ATOM      3  O6  <0> d   1      19.050  -1.309   9.254  0.00  0.00    -0.302 OA
ATOM      4  C7  <0> d   1      18.713  -2.577   8.981  0.00  0.00     0.156 C 
ATOM      5  C11 <0> d   1      18.320  -3.456   9.933  0.00  0.00     0.100 C 
ATOM      6  C12 <0> d   1      18.245  -2.984  11.330  0.00  0.00     0.187 C 
ATOM      7  O13 <0> d   1      18.123  -3.753  12.265  0.00  0.00    -0.287 OA
ATOM      8  C14 <0> d   1      18.326  -1.522  11.525  0.00  0.00     0.050 A 
ATOM      9  C15 <0> d   1      18.012  -0.940  12.746  0.00  0.00     0.036 A 
ATOM     10  C16 <0> d   1      18.097   0.442  12.879  0.00  0.00     0.043 A 
ATOM     11  C17 <0> d   1      18.498   1.243  11.785  0.00  0.00     0.058 A 
ATOM     12  N18 <0> d   1      18.562   2.608  11.934  0.00  0.00    -0.340 N 
ATOM     13  C21 <0> d   1      18.538   3.202  13.166  0.00  0.00     0.116 C 
ATOM     14  C25 <0> d   1      18.159   2.523  14.281  0.00  0.00     0.092 C 
ATOM     15  C26 <0> d   1      17.782   1.108  14.155  0.00  0.00     0.186 C 
ATOM     16  O27 <0> d   1      17.223   0.515  15.061  0.00  0.00    -0.287 OA
ENDROOT
BRANCH   1  17
ATOM     17  C3  <0> d   1      19.232   1.502   9.402  0.00  0.00     0.043 C 
BRANCH  17  18
ATOM     18  C2  <0> d   1      18.278   1.271   8.228  0.00  0.00     0.000 C 
ATOM     19  C1  <0> d   1      19.056   1.363   6.913  0.00  0.00     0.005 C 
ENDBRANCH  17  18
ENDBRANCH   1  17
BRANCH  12  20
ATOM     20  C19 <0> d   1      18.658   3.451  10.739  0.00  0.00     0.125 C 
ATOM     21  C20 <0> d   1      17.318   4.146  10.495  0.00  0.00     0.027 C 
ENDBRANCH  12  20
BRANCH  13  22
ATOM     22  C22 <0> d   1      18.934   4.624  13.289  0.00  0.00     0.227 C 
ATOM     23  O23 <0> d   1      20.094   4.954  13.090  0.00  0.00    -0.643 OA
ATOM     24  O24 <0> d   1      18.101   5.466  13.587  0.00  0.00    -0.643 OA
ENDBRANCH  13  22
BRANCH   4  25
ATOM     25  C8  <0> d   1      18.775  -3.038   7.575  0.00  0.00     0.234 C 
ATOM     26  O9  <0> d   1      19.506  -2.470   6.777  0.00  0.00    -0.642 OA
ATOM     27  O10 <0> d   1      18.095  -3.987   7.213  0.00  0.00    -0.642 OA
ENDBRANCH   4  25
TORSDOF 5
ENDMDL
MODEL 8
REMARK VINA RESULT:      -7.5      2.745      4.559
REMARK  5 active torsions:
REMARK  status: ('A' for Active; 'I' for Inactive)
REMARK    1  A    between atoms: C2_2  and  C3_3 
REMARK    2  A    between atoms: C3_3  and  C4_4 
REMARK    3  A    between atoms: C7_7  and  C8_8 
REMARK    4  A    between atoms: N18_18  and  C19_19 
REMARK    5  A    between atoms: C21_21  and  C22_22 
ROOT
ATOM      1  C4  <0> d   1      19.277  -1.179  10.417  0.00  0.00     0.005 A 
ATOM      2  C5  <0> d   1      19.331  -0.057  11.228  0.00  0.00     0.099 A 
ATOM      3  O6  <0> d   1      19.464  -0.191  12.563  0.00  0.00    -0.302 OA
ATOM      4  C7  <0> d   1      19.224   0.828  13.401  0.00  0.00     0.156 C 
ATOM      5  C11 <0> d   1      19.140   2.115  12.990  0.00  0.00     0.100 C 
ATOM      6  C12 <0> d   1      19.301   2.400  11.550  0.00  0.00     0.187 C 
ATOM      7  O13 <0> d   1      19.464   3.531  11.130  0.00  0.00    -0.287 OA
ATOM      8  C14 <0> d   1      19.254   1.230  10.650  0.00  0.00     0.050 A 
ATOM      9  C15 <0> d   1      19.135   1.384   9.274  0.00  0.00     0.036 A 
ATOM     10  C16 <0> d   1      19.087   0.253   8.467  0.00  0.00     0.043 A 
ATOM     11  C17 <0> d   1      19.159  -1.039   9.040  0.00  0.00     0.058 A 
ATOM     12  N18 <0> d   1      19.097  -2.144   8.226  0.00  0.00    -0.340 N 
ATOM     13  C21 <0> d   1      19.261  -2.053   6.871  0.00  0.00     0.116 C 
ATOM     14  C25 <0> d   1      19.200  -0.861   6.221  0.00  0.00     0.092 C 
ATOM     15  C26 <0> d   1      18.969   0.361   7.003  0.00  0.00     0.186 C 
ATOM     16  O27 <0> d   1      18.681   1.416   6.465  0.00  0.00    -0.287 OA
ENDROOT
BRANCH   1  17
ATOM     17  C3  <0> d   1      19.351  -2.554  11.029  0.00  0.00     0.043 C 
BRANCH  17  18
ATOM     18  C2  <0> d   1      18.208  -2.728  12.031  0.00  0.00     0.000 C 
ATOM     19  C1  <0> d   1      17.840  -4.210  12.133  0.00  0.00     0.005 C 
ENDBRANCH  17  18
ENDBRANCH   1  17
BRANCH  12  20
ATOM     20  C19 <0> d   1      18.847  -3.457   8.827  0.00  0.00     0.125 C 
ATOM     21  C20 <0> d   1      17.398  -3.871   8.568  0.00  0.00     0.027 C 
ENDBRANCH  12  20
BRANCH  13  22
ATOM     22  C22 <0> d   1      19.509  -3.287   6.091  0.00  0.00     0.227 C 
ATOM     23  O23 <0> d   1      20.556  -3.902   6.236  0.00  0.00    -0.643 OA
ATOM     24  O24 <0> d   1      18.667  -3.691   5.303  0.00  0.00    -0.643 OA
ENDBRANCH  13  22
BRANCH   4  25
ATOM     25  C8  <0> d   1      19.046   0.533  14.841  0.00  0.00     0.234 C 
ATOM     26  O9  <0> d   1      19.273  -0.590  15.268  0.00  0.00    -0.642 OA
ATOM     27  O10 <0> d   1      18.673   1.412  15.604  0.00  0.00    -0.642 OA
ENDBRANCH   4  25
TORSDOF 5
ENDMDL
MODEL 9
REMARK VINA RESULT:      -7.5      3.496      9.314
REMARK  5 active torsions:
REMARK  status: ('A' for Active; 'I' for Inactive)
REMARK    1  A    between atoms: C2_2  and  C3_3 
REMARK    2  A    between atoms: C3_3  and  C4_4 
REMARK    3  A    between atoms: C7_7  and  C8_8 
REMARK    4  A    between atoms: N18_18  and  C19_19 
REMARK    5  A    between atoms: C21_21  and  C22_22 
ROOT
ATOM      1  C4  <0> d   1      19.101  -1.448   9.063  0.00  0.00     0.005 A 
ATOM      2  C5  <0> d   1      19.097  -2.476   8.135  0.00  0.00     0.099 A 
ATOM      3  O6  <0> d   1      19.389  -2.226   6.842  0.00  0.00    -0.302 OA
ATOM      4  C7  <0> d   1      19.111  -3.109   5.872  0.00  0.00     0.156 C 
ATOM      5  C11 <0> d   1      18.817  -4.407   6.121  0.00  0.00     0.100 C 
ATOM      6  C12 <0> d   1      18.785  -4.858   7.527  0.00  0.00     0.187 C 
ATOM      7  O13 <0> d   1      18.754  -6.038   7.825  0.00  0.00    -0.287 OA
ATOM      8  C14 <0> d   1      18.792  -3.793   8.549  0.00  0.00     0.050 A 
ATOM      9  C15 <0> d   1      18.508  -4.070   9.880  0.00  0.00     0.036 A 
ATOM     10  C16 <0> d   1      18.520  -3.032  10.806  0.00  0.00     0.043 A 
ATOM     11  C17 <0> d   1      18.820  -1.712  10.397  0.00  0.00     0.058 A 
ATOM     12  N18 <0> d   1      18.814  -0.699  11.326  0.00  0.00    -0.340 N 
ATOM     13  C21 <0> d   1      18.818  -0.951  12.670  0.00  0.00     0.116 C 
ATOM     14  C25 <0> d   1      18.534  -2.183  13.168  0.00  0.00     0.092 C 
ATOM     15  C26 <0> d   1      18.233  -3.274  12.231  0.00  0.00     0.186 C 
ATOM     16  O27 <0> d   1      17.754  -4.328  12.613  0.00  0.00    -0.287 OA
ENDROOT
BRANCH   1  17
ATOM     17  C3  <0> d   1      19.418  -0.041   8.625  0.00  0.00     0.043 C 
BRANCH  17  18
ATOM     18  C2  <0> d   1      18.362   0.431   7.624  0.00  0.00     0.000 C 
ATOM     19  C1  <0> d   1      19.021   1.329   6.574  0.00  0.00     0.005 C 
ENDBRANCH  17  18
ENDBRANCH   1  17
BRANCH  12  20
ATOM     20  C19 <0> d   1      18.802   0.692  10.861  0.00  0.00     0.125 C 
ATOM     21  C20 <0> d   1      17.386   1.258  10.979  0.00  0.00     0.027 C 
ENDBRANCH  12  20
BRANCH  13  22
ATOM     22  C22 <0> d   1      19.138   0.149  13.609  0.00  0.00     0.227 C 
ATOM     23  O23 <0> d   1      20.290   0.545  13.715  0.00  0.00    -0.643 OA
ATOM     24  O24 <0> d   1      18.252   0.660  14.275  0.00  0.00    -0.643 OA
ENDBRANCH  13  22
BRANCH   4  25
ATOM     25  C8  <0> d   1      19.129  -2.644   4.467  0.00  0.00     0.234 C 
ATOM     26  O9  <0> d   1      18.634  -3.335   3.588  0.00  0.00    -0.642 OA
ATOM     27  O10 <0> d   1      19.638  -1.569   4.185  0.00  0.00    -0.642 OA
ENDBRANCH   4  25
TORSDOF 5
ENDMDL
