MODEL 1
REMARK VINA RESULT:      -6.7      0.000      0.000
REMARK  0 active torsions:
REMARK  status: ('A' for Active; 'I' for Inactive)
ROOT
ATOM      1  C1  <0> d   1      20.292  -4.958   6.906  0.00  0.00     0.092 C 
ATOM      2  C2  <0> d   1      19.748  -3.555   6.822  0.00  0.00     0.113 C 
ATOM      3  N3  <0> d   1      19.628  -3.045   5.650  0.00  0.00    -0.147 NA
ATOM      4  S4  <0> d   1      19.045  -1.507   5.446  0.00  0.00     0.287 S 
ATOM      5  O5  <0> d   1      19.989  -0.818   4.637  0.00  0.00    -0.198 OA
ATOM      6  O6  <0> d   1      17.671  -1.634   5.106  0.00  0.00    -0.198 OA
ATOM      7  C7  <0> d   1      19.104  -0.754   7.041  0.00  0.00     0.110 A 
ATOM      8  C8  <0> d   1      18.961   0.607   7.186  0.00  0.00     0.051 A 
ATOM      9  C9  <0> d   1      19.013   1.172   8.451  0.00  0.00     0.035 A 
ATOM     10 Cl10 <0> d   1      18.834   2.888   8.642  0.00  0.00    -0.084 Cl
ATOM     11  C11 <0> d   1      19.206   0.369   9.560  0.00  0.00     0.026 A 
ATOM     12  C12 <0> d   1      19.348  -0.997   9.416  0.00  0.00     0.033 A 
ATOM     13  C13 <0> d   1      19.297  -1.570   8.152  0.00  0.00     0.057 A 
ATOM     14  N14 <0> d   1      19.425  -2.948   7.990  0.00  0.00    -0.343 N 
ATOM     15  H21 <0> d   1      19.276  -3.510   8.766  0.00  0.00     0.167 HD
ENDROOT
TORSDOF 0
ENDMDL
MODEL 2
REMARK VINA RESULT:      -6.2      6.455      7.505
REMARK  0 active torsions:
REMARK  status: ('A' for Active; 'I' for Inactive)
ROOT
ATOM      1  C1  <0> d   1      17.492   4.479  11.007  0.00  0.00     0.092 C 
ATOM      2  C2  <0> d   1      17.705   3.103  11.583  0.00  0.00     0.113 C 
ATOM      3  N3  <0> d   1      17.175   2.118  10.954  0.00  0.00    -0.147 NA
ATOM      4  S4  <0> d   1      17.344   0.563  11.505  0.00  0.00     0.287 S 
ATOM      5  O5  <0> d   1      16.035   0.015  11.581  0.00  0.00    -0.198 OA
ATOM      6  O6  <0> d   1      18.394  -0.024  10.750  0.00  0.00    -0.198 OA
ATOM      7  C7  <0> d   1      17.931   0.702  13.164  0.00  0.00     0.110 A 
ATOM      8  C8  <0> d   1      17.910  -0.380  14.014  0.00  0.00     0.051 A 
ATOM      9  C9  <0> d   1      18.376  -0.242  15.312  0.00  0.00     0.035 A 
ATOM     10 Cl10 <0> d   1      18.354  -1.603  16.390  0.00  0.00    -0.084 Cl
ATOM     11  C11 <0> d   1      18.858   0.978  15.748  0.00  0.00     0.026 A 
ATOM     12  C12 <0> d   1      18.880   2.065  14.896  0.00  0.00     0.033 A 
ATOM     13  C13 <0> d   1      18.416   1.933  13.594  0.00  0.00     0.057 A 
ATOM     14  N14 <0> d   1      18.443   3.017  12.717  0.00  0.00    -0.343 N 
ATOM     15  H21 <0> d   1      19.028   3.759  12.934  0.00  0.00     0.167 HD
ENDROOT
TORSDOF 0
ENDMDL
MODEL 3
REMARK VINA RESULT:      -6.2      4.461      5.258
REMARK  0 active torsions:
REMARK  status: ('A' for Active; 'I' for Inactive)
ROOT
ATOM      1  C1  <0> d   1      20.459   0.578  13.198  0.00  0.00     0.092 C 
ATOM      2  C2  <0> d   1      19.426   0.396  12.115  0.00  0.00     0.113 C 
ATOM      3  N3  <0> d   1      18.463  -0.417  12.357  0.00  0.00    -0.147 NA
ATOM      4  S4  <0> d   1      17.277  -0.694  11.233  0.00  0.00     0.287 S 
ATOM      5  O5  <0> d   1      17.194  -2.103  11.068  0.00  0.00    -0.198 OA
ATOM      6  O6  <0> d   1      16.169   0.116  11.602  0.00  0.00    -0.198 OA
ATOM      7  C7  <0> d   1      17.894  -0.044   9.712  0.00  0.00     0.110 A 
ATOM      8  C8  <0> d   1      17.292  -0.355   8.515  0.00  0.00     0.051 A 
ATOM      9  C9  <0> d   1      17.799   0.168   7.335  0.00  0.00     0.035 A 
ATOM     10 Cl10 <0> d   1      17.045  -0.219   5.820  0.00  0.00    -0.084 Cl
ATOM     11  C11 <0> d   1      18.904   0.999   7.365  0.00  0.00     0.026 A 
ATOM     12  C12 <0> d   1      19.509   1.313   8.567  0.00  0.00     0.033 A 
ATOM     13  C13 <0> d   1      19.005   0.793   9.752  0.00  0.00     0.057 A 
ATOM     14  N14 <0> d   1      19.595   1.110  10.975  0.00  0.00    -0.343 N 
ATOM     15  H21 <0> d   1      20.167   1.892  11.011  0.00  0.00     0.167 HD
ENDROOT
TORSDOF 0
ENDMDL
MODEL 4
REMARK VINA RESULT:      -6.0      3.829      4.536
REMARK  0 active torsions:
REMARK  status: ('A' for Active; 'I' for Inactive)
ROOT
ATOM      1  C1  <0> d   1      17.038  -4.665  11.588  0.00  0.00     0.092 C 
ATOM      2  C2  <0> d   1      17.456  -3.305  11.091  0.00  0.00     0.113 C 
ATOM      3  N3  <0> d   1      17.056  -2.289  11.765  0.00  0.00    -0.147 NA
ATOM      4  S4  <0> d   1      17.454  -0.748  11.302  0.00  0.00     0.287 S 
ATOM      5  O5  <0> d   1      16.238  -0.016  11.235  0.00  0.00    -0.198 OA
ATOM      6  O6  <0> d   1      18.559  -0.355  12.105  0.00  0.00    -0.198 OA
ATOM      7  C7  <0> d   1      18.053  -0.882   9.647  0.00  0.00     0.110 A 
ATOM      8  C8  <0> d   1      18.205   0.235   8.858  0.00  0.00     0.051 A 
ATOM      9  C9  <0> d   1      18.677   0.100   7.561  0.00  0.00     0.035 A 
ATOM     10 Cl10 <0> d   1      18.871   1.504   6.559  0.00  0.00    -0.084 Cl
ATOM     11  C11 <0> d   1      18.992  -1.152   7.066  0.00  0.00     0.026 A 
ATOM     12  C12 <0> d   1      18.842  -2.274   7.858  0.00  0.00     0.033 A 
ATOM     13  C13 <0> d   1      18.371  -2.146   9.159  0.00  0.00     0.057 A 
ATOM     14  N14 <0> d   1      18.225  -3.266   9.975  0.00  0.00    -0.343 N 
ATOM     15  H21 <0> d   1      18.704  -4.071   9.727  0.00  0.00     0.167 HD
ENDROOT
TORSDOF 0
ENDMDL
MODEL 5
REMARK VINA RESULT:      -6.0      4.661      5.204
REMARK  0 active torsions:
REMARK  status: ('A' for Active; 'I' for Inactive)
ROOT
ATOM      1  C1  <0> d   1      19.874  -3.861  11.290  0.00  0.00     0.092 C 
ATOM      2  C2  <0> d   1      19.702  -2.376  11.483  0.00  0.00     0.113 C 
ATOM      3  N3  <0> d   1      19.253  -1.982  12.619  0.00  0.00    -0.147 NA
ATOM      4  S4  <0> d   1      19.022  -0.371  12.934  0.00  0.00     0.287 S 
ATOM      5  O5  <0> d   1      17.687  -0.236  13.402  0.00  0.00    -0.198 OA
ATOM      6  O6  <0> d   1      20.156   0.066  13.670  0.00  0.00    -0.198 OA
ATOM      7  C7  <0> d   1      19.092   0.440  11.368  0.00  0.00     0.110 A 
ATOM      8  C8  <0> d   1      18.660   1.738  11.224  0.00  0.00     0.051 A 
ATOM      9  C9  <0> d   1      18.726   2.351   9.982  0.00  0.00     0.035 A 
ATOM     10 Cl10 <0> d   1      18.184   3.989   9.793  0.00  0.00    -0.084 Cl
ATOM     11  C11 <0> d   1      19.223   1.657   8.894  0.00  0.00     0.026 A 
ATOM     12  C12 <0> d   1      19.657   0.354   9.037  0.00  0.00     0.033 A 
ATOM     13  C13 <0> d   1      19.596  -0.265  10.279  0.00  0.00     0.057 A 
ATOM     14  N14 <0> d   1      20.042  -1.575  10.443  0.00  0.00    -0.343 N 
ATOM     15  H21 <0> d   1      20.633  -1.939   9.766  0.00  0.00     0.167 HD
ENDROOT
TORSDOF 0
ENDMDL
MODEL 6
REMARK VINA RESULT:      -5.9      7.794      9.238
REMARK  0 active torsions:
REMARK  status: ('A' for Active; 'I' for Inactive)
ROOT
ATOM      1  C1  <0> d   1      19.688   3.590  16.786  0.00  0.00     0.092 C 
ATOM      2  C2  <0> d   1      19.280   2.251  16.226  0.00  0.00     0.113 C 
ATOM      3  N3  <0> d   1      18.923   1.351  17.068  0.00  0.00    -0.147 NA
ATOM      4  S4  <0> d   1      18.460  -0.158  16.560  0.00  0.00     0.287 S 
ATOM      5  O5  <0> d   1      19.236  -1.091  17.298  0.00  0.00    -0.198 OA
ATOM      6  O6  <0> d   1      17.039  -0.163  16.543  0.00  0.00    -0.198 OA
ATOM      7  C7  <0> d   1      18.986  -0.281  14.880  0.00  0.00     0.110 A 
ATOM      8  C8  <0> d   1      19.018  -1.497  14.237  0.00  0.00     0.051 A 
ATOM      9  C9  <0> d   1      19.437  -1.566  12.917  0.00  0.00     0.035 A 
ATOM     10 Cl10 <0> d   1      19.479  -3.096  12.099  0.00  0.00    -0.084 Cl
ATOM     11  C11 <0> d   1      19.821  -0.415  12.252  0.00  0.00     0.026 A 
ATOM     12  C12 <0> d   1      19.789   0.806  12.896  0.00  0.00     0.033 A 
ATOM     13  C13 <0> d   1      19.369   0.881  14.218  0.00  0.00     0.057 A 
ATOM     14  N14 <0> d   1      19.318   2.108  14.879  0.00  0.00    -0.343 N 
ATOM     15  H21 <0> d   1      19.312   2.912  14.338  0.00  0.00     0.167 HD
ENDROOT
TORSDOF 0
ENDMDL
MODEL 7
REMARK VINA RESULT:      -5.8      4.255      5.513
REMARK  0 active torsions:
REMARK  status: ('A' for Active; 'I' for Inactive)
ROOT
ATOM      1  C1  <0> d   1      19.734   3.652  11.805  0.00  0.00     0.092 C 
ATOM      2  C2  <0> d   1      19.491   2.386  11.024  0.00  0.00     0.113 C 
ATOM      3  N3  <0> d   1      19.788   1.278  11.600  0.00  0.00    -0.147 NA
ATOM      4  S4  <0> d   1      19.565  -0.172  10.829  0.00  0.00     0.287 S 
ATOM      5  O5  <0> d   1      20.800  -0.869  10.908  0.00  0.00    -0.198 OA
ATOM      6  O6  <0> d   1      18.336  -0.702  11.307  0.00  0.00    -0.198 OA
ATOM      7  C7  <0> d   1      19.316   0.222   9.126  0.00  0.00     0.110 A 
ATOM      8  C8  <0> d   1      19.382  -0.753   8.158  0.00  0.00     0.051 A 
ATOM      9  C9  <0> d   1      19.184  -0.415   6.828  0.00  0.00     0.035 A 
ATOM     10 Cl10 <0> d   1      19.266  -1.640   5.601  0.00  0.00    -0.084 Cl
ATOM     11  C11 <0> d   1      18.921   0.897   6.479  0.00  0.00     0.026 A 
ATOM     12  C12 <0> d   1      18.854   1.877   7.450  0.00  0.00     0.033 A 
ATOM     13  C13 <0> d   1      19.050   1.545   8.785  0.00  0.00     0.057 A 
ATOM     14  N14 <0> d   1      18.972   2.519   9.779  0.00  0.00    -0.343 N 
ATOM     15  H21 <0> d   1      18.519   3.349   9.563  0.00  0.00     0.167 HD
ENDROOT
TORSDOF 0
ENDMDL
MODEL 8
REMARK VINA RESULT:      -5.8      5.575      6.517
REMARK  0 active torsions:
REMARK  status: ('A' for Active; 'I' for Inactive)
ROOT
ATOM      1  C1  <0> d   1      19.236   1.743   8.079  0.00  0.00     0.092 C 
ATOM      2  C2  <0> d   1      18.691   1.890   9.476  0.00  0.00     0.113 C 
ATOM      3  N3  <0> d   1      18.699   3.068   9.985  0.00  0.00    -0.147 NA
ATOM      4  S4  <0> d   1      18.127   3.339  11.517  0.00  0.00     0.287 S 
ATOM      5  O5  <0> d   1      19.150   4.036  12.216  0.00  0.00    -0.198 OA
ATOM      6  O6  <0> d   1      16.802   3.833  11.375  0.00  0.00    -0.198 OA
ATOM      7  C7  <0> d   1      17.996   1.748  12.271  0.00  0.00     0.110 A 
ATOM      8  C8  <0> d   1      17.824   1.622  13.630  0.00  0.00     0.051 A 
ATOM      9  C9  <0> d   1      17.724   0.360  14.195  0.00  0.00     0.035 A 
ATOM     10 Cl10 <0> d   1      17.507   0.192  15.909  0.00  0.00    -0.084 Cl
ATOM     11  C11 <0> d   1      17.799  -0.765  13.394  0.00  0.00     0.026 A 
ATOM     12  C12 <0> d   1      17.970  -0.640  12.029  0.00  0.00     0.033 A 
ATOM     13  C13 <0> d   1      18.069   0.622  11.457  0.00  0.00     0.057 A 
ATOM     14  N14 <0> d   1      18.230   0.767  10.079  0.00  0.00    -0.343 N 
ATOM     15  H21 <0> d   1      17.999   0.012   9.516  0.00  0.00     0.167 HD
ENDROOT
TORSDOF 0
ENDMDL
MODEL 9
REMARK VINA RESULT:      -5.7      5.860      6.654
REMARK  0 active torsions:
REMARK  status: ('A' for Active; 'I' for Inactive)
ROOT
ATOM      1  C1  <0> d   1      19.720  -3.725  11.478  0.00  0.00     0.092 C 
ATOM      2  C2  <0> d   1      19.502  -2.368  12.095  0.00  0.00     0.113 C 
ATOM      3  N3  <0> d   1      20.002  -1.359  11.479  0.00  0.00    -0.147 NA
ATOM      4  S4  <0> d   1      19.825   0.178  12.074  0.00  0.00     0.287 S 
ATOM      5  O5  <0> d   1      21.127   0.744  12.132  0.00  0.00    -0.198 OA
ATOM      6  O6  <0> d   1      18.747   0.769  11.360  0.00  0.00    -0.198 OA
ATOM      7  C7  <0> d   1      19.282  -0.012  13.742  0.00  0.00     0.110 A 
ATOM      8  C8  <0> d   1      19.308   1.048  14.619  0.00  0.00     0.051 A 
ATOM      9  C9  <0> d   1      18.876   0.871  15.925  0.00  0.00     0.035 A 
ATOM     10 Cl10 <0> d   1      18.906   2.203  17.037  0.00  0.00    -0.084 Cl
ATOM     11  C11 <0> d   1      18.423  -0.367  16.341  0.00  0.00     0.026 A 
ATOM     12  C12 <0> d   1      18.395  -1.432  15.462  0.00  0.00     0.033 A 
ATOM     13  C13 <0> d   1      18.825  -1.261  14.152  0.00  0.00     0.057 A 
ATOM     14  N14 <0> d   1      18.791  -2.322  13.248  0.00  0.00    -0.343 N 
ATOM     15  H21 <0> d   1      18.223  -3.078  13.461  0.00  0.00     0.167 HD
ENDROOT
TORSDOF 0
ENDMDL
