MODEL 1
REMARK VINA RESULT:      -6.7      0.000      0.000
REMARK  3 active torsions:
REMARK  status: ('A' for Active; 'I' for Inactive)
REMARK       I    between atoms: C2_2  and  N4_4 
REMARK    1  A    between atoms: N4_4  and  C5_5 
REMARK    2  A    between atoms: C8_8  and  N9_9 
REMARK       I    between atoms: N9_9  and  C10_10 
REMARK    3  A    between atoms: C15_15  and  C16_16 
ROOT
ATOM      1  C5  ZIN A   1      18.388  -2.321   7.943  0.00  0.00     0.071 A 
ATOM      2  C6  ZIN A   1      18.561  -0.945   8.003  0.00  0.00     0.062 A 
ATOM      3  I7  ZIN A   1      18.152   0.233   6.320  0.00  0.00    -0.040 I 
ATOM      4  C8  ZIN A   1      19.002  -0.346   9.177  0.00  0.00     0.071 A 
ATOM      5  C13 ZIN A   1      19.273  -1.122  10.294  0.00  0.00     0.053 A 
ATOM      6  I14 ZIN A   1      19.938  -0.218  12.062  0.00  0.00    -0.041 I 
ATOM      7  C15 ZIN A   1      19.102  -2.508  10.237  0.00  0.00     0.078 A 
ATOM      8  C19 ZIN A   1      18.653  -3.105   9.056  0.00  0.00     0.053 A 
ATOM      9  I20 ZIN A   1      18.394  -5.182   8.963  0.00  0.00    -0.041 I 
ENDROOT
BRANCH   1  10
ATOM     10  N4  ZIN A   1      17.943  -2.919   6.757  0.00  0.00    -0.325 N 
ATOM     11  C2  ZIN A   1      18.834  -3.344   5.841  0.00  0.00     0.218 C 
ATOM     12  C1  ZIN A   1      18.360  -4.075   4.611  0.00  0.00     0.117 C 
ATOM     13  O3  ZIN A   1      20.018  -3.138   6.005  0.00  0.00    -0.274 OA
ATOM     14  H24 ZIN A   1      16.993  -3.028   6.597  0.00  0.00     0.169 HD
ENDBRANCH   1  10
BRANCH   7  15
ATOM     15  C16 ZIN A   1      19.390  -3.337  11.422  0.00  0.00     0.212 C 
ATOM     16  O17 ZIN A   1      18.508  -3.557  12.242  0.00  0.00    -0.644 OA
ATOM     17  O18 ZIN A   1      20.507  -3.806  11.584  0.00  0.00    -0.644 OA
ENDBRANCH   7  15
BRANCH   4  18
ATOM     18  N9  ZIN A   1      19.173   1.043   9.232  0.00  0.00    -0.325 N 
ATOM     19  C10 ZIN A   1      18.196   1.822   9.737  0.00  0.00     0.218 C 
ATOM     20  C11 ZIN A   1      18.420   3.303   9.895  0.00  0.00     0.117 C 
ATOM     21  O12 ZIN A   1      17.136   1.330  10.065  0.00  0.00    -0.274 OA
ATOM     22  H25 ZIN A   1      19.993   1.444   8.906  0.00  0.00     0.169 HD
ENDBRANCH   4  18
TORSDOF 3
ENDMDL
MODEL 2
REMARK VINA RESULT:      -6.7      0.021      4.958
REMARK  3 active torsions:
REMARK  status: ('A' for Active; 'I' for Inactive)
REMARK       I    between atoms: C2_2  and  N4_4 
REMARK    1  A    between atoms: N4_4  and  C5_5 
REMARK    2  A    between atoms: C8_8  and  N9_9 
REMARK       I    between atoms: N9_9  and  C10_10 
REMARK    3  A    between atoms: C15_15  and  C16_16 
ROOT
ATOM      1  C5  ZIN A   1      19.001  -0.337   9.176  0.00  0.00     0.071 A 
ATOM      2  C6  ZIN A   1      18.558  -0.940   8.007  0.00  0.00     0.062 A 
ATOM      3  I7  ZIN A   1      18.149   0.231   6.319  0.00  0.00    -0.040 I 
ATOM      4  C8  ZIN A   1      18.388  -2.318   7.952  0.00  0.00     0.071 A 
ATOM      5  C13 ZIN A   1      18.658  -3.097   9.067  0.00  0.00     0.053 A 
ATOM      6  I14 ZIN A   1      18.401  -5.174   8.982  0.00  0.00    -0.041 I 
ATOM      7  C15 ZIN A   1      19.102  -2.494  10.246  0.00  0.00     0.078 A 
ATOM      8  C19 ZIN A   1      19.278  -1.108  10.295  0.00  0.00     0.053 A 
ATOM      9  I20 ZIN A   1      19.944  -0.196  12.060  0.00  0.00    -0.041 I 
ENDROOT
BRANCH   1  10
ATOM     10  N4  ZIN A   1      19.172   1.052   9.226  0.00  0.00    -0.325 N 
ATOM     11  C2  ZIN A   1      18.199   1.833   9.737  0.00  0.00     0.218 C 
ATOM     12  C1  ZIN A   1      18.422   3.316   9.880  0.00  0.00     0.117 C 
ATOM     13  O3  ZIN A   1      17.145   1.342  10.081  0.00  0.00    -0.274 OA
ATOM     14  H24 ZIN A   1      19.990   1.452   8.893  0.00  0.00     0.169 HD
ENDBRANCH   1  10
BRANCH   7  15
ATOM     15  C16 ZIN A   1      19.391  -3.318  11.435  0.00  0.00     0.212 C 
ATOM     16  O17 ZIN A   1      20.510  -3.786  11.597  0.00  0.00    -0.644 OA
ATOM     17  O18 ZIN A   1      18.513  -3.533  12.258  0.00  0.00    -0.644 OA
ENDBRANCH   7  15
BRANCH   4  18
ATOM     18  N9  ZIN A   1      17.943  -2.921   6.769  0.00  0.00    -0.325 N 
ATOM     19  C10 ZIN A   1      18.835  -3.362   5.861  0.00  0.00     0.218 C 
ATOM     20  C11 ZIN A   1      18.361  -4.106   4.639  0.00  0.00     0.117 C 
ATOM     21  O12 ZIN A   1      20.020  -3.162   6.027  0.00  0.00    -0.274 OA
ATOM     22  H25 ZIN A   1      16.992  -3.020   6.602  0.00  0.00     0.169 HD
ENDBRANCH   4  18
TORSDOF 3
ENDMDL
MODEL 3
REMARK VINA RESULT:      -6.6      4.671      8.409
REMARK  3 active torsions:
REMARK  status: ('A' for Active; 'I' for Inactive)
REMARK       I    between atoms: C2_2  and  N4_4 
REMARK    1  A    between atoms: N4_4  and  C5_5 
REMARK    2  A    between atoms: C8_8  and  N9_9 
REMARK       I    between atoms: N9_9  and  C10_10 
REMARK    3  A    between atoms: C15_15  and  C16_16 
ROOT
ATOM      1  C5  ZIN A   1      18.034   2.022  14.821  0.00  0.00     0.071 A 
ATOM      2  C6  ZIN A   1      18.350   0.773  14.305  0.00  0.00     0.062 A 
ATOM      3  I7  ZIN A   1      18.641  -0.849  15.600  0.00  0.00    -0.040 I 
ATOM      4  C8  ZIN A   1      18.474   0.594  12.933  0.00  0.00     0.071 A 
ATOM      5  C13 ZIN A   1      18.282   1.664  12.072  0.00  0.00     0.053 A 
ATOM      6  I14 ZIN A   1      18.467   1.393  10.004  0.00  0.00    -0.041 I 
ATOM      7  C15 ZIN A   1      17.965   2.924  12.588  0.00  0.00     0.078 A 
ATOM      8  C19 ZIN A   1      17.836   3.097  13.968  0.00  0.00     0.053 A 
ATOM      9  I20 ZIN A   1      17.360   4.983  14.749  0.00  0.00    -0.041 I 
ENDROOT
BRANCH   1  10
ATOM     10  N4  ZIN A   1      17.911   2.196  16.205  0.00  0.00    -0.325 N 
ATOM     11  C2  ZIN A   1      18.960   2.640  16.925  0.00  0.00     0.218 C 
ATOM     12  C1  ZIN A   1      18.799   2.920  18.397  0.00  0.00     0.117 C 
ATOM     13  O3  ZIN A   1      20.034   2.811  16.389  0.00  0.00    -0.274 OA
ATOM     14  H24 ZIN A   1      17.069   1.999  16.646  0.00  0.00     0.169 HD
ENDBRANCH   1  10
BRANCH   7  15
ATOM     15  C16 ZIN A   1      17.760   4.065  11.677  0.00  0.00     0.212 C 
ATOM     16  O17 ZIN A   1      18.702   4.789  11.383  0.00  0.00    -0.644 OA
ATOM     17  O18 ZIN A   1      16.650   4.289  11.215  0.00  0.00    -0.644 OA
ENDBRANCH   7  15
BRANCH   4  18
ATOM     18  N9  ZIN A   1      18.791  -0.669  12.418  0.00  0.00    -0.325 N 
ATOM     19  C10 ZIN A   1      17.812  -1.481  11.973  0.00  0.00     0.218 C 
ATOM     20  C11 ZIN A   1      18.160  -2.794  11.322  0.00  0.00     0.117 C 
ATOM     21  O12 ZIN A   1      16.650  -1.154  12.096  0.00  0.00    -0.274 OA
ATOM     22  H25 ZIN A   1      19.716  -0.960  12.383  0.00  0.00     0.169 HD
ENDBRANCH   4  18
TORSDOF 3
ENDMDL
MODEL 4
REMARK VINA RESULT:      -6.6      4.439      7.758
REMARK  3 active torsions:
REMARK  status: ('A' for Active; 'I' for Inactive)
REMARK       I    between atoms: C2_2  and  N4_4 
REMARK    1  A    between atoms: N4_4  and  C5_5 
REMARK    2  A    between atoms: C8_8  and  N9_9 
REMARK       I    between atoms: N9_9  and  C10_10 
REMARK    3  A    between atoms: C15_15  and  C16_16 
ROOT
ATOM      1  C5  ZIN A   1      18.779   1.421  14.251  0.00  0.00     0.071 A 
ATOM      2  C6  ZIN A   1      18.425   1.051  12.961  0.00  0.00     0.062 A 
ATOM      3  I7  ZIN A   1      18.614  -0.947  12.359  0.00  0.00    -0.040 I 
ATOM      4  C8  ZIN A   1      17.944   2.001  12.068  0.00  0.00     0.071 A 
ATOM      5  C13 ZIN A   1      17.817   3.324  12.463  0.00  0.00     0.053 A 
ATOM      6  I14 ZIN A   1      17.092   4.755  11.116  0.00  0.00    -0.041 I 
ATOM      7  C15 ZIN A   1      18.174   3.701  13.760  0.00  0.00     0.078 A 
ATOM      8  C19 ZIN A   1      18.652   2.741  14.656  0.00  0.00     0.053 A 
ATOM      9  I20 ZIN A   1      19.188   3.298  16.604  0.00  0.00    -0.041 I 
ENDROOT
BRANCH   1  10
ATOM     10  N4  ZIN A   1      19.263   0.459  15.147  0.00  0.00    -0.325 N 
ATOM     11  C2  ZIN A   1      18.403  -0.237  15.917  0.00  0.00     0.218 C 
ATOM     12  C1  ZIN A   1      18.914  -1.340  16.809  0.00  0.00     0.117 C 
ATOM     13  O3  ZIN A   1      17.219   0.025  15.894  0.00  0.00    -0.274 OA
ATOM     14  H24 ZIN A   1      20.216   0.292  15.211  0.00  0.00     0.169 HD
ENDBRANCH   1  10
BRANCH   7  15
ATOM     15  C16 ZIN A   1      18.041   5.107  14.185  0.00  0.00     0.212 C 
ATOM     16  O17 ZIN A   1      16.991   5.500  14.676  0.00  0.00    -0.644 OA
ATOM     17  O18 ZIN A   1      18.979   5.879  14.048  0.00  0.00    -0.644 OA
ENDBRANCH   7  15
BRANCH   4  18
ATOM     18  N9  ZIN A   1      17.587   1.621  10.769  0.00  0.00    -0.325 N 
ATOM     19  C10 ZIN A   1      18.512   1.621   9.789  0.00  0.00     0.218 C 
ATOM     20  C11 ZIN A   1      18.156   1.111   8.416  0.00  0.00     0.117 C 
ATOM     21  O12 ZIN A   1      19.632   2.031  10.011  0.00  0.00    -0.274 OA
ATOM     22  H25 ZIN A   1      16.674   1.359  10.573  0.00  0.00     0.169 HD
ENDBRANCH   4  18
TORSDOF 3
ENDMDL
MODEL 5
REMARK VINA RESULT:      -6.6      4.429      7.163
REMARK  3 active torsions:
REMARK  status: ('A' for Active; 'I' for Inactive)
REMARK       I    between atoms: C2_2  and  N4_4 
REMARK    1  A    between atoms: N4_4  and  C5_5 
REMARK    2  A    between atoms: C8_8  and  N9_9 
REMARK       I    between atoms: N9_9  and  C10_10 
REMARK    3  A    between atoms: C15_15  and  C16_16 
ROOT
ATOM      1  C5  ZIN A   1      17.946   2.001  12.059  0.00  0.00     0.071 A 
ATOM      2  C6  ZIN A   1      18.432   1.051  12.947  0.00  0.00     0.062 A 
ATOM      3  I7  ZIN A   1      18.635  -0.943  12.336  0.00  0.00    -0.040 I 
ATOM      4  C8  ZIN A   1      18.786   1.419  14.239  0.00  0.00     0.071 A 
ATOM      5  C13 ZIN A   1      18.654   2.737  14.648  0.00  0.00     0.053 A 
ATOM      6  I14 ZIN A   1      19.188   3.289  16.597  0.00  0.00    -0.041 I 
ATOM      7  C15 ZIN A   1      18.164   3.696  13.758  0.00  0.00     0.078 A 
ATOM      8  C19 ZIN A   1      17.815   3.323  12.457  0.00  0.00     0.053 A 
ATOM      9  I20 ZIN A   1      17.080   4.755  11.116  0.00  0.00    -0.041 I 
ENDROOT
BRANCH   1  10
ATOM     10  N4  ZIN A   1      17.592   1.625  10.757  0.00  0.00    -0.325 N 
ATOM     11  C2  ZIN A   1      18.516   1.639   9.776  0.00  0.00     0.218 C 
ATOM     12  C1  ZIN A   1      18.160   1.141   8.399  0.00  0.00     0.117 C 
ATOM     13  O3  ZIN A   1      19.633   2.053  10.001  0.00  0.00    -0.274 OA
ATOM     14  H24 ZIN A   1      16.682   1.353  10.562  0.00  0.00     0.169 HD
ENDBRANCH   1  10
BRANCH   7  15
ATOM     15  C16 ZIN A   1      18.021   5.100  14.187  0.00  0.00     0.212 C 
ATOM     16  O17 ZIN A   1      16.967   5.485  14.676  0.00  0.00    -0.644 OA
ATOM     17  O18 ZIN A   1      18.955   5.878  14.056  0.00  0.00    -0.644 OA
ENDBRANCH   7  15
BRANCH   4  18
ATOM     18  N9  ZIN A   1      19.277   0.456  15.130  0.00  0.00    -0.325 N 
ATOM     19  C10 ZIN A   1      18.423  -0.250  15.897  0.00  0.00     0.218 C 
ATOM     20  C11 ZIN A   1      18.940  -1.359  16.776  0.00  0.00     0.117 C 
ATOM     21  O12 ZIN A   1      17.237   0.006  15.878  0.00  0.00    -0.274 OA
ATOM     22  H25 ZIN A   1      20.232   0.298  15.196  0.00  0.00     0.169 HD
ENDBRANCH   4  18
TORSDOF 3
ENDMDL
MODEL 6
REMARK VINA RESULT:      -6.5      5.105      6.684
REMARK  3 active torsions:
REMARK  status: ('A' for Active; 'I' for Inactive)
REMARK       I    between atoms: C2_2  and  N4_4 
REMARK    1  A    between atoms: N4_4  and  C5_5 
REMARK    2  A    between atoms: C8_8  and  N9_9 
REMARK       I    between atoms: N9_9  and  C10_10 
REMARK    3  A    between atoms: C15_15  and  C16_16 
ROOT
ATOM      1  C5  ZIN A   1      18.677   1.195  13.348  0.00  0.00     0.071 A 
ATOM      2  C6  ZIN A   1      18.500   2.418  13.981  0.00  0.00     0.062 A 
ATOM      3  I7  ZIN A   1      18.496   4.186  12.856  0.00  0.00    -0.040 I 
ATOM      4  C8  ZIN A   1      18.325   2.473  15.358  0.00  0.00     0.071 A 
ATOM      5  C13 ZIN A   1      18.327   1.305  16.106  0.00  0.00     0.053 A 
ATOM      6  I14 ZIN A   1      18.061   1.390  18.182  0.00  0.00    -0.041 I 
ATOM      7  C15 ZIN A   1      18.506   0.073  15.473  0.00  0.00     0.078 A 
ATOM      8  C19 ZIN A   1      18.676   0.022  14.087  0.00  0.00     0.053 A 
ATOM      9  I20 ZIN A   1      18.945  -1.822  13.129  0.00  0.00    -0.041 I 
ENDROOT
BRANCH   1  10
ATOM     10  N4  ZIN A   1      18.853   1.146  11.959  0.00  0.00    -0.325 N 
ATOM     11  C2  ZIN A   1      17.783   1.035  11.147  0.00  0.00     0.218 C 
ATOM     12  C1  ZIN A   1      17.964   1.081   9.652  0.00  0.00     0.117 C 
ATOM     13  O3  ZIN A   1      16.675   0.897  11.621  0.00  0.00    -0.274 OA
ATOM     14  H24 ZIN A   1      19.745   1.194  11.582  0.00  0.00     0.169 HD
ENDBRANCH   1  10
BRANCH   7  15
ATOM     15  C16 ZIN A   1      18.509  -1.172  16.264  0.00  0.00     0.212 C 
ATOM     16  O17 ZIN A   1      19.564  -1.618  16.696  0.00  0.00    -0.644 OA
ATOM     17  O18 ZIN A   1      17.459  -1.757  16.488  0.00  0.00    -0.644 OA
ENDBRANCH   7  15
BRANCH   4  18
ATOM     18  N9  ZIN A   1      18.145   3.709  15.991  0.00  0.00    -0.325 N 
ATOM     19  C10 ZIN A   1      19.209   4.377  16.478  0.00  0.00     0.218 C 
ATOM     20  C11 ZIN A   1      19.031   5.755  17.063  0.00  0.00     0.117 C 
ATOM     21  O12 ZIN A   1      20.311   3.871  16.445  0.00  0.00    -0.274 OA
ATOM     22  H25 ZIN A   1      17.255   4.084  16.080  0.00  0.00     0.169 HD
ENDBRANCH   4  18
TORSDOF 3
ENDMDL
MODEL 7
REMARK VINA RESULT:      -6.5      5.108      7.968
REMARK  3 active torsions:
REMARK  status: ('A' for Active; 'I' for Inactive)
REMARK       I    between atoms: C2_2  and  N4_4 
REMARK    1  A    between atoms: N4_4  and  C5_5 
REMARK    2  A    between atoms: C8_8  and  N9_9 
REMARK       I    between atoms: N9_9  and  C10_10 
REMARK    3  A    between atoms: C15_15  and  C16_16 
ROOT
ATOM      1  C5  ZIN A   1      18.312   2.450  15.378  0.00  0.00     0.071 A 
ATOM      2  C6  ZIN A   1      18.465   2.393  13.999  0.00  0.00     0.062 A 
ATOM      3  I7  ZIN A   1      18.418   4.158  12.870  0.00  0.00    -0.040 I 
ATOM      4  C8  ZIN A   1      18.650   1.170  13.366  0.00  0.00     0.071 A 
ATOM      5  C13 ZIN A   1      18.681   0.001  14.109  0.00  0.00     0.053 A 
ATOM      6  I14 ZIN A   1      18.961  -1.842  13.153  0.00  0.00    -0.041 I 
ATOM      7  C15 ZIN A   1      18.527   0.053  15.497  0.00  0.00     0.078 A 
ATOM      8  C19 ZIN A   1      18.347   1.286  16.130  0.00  0.00     0.053 A 
ATOM      9  I20 ZIN A   1      18.114   1.373  18.211  0.00  0.00    -0.041 I 
ENDROOT
BRANCH   1  10
ATOM     10  N4  ZIN A   1      18.126   3.686  16.011  0.00  0.00    -0.325 N 
ATOM     11  C2  ZIN A   1      19.192   4.388  16.443  0.00  0.00     0.218 C 
ATOM     12  C1  ZIN A   1      19.000   5.760  17.035  0.00  0.00     0.117 C 
ATOM     13  O3  ZIN A   1      20.306   3.916  16.357  0.00  0.00    -0.274 OA
ATOM     14  H24 ZIN A   1      17.231   4.036  16.136  0.00  0.00     0.169 HD
ENDBRANCH   1  10
BRANCH   7  15
ATOM     15  C16 ZIN A   1      18.559  -1.188  16.292  0.00  0.00     0.212 C 
ATOM     16  O17 ZIN A   1      17.516  -1.772  16.556  0.00  0.00    -0.644 OA
ATOM     17  O18 ZIN A   1      19.627  -1.634  16.688  0.00  0.00    -0.644 OA
ENDBRANCH   7  15
BRANCH   4  18
ATOM     18  N9  ZIN A   1      18.805   1.120  11.975  0.00  0.00    -0.325 N 
ATOM     19  C10 ZIN A   1      17.725   0.983  11.181  0.00  0.00     0.218 C 
ATOM     20  C11 ZIN A   1      17.879   1.037   9.683  0.00  0.00     0.117 C 
ATOM     21  O12 ZIN A   1      16.627   0.818  11.673  0.00  0.00    -0.274 OA
ATOM     22  H25 ZIN A   1      19.690   1.183  11.583  0.00  0.00     0.169 HD
ENDBRANCH   4  18
TORSDOF 3
ENDMDL
MODEL 8
REMARK VINA RESULT:      -6.4      2.690      4.256
REMARK  3 active torsions:
REMARK  status: ('A' for Active; 'I' for Inactive)
REMARK       I    between atoms: C2_2  and  N4_4 
REMARK    1  A    between atoms: N4_4  and  C5_5 
REMARK    2  A    between atoms: C8_8  and  N9_9 
REMARK       I    between atoms: N9_9  and  C10_10 
REMARK    3  A    between atoms: C15_15  and  C16_16 
ROOT
ATOM      1  C5  ZIN A   1      18.976  -3.293   8.283  0.00  0.00     0.071 A 
ATOM      2  C6  ZIN A   1      19.119  -2.869   9.597  0.00  0.00     0.062 A 
ATOM      3  I7  ZIN A   1      19.513  -4.265  11.108  0.00  0.00    -0.040 I 
ATOM      4  C8  ZIN A   1      19.003  -1.521   9.912  0.00  0.00     0.071 A 
ATOM      5  C13 ZIN A   1      18.743  -0.593   8.916  0.00  0.00     0.053 A 
ATOM      6  I14 ZIN A   1      18.569   1.439   9.394  0.00  0.00    -0.041 I 
ATOM      7  C15 ZIN A   1      18.597  -1.016   7.592  0.00  0.00     0.078 A 
ATOM      8  C19 ZIN A   1      18.720  -2.372   7.278  0.00  0.00     0.053 A 
ATOM      9  I20 ZIN A   1      18.503  -3.014   5.296  0.00  0.00    -0.041 I 
ENDROOT
BRANCH   1  10
ATOM     10  N4  ZIN A   1      19.095  -4.653   7.970  0.00  0.00    -0.325 N 
ATOM     11  C2  ZIN A   1      18.008  -5.449   8.002  0.00  0.00     0.218 C 
ATOM     12  C1  ZIN A   1      18.116  -6.889   7.572  0.00  0.00     0.117 C 
ATOM     13  O3  ZIN A   1      16.943  -5.007   8.379  0.00  0.00    -0.274 OA
ATOM     14  H24 ZIN A   1      19.959  -5.021   7.729  0.00  0.00     0.169 HD
ENDBRANCH   1  10
BRANCH   7  15
ATOM     15  C16 ZIN A   1      18.320  -0.033   6.528  0.00  0.00     0.212 C 
ATOM     16  O17 ZIN A   1      19.246   0.516   5.947  0.00  0.00    -0.644 OA
ATOM     17  O18 ZIN A   1      17.165   0.232   6.225  0.00  0.00    -0.644 OA
ENDBRANCH   7  15
BRANCH   4  18
ATOM     18  N9  ZIN A   1      19.150  -1.099  11.240  0.00  0.00    -0.325 N 
ATOM     19  C10 ZIN A   1      18.087  -1.096  12.067  0.00  0.00     0.218 C 
ATOM     20  C11 ZIN A   1      18.265  -0.745  13.522  0.00  0.00     0.117 C 
ATOM     21  O12 ZIN A   1      16.986  -1.376  11.642  0.00  0.00    -0.274 OA
ATOM     22  H25 ZIN A   1      20.017  -0.808  11.564  0.00  0.00     0.169 HD
ENDBRANCH   4  18
TORSDOF 3
ENDMDL
MODEL 9
REMARK VINA RESULT:      -6.4      2.637      5.043
REMARK  3 active torsions:
REMARK  status: ('A' for Active; 'I' for Inactive)
REMARK       I    between atoms: C2_2  and  N4_4 
REMARK    1  A    between atoms: N4_4  and  C5_5 
REMARK    2  A    between atoms: C8_8  and  N9_9 
REMARK       I    between atoms: N9_9  and  C10_10 
REMARK    3  A    between atoms: C15_15  and  C16_16 
ROOT
ATOM      1  C5  ZIN A   1      18.800  -2.027   7.949  0.00  0.00     0.071 A 
ATOM      2  C6  ZIN A   1      18.337  -3.271   7.541  0.00  0.00     0.062 A 
ATOM      3  I7  ZIN A   1      18.468  -3.823   5.524  0.00  0.00    -0.040 I 
ATOM      4  C8  ZIN A   1      17.790  -4.151   8.466  0.00  0.00     0.071 A 
ATOM      5  C13 ZIN A   1      17.701  -3.790   9.801  0.00  0.00     0.053 A 
ATOM      6  I14 ZIN A   1      16.876  -5.119  11.194  0.00  0.00    -0.041 I 
ATOM      7  C15 ZIN A   1      18.165  -2.539  10.216  0.00  0.00     0.078 A 
ATOM      8  C19 ZIN A   1      18.720  -1.659   9.283  0.00  0.00     0.053 A 
ATOM      9  I20 ZIN A   1      19.417   0.219   9.897  0.00  0.00    -0.041 I 
ENDROOT
BRANCH   1  10
ATOM     10  N4  ZIN A   1      19.351  -1.144   7.012  0.00  0.00    -0.325 N 
ATOM     11  C2  ZIN A   1      18.564  -0.247   6.385  0.00  0.00     0.218 C 
ATOM     12  C1  ZIN A   1      19.172   0.766   5.451  0.00  0.00     0.117 C 
ATOM     13  O3  ZIN A   1      17.366  -0.257   6.573  0.00  0.00    -0.274 OA
ATOM     14  H24 ZIN A   1      20.300  -1.178   6.815  0.00  0.00     0.169 HD
ENDBRANCH   1  10
BRANCH   7  15
ATOM     15  C16 ZIN A   1      18.073  -2.149  11.635  0.00  0.00     0.212 C 
ATOM     16  O17 ZIN A   1      18.984  -2.425  12.405  0.00  0.00    -0.644 OA
ATOM     17  O18 ZIN A   1      17.088  -1.551  12.044  0.00  0.00    -0.644 OA
ENDBRANCH   7  15
BRANCH   4  18
ATOM     18  N9  ZIN A   1      17.326  -5.405   8.048  0.00  0.00    -0.325 N 
ATOM     19  C10 ZIN A   1      18.153  -6.469   8.068  0.00  0.00     0.218 C 
ATOM     20  C11 ZIN A   1      17.627  -7.838   7.721  0.00  0.00     0.117 C 
ATOM     21  O12 ZIN A   1      19.320  -6.326   8.366  0.00  0.00    -0.274 OA
ATOM     22  H25 ZIN A   1      16.411  -5.508   7.743  0.00  0.00     0.169 HD
ENDBRANCH   4  18
TORSDOF 3
ENDMDL
