MODEL 1
REMARK VINA RESULT:     -10.5      0.000      0.000
REMARK  5 active torsions:
REMARK  status: ('A' for Active; 'I' for Inactive)
REMARK       I    between atoms: C2_2  and  N4_4 
REMARK    1  A    between atoms: N4_4  and  C5_5 
REMARK    2  A    between atoms: C9_9  and  N10_10 
REMARK    3  A    between atoms: N13_13  and  C14_14 
REMARK    4  A    between atoms: C20_20  and  N21_21 
REMARK    5  A    between atoms: N21_21  and  C22_22 
ROOT
ATOM      1  N10 ZIN A   1      18.661  -2.593   8.893  0.00  0.00    -0.262 N 
ATOM      2  C11 ZIN A   1      18.727  -1.976   7.700  0.00  0.00     0.337 A 
ATOM      3  O12 ZIN A   1      18.396  -2.594   6.708  0.00  0.00    -0.246 OA
ATOM      4  N13 ZIN A   1      19.141  -0.708   7.557  0.00  0.00    -0.260 N 
ATOM      5  C17 ZIN A   1      19.521   0.034   8.620  0.00  0.00     0.268 A 
ATOM      6  O18 ZIN A   1      19.894   1.184   8.478  0.00  0.00    -0.267 OA
ATOM      7  C19 ZIN A   1      19.472  -0.581   9.948  0.00  0.00     0.104 A 
ATOM      8  C20 ZIN A   1      19.843   0.106  11.099  0.00  0.00     0.128 A 
ATOM      9  N30 ZIN A   1      19.777  -0.517  12.309  0.00  0.00    -0.303 N 
ATOM     10  C31 ZIN A   1      20.171   0.214  13.515  0.00  0.00     0.161 C 
ATOM     11  C32 ZIN A   1      19.357  -1.790  12.417  0.00  0.00     0.257 A 
ATOM     12  O33 ZIN A   1      19.311  -2.315  13.518  0.00  0.00    -0.267 OA
ATOM     13  C34 ZIN A   1      18.972  -2.524  11.290  0.00  0.00     0.035 A 
ATOM     14  C35 ZIN A   1      18.504  -3.949  11.431  0.00  0.00     0.056 C 
ATOM     15  C36 ZIN A   1      19.021  -1.925  10.048  0.00  0.00     0.075 A 
ENDROOT
BRANCH   1  16
ATOM     16  C9  ZIN A   1      18.218  -3.919   8.967  0.00  0.00     0.046 A 
ATOM     17  C8  ZIN A   1      19.138  -4.960   8.980  0.00  0.00     0.030 A 
ATOM     18  C7  ZIN A   1      18.702  -6.269   9.052  0.00  0.00     0.004 A 
ATOM     19  C6  ZIN A   1      17.350  -6.548   9.113  0.00  0.00     0.029 A 
ATOM     20  C5  ZIN A   1      16.425  -5.512   9.101  0.00  0.00     0.036 A 
ATOM     21  C37 ZIN A   1      16.860  -4.196   9.022  0.00  0.00     0.059 A 
BRANCH  20  22
ATOM     22  N4  ZIN A   1      15.056  -5.796   9.163  0.00  0.00    -0.327 N 
ATOM     23  C2  ZIN A   1      14.381  -6.107   8.039  0.00  0.00     0.218 C 
ATOM     24  C1  ZIN A   1      12.934  -6.519   8.118  0.00  0.00     0.117 C 
ATOM     25  O3  ZIN A   1      14.939  -6.056   6.963  0.00  0.00    -0.274 OA
ATOM     26  H41 ZIN A   1      14.593  -5.768  10.015  0.00  0.00     0.169 HD
ENDBRANCH  20  22
ENDBRANCH   1  16
BRANCH   4  27
ATOM     27  C14 ZIN A   1      19.182  -0.115   6.218  0.00  0.00     0.098 A 
ATOM     28  C16 ZIN A   1      18.731   1.340   6.075  0.00  0.00     0.028 A 
ATOM     29  C15 ZIN A   1      17.846   0.209   5.547  0.00  0.00     0.028 A 
ENDBRANCH   4  27
BRANCH   8  30
ATOM     30  N21 ZIN A   1      20.274   1.402  11.017  0.00  0.00    -0.339 N 
ATOM     31  H50 ZIN A   1      21.126   1.605  10.600  0.00  0.00     0.167 HD
BRANCH  30  32
ATOM     32  C22 ZIN A   1      19.484   2.435  11.535  0.00  0.00     0.072 A 
ATOM     33  C28 ZIN A   1      20.071   3.640  11.909  0.00  0.00     0.144 A 
ATOM     34  C27 ZIN A   1      19.286   4.660  12.415  0.00  0.00     0.062 A 
ATOM     35  F29 ZIN A   1      21.403   3.817  11.768  0.00  0.00    -0.204 F 
ATOM     36  C25 ZIN A   1      17.922   4.479  12.560  0.00  0.00     0.009 A 
ATOM     37  C24 ZIN A   1      17.339   3.280  12.193  0.00  0.00     0.020 A 
ATOM     38  I26 ZIN A   1      16.738   6.024  13.335  0.00  0.00    -0.044 I 
ATOM     39  C23 ZIN A   1      18.116   2.257  11.682  0.00  0.00     0.034 A 
ENDBRANCH  30  32
ENDBRANCH   8  30
TORSDOF 5
ENDMDL
MODEL 2
REMARK VINA RESULT:     -10.0      4.065      9.342
REMARK  5 active torsions:
REMARK  status: ('A' for Active; 'I' for Inactive)
REMARK       I    between atoms: C2_2  and  N4_4 
REMARK    1  A    between atoms: N4_4  and  C5_5 
REMARK    2  A    between atoms: C9_9  and  N10_10 
REMARK    3  A    between atoms: N13_13  and  C14_14 
REMARK    4  A    between atoms: C20_20  and  N21_21 
REMARK    5  A    between atoms: N21_21  and  C22_22 
ROOT
ATOM      1  N10 ZIN A   1      18.737   2.605  14.457  0.00  0.00    -0.262 N 
ATOM      2  C11 ZIN A   1      18.728   1.951  15.631  0.00  0.00     0.337 A 
ATOM      3  O12 ZIN A   1      18.398   2.558  16.631  0.00  0.00    -0.246 OA
ATOM      4  N13 ZIN A   1      19.065   0.658  15.748  0.00  0.00    -0.260 N 
ATOM      5  C17 ZIN A   1      19.438  -0.073  14.675  0.00  0.00     0.268 A 
ATOM      6  O18 ZIN A   1      19.740  -1.246  14.794  0.00  0.00    -0.267 OA
ATOM      7  C19 ZIN A   1      19.468   0.582  13.366  0.00  0.00     0.104 A 
ATOM      8  C20 ZIN A   1      19.839  -0.091  12.207  0.00  0.00     0.128 A 
ATOM      9  N30 ZIN A   1      19.849   0.569  11.016  0.00  0.00    -0.303 N 
ATOM     10  C31 ZIN A   1      20.242  -0.147   9.800  0.00  0.00     0.161 C 
ATOM     11  C32 ZIN A   1      19.506   1.867  10.934  0.00  0.00     0.257 A 
ATOM     12  O33 ZIN A   1      19.527   2.426   9.848  0.00  0.00    -0.267 OA
ATOM     13  C34 ZIN A   1      19.124   2.588  12.070  0.00  0.00     0.035 A 
ATOM     14  C35 ZIN A   1      18.742   4.041  11.958  0.00  0.00     0.056 C 
ATOM     15  C36 ZIN A   1      19.097   1.952  13.294  0.00  0.00     0.075 A 
ENDROOT
BRANCH   1  16
ATOM     16  C9  ZIN A   1      18.372   3.957  14.410  0.00  0.00     0.046 A 
ATOM     17  C8  ZIN A   1      19.345   4.943  14.511  0.00  0.00     0.030 A 
ATOM     18  C7  ZIN A   1      18.987   6.277  14.465  0.00  0.00     0.004 A 
ATOM     19  C6  ZIN A   1      17.660   6.634  14.318  0.00  0.00     0.029 A 
ATOM     20  C5  ZIN A   1      16.683   5.652  14.216  0.00  0.00     0.036 A 
ATOM     21  C37 ZIN A   1      17.039   4.312  14.268  0.00  0.00     0.059 A 
BRANCH  20  22
ATOM     22  N4  ZIN A   1      15.339   6.015  14.067  0.00  0.00    -0.327 N 
ATOM     23  C2  ZIN A   1      14.587   6.276  15.153  0.00  0.00     0.218 C 
ATOM     24  C1  ZIN A   1      13.173   6.772  14.991  0.00  0.00     0.117 C 
ATOM     25  O3  ZIN A   1      15.047   6.111  16.264  0.00  0.00    -0.274 OA
ATOM     26  H41 ZIN A   1      14.950   6.080  13.180  0.00  0.00     0.169 HD
ENDBRANCH  20  22
ENDBRANCH   1  16
BRANCH   4  27
ATOM     27  C14 ZIN A   1      19.027   0.024  17.068  0.00  0.00     0.098 A 
ATOM     28  C16 ZIN A   1      18.000  -1.088  17.290  0.00  0.00     0.028 A 
ATOM     29  C15 ZIN A   1      17.797   0.281  17.941  0.00  0.00     0.028 A 
ENDBRANCH   4  27
BRANCH   8  30
ATOM     30  N21 ZIN A   1      20.193  -1.411  12.263  0.00  0.00    -0.339 N 
ATOM     31  H50 ZIN A   1      21.004  -1.678  12.723  0.00  0.00     0.167 HD
BRANCH  30  32
ATOM     32  C22 ZIN A   1      19.383  -2.379  11.655  0.00  0.00     0.072 A 
ATOM     33  C28 ZIN A   1      19.921  -3.608  11.288  0.00  0.00     0.144 A 
ATOM     34  C27 ZIN A   1      19.117  -4.562  10.693  0.00  0.00     0.062 A 
ATOM     35  F29 ZIN A   1      21.225  -3.873  11.523  0.00  0.00    -0.204 F 
ATOM     36  C25 ZIN A   1      17.782  -4.291  10.453  0.00  0.00     0.009 A 
ATOM     37  C24 ZIN A   1      17.246  -3.067  10.813  0.00  0.00     0.020 A 
ATOM     38  I26 ZIN A   1      16.568  -5.737   9.544  0.00  0.00    -0.044 I 
ATOM     39  C23 ZIN A   1      18.044  -2.110  11.412  0.00  0.00     0.034 A 
ENDBRANCH  30  32
ENDBRANCH   8  30
TORSDOF 5
ENDMDL
MODEL 3
REMARK VINA RESULT:      -9.1      3.875      7.964
REMARK  5 active torsions:
REMARK  status: ('A' for Active; 'I' for Inactive)
REMARK       I    between atoms: C2_2  and  N4_4 
REMARK    1  A    between atoms: N4_4  and  C5_5 
REMARK    2  A    between atoms: C9_9  and  N10_10 
REMARK    3  A    between atoms: N13_13  and  C14_14 
REMARK    4  A    between atoms: C20_20  and  N21_21 
REMARK    5  A    between atoms: N21_21  and  C22_22 
ROOT
ATOM      1  N10 ZIN A   1      18.985  -1.289   9.237  0.00  0.00    -0.262 N 
ATOM      2  C11 ZIN A   1      19.159  -0.984   7.939  0.00  0.00     0.337 A 
ATOM      3  O12 ZIN A   1      19.522   0.139   7.650  0.00  0.00    -0.246 OA
ATOM      4  N13 ZIN A   1      18.951  -1.866   6.949  0.00  0.00    -0.260 N 
ATOM      5  C17 ZIN A   1      18.549  -3.130   7.203  0.00  0.00     0.268 A 
ATOM      6  O18 ZIN A   1      18.365  -3.920   6.297  0.00  0.00    -0.267 OA
ATOM      7  C19 ZIN A   1      18.342  -3.524   8.598  0.00  0.00     0.104 A 
ATOM      8  C20 ZIN A   1      17.929  -4.803   8.954  0.00  0.00     0.128 A 
ATOM      9  N30 ZIN A   1      17.751  -5.114  10.269  0.00  0.00    -0.303 N 
ATOM     10  C31 ZIN A   1      17.316  -6.464  10.635  0.00  0.00     0.161 C 
ATOM     11  C32 ZIN A   1      17.968  -4.206  11.237  0.00  0.00     0.257 A 
ATOM     12  O33 ZIN A   1      17.799  -4.522  12.404  0.00  0.00    -0.267 OA
ATOM     13  C34 ZIN A   1      18.385  -2.906  10.931  0.00  0.00     0.035 A 
ATOM     14  C35 ZIN A   1      18.623  -1.904  12.029  0.00  0.00     0.056 C 
ATOM     15  C36 ZIN A   1      18.580  -2.556   9.610  0.00  0.00     0.075 A 
ENDROOT
BRANCH   1  16
ATOM     16  C9  ZIN A   1      19.221  -0.317  10.217  0.00  0.00     0.046 A 
ATOM     17  C8  ZIN A   1      20.403  -0.337  10.947  0.00  0.00     0.030 A 
ATOM     18  C7  ZIN A   1      20.636   0.621  11.915  0.00  0.00     0.004 A 
ATOM     19  C6  ZIN A   1      19.695   1.603  12.160  0.00  0.00     0.029 A 
ATOM     20  C5  ZIN A   1      18.512   1.629  11.433  0.00  0.00     0.036 A 
ATOM     21  C37 ZIN A   1      18.272   0.664  10.464  0.00  0.00     0.059 A 
BRANCH  20  22
ATOM     22  N4  ZIN A   1      17.560   2.625  11.682  0.00  0.00    -0.327 N 
ATOM     23  C2  ZIN A   1      17.563   3.758  10.953  0.00  0.00     0.218 C 
ATOM     24  C1  ZIN A   1      16.474   4.782  11.145  0.00  0.00     0.117 C 
ATOM     25  O3  ZIN A   1      18.444   3.955  10.142  0.00  0.00    -0.274 OA
ATOM     26  H41 ZIN A   1      16.897   2.498  12.379  0.00  0.00     0.169 HD
ENDBRANCH  20  22
ENDBRANCH   1  16
BRANCH   4  27
ATOM     27  C14 ZIN A   1      19.166  -1.447   5.561  0.00  0.00     0.098 A 
ATOM     28  C16 ZIN A   1      18.595  -0.094   5.134  0.00  0.00     0.028 A 
ATOM     29  C15 ZIN A   1      17.943  -1.388   4.644  0.00  0.00     0.028 A 
ENDBRANCH   4  27
BRANCH   8  30
ATOM     30  N21 ZIN A   1      17.701  -5.746   7.990  0.00  0.00    -0.339 N 
ATOM     31  H50 ZIN A   1      18.405  -5.982   7.366  0.00  0.00     0.167 HD
BRANCH  30  32
ATOM     32  C22 ZIN A   1      16.451  -6.370   7.904  0.00  0.00     0.072 A 
ATOM     33  C28 ZIN A   1      16.368  -7.724   7.590  0.00  0.00     0.144 A 
ATOM     34  C27 ZIN A   1      15.132  -8.338   7.510  0.00  0.00     0.062 A 
ATOM     35  F29 ZIN A   1      17.494  -8.438   7.373  0.00  0.00    -0.204 F 
ATOM     36  C25 ZIN A   1      13.979  -7.606   7.732  0.00  0.00     0.009 A 
ATOM     37  C24 ZIN A   1      14.060  -6.260   8.039  0.00  0.00     0.020 A 
ATOM     38  I26 ZIN A   1      12.107  -8.539   7.603  0.00  0.00    -0.044 I 
ATOM     39  C23 ZIN A   1      15.292  -5.640   8.124  0.00  0.00     0.034 A 
ENDBRANCH  30  32
ENDBRANCH   8  30
TORSDOF 5
ENDMDL
MODEL 4
REMARK VINA RESULT:      -9.0      3.418      8.028
REMARK  5 active torsions:
REMARK  status: ('A' for Active; 'I' for Inactive)
REMARK       I    between atoms: C2_2  and  N4_4 
REMARK    1  A    between atoms: N4_4  and  C5_5 
REMARK    2  A    between atoms: C9_9  and  N10_10 
REMARK    3  A    between atoms: N13_13  and  C14_14 
REMARK    4  A    between atoms: C20_20  and  N21_21 
REMARK    5  A    between atoms: N21_21  and  C22_22 
ROOT
ATOM      1  N10 ZIN A   1      18.823   1.569  10.028  0.00  0.00    -0.262 N 
ATOM      2  C11 ZIN A   1      18.937   1.710   8.695  0.00  0.00     0.337 A 
ATOM      3  O12 ZIN A   1      18.791   2.816   8.214  0.00  0.00    -0.246 OA
ATOM      4  N13 ZIN A   1      19.206   0.683   7.874  0.00  0.00    -0.260 N 
ATOM      5  C17 ZIN A   1      19.380  -0.570   8.346  0.00  0.00     0.268 A 
ATOM      6  O18 ZIN A   1      19.624  -1.493   7.591  0.00  0.00    -0.267 OA
ATOM      7  C19 ZIN A   1      19.269  -0.790   9.789  0.00  0.00     0.104 A 
ATOM      8  C20 ZIN A   1      19.433  -2.046  10.364  0.00  0.00     0.128 A 
ATOM      9  N30 ZIN A   1      19.318  -2.191  11.714  0.00  0.00    -0.303 N 
ATOM     10  C31 ZIN A   1      19.492  -3.517  12.311  0.00  0.00     0.161 C 
ATOM     11  C32 ZIN A   1      19.048  -1.141  12.509  0.00  0.00     0.257 A 
ATOM     12  O33 ZIN A   1      18.952  -1.309  13.715  0.00  0.00    -0.267 OA
ATOM     13  C34 ZIN A   1      18.875   0.143  11.980  0.00  0.00     0.035 A 
ATOM     14  C35 ZIN A   1      18.573   1.307  12.887  0.00  0.00     0.056 C 
ATOM     15  C36 ZIN A   1      18.988   0.330  10.618  0.00  0.00     0.075 A 
ENDROOT
BRANCH   1  16
ATOM     16  C9  ZIN A   1      18.541   2.686  10.824  0.00  0.00     0.046 A 
ATOM     17  C8  ZIN A   1      17.245   3.180  10.896  0.00  0.00     0.030 A 
ATOM     18  C7  ZIN A   1      16.966   4.282  11.681  0.00  0.00     0.004 A 
ATOM     19  C6  ZIN A   1      17.975   4.896  12.398  0.00  0.00     0.029 A 
ATOM     20  C5  ZIN A   1      19.273   4.407  12.331  0.00  0.00     0.036 A 
ATOM     21  C37 ZIN A   1      19.558   3.304  11.538  0.00  0.00     0.059 A 
BRANCH  20  22
ATOM     22  N4  ZIN A   1      20.295   5.030  13.057  0.00  0.00    -0.327 N 
ATOM     23  C2  ZIN A   1      20.085   5.397  14.336  0.00  0.00     0.218 C 
ATOM     24  C1  ZIN A   1      21.215   5.967  15.153  0.00  0.00     0.117 C 
ATOM     25  O3  ZIN A   1      18.985   5.268  14.831  0.00  0.00    -0.274 OA
ATOM     26  H41 ZIN A   1      21.154   5.197  12.640  0.00  0.00     0.169 HD
ENDBRANCH  20  22
ENDBRANCH   1  16
BRANCH   4  27
ATOM     27  C14 ZIN A   1      19.312   0.928   6.434  0.00  0.00     0.098 A 
ATOM     28  C16 ZIN A   1      18.048   0.748   5.591  0.00  0.00     0.028 A 
ATOM     29  C15 ZIN A   1      19.181  -0.277   5.501  0.00  0.00     0.028 A 
ENDBRANCH   4  27
BRANCH   8  30
ATOM     30  N21 ZIN A   1      19.709  -3.131   9.579  0.00  0.00    -0.339 N 
ATOM     31  H50 ZIN A   1      20.625  -3.332   9.332  0.00  0.00     0.167 HD
BRANCH  30  32
ATOM     32  C22 ZIN A   1      18.667  -3.952   9.131  0.00  0.00     0.072 A 
ATOM     33  C28 ZIN A   1      18.828  -4.717   7.979  0.00  0.00     0.144 A 
ATOM     34  C27 ZIN A   1      17.799  -5.530   7.543  0.00  0.00     0.062 A 
ATOM     35  F29 ZIN A   1      19.993  -4.672   7.295  0.00  0.00    -0.204 F 
ATOM     36  C25 ZIN A   1      16.607  -5.575   8.243  0.00  0.00     0.009 A 
ATOM     37  C24 ZIN A   1      16.443  -4.812   9.385  0.00  0.00     0.020 A 
ATOM     38  I26 ZIN A   1      15.047  -6.803   7.574  0.00  0.00    -0.044 I 
ATOM     39  C23 ZIN A   1      17.469  -3.999   9.829  0.00  0.00     0.034 A 
ENDBRANCH  30  32
ENDBRANCH   8  30
TORSDOF 5
ENDMDL
MODEL 5
REMARK VINA RESULT:      -8.8      4.739     10.039
REMARK  5 active torsions:
REMARK  status: ('A' for Active; 'I' for Inactive)
REMARK       I    between atoms: C2_2  and  N4_4 
REMARK    1  A    between atoms: N4_4  and  C5_5 
REMARK    2  A    between atoms: C9_9  and  N10_10 
REMARK    3  A    between atoms: N13_13  and  C14_14 
REMARK    4  A    between atoms: C20_20  and  N21_21 
REMARK    5  A    between atoms: N21_21  and  C22_22 
ROOT
ATOM      1  N10 ZIN A   1      17.882   4.518  14.922  0.00  0.00    -0.262 N 
ATOM      2  C11 ZIN A   1      18.288   3.941  16.067  0.00  0.00     0.337 A 
ATOM      3  O12 ZIN A   1      18.006   4.480  17.120  0.00  0.00    -0.246 OA
ATOM      4  N13 ZIN A   1      18.990   2.798  16.099  0.00  0.00    -0.260 N 
ATOM      5  C17 ZIN A   1      19.334   2.150  14.965  0.00  0.00     0.268 A 
ATOM      6  O18 ZIN A   1      19.969   1.113  15.007  0.00  0.00    -0.267 OA
ATOM      7  C19 ZIN A   1      18.920   2.727  13.684  0.00  0.00     0.104 A 
ATOM      8  C20 ZIN A   1      19.229   2.129  12.467  0.00  0.00     0.128 A 
ATOM      9  N30 ZIN A   1      18.818   2.711  11.305  0.00  0.00    -0.303 N 
ATOM     10  C31 ZIN A   1      19.148   2.076  10.028  0.00  0.00     0.161 C 
ATOM     11  C32 ZIN A   1      18.116   3.858  11.309  0.00  0.00     0.257 A 
ATOM     12  O33 ZIN A   1      17.766   4.350  10.248  0.00  0.00    -0.267 OA
ATOM     13  C34 ZIN A   1      17.780   4.498  12.506  0.00  0.00     0.035 A 
ATOM     14  C35 ZIN A   1      16.993   5.782  12.490  0.00  0.00     0.056 C 
ATOM     15  C36 ZIN A   1      18.175   3.936  13.703  0.00  0.00     0.075 A 
ENDROOT
BRANCH   1  16
ATOM     16  C9  ZIN A   1      17.152   5.712  14.965  0.00  0.00     0.046 A 
ATOM     17  C8  ZIN A   1      17.795   6.927  14.763  0.00  0.00     0.030 A 
ATOM     18  C7  ZIN A   1      17.075   8.106  14.805  0.00  0.00     0.004 A 
ATOM     19  C6  ZIN A   1      15.715   8.081  15.048  0.00  0.00     0.029 A 
ATOM     20  C5  ZIN A   1      15.067   6.869  15.251  0.00  0.00     0.036 A 
ATOM     21  C37 ZIN A   1      15.788   5.684  15.215  0.00  0.00     0.059 A 
BRANCH  20  22
ATOM     22  N4  ZIN A   1      13.690   6.845  15.497  0.00  0.00    -0.327 N 
ATOM     23  C2  ZIN A   1      13.232   6.762  16.761  0.00  0.00     0.218 C 
ATOM     24  C1  ZIN A   1      11.753   6.846  17.035  0.00  0.00     0.117 C 
ATOM     25  O3  ZIN A   1      14.011   6.619  17.679  0.00  0.00    -0.274 OA
ATOM     26  H41 ZIN A   1      13.064   6.889  14.756  0.00  0.00     0.169 HD
ENDBRANCH  20  22
ENDBRANCH   1  16
BRANCH   4  27
ATOM     27  C14 ZIN A   1      19.392   2.241  17.393  0.00  0.00     0.098 A 
ATOM     28  C16 ZIN A   1      18.974   0.802  17.703  0.00  0.00     0.028 A 
ATOM     29  C15 ZIN A   1      18.290   1.969  18.418  0.00  0.00     0.028 A 
ENDBRANCH   4  27
BRANCH   8  30
ATOM     30  N21 ZIN A   1      19.942   0.962  12.435  0.00  0.00    -0.339 N 
ATOM     31  H50 ZIN A   1      20.889   0.966  12.646  0.00  0.00     0.167 HD
BRANCH  30  32
ATOM     32  C22 ZIN A   1      19.303  -0.238  12.099  0.00  0.00     0.072 A 
ATOM     33  C28 ZIN A   1      19.932  -1.149  11.255  0.00  0.00     0.144 A 
ATOM     34  C27 ZIN A   1      19.301  -2.335  10.930  0.00  0.00     0.062 A 
ATOM     35  F29 ZIN A   1      21.162  -0.879  10.765  0.00  0.00    -0.204 F 
ATOM     36  C25 ZIN A   1      18.042  -2.611  11.433  0.00  0.00     0.009 A 
ATOM     37  C24 ZIN A   1      17.414  -1.704  12.267  0.00  0.00     0.020 A 
ATOM     38  I26 ZIN A   1      17.085  -4.406  10.931  0.00  0.00    -0.044 I 
ATOM     39  C23 ZIN A   1      18.041  -0.518  12.600  0.00  0.00     0.034 A 
ENDBRANCH  30  32
ENDBRANCH   8  30
TORSDOF 5
ENDMDL
MODEL 6
REMARK VINA RESULT:      -8.8      3.987      7.685
REMARK  5 active torsions:
REMARK  status: ('A' for Active; 'I' for Inactive)
REMARK       I    between atoms: C2_2  and  N4_4 
REMARK    1  A    between atoms: N4_4  and  C5_5 
REMARK    2  A    between atoms: C9_9  and  N10_10 
REMARK    3  A    between atoms: N13_13  and  C14_14 
REMARK    4  A    between atoms: C20_20  and  N21_21 
REMARK    5  A    between atoms: N21_21  and  C22_22 
ROOT
ATOM      1  N10 ZIN A   1      18.897  -0.948  10.010  0.00  0.00    -0.262 N 
ATOM      2  C11 ZIN A   1      18.473  -0.172   8.997  0.00  0.00     0.337 A 
ATOM      3  O12 ZIN A   1      18.368   1.024   9.187  0.00  0.00    -0.246 OA
ATOM      4  N13 ZIN A   1      18.162  -0.659   7.786  0.00  0.00    -0.260 N 
ATOM      5  C17 ZIN A   1      18.258  -1.978   7.510  0.00  0.00     0.268 A 
ATOM      6  O18 ZIN A   1      17.974  -2.407   6.407  0.00  0.00    -0.267 OA
ATOM      7  C19 ZIN A   1      18.715  -2.876   8.572  0.00  0.00     0.104 A 
ATOM      8  C20 ZIN A   1      18.846  -4.248   8.379  0.00  0.00     0.128 A 
ATOM      9  N30 ZIN A   1      19.276  -5.036   9.404  0.00  0.00    -0.303 N 
ATOM     10  C31 ZIN A   1      19.410  -6.479   9.192  0.00  0.00     0.161 C 
ATOM     11  C32 ZIN A   1      19.579  -4.516  10.606  0.00  0.00     0.257 A 
ATOM     12  O33 ZIN A   1      19.961  -5.254  11.500  0.00  0.00    -0.267 OA
ATOM     13  C34 ZIN A   1      19.466  -3.143  10.850  0.00  0.00     0.035 A 
ATOM     14  C35 ZIN A   1      19.811  -2.578  12.204  0.00  0.00     0.056 C 
ATOM     15  C36 ZIN A   1      19.038  -2.312   9.835  0.00  0.00     0.075 A 
ENDROOT
BRANCH   1  16
ATOM     16  C9  ZIN A   1      19.204  -0.370  11.248  0.00  0.00     0.046 A 
ATOM     17  C8  ZIN A   1      20.460   0.182  11.466  0.00  0.00     0.030 A 
ATOM     18  C7  ZIN A   1      20.764   0.752  12.687  0.00  0.00     0.004 A 
ATOM     19  C6  ZIN A   1      19.820   0.775  13.696  0.00  0.00     0.029 A 
ATOM     20  C5  ZIN A   1      18.562   0.226  13.484  0.00  0.00     0.036 A 
ATOM     21  C37 ZIN A   1      18.256  -0.353  12.260  0.00  0.00     0.059 A 
BRANCH  20  22
ATOM     22  N4  ZIN A   1      17.606   0.251  14.506  0.00  0.00    -0.327 N 
ATOM     23  C2  ZIN A   1      17.753  -0.541  15.586  0.00  0.00     0.218 C 
ATOM     24  C1  ZIN A   1      16.786  -0.436  16.736  0.00  0.00     0.117 C 
ATOM     25  O3  ZIN A   1      18.666  -1.338  15.633  0.00  0.00    -0.274 OA
ATOM     26  H41 ZIN A   1      16.838   0.840  14.437  0.00  0.00     0.169 HD
ENDBRANCH  20  22
ENDBRANCH   1  16
BRANCH   4  27
ATOM     27  C14 ZIN A   1      17.707   0.260   6.740  0.00  0.00     0.098 A 
ATOM     28  C16 ZIN A   1      18.322   0.107   5.348  0.00  0.00     0.028 A 
ATOM     29  C15 ZIN A   1      18.706   1.299   6.228  0.00  0.00     0.028 A 
ENDBRANCH   4  27
BRANCH   8  30
ATOM     30  N21 ZIN A   1      18.544  -4.803   7.166  0.00  0.00    -0.339 N 
ATOM     31  H50 ZIN A   1      19.142  -4.679   6.413  0.00  0.00     0.167 HD
BRANCH  30  32
ATOM     32  C22 ZIN A   1      17.370  -5.551   7.013  0.00  0.00     0.072 A 
ATOM     33  C28 ZIN A   1      17.237  -6.424   5.937  0.00  0.00     0.144 A 
ATOM     34  C27 ZIN A   1      16.078  -7.165   5.791  0.00  0.00     0.062 A 
ATOM     35  F29 ZIN A   1      18.241  -6.554   5.042  0.00  0.00    -0.204 F 
ATOM     36  C25 ZIN A   1      15.051  -7.031   6.708  0.00  0.00     0.009 A 
ATOM     37  C24 ZIN A   1      15.180  -6.160   7.774  0.00  0.00     0.020 A 
ATOM     38  I26 ZIN A   1      13.294  -8.150   6.479  0.00  0.00    -0.044 I 
ATOM     39  C23 ZIN A   1      16.337  -5.419   7.928  0.00  0.00     0.034 A 
ENDBRANCH  30  32
ENDBRANCH   8  30
TORSDOF 5
ENDMDL
MODEL 7
REMARK VINA RESULT:      -8.5      3.664      8.961
REMARK  5 active torsions:
REMARK  status: ('A' for Active; 'I' for Inactive)
REMARK       I    between atoms: C2_2  and  N4_4 
REMARK    1  A    between atoms: N4_4  and  C5_5 
REMARK    2  A    between atoms: C9_9  and  N10_10 
REMARK    3  A    between atoms: N13_13  and  C14_14 
REMARK    4  A    between atoms: C20_20  and  N21_21 
REMARK    5  A    between atoms: N21_21  and  C22_22 
ROOT
ATOM      1  N10 ZIN A   1      18.455   0.693  11.969  0.00  0.00    -0.262 N 
ATOM      2  C11 ZIN A   1      18.263   0.144  13.182  0.00  0.00     0.337 A 
ATOM      3  O12 ZIN A   1      17.995   0.876  14.114  0.00  0.00    -0.246 OA
ATOM      4  N13 ZIN A   1      18.352  -1.175  13.407  0.00  0.00    -0.260 N 
ATOM      5  C17 ZIN A   1      18.645  -2.043  12.414  0.00  0.00     0.268 A 
ATOM      6  O18 ZIN A   1      18.722  -3.238  12.631  0.00  0.00    -0.267 OA
ATOM      7  C19 ZIN A   1      18.865  -1.507  11.069  0.00  0.00     0.104 A 
ATOM      8  C20 ZIN A   1      19.171  -2.325   9.986  0.00  0.00     0.128 A 
ATOM      9  N30 ZIN A   1      19.366  -1.771   8.756  0.00  0.00    -0.303 N 
ATOM     10  C31 ZIN A   1      19.688  -2.639   7.621  0.00  0.00     0.161 C 
ATOM     11  C32 ZIN A   1      19.270  -0.444   8.564  0.00  0.00     0.257 A 
ATOM     12  O33 ZIN A   1      19.451   0.016   7.448  0.00  0.00    -0.267 OA
ATOM     13  C34 ZIN A   1      18.964   0.421   9.621  0.00  0.00     0.035 A 
ATOM     14  C35 ZIN A   1      18.859   1.905   9.386  0.00  0.00     0.056 C 
ATOM     15  C36 ZIN A   1      18.754  -0.104  10.880  0.00  0.00     0.075 A 
ENDROOT
BRANCH   1  16
ATOM     16  C9  ZIN A   1      18.346   2.079  11.807  0.00  0.00     0.046 A 
ATOM     17  C8  ZIN A   1      17.306   2.612  11.055  0.00  0.00     0.030 A 
ATOM     18  C7  ZIN A   1      17.198   3.980  10.895  0.00  0.00     0.004 A 
ATOM     19  C6  ZIN A   1      18.123   4.823  11.482  0.00  0.00     0.029 A 
ATOM     20  C5  ZIN A   1      19.164   4.296  12.236  0.00  0.00     0.036 A 
ATOM     21  C37 ZIN A   1      19.279   2.922  12.393  0.00  0.00     0.059 A 
BRANCH  20  22
ATOM     22  N4  ZIN A   1      20.100   5.151  12.830  0.00  0.00    -0.327 N 
ATOM     23  C2  ZIN A   1      20.002   5.451  14.139  0.00  0.00     0.218 C 
ATOM     24  C1  ZIN A   1      21.069   6.282  14.805  0.00  0.00     0.117 C 
ATOM     25  O3  ZIN A   1      19.054   5.053  14.784  0.00  0.00    -0.274 OA
ATOM     26  H41 ZIN A   1      20.820   5.526  12.298  0.00  0.00     0.169 HD
ENDBRANCH  20  22
ENDBRANCH   1  16
BRANCH   4  27
ATOM     27  C14 ZIN A   1      18.127  -1.687  14.762  0.00  0.00     0.098 A 
ATOM     28  C16 ZIN A   1      18.121  -0.674  15.908  0.00  0.00     0.028 A 
ATOM     29  C15 ZIN A   1      19.301  -1.635  15.741  0.00  0.00     0.028 A 
ENDBRANCH   4  27
BRANCH   8  30
ATOM     30  N21 ZIN A   1      19.275  -3.678  10.154  0.00  0.00    -0.339 N 
ATOM     31  H50 ZIN A   1      19.983  -4.046  10.705  0.00  0.00     0.167 HD
BRANCH  30  32
ATOM     32  C22 ZIN A   1      18.358  -4.533   9.529  0.00  0.00     0.072 A 
ATOM     33  C28 ZIN A   1      18.808  -5.667   8.860  0.00  0.00     0.144 A 
ATOM     34  C27 ZIN A   1      17.899  -6.511   8.249  0.00  0.00     0.062 A 
ATOM     35  F29 ZIN A   1      20.129  -5.949   8.817  0.00  0.00    -0.204 F 
ATOM     36  C25 ZIN A   1      16.547  -6.222   8.293  0.00  0.00     0.009 A 
ATOM     37  C24 ZIN A   1      16.100  -5.092   8.952  0.00  0.00     0.020 A 
ATOM     38  I26 ZIN A   1      15.174  -7.500   7.358  0.00  0.00    -0.044 I 
ATOM     39  C23 ZIN A   1      17.002  -4.246   9.570  0.00  0.00     0.034 A 
ENDBRANCH  30  32
ENDBRANCH   8  30
TORSDOF 5
ENDMDL
MODEL 8
REMARK VINA RESULT:      -8.4      1.805      1.980
REMARK  5 active torsions:
REMARK  status: ('A' for Active; 'I' for Inactive)
REMARK       I    between atoms: C2_2  and  N4_4 
REMARK    1  A    between atoms: N4_4  and  C5_5 
REMARK    2  A    between atoms: C9_9  and  N10_10 
REMARK    3  A    between atoms: N13_13  and  C14_14 
REMARK    4  A    between atoms: C20_20  and  N21_21 
REMARK    5  A    between atoms: N21_21  and  C22_22 
ROOT
ATOM      1  N10 ZIN A   1      18.548  -2.459   8.357  0.00  0.00    -0.262 N 
ATOM      2  C11 ZIN A   1      18.965  -2.019   7.156  0.00  0.00     0.337 A 
ATOM      3  O12 ZIN A   1      19.266  -2.839   6.311  0.00  0.00    -0.246 OA
ATOM      4  N13 ZIN A   1      19.062  -0.717   6.851  0.00  0.00    -0.260 N 
ATOM      5  C17 ZIN A   1      18.741   0.244   7.745  0.00  0.00     0.268 A 
ATOM      6  O18 ZIN A   1      18.832   1.422   7.455  0.00  0.00    -0.267 OA
ATOM      7  C19 ZIN A   1      18.280  -0.171   9.071  0.00  0.00     0.104 A 
ATOM      8  C20 ZIN A   1      17.927   0.748  10.055  0.00  0.00     0.128 A 
ATOM      9  N30 ZIN A   1      17.505   0.305  11.272  0.00  0.00    -0.303 N 
ATOM     10  C31 ZIN A   1      17.137   1.279  12.302  0.00  0.00     0.161 C 
ATOM     11  C32 ZIN A   1      17.419  -1.008  11.546  0.00  0.00     0.257 A 
ATOM     12  O33 ZIN A   1      17.036  -1.367  12.649  0.00  0.00    -0.267 OA
ATOM     13  C34 ZIN A   1      17.761  -1.972  10.591  0.00  0.00     0.035 A 
ATOM     14  C35 ZIN A   1      17.658  -3.439  10.917  0.00  0.00     0.056 C 
ATOM     15  C36 ZIN A   1      18.189  -1.561   9.345  0.00  0.00     0.075 A 
ENDROOT
BRANCH   1  16
ATOM     16  C9  ZIN A   1      18.471  -3.835   8.606  0.00  0.00     0.046 A 
ATOM     17  C8  ZIN A   1      19.598  -4.529   9.029  0.00  0.00     0.030 A 
ATOM     18  C7  ZIN A   1      19.523  -5.886   9.275  0.00  0.00     0.004 A 
ATOM     19  C6  ZIN A   1      18.328  -6.558   9.102  0.00  0.00     0.029 A 
ATOM     20  C5  ZIN A   1      17.198  -5.869   8.681  0.00  0.00     0.036 A 
ATOM     21  C37 ZIN A   1      17.272  -4.507   8.427  0.00  0.00     0.059 A 
BRANCH  20  22
ATOM     22  N4  ZIN A   1      15.988  -6.551   8.506  0.00  0.00    -0.327 N 
ATOM     23  C2  ZIN A   1      15.696  -7.111   7.317  0.00  0.00     0.218 C 
ATOM     24  C1  ZIN A   1      14.445  -7.937   7.159  0.00  0.00     0.117 C 
ATOM     25  O3  ZIN A   1      16.439  -6.950   6.372  0.00  0.00    -0.274 OA
ATOM     26  H41 ZIN A   1      15.360  -6.621   9.243  0.00  0.00     0.169 HD
ENDBRANCH  20  22
ENDBRANCH   1  16
BRANCH   4  27
ATOM     27  C14 ZIN A   1      19.526  -0.327   5.517  0.00  0.00     0.098 A 
ATOM     28  C16 ZIN A   1      18.476   0.159   4.516  0.00  0.00     0.028 A 
ATOM     29  C15 ZIN A   1      19.121  -1.217   4.340  0.00  0.00     0.028 A 
ENDBRANCH   4  27
BRANCH   8  30
ATOM     30  N21 ZIN A   1      18.005   2.090   9.802  0.00  0.00    -0.339 N 
ATOM     31  H50 ZIN A   1      17.721   2.439   8.942  0.00  0.00     0.167 HD
BRANCH  30  32
ATOM     32  C22 ZIN A   1      18.494   2.959  10.785  0.00  0.00     0.072 A 
ATOM     33  C28 ZIN A   1      17.702   4.008  11.243  0.00  0.00     0.144 A 
ATOM     34  C27 ZIN A   1      18.187   4.862  12.217  0.00  0.00     0.062 A 
ATOM     35  F29 ZIN A   1      16.459   4.185  10.744  0.00  0.00    -0.204 F 
ATOM     36  C25 ZIN A   1      19.460   4.680  12.727  0.00  0.00     0.009 A 
ATOM     37  C24 ZIN A   1      20.249   3.641  12.268  0.00  0.00     0.020 A 
ATOM     38  I26 ZIN A   1      20.193   5.980  14.197  0.00  0.00    -0.044 I 
ATOM     39  C23 ZIN A   1      19.770   2.781  11.298  0.00  0.00     0.034 A 
ENDBRANCH  30  32
ENDBRANCH   8  30
TORSDOF 5
ENDMDL
MODEL 9
REMARK VINA RESULT:      -8.3      1.949      2.732
REMARK  5 active torsions:
REMARK  status: ('A' for Active; 'I' for Inactive)
REMARK       I    between atoms: C2_2  and  N4_4 
REMARK    1  A    between atoms: N4_4  and  C5_5 
REMARK    2  A    between atoms: C9_9  and  N10_10 
REMARK    3  A    between atoms: N13_13  and  C14_14 
REMARK    4  A    between atoms: C20_20  and  N21_21 
REMARK    5  A    between atoms: N21_21  and  C22_22 
ROOT
ATOM      1  N10 ZIN A   1      17.987  -4.562   7.127  0.00  0.00    -0.262 N 
ATOM      2  C11 ZIN A   1      18.236  -3.873   5.999  0.00  0.00     0.337 A 
ATOM      3  O12 ZIN A   1      17.858  -4.335   4.941  0.00  0.00    -0.246 OA
ATOM      4  N13 ZIN A   1      18.883  -2.698   5.991  0.00  0.00    -0.260 N 
ATOM      5  C17 ZIN A   1      19.328  -2.129   7.133  0.00  0.00     0.268 A 
ATOM      6  O18 ZIN A   1      19.913  -1.062   7.112  0.00  0.00    -0.267 OA
ATOM      7  C19 ZIN A   1      19.088  -2.830   8.395  0.00  0.00     0.104 A 
ATOM      8  C20 ZIN A   1      19.509  -2.321   9.619  0.00  0.00     0.128 A 
ATOM      9  N30 ZIN A   1      19.258  -3.017  10.763  0.00  0.00    -0.303 N 
ATOM     10  C31 ZIN A   1      19.706  -2.474  12.047  0.00  0.00     0.161 C 
ATOM     11  C32 ZIN A   1      18.607  -4.193  10.737  0.00  0.00     0.257 A 
ATOM     12  O33 ZIN A   1      18.400  -4.788  11.782  0.00  0.00    -0.267 OA
ATOM     13  C34 ZIN A   1      18.162  -4.748   9.532  0.00  0.00     0.035 A 
ATOM     14  C35 ZIN A   1      17.433  -6.066   9.522  0.00  0.00     0.056 C 
ATOM     15  C36 ZIN A   1      18.394  -4.069   8.352  0.00  0.00     0.075 A 
ENDROOT
BRANCH   1  16
ATOM     16  C9  ZIN A   1      17.306  -5.783   7.060  0.00  0.00     0.046 A 
ATOM     17  C8  ZIN A   1      18.011  -6.963   6.853  0.00  0.00     0.030 A 
ATOM     18  C7  ZIN A   1      17.339  -8.168   6.787  0.00  0.00     0.004 A 
ATOM     19  C6  ZIN A   1      15.965  -8.206   6.926  0.00  0.00     0.029 A 
ATOM     20  C5  ZIN A   1      15.255  -7.030   7.134  0.00  0.00     0.036 A 
ATOM     21  C37 ZIN A   1      15.926  -5.817   7.195  0.00  0.00     0.059 A 
BRANCH  20  22
ATOM     22  N4  ZIN A   1      13.863  -7.069   7.275  0.00  0.00    -0.327 N 
ATOM     23  C2  ZIN A   1      13.258  -6.305   8.205  0.00  0.00     0.218 C 
ATOM     24  C1  ZIN A   1      11.754  -6.264   8.285  0.00  0.00     0.117 C 
ATOM     25  O3  ZIN A   1      13.924  -5.650   8.978  0.00  0.00    -0.274 OA
ATOM     26  H41 ZIN A   1      13.333  -7.647   6.703  0.00  0.00     0.169 HD
ENDBRANCH  20  22
ENDBRANCH   1  16
BRANCH   4  27
ATOM     27  C14 ZIN A   1      19.112  -2.015   4.715  0.00  0.00     0.098 A 
ATOM     28  C16 ZIN A   1      19.132  -0.486   4.724  0.00  0.00     0.028 A 
ATOM     29  C15 ZIN A   1      17.944  -1.232   4.113  0.00  0.00     0.028 A 
ENDBRANCH   4  27
BRANCH   8  30
ATOM     30  N21 ZIN A   1      20.174  -1.127   9.675  0.00  0.00    -0.339 N 
ATOM     31  H50 ZIN A   1      21.090  -1.066   9.361  0.00  0.00     0.167 HD
BRANCH  30  32
ATOM     32  C22 ZIN A   1      19.530   0.008  10.184  0.00  0.00     0.072 A 
ATOM     33  C28 ZIN A   1      20.110   0.730  11.223  0.00  0.00     0.144 A 
ATOM     34  C27 ZIN A   1      19.474   1.853  11.720  0.00  0.00     0.062 A 
ATOM     35  F29 ZIN A   1      21.296   0.340  11.738  0.00  0.00    -0.204 F 
ATOM     36  C25 ZIN A   1      18.259   2.251  11.191  0.00  0.00     0.009 A 
ATOM     37  C24 ZIN A   1      17.680   1.532  10.162  0.00  0.00     0.020 A 
ATOM     38  I26 ZIN A   1      17.295   3.949  11.952  0.00  0.00    -0.044 I 
ATOM     39  C23 ZIN A   1      18.312   0.411   9.658  0.00  0.00     0.034 A 
ENDBRANCH  30  32
ENDBRANCH   8  30
TORSDOF 5
ENDMDL
