MODEL 1
REMARK VINA RESULT:      -9.4      0.000      0.000
REMARK  14 active torsions:
REMARK  status: ('A' for Active; 'I' for Inactive)
REMARK    1  A    between atoms: C2_2  and  C4_4 
REMARK    2  A    between atoms: C5_5  and  C6_6 
REMARK       I    between atoms: C6_6  and  N8_8 
REMARK    3  A    between atoms: N8_8  and  C9_9 
REMARK    4  A    between atoms: C15_15  and  C16_16 
REMARK    5  A    between atoms: C22_22  and  C23_23 
REMARK    6  A    between atoms: N30_30  and  C31_31 
REMARK    7  A    between atoms: C31_31  and  C32_32 
REMARK    8  A    between atoms: C32_32  and  C33_33 
REMARK    9  A    between atoms: C33_33  and  O35_34 
REMARK   10  A    between atoms: C33_33  and  C36_35 
REMARK   11  A    between atoms: C36_35  and  C37_36 
REMARK   12  A    between atoms: C37_36  and  O39_37 
REMARK   13  A    between atoms: C37_36  and  C40_38 
REMARK   14  A    between atoms: C40_38  and  C41_39 
ROOT
ATOM      1  C4  ZIN A   1      17.845  -2.673  10.780  0.00  0.00     0.032 A 
ATOM      2  C5  ZIN A   1      17.925  -1.393  11.254  0.00  0.00     0.068 A 
ATOM      3  C15 ZIN A   1      18.032  -0.520  10.075  0.00  0.00     0.020 A 
ATOM      4  C22 ZIN A   1      18.006  -1.361   8.980  0.00  0.00     0.057 A 
ATOM      5  N30 ZIN A   1      17.898  -2.651   9.434  0.00  0.00    -0.347 N 
ENDROOT
BRANCH   5   6
ATOM      6  C31 ZIN A   1      17.840  -3.836   8.575  0.00  0.00     0.132 C 
BRANCH   6   7
ATOM      7  C32 ZIN A   1      19.260  -4.257   8.191  0.00  0.00     0.052 C 
BRANCH   7   8
ATOM      8  C33 ZIN A   1      19.257  -4.813   6.765  0.00  0.00     0.122 C 
BRANCH   8   9
ATOM      9  O35 ZIN A   1      20.327  -4.225   6.022  0.00  0.00    -0.395 OA
ATOM     10  H70 ZIN A   1      20.134  -3.337   5.691  0.00  0.00     0.210 HD
ENDBRANCH   8   9
BRANCH   8  11
ATOM     11  C36 ZIN A   1      17.924  -4.480   6.090  0.00  0.00     0.064 C 
BRANCH  11  12
ATOM     12  C37 ZIN A   1      18.166  -4.166   4.612  0.00  0.00     0.130 C 
BRANCH  12  13
ATOM     13  O39 ZIN A   1      18.215  -5.385   3.868  0.00  0.00    -0.395 OA
ATOM     14  H73 ZIN A   1      19.095  -5.783   3.821  0.00  0.00     0.210 HD
ENDBRANCH  12  13
BRANCH  12  15
ATOM     15  C40 ZIN A   1      17.026  -3.292   4.085  0.00  0.00     0.144 C 
BRANCH  15  16
ATOM     16  C41 ZIN A   1      16.162  -4.102   3.153  0.00  0.00     0.175 C 
ATOM     17  O42 ZIN A   1      16.448  -4.182   1.970  0.00  0.00    -0.648 OA
ATOM     18  O43 ZIN A   1      15.177  -4.679   3.581  0.00  0.00    -0.648 OA
ENDBRANCH  15  16
ENDBRANCH  12  15
ENDBRANCH  11  12
ENDBRANCH   8  11
ENDBRANCH   7   8
ENDBRANCH   6   7
ENDBRANCH   5   6
BRANCH   1  19
ATOM     19  C2  ZIN A   1      17.721  -3.913  11.627  0.00  0.00     0.028 C 
ATOM     20  C1  ZIN A   1      16.601  -4.797  11.074  0.00  0.00     0.016 C 
ATOM     21  C3  ZIN A   1      19.041  -4.685  11.597  0.00  0.00     0.016 C 
ENDBRANCH   1  19
BRANCH   4  22
ATOM     22  C23 ZIN A   1      18.086  -0.944   7.565  0.00  0.00    -0.008 A 
ATOM     23  C29 ZIN A   1      16.967  -0.401   6.930  0.00  0.00     0.017 A 
ATOM     24  C28 ZIN A   1      17.049  -0.010   5.610  0.00  0.00     0.043 A 
ATOM     25  C26 ZIN A   1      18.236  -0.164   4.911  0.00  0.00     0.116 A 
ATOM     26  C25 ZIN A   1      19.348  -0.709   5.534  0.00  0.00     0.043 A 
ATOM     27  F27 ZIN A   1      18.309   0.216   3.616  0.00  0.00    -0.206 F 
ATOM     28  C24 ZIN A   1      19.279  -1.099   6.856  0.00  0.00     0.017 A 
ENDBRANCH   4  22
BRANCH   2  29
ATOM     29  C6  ZIN A   1      17.909  -0.974  12.665  0.00  0.00     0.259 C 
ATOM     30  O7  ZIN A   1      16.872  -0.594  13.174  0.00  0.00    -0.267 OA
ATOM     31  N8  ZIN A   1      19.042  -1.013  13.392  0.00  0.00    -0.323 N 
ATOM     32  H51 ZIN A   1      19.855  -1.379  13.006  0.00  0.00     0.169 HD
BRANCH  31  33
ATOM     33  C9  ZIN A   1      19.049  -0.526  14.703  0.00  0.00     0.035 A 
ATOM     34  C14 ZIN A   1      19.162   0.838  14.938  0.00  0.00     0.029 A 
ATOM     35  C13 ZIN A   1      19.163   1.317  16.233  0.00  0.00     0.002 A 
ATOM     36  C12 ZIN A   1      19.063   0.438  17.297  0.00  0.00     0.000 A 
ATOM     37  C11 ZIN A   1      18.956  -0.921  17.067  0.00  0.00     0.002 A 
ATOM     38  C10 ZIN A   1      18.949  -1.406  15.773  0.00  0.00     0.029 A 
ENDBRANCH  31  33
ENDBRANCH   2  29
BRANCH   3  39
ATOM     39  C16 ZIN A   1      18.146   0.956  10.064  0.00  0.00    -0.023 A 
ATOM     40  C21 ZIN A   1      19.038   1.584   9.195  0.00  0.00     0.012 A 
ATOM     41  C20 ZIN A   1      19.135   2.961   9.186  0.00  0.00     0.001 A 
ATOM     42  C19 ZIN A   1      18.358   3.717  10.046  0.00  0.00     0.000 A 
ATOM     43  C18 ZIN A   1      17.475   3.099  10.915  0.00  0.00     0.001 A 
ATOM     44  C17 ZIN A   1      17.365   1.725  10.928  0.00  0.00     0.012 A 
ENDBRANCH   3  39
TORSDOF 14
ENDMDL
MODEL 2
REMARK VINA RESULT:      -9.3      3.643     10.125
REMARK  14 active torsions:
REMARK  status: ('A' for Active; 'I' for Inactive)
REMARK    1  A    between atoms: C2_2  and  C4_4 
REMARK    2  A    between atoms: C5_5  and  C6_6 
REMARK       I    between atoms: C6_6  and  N8_8 
REMARK    3  A    between atoms: N8_8  and  C9_9 
REMARK    4  A    between atoms: C15_15  and  C16_16 
REMARK    5  A    between atoms: C22_22  and  C23_23 
REMARK    6  A    between atoms: N30_30  and  C31_31 
REMARK    7  A    between atoms: C31_31  and  C32_32 
REMARK    8  A    between atoms: C32_32  and  C33_33 
REMARK    9  A    between atoms: C33_33  and  O35_34 
REMARK   10  A    between atoms: C33_33  and  C36_35 
REMARK   11  A    between atoms: C36_35  and  C37_36 
REMARK   12  A    between atoms: C37_36  and  O39_37 
REMARK   13  A    between atoms: C37_36  and  C40_38 
REMARK   14  A    between atoms: C40_38  and  C41_39 
ROOT
ATOM      1  C4  ZIN A   1      17.819   1.676  11.010  0.00  0.00     0.032 A 
ATOM      2  C5  ZIN A   1      17.983   0.423  10.490  0.00  0.00     0.068 A 
ATOM      3  C15 ZIN A   1      18.179  -0.479  11.636  0.00  0.00     0.020 A 
ATOM      4  C22 ZIN A   1      18.115   0.321  12.760  0.00  0.00     0.057 A 
ATOM      5  N30 ZIN A   1      17.904   1.613  12.353  0.00  0.00    -0.347 N 
ENDROOT
BRANCH   5   6
ATOM      6  C31 ZIN A   1      17.777   2.762  13.254  0.00  0.00     0.132 C 
BRANCH   6   7
ATOM      7  C32 ZIN A   1      19.158   3.139  13.794  0.00  0.00     0.052 C 
BRANCH   7   8
ATOM      8  C33 ZIN A   1      19.189   4.637  14.109  0.00  0.00     0.122 C 
BRANCH   8   9
ATOM      9  O35 ZIN A   1      20.521   5.130  13.953  0.00  0.00    -0.395 OA
ATOM     10  H70 ZIN A   1      21.146   4.788  14.609  0.00  0.00     0.210 HD
ENDBRANCH   8   9
BRANCH   8  11
ATOM     11  C36 ZIN A   1      18.726   4.864  15.551  0.00  0.00     0.064 C 
BRANCH  11  12
ATOM     12  C37 ZIN A   1      19.352   3.804  16.460  0.00  0.00     0.130 C 
BRANCH  12  13
ATOM     13  O39 ZIN A   1      20.725   4.126  16.691  0.00  0.00    -0.395 OA
ATOM     14  H73 ZIN A   1      20.860   4.947  17.183  0.00  0.00     0.210 HD
ENDBRANCH  12  13
BRANCH  12  15
ATOM     15  C40 ZIN A   1      18.604   3.772  17.794  0.00  0.00     0.144 C 
BRANCH  15  16
ATOM     16  C41 ZIN A   1      18.748   2.407  18.418  0.00  0.00     0.175 C 
ATOM     17  O42 ZIN A   1      19.840   1.866  18.455  0.00  0.00    -0.648 OA
ATOM     18  O43 ZIN A   1      17.774   1.846  18.887  0.00  0.00    -0.648 OA
ENDBRANCH  15  16
ENDBRANCH  12  15
ENDBRANCH  11  12
ENDBRANCH   8  11
ENDBRANCH   7   8
ENDBRANCH   6   7
ENDBRANCH   5   6
BRANCH   1  19
ATOM     19  C2  ZIN A   1      17.587   2.931  10.210  0.00  0.00     0.028 C 
ATOM     20  C1  ZIN A   1      16.985   4.008  11.115  0.00  0.00     0.016 C 
ATOM     21  C3  ZIN A   1      18.917   3.429   9.642  0.00  0.00     0.016 C 
ENDBRANCH   1  19
BRANCH   4  22
ATOM     22  C23 ZIN A   1      18.256  -0.136  14.158  0.00  0.00    -0.008 A 
ATOM     23  C29 ZIN A   1      17.231   0.097  15.078  0.00  0.00     0.017 A 
ATOM     24  C28 ZIN A   1      17.367  -0.335  16.381  0.00  0.00     0.043 A 
ATOM     25  C26 ZIN A   1      18.521  -0.991  16.780  0.00  0.00     0.116 A 
ATOM     26  C25 ZIN A   1      19.543  -1.219  15.872  0.00  0.00     0.043 A 
ATOM     27  F27 ZIN A   1      18.650  -1.407  18.059  0.00  0.00    -0.206 F 
ATOM     28  C24 ZIN A   1      19.417  -0.795  14.565  0.00  0.00     0.017 A 
ENDBRANCH   4  22
BRANCH   2  29
ATOM     29  C6  ZIN A   1      17.967   0.051   9.066  0.00  0.00     0.259 C 
ATOM     30  O7  ZIN A   1      16.909  -0.164   8.506  0.00  0.00    -0.267 OA
ATOM     31  N8  ZIN A   1      19.124  -0.050   8.384  0.00  0.00    -0.323 N 
ATOM     32  H51 ZIN A   1      19.963   0.186   8.812  0.00  0.00     0.169 HD
BRANCH  31  33
ATOM     33  C9  ZIN A   1      19.117  -0.495   7.057  0.00  0.00     0.035 A 
ATOM     34  C14 ZIN A   1      19.199  -1.853   6.779  0.00  0.00     0.029 A 
ATOM     35  C13 ZIN A   1      19.187  -2.290   5.469  0.00  0.00     0.002 A 
ATOM     36  C12 ZIN A   1      19.103  -1.376   4.435  0.00  0.00     0.000 A 
ATOM     37  C11 ZIN A   1      19.028  -0.023   4.708  0.00  0.00     0.002 A 
ATOM     38  C10 ZIN A   1      19.034   0.420   6.017  0.00  0.00     0.029 A 
ENDBRANCH  31  33
ENDBRANCH   2  29
BRANCH   3  39
ATOM     39  C16 ZIN A   1      18.401  -1.943  11.593  0.00  0.00    -0.023 A 
ATOM     40  C21 ZIN A   1      19.695  -2.452  11.489  0.00  0.00     0.012 A 
ATOM     41  C20 ZIN A   1      19.895  -3.817  11.454  0.00  0.00     0.001 A 
ATOM     42  C19 ZIN A   1      18.814  -4.679  11.511  0.00  0.00     0.000 A 
ATOM     43  C18 ZIN A   1      17.527  -4.179  11.609  0.00  0.00     0.001 A 
ATOM     44  C17 ZIN A   1      17.315  -2.817  11.650  0.00  0.00     0.012 A 
ENDBRANCH   3  39
TORSDOF 14
ENDMDL
MODEL 3
REMARK VINA RESULT:      -9.2      1.228      1.703
REMARK  14 active torsions:
REMARK  status: ('A' for Active; 'I' for Inactive)
REMARK    1  A    between atoms: C2_2  and  C4_4 
REMARK    2  A    between atoms: C5_5  and  C6_6 
REMARK       I    between atoms: C6_6  and  N8_8 
REMARK    3  A    between atoms: N8_8  and  C9_9 
REMARK    4  A    between atoms: C15_15  and  C16_16 
REMARK    5  A    between atoms: C22_22  and  C23_23 
REMARK    6  A    between atoms: N30_30  and  C31_31 
REMARK    7  A    between atoms: C31_31  and  C32_32 
REMARK    8  A    between atoms: C32_32  and  C33_33 
REMARK    9  A    between atoms: C33_33  and  O35_34 
REMARK   10  A    between atoms: C33_33  and  C36_35 
REMARK   11  A    between atoms: C36_35  and  C37_36 
REMARK   12  A    between atoms: C37_36  and  O39_37 
REMARK   13  A    between atoms: C37_36  and  C40_38 
REMARK   14  A    between atoms: C40_38  and  C41_39 
ROOT
ATOM      1  C4  ZIN A   1      17.850  -2.693  10.771  0.00  0.00     0.032 A 
ATOM      2  C5  ZIN A   1      17.929  -1.408  11.229  0.00  0.00     0.068 A 
ATOM      3  C15 ZIN A   1      18.033  -0.550  10.038  0.00  0.00     0.020 A 
ATOM      4  C22 ZIN A   1      18.006  -1.405   8.953  0.00  0.00     0.057 A 
ATOM      5  N30 ZIN A   1      17.902  -2.689   9.425  0.00  0.00    -0.347 N 
ENDROOT
BRANCH   5   6
ATOM      6  C31 ZIN A   1      17.844  -3.886   8.582  0.00  0.00     0.132 C 
BRANCH   6   7
ATOM      7  C32 ZIN A   1      19.265  -4.368   8.285  0.00  0.00     0.052 C 
BRANCH   7   8
ATOM      8  C33 ZIN A   1      19.329  -4.915   6.857  0.00  0.00     0.122 C 
BRANCH   8   9
ATOM      9  O35 ZIN A   1      20.421  -4.307   6.163  0.00  0.00    -0.395 OA
ATOM     10  H70 ZIN A   1      20.156  -3.606   5.551  0.00  0.00     0.210 HD
ENDBRANCH   8   9
BRANCH   8  11
ATOM     11  C36 ZIN A   1      18.021  -4.596   6.130  0.00  0.00     0.064 C 
BRANCH  11  12
ATOM     12  C37 ZIN A   1      17.599  -5.802   5.289  0.00  0.00     0.130 C 
BRANCH  12  13
ATOM     13  O39 ZIN A   1      18.752  -6.576   4.953  0.00  0.00    -0.395 OA
ATOM     14  H73 ZIN A   1      18.841  -6.761   4.008  0.00  0.00     0.210 HD
ENDBRANCH  12  13
BRANCH  12  15
ATOM     15  C40 ZIN A   1      16.621  -6.665   6.090  0.00  0.00     0.144 C 
BRANCH  15  16
ATOM     16  C41 ZIN A   1      17.203  -8.043   6.274  0.00  0.00     0.175 C 
ATOM     17  O42 ZIN A   1      18.107  -8.222   7.074  0.00  0.00    -0.648 OA
ATOM     18  O43 ZIN A   1      16.769  -8.979   5.626  0.00  0.00    -0.648 OA
ENDBRANCH  15  16
ENDBRANCH  12  15
ENDBRANCH  11  12
ENDBRANCH   8  11
ENDBRANCH   7   8
ENDBRANCH   6   7
ENDBRANCH   5   6
BRANCH   1  19
ATOM     19  C2  ZIN A   1      17.730  -3.923  11.634  0.00  0.00     0.028 C 
ATOM     20  C1  ZIN A   1      16.620  -4.823  11.087  0.00  0.00     0.016 C 
ATOM     21  C3  ZIN A   1      19.056  -4.685  11.624  0.00  0.00     0.016 C 
ENDBRANCH   1  19
BRANCH   4  22
ATOM     22  C23 ZIN A   1      18.083  -1.007   7.533  0.00  0.00    -0.008 A 
ATOM     23  C29 ZIN A   1      16.964  -0.468   6.895  0.00  0.00     0.017 A 
ATOM     24  C28 ZIN A   1      17.044  -0.095   5.569  0.00  0.00     0.043 A 
ATOM     25  C26 ZIN A   1      18.228  -0.261   4.869  0.00  0.00     0.116 A 
ATOM     26  C25 ZIN A   1      19.340  -0.801   5.496  0.00  0.00     0.043 A 
ATOM     27  F27 ZIN A   1      18.298   0.102   3.570  0.00  0.00    -0.206 F 
ATOM     28  C24 ZIN A   1      19.274  -1.174   6.823  0.00  0.00     0.017 A 
ENDBRANCH   4  22
BRANCH   2  29
ATOM     29  C6  ZIN A   1      17.915  -0.970  12.634  0.00  0.00     0.259 C 
ATOM     30  O7  ZIN A   1      16.873  -0.604  13.145  0.00  0.00    -0.267 OA
ATOM     31  N8  ZIN A   1      19.054  -0.977  13.353  0.00  0.00    -0.323 N 
ATOM     32  H51 ZIN A   1      19.870  -1.331  12.966  0.00  0.00     0.169 HD
BRANCH  31  33
ATOM     33  C9  ZIN A   1      19.060  -0.472  14.658  0.00  0.00     0.035 A 
ATOM     34  C14 ZIN A   1      19.127   0.898  14.873  0.00  0.00     0.029 A 
ATOM     35  C13 ZIN A   1      19.128   1.394  16.162  0.00  0.00     0.002 A 
ATOM     36  C12 ZIN A   1      19.072   0.527  17.237  0.00  0.00     0.000 A 
ATOM     37  C11 ZIN A   1      19.011  -0.839  17.027  0.00  0.00     0.002 A 
ATOM     38  C10 ZIN A   1      19.004  -1.340  15.739  0.00  0.00     0.029 A 
ENDBRANCH  31  33
ENDBRANCH   2  29
BRANCH   3  39
ATOM     39  C16 ZIN A   1      18.144   0.927  10.008  0.00  0.00    -0.023 A 
ATOM     40  C21 ZIN A   1      19.032   1.544   9.126  0.00  0.00     0.012 A 
ATOM     41  C20 ZIN A   1      19.126   2.921   9.100  0.00  0.00     0.001 A 
ATOM     42  C19 ZIN A   1      18.352   3.687   9.953  0.00  0.00     0.000 A 
ATOM     43  C18 ZIN A   1      17.473   3.079  10.833  0.00  0.00     0.001 A 
ATOM     44  C17 ZIN A   1      17.365   1.705  10.865  0.00  0.00     0.012 A 
ENDBRANCH   3  39
TORSDOF 14
ENDMDL
MODEL 4
REMARK VINA RESULT:      -8.9      2.657      8.831
REMARK  14 active torsions:
REMARK  status: ('A' for Active; 'I' for Inactive)
REMARK    1  A    between atoms: C2_2  and  C4_4 
REMARK    2  A    between atoms: C5_5  and  C6_6 
REMARK       I    between atoms: C6_6  and  N8_8 
REMARK    3  A    between atoms: N8_8  and  C9_9 
REMARK    4  A    between atoms: C15_15  and  C16_16 
REMARK    5  A    between atoms: C22_22  and  C23_23 
REMARK    6  A    between atoms: N30_30  and  C31_31 
REMARK    7  A    between atoms: C31_31  and  C32_32 
REMARK    8  A    between atoms: C32_32  and  C33_33 
REMARK    9  A    between atoms: C33_33  and  O35_34 
REMARK   10  A    between atoms: C33_33  and  C36_35 
REMARK   11  A    between atoms: C36_35  and  C37_36 
REMARK   12  A    between atoms: C37_36  and  O39_37 
REMARK   13  A    between atoms: C37_36  and  C40_38 
REMARK   14  A    between atoms: C40_38  and  C41_39 
ROOT
ATOM      1  C4  ZIN A   1      18.899  -2.590  11.115  0.00  0.00     0.032 A 
ATOM      2  C5  ZIN A   1      18.713  -2.485   9.765  0.00  0.00     0.068 A 
ATOM      3  C15 ZIN A   1      18.603  -1.047   9.473  0.00  0.00     0.020 A 
ATOM      4  C22 ZIN A   1      18.734  -0.404  10.688  0.00  0.00     0.057 A 
ATOM      5  N30 ZIN A   1      18.905  -1.358  11.659  0.00  0.00    -0.347 N 
ENDROOT
BRANCH   5   6
ATOM      6  C31 ZIN A   1      19.080  -1.075  13.086  0.00  0.00     0.132 C 
BRANCH   6   7
ATOM      7  C32 ZIN A   1      17.721  -0.757  13.711  0.00  0.00     0.052 C 
BRANCH   7   8
ATOM      8  C33 ZIN A   1      17.916   0.186  14.901  0.00  0.00     0.122 C 
BRANCH   8   9
ATOM      9  O35 ZIN A   1      18.294   1.481  14.427  0.00  0.00    -0.395 OA
ATOM     10  H70 ZIN A   1      18.153   1.608  13.478  0.00  0.00     0.210 HD
ENDBRANCH   8   9
BRANCH   8  11
ATOM     11  C36 ZIN A   1      19.016  -0.364  15.812  0.00  0.00     0.064 C 
BRANCH  11  12
ATOM     12  C37 ZIN A   1      18.536  -0.334  17.265  0.00  0.00     0.130 C 
BRANCH  12  13
ATOM     13  O39 ZIN A   1      19.621  -0.669  18.132  0.00  0.00    -0.395 OA
ATOM     14  H73 ZIN A   1      19.845  -1.609  18.138  0.00  0.00     0.210 HD
ENDBRANCH  12  13
BRANCH  12  15
ATOM     15  C40 ZIN A   1      18.026   1.068  17.604  0.00  0.00     0.144 C 
BRANCH  15  16
ATOM     16  C41 ZIN A   1      19.198   1.992  17.816  0.00  0.00     0.175 C 
ATOM     17  O42 ZIN A   1      19.736   2.054  18.909  0.00  0.00    -0.648 OA
ATOM     18  O43 ZIN A   1      19.610   2.675  16.895  0.00  0.00    -0.648 OA
ENDBRANCH  15  16
ENDBRANCH  12  15
ENDBRANCH  11  12
ENDBRANCH   8  11
ENDBRANCH   7   8
ENDBRANCH   6   7
ENDBRANCH   5   6
BRANCH   1  19
ATOM     19  C2  ZIN A   1      19.065  -3.880  11.876  0.00  0.00     0.028 C 
ATOM     20  C1  ZIN A   1      17.773  -4.694  11.787  0.00  0.00     0.016 C 
ATOM     21  C3  ZIN A   1      20.217  -4.685  11.271  0.00  0.00     0.016 C 
ENDBRANCH   1  19
BRANCH   4  22
ATOM     22  C23 ZIN A   1      18.691   1.056  10.905  0.00  0.00    -0.008 A 
ATOM     23  C29 ZIN A   1      19.864   1.756  11.196  0.00  0.00     0.017 A 
ATOM     24  C28 ZIN A   1      19.818   3.120  11.394  0.00  0.00     0.043 A 
ATOM     25  C26 ZIN A   1      18.610   3.795  11.315  0.00  0.00     0.116 A 
ATOM     26  C25 ZIN A   1      17.442   3.104  11.033  0.00  0.00     0.043 A 
ATOM     27  F27 ZIN A   1      18.570   5.130  11.515  0.00  0.00    -0.206 F 
ATOM     28  C24 ZIN A   1      17.476   1.740  10.829  0.00  0.00     0.017 A 
ENDBRANCH   4  22
BRANCH   2  29
ATOM     29  C6  ZIN A   1      18.638  -3.591   8.797  0.00  0.00     0.259 C 
ATOM     30  O7  ZIN A   1      19.650  -3.996   8.256  0.00  0.00    -0.267 OA
ATOM     31  N8  ZIN A   1      17.449  -4.156   8.511  0.00  0.00    -0.323 N 
ATOM     32  H51 ZIN A   1      16.652  -3.879   8.991  0.00  0.00     0.169 HD
BRANCH  31  33
ATOM     33  C9  ZIN A   1      17.362  -5.142   7.522  0.00  0.00     0.035 A 
ATOM     34  C14 ZIN A   1      17.407  -4.787   6.180  0.00  0.00     0.029 A 
ATOM     35  C13 ZIN A   1      17.327  -5.763   5.206  0.00  0.00     0.002 A 
ATOM     36  C12 ZIN A   1      17.192  -7.091   5.566  0.00  0.00     0.000 A 
ATOM     37  C11 ZIN A   1      17.141  -7.448   6.901  0.00  0.00     0.002 A 
ATOM     38  C10 ZIN A   1      17.226  -6.476   7.880  0.00  0.00     0.029 A 
ENDBRANCH  31  33
ENDBRANCH   2  29
BRANCH   3  39
ATOM     39  C16 ZIN A   1      18.393  -0.418   8.148  0.00  0.00    -0.023 A 
ATOM     40  C21 ZIN A   1      17.189  -0.603   7.468  0.00  0.00     0.012 A 
ATOM     41  C20 ZIN A   1      16.998  -0.010   6.237  0.00  0.00     0.001 A 
ATOM     42  C19 ZIN A   1      18.002   0.756   5.671  0.00  0.00     0.000 A 
ATOM     43  C18 ZIN A   1      19.201   0.938   6.339  0.00  0.00     0.001 A 
ATOM     44  C17 ZIN A   1      19.401   0.356   7.573  0.00  0.00     0.012 A 
ENDBRANCH   3  39
TORSDOF 14
ENDMDL
MODEL 5
REMARK VINA RESULT:      -8.7      3.120      6.050
REMARK  14 active torsions:
REMARK  status: ('A' for Active; 'I' for Inactive)
REMARK    1  A    between atoms: C2_2  and  C4_4 
REMARK    2  A    between atoms: C5_5  and  C6_6 
REMARK       I    between atoms: C6_6  and  N8_8 
REMARK    3  A    between atoms: N8_8  and  C9_9 
REMARK    4  A    between atoms: C15_15  and  C16_16 
REMARK    5  A    between atoms: C22_22  and  C23_23 
REMARK    6  A    between atoms: N30_30  and  C31_31 
REMARK    7  A    between atoms: C31_31  and  C32_32 
REMARK    8  A    between atoms: C32_32  and  C33_33 
REMARK    9  A    between atoms: C33_33  and  O35_34 
REMARK   10  A    between atoms: C33_33  and  C36_35 
REMARK   11  A    between atoms: C36_35  and  C37_36 
REMARK   12  A    between atoms: C37_36  and  O39_37 
REMARK   13  A    between atoms: C37_36  and  C40_38 
REMARK   14  A    between atoms: C40_38  and  C41_39 
ROOT
ATOM      1  C4  ZIN A   1      19.196   2.020  11.743  0.00  0.00     0.032 A 
ATOM      2  C5  ZIN A   1      18.929   1.922  13.080  0.00  0.00     0.068 A 
ATOM      3  C15 ZIN A   1      18.712   0.493  13.355  0.00  0.00     0.020 A 
ATOM      4  C22 ZIN A   1      18.871  -0.153  12.145  0.00  0.00     0.057 A 
ATOM      5  N30 ZIN A   1      19.155   0.792  11.192  0.00  0.00    -0.347 N 
ENDROOT
BRANCH   5   6
ATOM      6  C31 ZIN A   1      19.391   0.502   9.775  0.00  0.00     0.132 C 
BRANCH   6   7
ATOM      7  C32 ZIN A   1      18.051   0.276   9.072  0.00  0.00     0.052 C 
BRANCH   7   8
ATOM      8  C33 ZIN A   1      18.266  -0.612   7.844  0.00  0.00     0.122 C 
BRANCH   8   9
ATOM      9  O35 ZIN A   1      17.006  -0.884   7.226  0.00  0.00    -0.395 OA
ATOM     10  H70 ZIN A   1      16.302  -1.109   7.851  0.00  0.00     0.210 HD
ENDBRANCH   8   9
BRANCH   8  11
ATOM     11  C36 ZIN A   1      18.918  -1.928   8.273  0.00  0.00     0.064 C 
BRANCH  11  12
ATOM     12  C37 ZIN A   1      18.760  -2.963   7.157  0.00  0.00     0.130 C 
BRANCH  12  13
ATOM     13  O39 ZIN A   1      20.006  -3.123   6.476  0.00  0.00    -0.395 OA
ATOM     14  H73 ZIN A   1      19.950  -3.659   5.673  0.00  0.00     0.210 HD
ENDBRANCH  12  13
BRANCH  12  15
ATOM     15  C40 ZIN A   1      18.335  -4.303   7.762  0.00  0.00     0.144 C 
BRANCH  15  16
ATOM     16  C41 ZIN A   1      19.468  -5.290   7.643  0.00  0.00     0.175 C 
ATOM     17  O42 ZIN A   1      19.591  -5.957   6.629  0.00  0.00    -0.648 OA
ATOM     18  O43 ZIN A   1      20.261  -5.422   8.559  0.00  0.00    -0.648 OA
ENDBRANCH  15  16
ENDBRANCH  12  15
ENDBRANCH  11  12
ENDBRANCH   8  11
ENDBRANCH   7   8
ENDBRANCH   6   7
ENDBRANCH   5   6
BRANCH   1  19
ATOM     19  C2  ZIN A   1      19.485   3.299  11.001  0.00  0.00     0.028 C 
ATOM     20  C1  ZIN A   1      18.170   4.024  10.704  0.00  0.00     0.016 C 
ATOM     21  C3  ZIN A   1      20.378   4.196  11.859  0.00  0.00     0.016 C 
ENDBRANCH   1  19
BRANCH   4  22
ATOM     22  C23 ZIN A   1      18.748  -1.607  11.915  0.00  0.00    -0.008 A 
ATOM     23  C29 ZIN A   1      19.892  -2.405  11.854  0.00  0.00     0.017 A 
ATOM     24  C28 ZIN A   1      19.771  -3.763  11.643  0.00  0.00     0.043 A 
ATOM     25  C26 ZIN A   1      18.519  -4.333  11.484  0.00  0.00     0.116 A 
ATOM     26  C25 ZIN A   1      17.380  -3.545  11.538  0.00  0.00     0.043 A 
ATOM     27  F27 ZIN A   1      18.407  -5.663  11.272  0.00  0.00    -0.206 F 
ATOM     28  C24 ZIN A   1      17.488  -2.186  11.753  0.00  0.00     0.017 A 
ENDBRANCH   4  22
BRANCH   2  29
ATOM     29  C6  ZIN A   1      18.869   3.028  14.050  0.00  0.00     0.259 C 
ATOM     30  O7  ZIN A   1      19.710   3.115  14.925  0.00  0.00    -0.267 OA
ATOM     31  N8  ZIN A   1      17.884   3.943  13.967  0.00  0.00    -0.323 N 
ATOM     32  H51 ZIN A   1      17.253   3.912  13.231  0.00  0.00     0.169 HD
BRANCH  31  33
ATOM     33  C9  ZIN A   1      17.771   4.938  14.944  0.00  0.00     0.035 A 
ATOM     34  C14 ZIN A   1      17.402   4.602  16.240  0.00  0.00     0.029 A 
ATOM     35  C13 ZIN A   1      17.297   5.586  17.203  0.00  0.00     0.002 A 
ATOM     36  C12 ZIN A   1      17.547   6.906  16.876  0.00  0.00     0.000 A 
ATOM     37  C11 ZIN A   1      17.909   7.245  15.585  0.00  0.00     0.002 A 
ATOM     38  C10 ZIN A   1      18.022   6.264  14.618  0.00  0.00     0.029 A 
ENDBRANCH  31  33
ENDBRANCH   2  29
BRANCH   3  39
ATOM     39  C16 ZIN A   1      18.390  -0.126  14.662  0.00  0.00    -0.023 A 
ATOM     40  C21 ZIN A   1      19.218  -1.116  15.191  0.00  0.00     0.012 A 
ATOM     41  C20 ZIN A   1      18.916  -1.685  16.411  0.00  0.00     0.001 A 
ATOM     42  C19 ZIN A   1      17.787  -1.283  17.104  0.00  0.00     0.000 A 
ATOM     43  C18 ZIN A   1      16.959  -0.304  16.582  0.00  0.00     0.001 A 
ATOM     44  C17 ZIN A   1      17.255   0.276  15.366  0.00  0.00     0.012 A 
ENDBRANCH   3  39
TORSDOF 14
ENDMDL
MODEL 6
REMARK VINA RESULT:      -8.7      2.843      8.648
REMARK  14 active torsions:
REMARK  status: ('A' for Active; 'I' for Inactive)
REMARK    1  A    between atoms: C2_2  and  C4_4 
REMARK    2  A    between atoms: C5_5  and  C6_6 
REMARK       I    between atoms: C6_6  and  N8_8 
REMARK    3  A    between atoms: N8_8  and  C9_9 
REMARK    4  A    between atoms: C15_15  and  C16_16 
REMARK    5  A    between atoms: C22_22  and  C23_23 
REMARK    6  A    between atoms: N30_30  and  C31_31 
REMARK    7  A    between atoms: C31_31  and  C32_32 
REMARK    8  A    between atoms: C32_32  and  C33_33 
REMARK    9  A    between atoms: C33_33  and  O35_34 
REMARK   10  A    between atoms: C33_33  and  C36_35 
REMARK   11  A    between atoms: C36_35  and  C37_36 
REMARK   12  A    between atoms: C37_36  and  O39_37 
REMARK   13  A    between atoms: C37_36  and  C40_38 
REMARK   14  A    between atoms: C40_38  and  C41_39 
ROOT
ATOM      1  C4  ZIN A   1      18.931  -2.474  11.172  0.00  0.00     0.032 A 
ATOM      2  C5  ZIN A   1      18.736  -2.419   9.821  0.00  0.00     0.068 A 
ATOM      3  C15 ZIN A   1      18.609  -0.994   9.478  0.00  0.00     0.020 A 
ATOM      4  C22 ZIN A   1      18.741  -0.306  10.668  0.00  0.00     0.057 A 
ATOM      5  N30 ZIN A   1      18.928  -1.223  11.672  0.00  0.00    -0.347 N 
ENDROOT
BRANCH   5   6
ATOM      6  C31 ZIN A   1      19.110  -0.886  13.086  0.00  0.00     0.132 C 
BRANCH   6   7
ATOM      7  C32 ZIN A   1      17.761  -0.492  13.692  0.00  0.00     0.052 C 
BRANCH   7   8
ATOM      8  C33 ZIN A   1      17.986   0.521  14.818  0.00  0.00     0.122 C 
BRANCH   8   9
ATOM      9  O35 ZIN A   1      17.017   0.312  15.847  0.00  0.00    -0.395 OA
ATOM     10  H70 ZIN A   1      16.142   0.063  15.519  0.00  0.00     0.210 HD
ENDBRANCH   8   9
BRANCH   8  11
ATOM     11  C36 ZIN A   1      17.843   1.940  14.263  0.00  0.00     0.064 C 
BRANCH  11  12
ATOM     12  C37 ZIN A   1      18.397   2.942  15.277  0.00  0.00     0.130 C 
BRANCH  12  13
ATOM     13  O39 ZIN A   1      19.797   2.716  15.454  0.00  0.00    -0.395 OA
ATOM     14  H73 ZIN A   1      20.071   1.802  15.300  0.00  0.00     0.210 HD
ENDBRANCH  12  13
BRANCH  12  15
ATOM     15  C40 ZIN A   1      18.171   4.365  14.763  0.00  0.00     0.144 C 
BRANCH  15  16
ATOM     16  C41 ZIN A   1      19.413   5.187  14.996  0.00  0.00     0.175 C 
ATOM     17  O42 ZIN A   1      20.156   5.446  14.064  0.00  0.00    -0.648 OA
ATOM     18  O43 ZIN A   1      19.674   5.593  16.115  0.00  0.00    -0.648 OA
ENDBRANCH  15  16
ENDBRANCH  12  15
ENDBRANCH  11  12
ENDBRANCH   8  11
ENDBRANCH   7   8
ENDBRANCH   6   7
ENDBRANCH   5   6
BRANCH   1  19
ATOM     19  C2  ZIN A   1      19.116  -3.733  11.979  0.00  0.00     0.028 C 
ATOM     20  C1  ZIN A   1      17.896  -4.639  11.794  0.00  0.00     0.016 C 
ATOM     21  C3  ZIN A   1      20.371  -4.465  11.502  0.00  0.00     0.016 C 
ENDBRANCH   1  19
BRANCH   4  22
ATOM     22  C23 ZIN A   1      18.685   1.160  10.833  0.00  0.00    -0.008 A 
ATOM     23  C29 ZIN A   1      19.827   1.867  11.215  0.00  0.00     0.017 A 
ATOM     24  C28 ZIN A   1      19.769   3.237  11.363  0.00  0.00     0.043 A 
ATOM     25  C26 ZIN A   1      18.579   3.911  11.144  0.00  0.00     0.116 A 
ATOM     26  C25 ZIN A   1      17.440   3.214  10.770  0.00  0.00     0.043 A 
ATOM     27  F27 ZIN A   1      18.526   5.253  11.296  0.00  0.00    -0.206 F 
ATOM     28  C24 ZIN A   1      17.487   1.844  10.614  0.00  0.00     0.017 A 
ENDBRANCH   4  22
BRANCH   2  29
ATOM     29  C6  ZIN A   1      18.665  -3.560   8.894  0.00  0.00     0.259 C 
ATOM     30  O7  ZIN A   1      19.689  -4.073   8.482  0.00  0.00    -0.267 OA
ATOM     31  N8  ZIN A   1      17.468  -4.038   8.504  0.00  0.00    -0.323 N 
ATOM     32  H51 ZIN A   1      16.652  -3.673   8.883  0.00  0.00     0.169 HD
BRANCH  31  33
ATOM     33  C9  ZIN A   1      17.399  -5.059   7.550  0.00  0.00     0.035 A 
ATOM     34  C14 ZIN A   1      17.231  -6.378   7.954  0.00  0.00     0.029 A 
ATOM     35  C13 ZIN A   1      17.159  -7.383   7.010  0.00  0.00     0.002 A 
ATOM     36  C12 ZIN A   1      17.263  -7.080   5.665  0.00  0.00     0.000 A 
ATOM     37  C11 ZIN A   1      17.436  -5.769   5.259  0.00  0.00     0.002 A 
ATOM     38  C10 ZIN A   1      17.504  -4.758   6.199  0.00  0.00     0.029 A 
ENDBRANCH  31  33
ENDBRANCH   2  29
BRANCH   3  39
ATOM     39  C16 ZIN A   1      18.384  -0.416   8.133  0.00  0.00    -0.023 A 
ATOM     40  C21 ZIN A   1      19.428   0.224   7.463  0.00  0.00     0.012 A 
ATOM     41  C20 ZIN A   1      19.213   0.756   6.207  0.00  0.00     0.001 A 
ATOM     42  C19 ZIN A   1      17.964   0.666   5.619  0.00  0.00     0.000 A 
ATOM     43  C18 ZIN A   1      16.924   0.036   6.281  0.00  0.00     0.001 A 
ATOM     44  C17 ZIN A   1      17.128  -0.505   7.533  0.00  0.00     0.012 A 
ENDBRANCH   3  39
TORSDOF 14
ENDMDL
MODEL 7
REMARK VINA RESULT:      -8.6      3.987     10.296
REMARK  14 active torsions:
REMARK  status: ('A' for Active; 'I' for Inactive)
REMARK    1  A    between atoms: C2_2  and  C4_4 
REMARK    2  A    between atoms: C5_5  and  C6_6 
REMARK       I    between atoms: C6_6  and  N8_8 
REMARK    3  A    between atoms: N8_8  and  C9_9 
REMARK    4  A    between atoms: C15_15  and  C16_16 
REMARK    5  A    between atoms: C22_22  and  C23_23 
REMARK    6  A    between atoms: N30_30  and  C31_31 
REMARK    7  A    between atoms: C31_31  and  C32_32 
REMARK    8  A    between atoms: C32_32  and  C33_33 
REMARK    9  A    between atoms: C33_33  and  O35_34 
REMARK   10  A    between atoms: C33_33  and  C36_35 
REMARK   11  A    between atoms: C36_35  and  C37_36 
REMARK   12  A    between atoms: C37_36  and  O39_37 
REMARK   13  A    between atoms: C37_36  and  C40_38 
REMARK   14  A    between atoms: C40_38  and  C41_39 
ROOT
ATOM      1  C4  ZIN A   1      19.080   1.742  11.301  0.00  0.00     0.032 A 
ATOM      2  C5  ZIN A   1      19.001   0.498  10.741  0.00  0.00     0.068 A 
ATOM      3  C15 ZIN A   1      18.756  -0.440  11.848  0.00  0.00     0.020 A 
ATOM      4  C22 ZIN A   1      18.707   0.331  12.992  0.00  0.00     0.057 A 
ATOM      5  N30 ZIN A   1      18.911   1.640  12.634  0.00  0.00    -0.347 N 
ENDROOT
BRANCH   5   6
ATOM      6  C31 ZIN A   1      18.932   2.767  13.568  0.00  0.00     0.132 C 
BRANCH   6   7
ATOM      7  C32 ZIN A   1      17.515   3.319  13.732  0.00  0.00     0.052 C 
BRANCH   7   8
ATOM      8  C33 ZIN A   1      17.556   4.581  14.596  0.00  0.00     0.122 C 
BRANCH   8   9
ATOM      9  O35 ZIN A   1      16.229   5.078  14.779  0.00  0.00    -0.395 OA
ATOM     10  H70 ZIN A   1      16.052   5.404  15.673  0.00  0.00     0.210 HD
ENDBRANCH   8   9
BRANCH   8  11
ATOM     11  C36 ZIN A   1      18.409   5.646  13.902  0.00  0.00     0.064 C 
BRANCH  11  12
ATOM     12  C37 ZIN A   1      18.720   6.773  14.890  0.00  0.00     0.130 C 
BRANCH  12  13
ATOM     13  O39 ZIN A   1      17.536   7.536  15.130  0.00  0.00    -0.395 OA
ATOM     14  H73 ZIN A   1      17.688   8.356  15.619  0.00  0.00     0.210 HD
ENDBRANCH  12  13
BRANCH  12  15
ATOM     15  C40 ZIN A   1      19.216   6.173  16.207  0.00  0.00     0.144 C 
BRANCH  15  16
ATOM     16  C41 ZIN A   1      20.576   5.558  15.999  0.00  0.00     0.175 C 
ATOM     17  O42 ZIN A   1      20.772   4.393  16.302  0.00  0.00    -0.648 OA
ATOM     18  O43 ZIN A   1      21.480   6.225  15.527  0.00  0.00    -0.648 OA
ENDBRANCH  15  16
ENDBRANCH  12  15
ENDBRANCH  11  12
ENDBRANCH   8  11
ENDBRANCH   7   8
ENDBRANCH   6   7
ENDBRANCH   5   6
BRANCH   1  19
ATOM     19  C2  ZIN A   1      19.322   3.025  10.550  0.00  0.00     0.028 C 
ATOM     20  C1  ZIN A   1      17.986   3.724  10.291  0.00  0.00     0.016 C 
ATOM     21  C3  ZIN A   1      20.224   3.940  11.380  0.00  0.00     0.016 C 
ENDBRANCH   1  19
BRANCH   4  22
ATOM     22  C23 ZIN A   1      18.481  -0.166  14.364  0.00  0.00    -0.008 A 
ATOM     23  C29 ZIN A   1      17.322   0.191  15.057  0.00  0.00     0.017 A 
ATOM     24  C28 ZIN A   1      17.115  -0.280  16.337  0.00  0.00     0.043 A 
ATOM     25  C26 ZIN A   1      18.057  -1.099  16.938  0.00  0.00     0.116 A 
ATOM     26  C25 ZIN A   1      19.212  -1.452  16.257  0.00  0.00     0.043 A 
ATOM     27  F27 ZIN A   1      17.851  -1.553  18.194  0.00  0.00    -0.206 F 
ATOM     28  C24 ZIN A   1      19.428  -0.990  14.975  0.00  0.00     0.017 A 
ENDBRANCH   4  22
BRANCH   2  29
ATOM     29  C6  ZIN A   1      19.136   0.164   9.314  0.00  0.00     0.259 C 
ATOM     30  O7  ZIN A   1      20.148  -0.378   8.909  0.00  0.00    -0.267 OA
ATOM     31  N8  ZIN A   1      18.140   0.457   8.456  0.00  0.00    -0.323 N 
ATOM     32  H51 ZIN A   1      17.307   0.829   8.788  0.00  0.00     0.169 HD
BRANCH  31  33
ATOM     33  C9  ZIN A   1      18.305   0.228   7.086  0.00  0.00     0.035 A 
ATOM     34  C14 ZIN A   1      17.690  -0.862   6.484  0.00  0.00     0.029 A 
ATOM     35  C13 ZIN A   1      17.851  -1.084   5.131  0.00  0.00     0.002 A 
ATOM     36  C12 ZIN A   1      18.632  -0.227   4.377  0.00  0.00     0.000 A 
ATOM     37  C11 ZIN A   1      19.251   0.856   4.974  0.00  0.00     0.002 A 
ATOM     38  C10 ZIN A   1      19.089   1.086   6.327  0.00  0.00     0.029 A 
ENDBRANCH  31  33
ENDBRANCH   2  29
BRANCH   3  39
ATOM     39  C16 ZIN A   1      18.595  -1.910  11.754  0.00  0.00    -0.023 A 
ATOM     40  C21 ZIN A   1      17.320  -2.470  11.671  0.00  0.00     0.012 A 
ATOM     41  C20 ZIN A   1      17.177  -3.840  11.578  0.00  0.00     0.001 A 
ATOM     42  C19 ZIN A   1      18.294  -4.657  11.579  0.00  0.00     0.000 A 
ATOM     43  C18 ZIN A   1      19.561  -4.106  11.666  0.00  0.00     0.001 A 
ATOM     44  C17 ZIN A   1      19.717  -2.739  11.753  0.00  0.00     0.012 A 
ENDBRANCH   3  39
TORSDOF 14
ENDMDL
MODEL 8
REMARK VINA RESULT:      -8.6      4.105     10.297
REMARK  14 active torsions:
REMARK  status: ('A' for Active; 'I' for Inactive)
REMARK    1  A    between atoms: C2_2  and  C4_4 
REMARK    2  A    between atoms: C5_5  and  C6_6 
REMARK       I    between atoms: C6_6  and  N8_8 
REMARK    3  A    between atoms: N8_8  and  C9_9 
REMARK    4  A    between atoms: C15_15  and  C16_16 
REMARK    5  A    between atoms: C22_22  and  C23_23 
REMARK    6  A    between atoms: N30_30  and  C31_31 
REMARK    7  A    between atoms: C31_31  and  C32_32 
REMARK    8  A    between atoms: C32_32  and  C33_33 
REMARK    9  A    between atoms: C33_33  and  O35_34 
REMARK   10  A    between atoms: C33_33  and  C36_35 
REMARK   11  A    between atoms: C36_35  and  C37_36 
REMARK   12  A    between atoms: C37_36  and  O39_37 
REMARK   13  A    between atoms: C37_36  and  C40_38 
REMARK   14  A    between atoms: C40_38  and  C41_39 
ROOT
ATOM      1  C4  ZIN A   1      17.865   1.674  11.047  0.00  0.00     0.032 A 
ATOM      2  C5  ZIN A   1      18.003   0.416  10.532  0.00  0.00     0.068 A 
ATOM      3  C15 ZIN A   1      18.184  -0.485  11.681  0.00  0.00     0.020 A 
ATOM      4  C22 ZIN A   1      18.139   0.320  12.802  0.00  0.00     0.057 A 
ATOM      5  N30 ZIN A   1      17.952   1.615  12.390  0.00  0.00    -0.347 N 
ENDROOT
BRANCH   5   6
ATOM      6  C31 ZIN A   1      17.850   2.769  13.287  0.00  0.00     0.132 C 
BRANCH   6   7
ATOM      7  C32 ZIN A   1      19.233   3.097  13.852  0.00  0.00     0.052 C 
BRANCH   7   8
ATOM      8  C33 ZIN A   1      19.218   4.508  14.446  0.00  0.00     0.122 C 
BRANCH   8   9
ATOM      9  O35 ZIN A   1      20.305   5.264  13.908  0.00  0.00    -0.395 OA
ATOM     10  H70 ZIN A   1      20.061   5.825  13.159  0.00  0.00     0.210 HD
ENDBRANCH   8   9
BRANCH   8  11
ATOM     11  C36 ZIN A   1      19.360   4.422  15.968  0.00  0.00     0.064 C 
BRANCH  11  12
ATOM     12  C37 ZIN A   1      18.391   5.407  16.626  0.00  0.00     0.130 C 
BRANCH  12  13
ATOM     13  O39 ZIN A   1      19.131   6.406  17.329  0.00  0.00    -0.395 OA
ATOM     14  H73 ZIN A   1      19.482   7.107  16.764  0.00  0.00     0.210 HD
ENDBRANCH  12  13
BRANCH  12  15
ATOM     15  C40 ZIN A   1      17.532   6.072  15.549  0.00  0.00     0.144 C 
BRANCH  15  16
ATOM     16  C41 ZIN A   1      17.729   7.566  15.601  0.00  0.00     0.175 C 
ATOM     17  O42 ZIN A   1      18.645   8.082  14.982  0.00  0.00    -0.648 OA
ATOM     18  O43 ZIN A   1      16.973   8.258  16.259  0.00  0.00    -0.648 OA
ENDBRANCH  15  16
ENDBRANCH  12  15
ENDBRANCH  11  12
ENDBRANCH   8  11
ENDBRANCH   7   8
ENDBRANCH   6   7
ENDBRANCH   5   6
BRANCH   1  19
ATOM     19  C2  ZIN A   1      17.655   2.930  10.242  0.00  0.00     0.028 C 
ATOM     20  C1  ZIN A   1      17.005   3.998  11.125  0.00  0.00     0.016 C 
ATOM     21  C3  ZIN A   1      19.004   3.442   9.734  0.00  0.00     0.016 C 
ENDBRANCH   1  19
BRANCH   4  22
ATOM     22  C23 ZIN A   1      18.275  -0.134  14.201  0.00  0.00    -0.008 A 
ATOM     23  C29 ZIN A   1      19.405  -0.853  14.597  0.00  0.00     0.017 A 
ATOM     24  C28 ZIN A   1      19.528  -1.270  15.906  0.00  0.00     0.043 A 
ATOM     25  C26 ZIN A   1      18.530  -0.986  16.825  0.00  0.00     0.116 A 
ATOM     26  C25 ZIN A   1      17.404  -0.278  16.435  0.00  0.00     0.043 A 
ATOM     27  F27 ZIN A   1      18.654  -1.402  18.104  0.00  0.00    -0.206 F 
ATOM     28  C24 ZIN A   1      17.271   0.148  15.130  0.00  0.00     0.017 A 
ENDBRANCH   4  22
BRANCH   2  29
ATOM     29  C6  ZIN A   1      17.976   0.039   9.109  0.00  0.00     0.259 C 
ATOM     30  O7  ZIN A   1      16.919  -0.233   8.572  0.00  0.00    -0.267 OA
ATOM     31  N8  ZIN A   1      19.122  -0.003   8.402  0.00  0.00    -0.323 N 
ATOM     32  H51 ZIN A   1      19.956   0.278   8.811  0.00  0.00     0.169 HD
BRANCH  31  33
ATOM     33  C9  ZIN A   1      19.110  -0.453   7.077  0.00  0.00     0.035 A 
ATOM     34  C14 ZIN A   1      19.013   0.459   6.034  0.00  0.00     0.029 A 
ATOM     35  C13 ZIN A   1      19.007   0.012   4.727  0.00  0.00     0.002 A 
ATOM     36  C12 ZIN A   1      19.087  -1.341   4.457  0.00  0.00     0.000 A 
ATOM     37  C11 ZIN A   1      19.177  -2.253   5.493  0.00  0.00     0.002 A 
ATOM     38  C10 ZIN A   1      19.189  -1.812   6.803  0.00  0.00     0.029 A 
ENDBRANCH  31  33
ENDBRANCH   2  29
BRANCH   3  39
ATOM     39  C16 ZIN A   1      18.377  -1.953  11.642  0.00  0.00    -0.023 A 
ATOM     40  C21 ZIN A   1      19.663  -2.488  11.558  0.00  0.00     0.012 A 
ATOM     41  C20 ZIN A   1      19.836  -3.857  11.528  0.00  0.00     0.001 A 
ATOM     42  C19 ZIN A   1      18.738  -4.698  11.570  0.00  0.00     0.000 A 
ATOM     43  C18 ZIN A   1      17.460  -4.172  11.649  0.00  0.00     0.001 A 
ATOM     44  C17 ZIN A   1      17.274  -2.806  11.686  0.00  0.00     0.012 A 
ENDBRANCH   3  39
TORSDOF 14
ENDMDL
MODEL 9
REMARK VINA RESULT:      -8.5      3.710      6.558
REMARK  14 active torsions:
REMARK  status: ('A' for Active; 'I' for Inactive)
REMARK    1  A    between atoms: C2_2  and  C4_4 
REMARK    2  A    between atoms: C5_5  and  C6_6 
REMARK       I    between atoms: C6_6  and  N8_8 
REMARK    3  A    between atoms: N8_8  and  C9_9 
REMARK    4  A    between atoms: C15_15  and  C16_16 
REMARK    5  A    between atoms: C22_22  and  C23_23 
REMARK    6  A    between atoms: N30_30  and  C31_31 
REMARK    7  A    between atoms: C31_31  and  C32_32 
REMARK    8  A    between atoms: C32_32  and  C33_33 
REMARK    9  A    between atoms: C33_33  and  O35_34 
REMARK   10  A    between atoms: C33_33  and  C36_35 
REMARK   11  A    between atoms: C36_35  and  C37_36 
REMARK   12  A    between atoms: C37_36  and  O39_37 
REMARK   13  A    between atoms: C37_36  and  C40_38 
REMARK   14  A    between atoms: C40_38  and  C41_39 
ROOT
ATOM      1  C4  ZIN A   1      17.883   3.431  12.079  0.00  0.00     0.032 A 
ATOM      2  C5  ZIN A   1      17.971   3.359  13.441  0.00  0.00     0.068 A 
ATOM      3  C15 ZIN A   1      18.115   1.933  13.772  0.00  0.00     0.020 A 
ATOM      4  C22 ZIN A   1      18.102   1.262  12.565  0.00  0.00     0.057 A 
ATOM      5  N30 ZIN A   1      17.955   2.188  11.564  0.00  0.00    -0.347 N 
ENDROOT
BRANCH   5   6
ATOM      6  C31 ZIN A   1      17.896   1.869  10.135  0.00  0.00     0.132 C 
BRANCH   6   7
ATOM      7  C32 ZIN A   1      19.273   1.398   9.662  0.00  0.00     0.052 C 
BRANCH   7   8
ATOM      8  C33 ZIN A   1      19.132   0.695   8.309  0.00  0.00     0.122 C 
BRANCH   8   9
ATOM      9  O35 ZIN A   1      19.086   1.672   7.267  0.00  0.00    -0.395 OA
ATOM     10  H70 ZIN A   1      19.845   1.643   6.668  0.00  0.00     0.210 HD
ENDBRANCH   8   9
BRANCH   8  11
ATOM     11  C36 ZIN A   1      17.843  -0.130   8.294  0.00  0.00     0.064 C 
BRANCH  11  12
ATOM     12  C37 ZIN A   1      17.751  -0.907   6.980  0.00  0.00     0.130 C 
BRANCH  12  13
ATOM     13  O39 ZIN A   1      17.361  -0.022   5.929  0.00  0.00    -0.395 OA
ATOM     14  H73 ZIN A   1      16.430   0.236   5.956  0.00  0.00     0.210 HD
ENDBRANCH  12  13
BRANCH  12  15
ATOM     15  C40 ZIN A   1      19.116  -1.518   6.653  0.00  0.00     0.144 C 
BRANCH  15  16
ATOM     16  C41 ZIN A   1      19.314  -1.534   5.159  0.00  0.00     0.175 C 
ATOM     17  O42 ZIN A   1      18.742  -2.368   4.477  0.00  0.00    -0.648 OA
ATOM     18  O43 ZIN A   1      20.044  -0.712   4.632  0.00  0.00    -0.648 OA
ENDBRANCH  15  16
ENDBRANCH  12  15
ENDBRANCH  11  12
ENDBRANCH   8  11
ENDBRANCH   7   8
ENDBRANCH   6   7
ENDBRANCH   5   6
BRANCH   1  19
ATOM     19  C2  ZIN A   1      17.725   4.697  11.278  0.00  0.00     0.028 C 
ATOM     20  C1  ZIN A   1      18.065   4.419   9.812  0.00  0.00     0.016 C 
ATOM     21  C3  ZIN A   1      16.281   5.190  11.381  0.00  0.00     0.016 C 
ENDBRANCH   1  19
BRANCH   4  22
ATOM     22  C23 ZIN A   1      18.219  -0.200  12.384  0.00  0.00    -0.008 A 
ATOM     23  C29 ZIN A   1      17.128  -0.937  11.918  0.00  0.00     0.017 A 
ATOM     24  C28 ZIN A   1      17.244  -2.301  11.747  0.00  0.00     0.043 A 
ATOM     25  C26 ZIN A   1      18.437  -2.940  12.045  0.00  0.00     0.116 A 
ATOM     26  C25 ZIN A   1      19.521  -2.214  12.514  0.00  0.00     0.043 A 
ATOM     27  F27 ZIN A   1      18.543  -4.277  11.881  0.00  0.00    -0.206 F 
ATOM     28  C24 ZIN A   1      19.418  -0.849  12.685  0.00  0.00     0.017 A 
ENDBRANCH   4  22
BRANCH   2  29
ATOM     29  C6  ZIN A   1      17.928   4.486  14.387  0.00  0.00     0.259 C 
ATOM     30  O7  ZIN A   1      18.933   5.136  14.603  0.00  0.00    -0.267 OA
ATOM     31  N8  ZIN A   1      16.776   4.797  15.011  0.00  0.00    -0.323 N 
ATOM     32  H51 ZIN A   1      15.959   4.321  14.790  0.00  0.00     0.169 HD
BRANCH  31  33
ATOM     33  C9  ZIN A   1      16.756   5.806  15.981  0.00  0.00     0.035 A 
ATOM     34  C14 ZIN A   1      17.079   5.510  17.299  0.00  0.00     0.029 A 
ATOM     35  C13 ZIN A   1      17.064   6.509  18.252  0.00  0.00     0.002 A 
ATOM     36  C12 ZIN A   1      16.718   7.800  17.898  0.00  0.00     0.000 A 
ATOM     37  C11 ZIN A   1      16.389   8.097  16.588  0.00  0.00     0.002 A 
ATOM     38  C10 ZIN A   1      16.408   7.103  15.628  0.00  0.00     0.029 A 
ENDBRANCH  31  33
ENDBRANCH   2  29
BRANCH   3  39
ATOM     39  C16 ZIN A   1      18.246   1.339  15.123  0.00  0.00    -0.023 A 
ATOM     40  C21 ZIN A   1      19.217   1.814  16.005  0.00  0.00     0.012 A 
ATOM     41  C20 ZIN A   1      19.330   1.260  17.264  0.00  0.00     0.001 A 
ATOM     42  C19 ZIN A   1      18.492   0.227  17.647  0.00  0.00     0.000 A 
ATOM     43  C18 ZIN A   1      17.530  -0.251  16.774  0.00  0.00     0.001 A 
ATOM     44  C17 ZIN A   1      17.403   0.299  15.515  0.00  0.00     0.012 A 
ENDBRANCH   3  39
TORSDOF 14
ENDMDL
