MODEL 1
REMARK VINA RESULT:      -5.7      0.000      0.000
REMARK  10 active torsions:
REMARK  status: ('A' for Active; 'I' for Inactive)
REMARK    1  A    between atoms: N2_2  and  C3_3 
REMARK    2  A    between atoms: C3_3  and  N8_8 
REMARK    3  A    between atoms: C4_4  and  N5_5 
REMARK    4  A    between atoms: N8_8  and  C9_9 
REMARK    5  A    between atoms: C9_9  and  C10_10 
REMARK    6  A    between atoms: C10_10  and  S11_11 
REMARK    7  A    between atoms: S11_11  and  C12_12 
REMARK    8  A    between atoms: C12_12  and  C13_13 
REMARK    9  A    between atoms: C16_16  and  C17_17 
REMARK   10  A    between atoms: C17_17  and  N18_18 
ROOT
ATOM      1  C10 ZIN A   1      17.856  -0.511  13.096  0.00  0.00     0.093 C 
ENDROOT
BRANCH   1   2
ATOM      2  C9  ZIN A   1      18.876   0.397  13.786  0.00  0.00     0.131 C 
BRANCH   2   3
ATOM      3  N8  ZIN A   1      18.171   1.442  14.534  0.00  0.00    -0.374 N 
ATOM      4  H27 ZIN A   1      17.674   2.126  14.059  0.00  0.00     0.161 HD
BRANCH   3   5
ATOM      5  C3  ZIN A   1      18.215   1.452  15.922  0.00  0.00     0.118 C 
ATOM      6  C4  ZIN A   1      19.200   2.088  16.553  0.00  0.00     0.215 C 
BRANCH   5   7
ATOM      7  N2  ZIN A   1      17.231   0.797  16.654  0.00  0.00    -0.380 N 
ATOM      8  C1  ZIN A   1      17.286  -0.658  16.815  0.00  0.00     0.147 C 
ATOM      9  H25 ZIN A   1      16.509   1.303  17.058  0.00  0.00     0.160 HD
ENDBRANCH   5   7
BRANCH   6  10
ATOM     10  N5  ZIN A   1      19.321   1.990  18.025  0.00  0.00    -0.124 N 
ATOM     11  O6  ZIN A   1      19.883   1.033  18.528  0.00  0.00    -0.532 OA
ATOM     12  O7  ZIN A   1      18.861   2.868  18.734  0.00  0.00    -0.532 OA
ENDBRANCH   6  10
ENDBRANCH   3   5
ENDBRANCH   2   3
ENDBRANCH   1   2
BRANCH   1  13
ATOM     13  S11 ZIN A   1      18.440  -0.917  11.427  0.00  0.00    -0.161 SA
BRANCH  13  14
ATOM     14  C12 ZIN A   1      17.276  -0.023  10.360  0.00  0.00     0.139 C 
BRANCH  14  15
ATOM     15  C13 ZIN A   1      17.586   1.452  10.405  0.00  0.00     0.062 A 
ATOM     16  O21 ZIN A   1      17.014   2.349  11.224  0.00  0.00    -0.317 OA
ATOM     17  C16 ZIN A   1      17.534   3.565  10.989  0.00  0.00     0.081 A 
ATOM     18  C15 ZIN A   1      18.442   3.455  10.003  0.00  0.00     0.037 A 
ATOM     19  C14 ZIN A   1      18.475   2.093   9.627  0.00  0.00     0.036 A 
BRANCH  17  20
ATOM     20  C17 ZIN A   1      17.158   4.837  11.703  0.00  0.00     0.335 C 
BRANCH  20  21
ATOM     21  N18 ZIN A   1      17.256   4.631  13.155  0.00  0.00     0.086 N 
ATOM     22  C19 ZIN A   1      18.641   4.794  13.617  0.00  0.00     0.309 C 
ATOM     23  C20 ZIN A   1      16.351   5.534  13.877  0.00  0.00     0.309 C 
ENDBRANCH  20  21
ENDBRANCH  17  20
ENDBRANCH  14  15
ENDBRANCH  13  14
ENDBRANCH   1  13
TORSDOF 10
ENDMDL
MODEL 2
REMARK VINA RESULT:      -5.6      1.782      2.585
REMARK  10 active torsions:
REMARK  status: ('A' for Active; 'I' for Inactive)
REMARK    1  A    between atoms: N2_2  and  C3_3 
REMARK    2  A    between atoms: C3_3  and  N8_8 
REMARK    3  A    between atoms: C4_4  and  N5_5 
REMARK    4  A    between atoms: N8_8  and  C9_9 
REMARK    5  A    between atoms: C9_9  and  C10_10 
REMARK    6  A    between atoms: C10_10  and  S11_11 
REMARK    7  A    between atoms: S11_11  and  C12_12 
REMARK    8  A    between atoms: C12_12  and  C13_13 
REMARK    9  A    between atoms: C16_16  and  C17_17 
REMARK   10  A    between atoms: C17_17  and  N18_18 
ROOT
ATOM      1  C10 ZIN A   1      18.034  -1.821  11.376  0.00  0.00     0.093 C 
ENDROOT
BRANCH   1   2
ATOM      2  C9  ZIN A   1      18.326  -2.294  12.802  0.00  0.00     0.131 C 
BRANCH   2   3
ATOM      3  N8  ZIN A   1      19.612  -1.747  13.243  0.00  0.00    -0.374 N 
ATOM      4  H27 ZIN A   1      20.433  -2.228  13.058  0.00  0.00     0.161 HD
BRANCH   3   5
ATOM      5  C3  ZIN A   1      19.654  -0.538  13.927  0.00  0.00     0.118 C 
ATOM      6  C4  ZIN A   1      18.840  -0.327  14.958  0.00  0.00     0.215 C 
BRANCH   5   7
ATOM      7  N2  ZIN A   1      20.546   0.453  13.533  0.00  0.00    -0.380 N 
ATOM      8  C1  ZIN A   1      20.853   0.639  12.113  0.00  0.00     0.147 C 
ATOM      9  H25 ZIN A   1      20.965   1.021  14.198  0.00  0.00     0.160 HD
ENDBRANCH   5   7
BRANCH   6  10
ATOM     10  N5  ZIN A   1      18.791   1.005  15.604  0.00  0.00    -0.124 N 
ATOM     11  O6  ZIN A   1      18.194   1.921  15.067  0.00  0.00    -0.532 OA
ATOM     12  O7  ZIN A   1      19.348   1.184  16.673  0.00  0.00    -0.532 OA
ENDBRANCH   6  10
ENDBRANCH   3   5
ENDBRANCH   2   3
ENDBRANCH   1   2
BRANCH   1  13
ATOM     13  S11 ZIN A   1      17.134  -0.247  11.435  0.00  0.00    -0.161 SA
BRANCH  13  14
ATOM     14  C12 ZIN A   1      17.798   0.655  10.007  0.00  0.00     0.139 C 
BRANCH  14  15
ATOM     15  C13 ZIN A   1      17.759   2.136  10.286  0.00  0.00     0.062 A 
ATOM     16  O21 ZIN A   1      17.054   2.732  11.261  0.00  0.00    -0.317 OA
ATOM     17  C16 ZIN A   1      17.260   4.058  11.215  0.00  0.00     0.081 A 
ATOM     18  C15 ZIN A   1      18.096   4.323  10.196  0.00  0.00     0.037 A 
ATOM     19  C14 ZIN A   1      18.417   3.084   9.597  0.00  0.00     0.036 A 
BRANCH  17  20
ATOM     20  C17 ZIN A   1      16.651   5.077  12.143  0.00  0.00     0.335 C 
BRANCH  20  21
ATOM     21  N18 ZIN A   1      17.113   4.828  13.516  0.00  0.00     0.086 N 
ATOM     22  C19 ZIN A   1      18.519   5.222  13.677  0.00  0.00     0.309 C 
ATOM     23  C20 ZIN A   1      16.258   5.515  14.492  0.00  0.00     0.309 C 
ENDBRANCH  20  21
ENDBRANCH  17  20
ENDBRANCH  14  15
ENDBRANCH  13  14
ENDBRANCH   1  13
TORSDOF 10
ENDMDL
MODEL 3
REMARK VINA RESULT:      -5.6      2.512      5.914
REMARK  10 active torsions:
REMARK  status: ('A' for Active; 'I' for Inactive)
REMARK    1  A    between atoms: N2_2  and  C3_3 
REMARK    2  A    between atoms: C3_3  and  N8_8 
REMARK    3  A    between atoms: C4_4  and  N5_5 
REMARK    4  A    between atoms: N8_8  and  C9_9 
REMARK    5  A    between atoms: C9_9  and  C10_10 
REMARK    6  A    between atoms: C10_10  and  S11_11 
REMARK    7  A    between atoms: S11_11  and  C12_12 
REMARK    8  A    between atoms: C12_12  and  C13_13 
REMARK    9  A    between atoms: C16_16  and  C17_17 
REMARK   10  A    between atoms: C17_17  and  N18_18 
ROOT
ATOM      1  C10 ZIN A   1      19.127   0.069   8.788  0.00  0.00     0.093 C 
ENDROOT
BRANCH   1   2
ATOM      2  C9  ZIN A   1      19.531   1.544   8.730  0.00  0.00     0.131 C 
BRANCH   2   3
ATOM      3  N8  ZIN A   1      19.775   2.037  10.088  0.00  0.00    -0.374 N 
ATOM      4  H27 ZIN A   1      20.465   1.630  10.635  0.00  0.00     0.161 HD
BRANCH   3   5
ATOM      5  C3  ZIN A   1      19.019   3.089  10.591  0.00  0.00     0.118 C 
ATOM      6  C4  ZIN A   1      17.925   3.489   9.948  0.00  0.00     0.215 C 
BRANCH   5   7
ATOM      7  N2  ZIN A   1      19.407   3.725  11.765  0.00  0.00    -0.380 N 
ATOM      8  C1  ZIN A   1      19.033   3.157  13.062  0.00  0.00     0.147 C 
ATOM      9  H25 ZIN A   1      19.925   4.544  11.725  0.00  0.00     0.160 HD
ENDBRANCH   5   7
BRANCH   6  10
ATOM     10  N5  ZIN A   1      17.193   4.691  10.409  0.00  0.00    -0.124 N 
ATOM     11  O6  ZIN A   1      16.296   4.581  11.227  0.00  0.00    -0.532 OA
ATOM     12  O7  ZIN A   1      17.488   5.789   9.972  0.00  0.00    -0.532 OA
ENDBRANCH   6  10
ENDBRANCH   3   5
ENDBRANCH   2   3
ENDBRANCH   1   2
BRANCH   1  13
ATOM     13  S11 ZIN A   1      19.693  -0.650  10.355  0.00  0.00    -0.161 SA
BRANCH  13  14
ATOM     14  C12 ZIN A   1      18.145  -0.909  11.266  0.00  0.00     0.139 C 
BRANCH  14  15
ATOM     15  C13 ZIN A   1      18.426  -0.893  12.747  0.00  0.00     0.062 A 
ATOM     16  O21 ZIN A   1      17.821  -0.107  13.652  0.00  0.00    -0.317 OA
ATOM     17  C16 ZIN A   1      18.320  -0.364  14.872  0.00  0.00     0.081 A 
ATOM     18  C15 ZIN A   1      19.262  -1.316  14.755  0.00  0.00     0.037 A 
ATOM     19  C14 ZIN A   1      19.331  -1.657  13.385  0.00  0.00     0.036 A 
BRANCH  17  20
ATOM     20  C17 ZIN A   1      17.899   0.307  16.155  0.00  0.00     0.335 C 
BRANCH  20  21
ATOM     21  N18 ZIN A   1      19.090   0.782  16.873  0.00  0.00     0.086 N 
ATOM     22  C19 ZIN A   1      19.155   2.250  16.870  0.00  0.00     0.309 C 
ATOM     23  C20 ZIN A   1      19.124   0.256  18.243  0.00  0.00     0.309 C 
ENDBRANCH  20  21
ENDBRANCH  17  20
ENDBRANCH  14  15
ENDBRANCH  13  14
ENDBRANCH   1  13
TORSDOF 10
ENDMDL
MODEL 4
REMARK VINA RESULT:      -5.6      2.794      5.051
REMARK  10 active torsions:
REMARK  status: ('A' for Active; 'I' for Inactive)
REMARK    1  A    between atoms: N2_2  and  C3_3 
REMARK    2  A    between atoms: C3_3  and  N8_8 
REMARK    3  A    between atoms: C4_4  and  N5_5 
REMARK    4  A    between atoms: N8_8  and  C9_9 
REMARK    5  A    between atoms: C9_9  and  C10_10 
REMARK    6  A    between atoms: C10_10  and  S11_11 
REMARK    7  A    between atoms: S11_11  and  C12_12 
REMARK    8  A    between atoms: C12_12  and  C13_13 
REMARK    9  A    between atoms: C16_16  and  C17_17 
REMARK   10  A    between atoms: C17_17  and  N18_18 
ROOT
ATOM      1  C10 ZIN A   1      18.878   4.817  13.988  0.00  0.00     0.093 C 
ENDROOT
BRANCH   1   2
ATOM      2  C9  ZIN A   1      18.429   3.541  14.704  0.00  0.00     0.131 C 
BRANCH   2   3
ATOM      3  N8  ZIN A   1      19.526   2.570  14.704  0.00  0.00    -0.374 N 
ATOM      4  H27 ZIN A   1      20.397   2.821  15.050  0.00  0.00     0.161 HD
BRANCH   3   5
ATOM      5  C3  ZIN A   1      19.319   1.288  14.209  0.00  0.00     0.118 C 
ATOM      6  C4  ZIN A   1      18.128   0.709  14.339  0.00  0.00     0.215 C 
BRANCH   5   7
ATOM      7  N2  ZIN A   1      20.356   0.609  13.580  0.00  0.00    -0.380 N 
ATOM      8  C1  ZIN A   1      20.555   0.752  12.136  0.00  0.00     0.147 C 
ATOM      9  H25 ZIN A   1      20.948   0.040  14.097  0.00  0.00     0.160 HD
ENDBRANCH   5   7
BRANCH   6  10
ATOM     10  N5  ZIN A   1      17.941  -0.702  13.931  0.00  0.00    -0.124 N 
ATOM     11  O6  ZIN A   1      18.263  -1.602  14.686  0.00  0.00    -0.532 OA
ATOM     12  O7  ZIN A   1      17.463  -0.963  12.840  0.00  0.00    -0.532 OA
ENDBRANCH   6  10
ENDBRANCH   3   5
ENDBRANCH   2   3
ENDBRANCH   1   2
BRANCH   1  13
ATOM     13  S11 ZIN A   1      19.220   4.443  12.246  0.00  0.00    -0.161 SA
BRANCH  13  14
ATOM     14  C12 ZIN A   1      17.640   3.777  11.655  0.00  0.00     0.139 C 
BRANCH  14  15
ATOM     15  C13 ZIN A   1      17.900   2.716  10.616  0.00  0.00     0.062 A 
ATOM     16  O21 ZIN A   1      17.377   1.479  10.610  0.00  0.00    -0.317 OA
ATOM     17  C16 ZIN A   1      17.825   0.809   9.535  0.00  0.00     0.081 A 
ATOM     18  C15 ZIN A   1      18.651   1.616   8.846  0.00  0.00     0.037 A 
ATOM     19  C14 ZIN A   1      18.700   2.844   9.542  0.00  0.00     0.036 A 
BRANCH  17  20
ATOM     20  C17 ZIN A   1      17.467  -0.608   9.168  0.00  0.00     0.335 C 
BRANCH  20  21
ATOM     21  N18 ZIN A   1      18.691  -1.353   8.839  0.00  0.00     0.086 N 
ATOM     22  C19 ZIN A   1      19.014  -2.325   9.891  0.00  0.00     0.309 C 
ATOM     23  C20 ZIN A   1      18.571  -2.010   7.532  0.00  0.00     0.309 C 
ENDBRANCH  20  21
ENDBRANCH  17  20
ENDBRANCH  14  15
ENDBRANCH  13  14
ENDBRANCH   1  13
TORSDOF 10
ENDMDL
MODEL 5
REMARK VINA RESULT:      -5.5      2.705      4.705
REMARK  10 active torsions:
REMARK  status: ('A' for Active; 'I' for Inactive)
REMARK    1  A    between atoms: N2_2  and  C3_3 
REMARK    2  A    between atoms: C3_3  and  N8_8 
REMARK    3  A    between atoms: C4_4  and  N5_5 
REMARK    4  A    between atoms: N8_8  and  C9_9 
REMARK    5  A    between atoms: C9_9  and  C10_10 
REMARK    6  A    between atoms: C10_10  and  S11_11 
REMARK    7  A    between atoms: S11_11  and  C12_12 
REMARK    8  A    between atoms: C12_12  and  C13_13 
REMARK    9  A    between atoms: C16_16  and  C17_17 
REMARK   10  A    between atoms: C17_17  and  N18_18 
ROOT
ATOM      1  C10 ZIN A   1      19.903   1.221  12.119  0.00  0.00     0.093 C 
ENDROOT
BRANCH   1   2
ATOM      2  C9  ZIN A   1      19.639   0.875  13.586  0.00  0.00     0.131 C 
BRANCH   2   3
ATOM      3  N8  ZIN A   1      19.059   2.036  14.265  0.00  0.00    -0.374 N 
ATOM      4  H27 ZIN A   1      18.542   2.684  13.761  0.00  0.00     0.161 HD
BRANCH   3   5
ATOM      5  C3  ZIN A   1      19.248   2.209  15.631  0.00  0.00     0.118 C 
ATOM      6  C4  ZIN A   1      18.879   1.253  16.479  0.00  0.00     0.215 C 
BRANCH   5   7
ATOM      7  N2  ZIN A   1      19.822   3.381  16.111  0.00  0.00    -0.380 N 
ATOM      8  C1  ZIN A   1      19.463   4.669  15.514  0.00  0.00     0.147 C 
ATOM      9  H25 ZIN A   1      20.460   3.345  16.841  0.00  0.00     0.160 HD
ENDBRANCH   5   7
BRANCH   6  10
ATOM     10  N5  ZIN A   1      18.959   1.487  17.939  0.00  0.00    -0.124 N 
ATOM     11  O6  ZIN A   1      18.055   2.068  18.514  0.00  0.00    -0.532 OA
ATOM     12  O7  ZIN A   1      19.929   1.098  18.567  0.00  0.00    -0.532 OA
ENDBRANCH   6  10
ENDBRANCH   3   5
ENDBRANCH   2   3
ENDBRANCH   1   2
BRANCH   1  13
ATOM     13  S11 ZIN A   1      19.502   2.966  11.830  0.00  0.00    -0.161 SA
BRANCH  13  14
ATOM     14  C12 ZIN A   1      18.016   2.876  10.793  0.00  0.00     0.139 C 
BRANCH  14  15
ATOM     15  C13 ZIN A   1      18.300   2.024   9.582  0.00  0.00     0.062 A 
ATOM     16  O21 ZIN A   1      17.779   0.810   9.338  0.00  0.00    -0.317 OA
ATOM     17  C16 ZIN A   1      18.251   0.349   8.168  0.00  0.00     0.081 A 
ATOM     18  C15 ZIN A   1      19.090   1.267   7.656  0.00  0.00     0.037 A 
ATOM     19  C14 ZIN A   1      19.122   2.346   8.568  0.00  0.00     0.036 A 
BRANCH  17  20
ATOM     20  C17 ZIN A   1      17.903  -0.976   7.539  0.00  0.00     0.335 C 
BRANCH  20  21
ATOM     21  N18 ZIN A   1      18.841  -2.004   8.012  0.00  0.00     0.086 N 
ATOM     22  C19 ZIN A   1      18.267  -2.765   9.130  0.00  0.00     0.309 C 
ATOM     23  C20 ZIN A   1      19.239  -2.897   6.917  0.00  0.00     0.309 C 
ENDBRANCH  20  21
ENDBRANCH  17  20
ENDBRANCH  14  15
ENDBRANCH  13  14
ENDBRANCH   1  13
TORSDOF 10
ENDMDL
MODEL 6
REMARK VINA RESULT:      -5.5      2.115      4.041
REMARK  10 active torsions:
REMARK  status: ('A' for Active; 'I' for Inactive)
REMARK    1  A    between atoms: N2_2  and  C3_3 
REMARK    2  A    between atoms: C3_3  and  N8_8 
REMARK    3  A    between atoms: C4_4  and  N5_5 
REMARK    4  A    between atoms: N8_8  and  C9_9 
REMARK    5  A    between atoms: C9_9  and  C10_10 
REMARK    6  A    between atoms: C10_10  and  S11_11 
REMARK    7  A    between atoms: S11_11  and  C12_12 
REMARK    8  A    between atoms: C12_12  and  C13_13 
REMARK    9  A    between atoms: C16_16  and  C17_17 
REMARK   10  A    between atoms: C17_17  and  N18_18 
ROOT
ATOM      1  C10 ZIN A   1      18.402   4.417  13.040  0.00  0.00     0.093 C 
ENDROOT
BRANCH   1   2
ATOM      2  C9  ZIN A   1      17.927   3.292  13.962  0.00  0.00     0.131 C 
BRANCH   2   3
ATOM      3  N8  ZIN A   1      19.084   2.686  14.628  0.00  0.00    -0.374 N 
ATOM      4  H27 ZIN A   1      19.979   2.864  14.302  0.00  0.00     0.161 HD
BRANCH   3   5
ATOM      5  C3  ZIN A   1      18.896   1.859  15.728  0.00  0.00     0.118 C 
ATOM      6  C4  ZIN A   1      19.088   2.331  16.957  0.00  0.00     0.215 C 
BRANCH   5   7
ATOM      7  N2  ZIN A   1      18.508   0.536  15.545  0.00  0.00    -0.380 N 
ATOM      8  C1  ZIN A   1      19.304  -0.348  14.691  0.00  0.00     0.147 C 
ATOM      9  H25 ZIN A   1      17.711   0.199  15.983  0.00  0.00     0.160 HD
ENDBRANCH   5   7
BRANCH   6  10
ATOM     10  N5  ZIN A   1      19.016   1.419  18.121  0.00  0.00    -0.124 N 
ATOM     11  O6  ZIN A   1      17.976   1.309  18.746  0.00  0.00    -0.532 OA
ATOM     12  O7  ZIN A   1      19.997   0.776  18.453  0.00  0.00    -0.532 OA
ENDBRANCH   6  10
ENDBRANCH   3   5
ENDBRANCH   2   3
ENDBRANCH   1   2
BRANCH   1  13
ATOM     13  S11 ZIN A   1      16.992   5.064  12.100  0.00  0.00    -0.161 SA
BRANCH  13  14
ATOM     14  C12 ZIN A   1      17.445   4.697  10.382  0.00  0.00     0.139 C 
BRANCH  14  15
ATOM     15  C13 ZIN A   1      17.855   3.250  10.269  0.00  0.00     0.062 A 
ATOM     16  O21 ZIN A   1      17.130   2.195  10.673  0.00  0.00    -0.317 OA
ATOM     17  C16 ZIN A   1      17.805   1.063  10.414  0.00  0.00     0.081 A 
ATOM     18  C15 ZIN A   1      18.980   1.389   9.848  0.00  0.00     0.037 A 
ATOM     19  C14 ZIN A   1      19.013   2.799   9.755  0.00  0.00     0.036 A 
BRANCH  17  20
ATOM     20  C17 ZIN A   1      17.328  -0.335  10.715  0.00  0.00     0.335 C 
BRANCH  20  21
ATOM     21  N18 ZIN A   1      18.379  -1.298  10.357  0.00  0.00     0.086 N 
ATOM     22  C19 ZIN A   1      18.703  -2.169  11.494  0.00  0.00     0.309 C 
ATOM     23  C20 ZIN A   1      17.990  -2.088   9.182  0.00  0.00     0.309 C 
ENDBRANCH  20  21
ENDBRANCH  17  20
ENDBRANCH  14  15
ENDBRANCH  13  14
ENDBRANCH   1  13
TORSDOF 10
ENDMDL
MODEL 7
REMARK VINA RESULT:      -5.5      5.304      9.043
REMARK  10 active torsions:
REMARK  status: ('A' for Active; 'I' for Inactive)
REMARK    1  A    between atoms: N2_2  and  C3_3 
REMARK    2  A    between atoms: C3_3  and  N8_8 
REMARK    3  A    between atoms: C4_4  and  N5_5 
REMARK    4  A    between atoms: N8_8  and  C9_9 
REMARK    5  A    between atoms: C9_9  and  C10_10 
REMARK    6  A    between atoms: C10_10  and  S11_11 
REMARK    7  A    between atoms: S11_11  and  C12_12 
REMARK    8  A    between atoms: C12_12  and  C13_13 
REMARK    9  A    between atoms: C16_16  and  C17_17 
REMARK   10  A    between atoms: C17_17  and  N18_18 
ROOT
ATOM      1  C10 ZIN A   1      19.258   2.421   9.910  0.00  0.00     0.093 C 
ENDROOT
BRANCH   1   2
ATOM      2  C9  ZIN A   1      18.932   2.151   8.440  0.00  0.00     0.131 C 
BRANCH   2   3
ATOM      3  N8  ZIN A   1      18.247   0.861   8.321  0.00  0.00    -0.374 N 
ATOM      4  H27 ZIN A   1      17.692   0.537   9.048  0.00  0.00     0.161 HD
BRANCH   3   5
ATOM      5  C3  ZIN A   1      18.391   0.102   7.166  0.00  0.00     0.118 C 
ATOM      6  C4  ZIN A   1      19.094   0.577   6.141  0.00  0.00     0.215 C 
BRANCH   5   7
ATOM      7  N2  ZIN A   1      17.799  -1.153   7.080  0.00  0.00    -0.380 N 
ATOM      8  C1  ZIN A   1      18.414  -2.299   7.754  0.00  0.00     0.147 C 
ATOM      9  H25 ZIN A   1      16.980  -1.270   6.573  0.00  0.00     0.160 HD
ENDBRANCH   5   7
BRANCH   6  10
ATOM     10  N5  ZIN A   1      19.140  -0.171   4.864  0.00  0.00    -0.124 N 
ATOM     11  O6  ZIN A   1      18.263  -0.014   4.034  0.00  0.00    -0.532 OA
ATOM     12  O7  ZIN A   1      20.056  -0.944   4.643  0.00  0.00    -0.532 OA
ENDBRANCH   6  10
ENDBRANCH   3   5
ENDBRANCH   2   3
ENDBRANCH   1   2
BRANCH   1  13
ATOM     13  S11 ZIN A   1      18.139   1.458  10.964  0.00  0.00    -0.161 SA
BRANCH  13  14
ATOM     14  C12 ZIN A   1      19.263   0.320  11.819  0.00  0.00     0.139 C 
BRANCH  14  15
ATOM     15  C13 ZIN A   1      18.770  -1.095  11.649  0.00  0.00     0.062 A 
ATOM     16  O21 ZIN A   1      19.542  -2.180  11.478  0.00  0.00    -0.317 OA
ATOM     17  C16 ZIN A   1      18.764  -3.269  11.365  0.00  0.00     0.081 A 
ATOM     18  C15 ZIN A   1      17.479  -2.884  11.453  0.00  0.00     0.037 A 
ATOM     19  C14 ZIN A   1      17.482  -1.483  11.636  0.00  0.00     0.036 A 
BRANCH  17  20
ATOM     20  C17 ZIN A   1      19.250  -4.682  11.165  0.00  0.00     0.335 C 
BRANCH  20  21
ATOM     21  N18 ZIN A   1      18.884  -5.140   9.818  0.00  0.00     0.086 N 
ATOM     22  C19 ZIN A   1      20.050  -5.687   9.113  0.00  0.00     0.309 C 
ATOM     23  C20 ZIN A   1      17.794  -6.123   9.875  0.00  0.00     0.309 C 
ENDBRANCH  20  21
ENDBRANCH  17  20
ENDBRANCH  14  15
ENDBRANCH  13  14
ENDBRANCH   1  13
TORSDOF 10
ENDMDL
MODEL 8
REMARK VINA RESULT:      -5.4      2.681      4.377
REMARK  10 active torsions:
REMARK  status: ('A' for Active; 'I' for Inactive)
REMARK    1  A    between atoms: N2_2  and  C3_3 
REMARK    2  A    between atoms: C3_3  and  N8_8 
REMARK    3  A    between atoms: C4_4  and  N5_5 
REMARK    4  A    between atoms: N8_8  and  C9_9 
REMARK    5  A    between atoms: C9_9  and  C10_10 
REMARK    6  A    between atoms: C10_10  and  S11_11 
REMARK    7  A    between atoms: S11_11  and  C12_12 
REMARK    8  A    between atoms: C12_12  and  C13_13 
REMARK    9  A    between atoms: C16_16  and  C17_17 
REMARK   10  A    between atoms: C17_17  and  N18_18 
ROOT
ATOM      1  C10 ZIN A   1      18.134   4.636  16.314  0.00  0.00     0.093 C 
ENDROOT
BRANCH   1   2
ATOM      2  C9  ZIN A   1      19.388   3.828  16.654  0.00  0.00     0.131 C 
BRANCH   2   3
ATOM      3  N8  ZIN A   1      19.707   2.930  15.540  0.00  0.00    -0.374 N 
ATOM      4  H27 ZIN A   1      20.313   3.219  14.842  0.00  0.00     0.161 HD
BRANCH   3   5
ATOM      5  C3  ZIN A   1      19.140   1.662  15.487  0.00  0.00     0.118 C 
ATOM      6  C4  ZIN A   1      18.844   1.018  16.613  0.00  0.00     0.215 C 
BRANCH   5   7
ATOM      7  N2  ZIN A   1      18.883   1.066  14.258  0.00  0.00    -0.380 N 
ATOM      8  C1  ZIN A   1      19.958   0.380  13.538  0.00  0.00     0.147 C 
ATOM      9  H25 ZIN A   1      17.991   1.105  13.876  0.00  0.00     0.160 HD
ENDBRANCH   5   7
BRANCH   6  10
ATOM     10  N5  ZIN A   1      18.363  -0.382  16.561  0.00  0.00    -0.124 N 
ATOM     11  O6  ZIN A   1      17.168  -0.613  16.497  0.00  0.00    -0.532 OA
ATOM     12  O7  ZIN A   1      19.161  -1.302  16.580  0.00  0.00    -0.532 OA
ENDBRANCH   6  10
ENDBRANCH   3   5
ENDBRANCH   2   3
ENDBRANCH   1   2
BRANCH   1  13
ATOM     13  S11 ZIN A   1      18.372   5.481  14.726  0.00  0.00    -0.161 SA
BRANCH  13  14
ATOM     14  C12 ZIN A   1      17.148   4.681  13.652  0.00  0.00     0.139 C 
BRANCH  14  15
ATOM     15  C13 ZIN A   1      17.858   3.930  12.555  0.00  0.00     0.062 A 
ATOM     16  O21 ZIN A   1      17.376   2.863  11.896  0.00  0.00    -0.317 OA
ATOM     17  C16 ZIN A   1      18.276   2.456  10.986  0.00  0.00     0.081 A 
ATOM     18  C15 ZIN A   1      19.352   3.259  11.064  0.00  0.00     0.037 A 
ATOM     19  C14 ZIN A   1      19.083   4.208  12.075  0.00  0.00     0.036 A 
BRANCH  17  20
ATOM     20  C17 ZIN A   1      18.111   1.292  10.043  0.00  0.00     0.335 C 
BRANCH  20  21
ATOM     21  N18 ZIN A   1      19.349   1.104   9.275  0.00  0.00     0.086 N 
ATOM     22  C19 ZIN A   1      19.871  -0.259   9.442  0.00  0.00     0.309 C 
ATOM     23  C20 ZIN A   1      19.141   1.418   7.855  0.00  0.00     0.309 C 
ENDBRANCH  20  21
ENDBRANCH  17  20
ENDBRANCH  14  15
ENDBRANCH  13  14
ENDBRANCH   1  13
TORSDOF 10
ENDMDL
MODEL 9
REMARK VINA RESULT:      -5.4      4.911      6.984
REMARK  10 active torsions:
REMARK  status: ('A' for Active; 'I' for Inactive)
REMARK    1  A    between atoms: N2_2  and  C3_3 
REMARK    2  A    between atoms: C3_3  and  N8_8 
REMARK    3  A    between atoms: C4_4  and  N5_5 
REMARK    4  A    between atoms: N8_8  and  C9_9 
REMARK    5  A    between atoms: C9_9  and  C10_10 
REMARK    6  A    between atoms: C10_10  and  S11_11 
REMARK    7  A    between atoms: S11_11  and  C12_12 
REMARK    8  A    between atoms: C12_12  and  C13_13 
REMARK    9  A    between atoms: C16_16  and  C17_17 
REMARK   10  A    between atoms: C17_17  and  N18_18 
ROOT
ATOM      1  C10 ZIN A   1      18.945   0.149  12.542  0.00  0.00     0.093 C 
ENDROOT
BRANCH   1   2
ATOM      2  C9  ZIN A   1      20.061  -0.649  11.864  0.00  0.00     0.131 C 
BRANCH   2   3
ATOM      3  N8  ZIN A   1      19.609  -1.096  10.544  0.00  0.00    -0.374 N 
ATOM      4  H27 ZIN A   1      19.690  -0.506   9.778  0.00  0.00     0.161 HD
BRANCH   3   5
ATOM      5  C3  ZIN A   1      19.067  -2.365  10.389  0.00  0.00     0.118 C 
ATOM      6  C4  ZIN A   1      17.747  -2.522  10.324  0.00  0.00     0.215 C 
BRANCH   5   7
ATOM      7  N2  ZIN A   1      19.903  -3.473  10.301  0.00  0.00    -0.380 N 
ATOM      8  C1  ZIN A   1      20.317  -4.174  11.518  0.00  0.00     0.147 C 
ATOM      9  H25 ZIN A   1      20.212  -3.781   9.435  0.00  0.00     0.160 HD
ENDBRANCH   5   7
BRANCH   6  10
ATOM     10  N5  ZIN A   1      17.163  -3.882  10.290  0.00  0.00    -0.124 N 
ATOM     11  O6  ZIN A   1      16.807  -4.418  11.325  0.00  0.00    -0.532 OA
ATOM     12  O7  ZIN A   1      17.038  -4.465   9.228  0.00  0.00    -0.532 OA
ENDBRANCH   6  10
ENDBRANCH   3   5
ENDBRANCH   2   3
ENDBRANCH   1   2
BRANCH   1  13
ATOM     13  S11 ZIN A   1      19.111   1.903  12.113  0.00  0.00    -0.161 SA
BRANCH  13  14
ATOM     14  C12 ZIN A   1      17.737   2.171  10.958  0.00  0.00     0.139 C 
BRANCH  14  15
ATOM     15  C13 ZIN A   1      18.137   1.698   9.584  0.00  0.00     0.062 A 
ATOM     16  O21 ZIN A   1      17.618   0.643   8.935  0.00  0.00    -0.317 OA
ATOM     17  C16 ZIN A   1      18.210   0.521   7.736  0.00  0.00     0.081 A 
ATOM     18  C15 ZIN A   1      19.126   1.497   7.612  0.00  0.00     0.037 A 
ATOM     19  C14 ZIN A   1      19.079   2.256   8.803  0.00  0.00     0.036 A 
BRANCH  17  20
ATOM     20  C17 ZIN A   1      17.904  -0.537   6.706  0.00  0.00     0.335 C 
BRANCH  20  21
ATOM     21  N18 ZIN A   1      19.159  -1.137   6.233  0.00  0.00     0.086 N 
ATOM     22  C19 ZIN A   1      19.305  -2.512   6.729  0.00  0.00     0.309 C 
ATOM     23  C20 ZIN A   1      19.243  -1.094   4.767  0.00  0.00     0.309 C 
ENDBRANCH  20  21
ENDBRANCH  17  20
ENDBRANCH  14  15
ENDBRANCH  13  14
ENDBRANCH   1  13
TORSDOF 10
ENDMDL
