MODEL 1
REMARK VINA RESULT:      -6.6      0.000      0.000
REMARK  1 active torsions:
REMARK  status: ('A' for Active; 'I' for Inactive)
REMARK    1  A    between atoms: C10_10  and  C12_11 
ROOT
ATOM      1  C1  ZIN A   1      17.870   2.129  10.840  0.00  0.00     0.001 A 
ATOM      2  C2  ZIN A   1      17.291   0.904  11.113  0.00  0.00     0.001 A 
ATOM      3  C3  ZIN A   1      17.318  -0.095  10.163  0.00  0.00     0.008 A 
ATOM      4  C4  ZIN A   1      17.925   0.118   8.933  0.00  0.00    -0.041 A 
ATOM      5  C5  ZIN A   1      18.508   1.335   8.661  0.00  0.00    -0.051 A 
ATOM      6  C6  ZIN A   1      18.476   2.342   9.618  0.00  0.00     0.007 A 
ATOM      7  C7  ZIN A   1      19.198   1.631   7.355  0.00  0.00     0.039 C 
ATOM      8  C8  ZIN A   1      18.781   0.622   6.287  0.00  0.00     0.006 C 
ATOM      9  C9  ZIN A   1      18.966  -0.790   6.855  0.00  0.00     0.017 C 
ATOM     10  C10 ZIN A   1      17.912  -1.014   7.938  0.00  0.00     0.086 C 
ENDROOT
BRANCH  10  11
ATOM     11  C12 ZIN A   1      18.205  -2.307   8.655  0.00  0.00     0.081 A 
ATOM     12  N17 ZIN A   1      19.326  -2.514   9.306  0.00  0.00    -0.378 N 
ATOM     13  C16 ZIN A   1      19.303  -3.863   9.895  0.00  0.00     0.140 A 
ATOM     14  H32 ZIN A   1      20.052  -1.877   9.389  0.00  0.00     0.160 HD
ATOM     15  C15 ZIN A   1      17.935  -4.420   9.448  0.00  0.00     0.140 A 
ATOM     16  N13 ZIN A   1      17.360  -3.312   8.670  0.00  0.00    -0.378 N 
ATOM     17  H14 ZIN A   1      16.493  -3.321   8.235  0.00  0.00     0.160 HD
ENDBRANCH  10  11
TORSDOF 1
ENDMDL
MODEL 2
REMARK VINA RESULT:      -6.5      1.605      2.272
REMARK  1 active torsions:
REMARK  status: ('A' for Active; 'I' for Inactive)
REMARK    1  A    between atoms: C10_10  and  C12_11 
ROOT
ATOM      1  C1  ZIN A   1      18.402   1.145   9.250  0.00  0.00     0.001 A 
ATOM      2  C2  ZIN A   1      17.886  -0.115   9.488  0.00  0.00     0.001 A 
ATOM      3  C3  ZIN A   1      17.848  -1.043   8.469  0.00  0.00     0.008 A 
ATOM      4  C4  ZIN A   1      18.328  -0.725   7.205  0.00  0.00    -0.041 A 
ATOM      5  C5  ZIN A   1      18.848   0.528   6.969  0.00  0.00    -0.051 A 
ATOM      6  C6  ZIN A   1      18.880   1.464   7.995  0.00  0.00     0.007 A 
ATOM      7  C7  ZIN A   1      19.400   0.938   5.628  0.00  0.00     0.039 C 
ATOM      8  C8  ZIN A   1      18.910  -0.008   4.534  0.00  0.00     0.006 C 
ATOM      9  C9  ZIN A   1      19.188  -1.449   4.978  0.00  0.00     0.017 C 
ATOM     10  C10 ZIN A   1      18.250  -1.784   6.137  0.00  0.00     0.086 C 
ENDROOT
BRANCH  10  11
ATOM     11  C12 ZIN A   1      18.646  -3.113   6.727  0.00  0.00     0.081 A 
ATOM     12  N17 ZIN A   1      17.771  -4.054   6.995  0.00  0.00    -0.378 N 
ATOM     13  C16 ZIN A   1      18.470  -5.222   7.555  0.00  0.00     0.140 A 
ATOM     14  H32 ZIN A   1      16.816  -3.991   6.843  0.00  0.00     0.160 HD
ATOM     15  C15 ZIN A   1      19.947  -4.774   7.574  0.00  0.00     0.140 A 
ATOM     16  N13 ZIN A   1      19.891  -3.413   7.017  0.00  0.00    -0.378 N 
ATOM     17  H14 ZIN A   1      20.654  -2.829   6.884  0.00  0.00     0.160 HD
ENDBRANCH  10  11
TORSDOF 1
ENDMDL
MODEL 3
REMARK VINA RESULT:      -6.4      6.237      8.941
REMARK  1 active torsions:
REMARK  status: ('A' for Active; 'I' for Inactive)
REMARK    1  A    between atoms: C10_10  and  C12_11 
ROOT
ATOM      1  C1  ZIN A   1      18.094  -0.806  13.536  0.00  0.00     0.001 A 
ATOM      2  C2  ZIN A   1      17.605   0.487  13.552  0.00  0.00     0.001 A 
ATOM      3  C3  ZIN A   1      17.686   1.236  14.707  0.00  0.00     0.008 A 
ATOM      4  C4  ZIN A   1      18.257   0.703  15.855  0.00  0.00    -0.041 A 
ATOM      5  C5  ZIN A   1      18.750  -0.582  15.839  0.00  0.00    -0.051 A 
ATOM      6  C6  ZIN A   1      18.664  -1.337  14.676  0.00  0.00     0.007 A 
ATOM      7  C7  ZIN A   1      19.397  -1.218  17.042  0.00  0.00     0.039 C 
ATOM      8  C8  ZIN A   1      19.033  -0.455  18.313  0.00  0.00     0.006 C 
ATOM      9  C9  ZIN A   1      19.324   1.033  18.086  0.00  0.00     0.017 C 
ATOM     10  C10 ZIN A   1      18.306   1.574  17.084  0.00  0.00     0.086 C 
ENDROOT
BRANCH  10  11
ATOM     11  C12 ZIN A   1      18.699   2.973  16.685  0.00  0.00     0.081 A 
ATOM     12  N17 ZIN A   1      19.911   3.278  16.284  0.00  0.00    -0.378 N 
ATOM     13  C16 ZIN A   1      19.971   4.714  15.966  0.00  0.00     0.140 A 
ATOM     14  H32 ZIN A   1      20.649   2.654  16.206  0.00  0.00     0.160 HD
ATOM     15  C15 ZIN A   1      18.540   5.202  16.271  0.00  0.00     0.140 A 
ATOM     16  N13 ZIN A   1      17.855   3.979  16.717  0.00  0.00    -0.378 N 
ATOM     17  H14 ZIN A   1      16.927   3.923  16.992  0.00  0.00     0.160 HD
ENDBRANCH  10  11
TORSDOF 1
ENDMDL
MODEL 4
REMARK VINA RESULT:      -6.4      4.433      7.242
REMARK  1 active torsions:
REMARK  status: ('A' for Active; 'I' for Inactive)
REMARK    1  A    between atoms: C10_10  and  C12_11 
ROOT
ATOM      1  C1  ZIN A   1      17.590  -1.585  11.762  0.00  0.00     0.001 A 
ATOM      2  C2  ZIN A   1      17.037  -0.324  11.631  0.00  0.00     0.001 A 
ATOM      3  C3  ZIN A   1      17.159   0.587  12.659  0.00  0.00     0.008 A 
ATOM      4  C4  ZIN A   1      17.834   0.250  13.825  0.00  0.00    -0.041 A 
ATOM      5  C5  ZIN A   1      18.389  -1.002  13.953  0.00  0.00    -0.051 A 
ATOM      6  C6  ZIN A   1      18.262  -1.921  12.919  0.00  0.00     0.007 A 
ATOM      7  C7  ZIN A   1      19.148  -1.431  15.183  0.00  0.00     0.039 C 
ATOM      8  C8  ZIN A   1      18.834  -0.507  16.357  0.00  0.00     0.006 C 
ATOM      9  C9  ZIN A   1      19.033   0.942  15.900  0.00  0.00     0.017 C 
ATOM     10  C10 ZIN A   1      17.922   1.292  14.911  0.00  0.00     0.086 C 
ENDROOT
BRANCH  10  11
ATOM     11  C12 ZIN A   1      18.215   2.633  14.289  0.00  0.00     0.081 A 
ATOM     12  N17 ZIN A   1      19.281   2.851  13.555  0.00  0.00    -0.378 N 
ATOM     13  C16 ZIN A   1      19.276   4.250  13.095  0.00  0.00     0.140 A 
ATOM     14  H32 ZIN A   1      19.962   2.194  13.345  0.00  0.00     0.160 HD
ATOM     15  C15 ZIN A   1      17.985   4.821  13.719  0.00  0.00     0.140 A 
ATOM     16  N13 ZIN A   1      17.426   3.670  14.446  0.00  0.00    -0.378 N 
ATOM     17  H14 ZIN A   1      16.604   3.676  14.961  0.00  0.00     0.160 HD
ENDBRANCH  10  11
TORSDOF 1
ENDMDL
MODEL 5
REMARK VINA RESULT:      -6.4      1.852      3.441
REMARK  1 active torsions:
REMARK  status: ('A' for Active; 'I' for Inactive)
REMARK    1  A    between atoms: C10_10  and  C12_11 
ROOT
ATOM      1  C1  ZIN A   1      18.628   0.261   6.412  0.00  0.00     0.001 A 
ATOM      2  C2  ZIN A   1      19.169  -0.907   6.918  0.00  0.00     0.001 A 
ATOM      3  C3  ZIN A   1      19.587  -0.955   8.231  0.00  0.00     0.008 A 
ATOM      4  C4  ZIN A   1      19.467   0.159   9.051  0.00  0.00    -0.041 A 
ATOM      5  C5  ZIN A   1      18.924   1.320   8.550  0.00  0.00    -0.051 A 
ATOM      6  C6  ZIN A   1      18.507   1.369   7.226  0.00  0.00     0.007 A 
ATOM      7  C7  ZIN A   1      18.749   2.561   9.386  0.00  0.00     0.039 C 
ATOM      8  C8  ZIN A   1      19.622   2.493  10.637  0.00  0.00     0.006 C 
ATOM      9  C9  ZIN A   1      19.363   1.154  11.337  0.00  0.00     0.017 C 
ATOM     10  C10 ZIN A   1      19.951   0.039  10.474  0.00  0.00     0.086 C 
ENDROOT
BRANCH  10  11
ATOM     11  C12 ZIN A   1      19.526  -1.296  11.031  0.00  0.00     0.081 A 
ATOM     12  N17 ZIN A   1      18.283  -1.559  11.359  0.00  0.00    -0.378 N 
ATOM     13  C16 ZIN A   1      18.196  -2.939  11.864  0.00  0.00     0.140 A 
ATOM     14  H32 ZIN A   1      17.539  -0.944  11.277  0.00  0.00     0.160 HD
ATOM     15  C15 ZIN A   1      19.654  -3.438  11.777  0.00  0.00     0.140 A 
ATOM     16  N13 ZIN A   1      20.374  -2.278  11.229  0.00  0.00    -0.378 N 
ATOM     17  H14 ZIN A   1      21.325  -2.244  11.043  0.00  0.00     0.160 HD
ENDBRANCH  10  11
TORSDOF 1
ENDMDL
MODEL 6
REMARK VINA RESULT:      -6.4      1.585      3.218
REMARK  1 active torsions:
REMARK  status: ('A' for Active; 'I' for Inactive)
REMARK    1  A    between atoms: C10_10  and  C12_11 
ROOT
ATOM      1  C1  ZIN A   1      18.476   2.765   9.571  0.00  0.00     0.001 A 
ATOM      2  C2  ZIN A   1      19.307   2.079   8.705  0.00  0.00     0.001 A 
ATOM      3  C3  ZIN A   1      19.388   0.705   8.778  0.00  0.00     0.008 A 
ATOM      4  C4  ZIN A   1      18.639   0.002   9.712  0.00  0.00    -0.041 A 
ATOM      5  C5  ZIN A   1      17.807   0.683  10.571  0.00  0.00    -0.051 A 
ATOM      6  C6  ZIN A   1      17.730   2.068  10.500  0.00  0.00     0.007 A 
ATOM      7  C7  ZIN A   1      16.954  -0.015  11.598  0.00  0.00     0.039 C 
ATOM      8  C8  ZIN A   1      17.460  -1.435  11.840  0.00  0.00     0.006 C 
ATOM      9  C9  ZIN A   1      17.609  -2.135  10.484  0.00  0.00     0.017 C 
ATOM     10  C10 ZIN A   1      18.781  -1.498   9.741  0.00  0.00     0.086 C 
ENDROOT
BRANCH  10  11
ATOM     11  C12 ZIN A   1      18.816  -2.020   8.327  0.00  0.00     0.081 A 
ATOM     12  N17 ZIN A   1      17.833  -1.823   7.480  0.00  0.00    -0.378 N 
ATOM     13  C16 ZIN A   1      18.170  -2.451   6.191  0.00  0.00     0.140 A 
ATOM     14  H32 ZIN A   1      17.017  -1.337   7.670  0.00  0.00     0.160 HD
ATOM     15  C15 ZIN A   1      19.558  -3.072   6.455  0.00  0.00     0.140 A 
ATOM     16  N13 ZIN A   1      19.827  -2.711   7.855  0.00  0.00    -0.378 N 
ATOM     17  H14 ZIN A   1      20.626  -2.946   8.352  0.00  0.00     0.160 HD
ENDBRANCH  10  11
TORSDOF 1
ENDMDL
MODEL 7
REMARK VINA RESULT:      -6.3      4.769      6.633
REMARK  1 active torsions:
REMARK  status: ('A' for Active; 'I' for Inactive)
REMARK    1  A    between atoms: C10_10  and  C12_11 
ROOT
ATOM      1  C1  ZIN A   1      18.515   3.214   9.762  0.00  0.00     0.001 A 
ATOM      2  C2  ZIN A   1      19.306   2.489  10.635  0.00  0.00     0.001 A 
ATOM      3  C3  ZIN A   1      19.258   2.758  11.986  0.00  0.00     0.008 A 
ATOM      4  C4  ZIN A   1      18.420   3.748  12.480  0.00  0.00    -0.041 A 
ATOM      5  C5  ZIN A   1      17.628   4.466  11.613  0.00  0.00    -0.051 A 
ATOM      6  C6  ZIN A   1      17.680   4.198  10.251  0.00  0.00     0.007 A 
ATOM      7  C7  ZIN A   1      16.683   5.543  12.080  0.00  0.00     0.039 C 
ATOM      8  C8  ZIN A   1      17.048   6.004  13.489  0.00  0.00     0.006 C 
ATOM      9  C9  ZIN A   1      17.174   4.767  14.386  0.00  0.00     0.017 C 
ATOM     10  C10 ZIN A   1      18.423   3.993  13.967  0.00  0.00     0.086 C 
ENDROOT
BRANCH  10  11
ATOM     11  C12 ZIN A   1      18.452   2.670  14.688  0.00  0.00     0.081 A 
ATOM     12  N17 ZIN A   1      19.461   2.300  15.441  0.00  0.00    -0.378 N 
ATOM     13  C16 ZIN A   1      19.185   0.968  16.003  0.00  0.00     0.140 A 
ATOM     14  H32 ZIN A   1      20.260   2.824  15.605  0.00  0.00     0.160 HD
ATOM     15  C15 ZIN A   1      17.801   0.618  15.416  0.00  0.00     0.140 A 
ATOM     16  N13 ZIN A   1      17.473   1.800  14.604  0.00  0.00    -0.378 N 
ATOM     17  H14 ZIN A   1      16.660   1.918  14.087  0.00  0.00     0.160 HD
ENDBRANCH  10  11
TORSDOF 1
ENDMDL
MODEL 8
REMARK VINA RESULT:      -6.3      5.456      7.824
REMARK  1 active torsions:
REMARK  status: ('A' for Active; 'I' for Inactive)
REMARK    1  A    between atoms: C10_10  and  C12_11 
ROOT
ATOM      1  C1  ZIN A   1      18.246   2.627  18.477  0.00  0.00     0.001 A 
ATOM      2  C2  ZIN A   1      19.001   3.191  17.466  0.00  0.00     0.001 A 
ATOM      3  C3  ZIN A   1      19.276   2.462  16.328  0.00  0.00     0.008 A 
ATOM      4  C4  ZIN A   1      18.799   1.166  16.188  0.00  0.00    -0.041 A 
ATOM      5  C5  ZIN A   1      18.042   0.606  17.191  0.00  0.00    -0.051 A 
ATOM      6  C6  ZIN A   1      17.770   1.339  18.339  0.00  0.00     0.007 A 
ATOM      7  C7  ZIN A   1      17.478  -0.789  17.100  0.00  0.00     0.039 C 
ATOM      8  C8  ZIN A   1      18.203  -1.592  16.022  0.00  0.00     0.006 C 
ATOM      9  C9  ZIN A   1      18.210  -0.770  14.728  0.00  0.00     0.017 C 
ATOM     10  C10 ZIN A   1      19.143   0.424  14.921  0.00  0.00     0.086 C 
ENDROOT
BRANCH  10  11
ATOM     11  C12 ZIN A   1      19.004   1.358  13.747  0.00  0.00     0.081 A 
ATOM     12  N17 ZIN A   1      17.851   1.870  13.386  0.00  0.00    -0.378 N 
ATOM     13  C16 ZIN A   1      18.050   2.738  12.213  0.00  0.00     0.140 A 
ATOM     14  H32 ZIN A   1      17.002   1.706  13.825  0.00  0.00     0.160 HD
ATOM     15  C15 ZIN A   1      19.566   2.626  11.947  0.00  0.00     0.140 A 
ATOM     16  N13 ZIN A   1      20.027   1.715  13.005  0.00  0.00    -0.378 N 
ATOM     17  H14 ZIN A   1      20.943   1.423  13.135  0.00  0.00     0.160 HD
ENDBRANCH  10  11
TORSDOF 1
ENDMDL
MODEL 9
REMARK VINA RESULT:      -6.2      3.159      4.923
REMARK  1 active torsions:
REMARK  status: ('A' for Active; 'I' for Inactive)
REMARK    1  A    between atoms: C10_10  and  C12_11 
ROOT
ATOM      1  C1  ZIN A   1      19.407   0.602   8.391  0.00  0.00     0.001 A 
ATOM      2  C2  ZIN A   1      19.966  -0.048   9.476  0.00  0.00     0.001 A 
ATOM      3  C3  ZIN A   1      19.920   0.538  10.724  0.00  0.00     0.008 A 
ATOM      4  C4  ZIN A   1      19.316   1.775  10.901  0.00  0.00    -0.041 A 
ATOM      5  C5  ZIN A   1      18.754   2.420   9.823  0.00  0.00    -0.051 A 
ATOM      6  C6  ZIN A   1      18.804   1.831   8.566  0.00  0.00     0.007 A 
ATOM      7  C7  ZIN A   1      18.068   3.756   9.945  0.00  0.00     0.039 C 
ATOM      8  C8  ZIN A   1      18.467   4.448  11.246  0.00  0.00     0.006 C 
ATOM      9  C9  ZIN A   1      18.258   3.463  12.402  0.00  0.00     0.017 C 
ATOM     10  C10 ZIN A   1      19.309   2.360  12.290  0.00  0.00     0.086 C 
ENDROOT
BRANCH  10  11
ATOM     11  C12 ZIN A   1      18.994   1.272  13.285  0.00  0.00     0.081 A 
ATOM     12  N17 ZIN A   1      19.901   0.771  14.091  0.00  0.00    -0.378 N 
ATOM     13  C16 ZIN A   1      19.281  -0.263  14.936  0.00  0.00     0.140 A 
ATOM     14  H32 ZIN A   1      20.831   1.043  14.127  0.00  0.00     0.160 HD
ATOM     15  C15 ZIN A   1      17.815  -0.279  14.454  0.00  0.00     0.140 A 
ATOM     16  N13 ZIN A   1      17.795   0.751  13.405  0.00  0.00    -0.378 N 
ATOM     17  H14 ZIN A   1      17.019   1.006  12.882  0.00  0.00     0.160 HD
ENDBRANCH  10  11
TORSDOF 1
ENDMDL
