MODEL 1
REMARK VINA RESULT:      -8.0      0.000      0.000
REMARK  10 active torsions:
REMARK  status: ('A' for Active; 'I' for Inactive)
REMARK    1  A    between atoms: C2_2  and  O3_3 
REMARK    2  A    between atoms: O3_3  and  C4_4 
REMARK    3  A    between atoms: C4_4  and  C6_6 
REMARK    4  A    between atoms: C6_6  and  C8_7 
REMARK    5  A    between atoms: C6_6  and  N16_15 
REMARK    6  A    between atoms: C8_7  and  C9_8 
REMARK    7  A    between atoms: C9_8  and  C10_9 
REMARK    8  A    between atoms: N16_15  and  C17_16 
REMARK    9  A    between atoms: C17_16  and  C20_18 
REMARK       I    between atoms: C20_18  and  N22_20 
REMARK   10  A    between atoms: C23_21  and  C25_22 
ROOT
ATOM      1  N16 ZIN A   1      17.271   2.371  11.252  0.00  0.00     0.111 N 
ATOM      2  H50 ZIN A   1      16.533   2.820  11.773  0.00  0.00     0.318 HD
ENDROOT
BRANCH   1   3
ATOM      3  C6  ZIN A   1      18.249   3.354  10.770  0.00  0.00     0.320 C 
BRANCH   3   4
ATOM      4  C4  ZIN A   1      17.790   4.742  11.138  0.00  0.00     0.292 C 
ATOM      5  O5  ZIN A   1      17.330   5.470  10.291  0.00  0.00    -0.263 OA
BRANCH   4   6
ATOM      6  O3  ZIN A   1      17.893   5.169  12.407  0.00  0.00    -0.320 OA
BRANCH   6   7
ATOM      7  C2  ZIN A   1      16.655   5.420  13.121  0.00  0.00     0.174 C 
ATOM      8  C1  ZIN A   1      16.855   5.123  14.608  0.00  0.00     0.034 C 
ENDBRANCH   6   7
ENDBRANCH   4   6
ENDBRANCH   3   4
BRANCH   3   9
ATOM      9  C8  ZIN A   1      18.374   3.245   9.249  0.00  0.00     0.051 C 
BRANCH   9  10
ATOM     10  C9  ZIN A   1      19.337   2.110   8.896  0.00  0.00     0.041 C 
BRANCH  10  11
ATOM     11  C10 ZIN A   1      18.711   1.226   7.849  0.00  0.00    -0.058 A 
ATOM     12  C15 ZIN A   1      19.157   1.280   6.542  0.00  0.00     0.007 A 
ATOM     13  C14 ZIN A   1      18.585   0.467   5.582  0.00  0.00     0.001 A 
ATOM     14  C13 ZIN A   1      17.560  -0.395   5.927  0.00  0.00     0.000 A 
ATOM     15  C12 ZIN A   1      17.111  -0.445   7.233  0.00  0.00     0.001 A 
ATOM     16  C11 ZIN A   1      17.685   0.364   8.195  0.00  0.00     0.007 A 
ENDBRANCH  10  11
ENDBRANCH   9  10
ENDBRANCH   3   9
ENDBRANCH   1   3
BRANCH   1  17
ATOM     17  C17 ZIN A   1      17.924   1.330  12.058  0.00  0.00     0.308 C 
ATOM     18  C19 ZIN A   1      17.755   1.653  13.543  0.00  0.00     0.053 C 
BRANCH  17  19
ATOM     19  C20 ZIN A   1      17.294  -0.006  11.760  0.00  0.00     0.254 C 
ATOM     20  O21 ZIN A   1      16.140  -0.063  11.389  0.00  0.00    -0.271 OA
ATOM     21  N22 ZIN A   1      18.011  -1.137  11.904  0.00  0.00    -0.330 N 
ATOM     22  C34 ZIN A   1      17.541  -2.481  11.573  0.00  0.00     0.092 C 
ATOM     23  C23 ZIN A   1      19.381  -1.210  12.424  0.00  0.00     0.189 C 
ATOM     24  C29 ZIN A   1      18.515  -3.485  12.223  0.00  0.00     0.011 C 
ATOM     25  C33 ZIN A   1      17.603  -2.742  10.043  0.00  0.00     0.026 C 
ATOM     26  C28 ZIN A   1      19.822  -2.680  12.387  0.00  0.00     0.043 C 
ATOM     27  C31 ZIN A   1      18.761  -4.588  11.173  0.00  0.00     0.007 C 
ATOM     28  C32 ZIN A   1      18.603  -3.886   9.812  0.00  0.00     0.002 C 
BRANCH  23  29
ATOM     29  C25 ZIN A   1      20.296  -0.379  11.562  0.00  0.00     0.197 C 
ATOM     30  O26 ZIN A   1      20.425  -0.643  10.378  0.00  0.00    -0.646 OA
ATOM     31  O27 ZIN A   1      20.910   0.556  12.047  0.00  0.00    -0.646 OA
ENDBRANCH  23  29
ENDBRANCH  17  19
ENDBRANCH   1  17
TORSDOF 10
ENDMDL
MODEL 2
REMARK VINA RESULT:      -7.8      2.091      6.246
REMARK  10 active torsions:
REMARK  status: ('A' for Active; 'I' for Inactive)
REMARK    1  A    between atoms: C2_2  and  O3_3 
REMARK    2  A    between atoms: O3_3  and  C4_4 
REMARK    3  A    between atoms: C4_4  and  C6_6 
REMARK    4  A    between atoms: C6_6  and  C8_7 
REMARK    5  A    between atoms: C6_6  and  N16_15 
REMARK    6  A    between atoms: C8_7  and  C9_8 
REMARK    7  A    between atoms: C9_8  and  C10_9 
REMARK    8  A    between atoms: N16_15  and  C17_16 
REMARK    9  A    between atoms: C17_16  and  C20_18 
REMARK       I    between atoms: C20_18  and  N22_20 
REMARK   10  A    between atoms: C23_21  and  C25_22 
ROOT
ATOM      1  N16 ZIN A   1      19.698  -2.834   9.828  0.00  0.00     0.111 N 
ATOM      2  H50 ZIN A   1      20.497  -3.413  10.038  0.00  0.00     0.318 HD
ENDROOT
BRANCH   1   3
ATOM      3  C6  ZIN A   1      18.551  -3.649   9.410  0.00  0.00     0.320 C 
BRANCH   3   4
ATOM      4  C4  ZIN A   1      18.862  -5.107   9.637  0.00  0.00     0.292 C 
ATOM      5  O5  ZIN A   1      20.007  -5.492   9.609  0.00  0.00    -0.263 OA
BRANCH   4   6
ATOM      6  O3  ZIN A   1      17.866  -5.977   9.868  0.00  0.00    -0.320 OA
BRANCH   6   7
ATOM      7  C2  ZIN A   1      16.821  -5.555  10.783  0.00  0.00     0.174 C 
ATOM      8  C1  ZIN A   1      17.392  -5.458  12.199  0.00  0.00     0.034 C 
ENDBRANCH   6   7
ENDBRANCH   4   6
ENDBRANCH   3   4
BRANCH   3   9
ATOM      9  C8  ZIN A   1      18.272  -3.413   7.924  0.00  0.00     0.051 C 
BRANCH   9  10
ATOM     10  C9  ZIN A   1      19.535  -2.877   7.247  0.00  0.00     0.041 C 
BRANCH  10  11
ATOM     11  C10 ZIN A   1      19.204  -1.613   6.495  0.00  0.00    -0.058 A 
ATOM     12  C15 ZIN A   1      19.174  -1.620   5.112  0.00  0.00     0.007 A 
ATOM     13  C14 ZIN A   1      18.868  -0.462   4.422  0.00  0.00     0.001 A 
ATOM     14  C13 ZIN A   1      18.600   0.705   5.113  0.00  0.00     0.000 A 
ATOM     15  C12 ZIN A   1      18.636   0.712   6.495  0.00  0.00     0.001 A 
ATOM     16  C11 ZIN A   1      18.938  -0.446   7.186  0.00  0.00     0.007 A 
ENDBRANCH  10  11
ENDBRANCH   9  10
ENDBRANCH   3   9
ENDBRANCH   1   3
BRANCH   1  17
ATOM     17  C17 ZIN A   1      19.350  -1.983  10.974  0.00  0.00     0.308 C 
ATOM     18  C19 ZIN A   1      19.946  -2.578  12.251  0.00  0.00     0.053 C 
BRANCH  17  19
ATOM     19  C20 ZIN A   1      19.903  -0.598  10.760  0.00  0.00     0.254 C 
ATOM     20  O21 ZIN A   1      20.883  -0.439  10.062  0.00  0.00    -0.271 OA
ATOM     21  N22 ZIN A   1      19.311   0.463  11.342  0.00  0.00    -0.330 N 
ATOM     22  C34 ZIN A   1      19.703   1.858  11.149  0.00  0.00     0.092 C 
ATOM     23  C23 ZIN A   1      18.179   0.394  12.271  0.00  0.00     0.189 C 
ATOM     24  C29 ZIN A   1      19.022   2.687  12.256  0.00  0.00     0.011 C 
ATOM     25  C33 ZIN A   1      19.172   2.413   9.798  0.00  0.00     0.026 C 
ATOM     26  C28 ZIN A   1      17.804   1.831  12.664  0.00  0.00     0.043 C 
ATOM     27  C31 ZIN A   1      18.499   3.968  11.575  0.00  0.00     0.007 C 
ATOM     28  C32 ZIN A   1      18.193   3.553  10.124  0.00  0.00     0.002 C 
BRANCH  23  29
ATOM     29  C25 ZIN A   1      17.008  -0.274  11.598  0.00  0.00     0.197 C 
ATOM     30  O26 ZIN A   1      16.630  -1.370  11.979  0.00  0.00    -0.646 OA
ATOM     31  O27 ZIN A   1      16.438   0.279  10.673  0.00  0.00    -0.646 OA
ENDBRANCH  23  29
ENDBRANCH  17  19
ENDBRANCH   1  17
TORSDOF 10
ENDMDL
MODEL 3
REMARK VINA RESULT:      -7.8      2.327      5.321
REMARK  10 active torsions:
REMARK  status: ('A' for Active; 'I' for Inactive)
REMARK    1  A    between atoms: C2_2  and  O3_3 
REMARK    2  A    between atoms: O3_3  and  C4_4 
REMARK    3  A    between atoms: C4_4  and  C6_6 
REMARK    4  A    between atoms: C6_6  and  C8_7 
REMARK    5  A    between atoms: C6_6  and  N16_15 
REMARK    6  A    between atoms: C8_7  and  C9_8 
REMARK    7  A    between atoms: C9_8  and  C10_9 
REMARK    8  A    between atoms: N16_15  and  C17_16 
REMARK    9  A    between atoms: C17_16  and  C20_18 
REMARK       I    between atoms: C20_18  and  N22_20 
REMARK   10  A    between atoms: C23_21  and  C25_22 
ROOT
ATOM      1  N16 ZIN A   1      20.257   0.900  13.387  0.00  0.00     0.111 N 
ATOM      2  H50 ZIN A   1      20.750   1.574  13.952  0.00  0.00     0.318 HD
ENDROOT
BRANCH   1   3
ATOM      3  C6  ZIN A   1      19.103   0.351  14.111  0.00  0.00     0.320 C 
BRANCH   3   4
ATOM      4  C4  ZIN A   1      19.184   0.749  15.562  0.00  0.00     0.292 C 
ATOM      5  O5  ZIN A   1      19.239   1.918  15.866  0.00  0.00    -0.263 OA
BRANCH   4   6
ATOM      6  O3  ZIN A   1      19.198  -0.194  16.518  0.00  0.00    -0.320 OA
BRANCH   6   7
ATOM      7  C2  ZIN A   1      18.148  -0.134  17.518  0.00  0.00     0.174 C 
ATOM      8  C1  ZIN A   1      16.824  -0.582  16.894  0.00  0.00     0.034 C 
ENDBRANCH   6   7
ENDBRANCH   4   6
ENDBRANCH   3   4
BRANCH   3   9
ATOM      9  C8  ZIN A   1      19.110  -1.175  14.000  0.00  0.00     0.051 C 
BRANCH   9  10
ATOM     10  C9  ZIN A   1      17.939  -1.627  13.124  0.00  0.00     0.041 C 
BRANCH  10  11
ATOM     11  C10 ZIN A   1      18.372  -2.788  12.266  0.00  0.00    -0.058 A 
ATOM     12  C15 ZIN A   1      19.715  -3.095  12.145  0.00  0.00     0.007 A 
ATOM     13  C14 ZIN A   1      20.111  -4.163  11.361  0.00  0.00     0.001 A 
ATOM     14  C13 ZIN A   1      19.166  -4.917  10.691  0.00  0.00     0.000 A 
ATOM     15  C12 ZIN A   1      17.825  -4.606  10.808  0.00  0.00     0.001 A 
ATOM     16  C11 ZIN A   1      17.427  -3.542  11.595  0.00  0.00     0.007 A 
ENDBRANCH  10  11
ENDBRANCH   9  10
ENDBRANCH   3   9
ENDBRANCH   1   3
BRANCH   1  17
ATOM     17  C17 ZIN A   1      19.843   1.488  12.106  0.00  0.00     0.308 C 
ATOM     18  C19 ZIN A   1      20.540   2.837  11.916  0.00  0.00     0.053 C 
BRANCH  17  19
ATOM     19  C20 ZIN A   1      20.227   0.562  10.981  0.00  0.00     0.254 C 
ATOM     20  O21 ZIN A   1      21.123  -0.241  11.135  0.00  0.00    -0.271 OA
ATOM     21  N22 ZIN A   1      19.574   0.626   9.804  0.00  0.00    -0.330 N 
ATOM     22  C34 ZIN A   1      19.797  -0.267   8.667  0.00  0.00     0.092 C 
ATOM     23  C23 ZIN A   1      18.536   1.604   9.464  0.00  0.00     0.189 C 
ATOM     24  C29 ZIN A   1      19.125   0.374   7.437  0.00  0.00     0.011 C 
ATOM     25  C33 ZIN A   1      19.100  -1.639   8.880  0.00  0.00     0.026 C 
ATOM     26  C28 ZIN A   1      18.043   1.294   8.043  0.00  0.00     0.043 C 
ATOM     27  C31 ZIN A   1      18.413  -0.771   6.689  0.00  0.00     0.007 C 
ATOM     28  C32 ZIN A   1      18.036  -1.788   7.781  0.00  0.00     0.002 C 
BRANCH  23  29
ATOM     29  C25 ZIN A   1      17.392   1.491  10.438  0.00  0.00     0.197 C 
ATOM     30  O26 ZIN A   1      16.784   0.439  10.546  0.00  0.00    -0.646 OA
ATOM     31  O27 ZIN A   1      17.072   2.451  11.118  0.00  0.00    -0.646 OA
ENDBRANCH  23  29
ENDBRANCH  17  19
ENDBRANCH   1  17
TORSDOF 10
ENDMDL
MODEL 4
REMARK VINA RESULT:      -7.6      1.999      6.056
REMARK  10 active torsions:
REMARK  status: ('A' for Active; 'I' for Inactive)
REMARK    1  A    between atoms: C2_2  and  O3_3 
REMARK    2  A    between atoms: O3_3  and  C4_4 
REMARK    3  A    between atoms: C4_4  and  C6_6 
REMARK    4  A    between atoms: C6_6  and  C8_7 
REMARK    5  A    between atoms: C6_6  and  N16_15 
REMARK    6  A    between atoms: C8_7  and  C9_8 
REMARK    7  A    between atoms: C9_8  and  C10_9 
REMARK    8  A    between atoms: N16_15  and  C17_16 
REMARK    9  A    between atoms: C17_16  and  C20_18 
REMARK       I    between atoms: C20_18  and  N22_20 
REMARK   10  A    between atoms: C23_21  and  C25_22 
ROOT
ATOM      1  N16 ZIN A   1      19.863  -2.431  11.772  0.00  0.00     0.111 N 
ATOM      2  H50 ZIN A   1      20.087  -3.175  12.416  0.00  0.00     0.318 HD
ENDROOT
BRANCH   1   3
ATOM      3  C6  ZIN A   1      18.935  -2.895  10.734  0.00  0.00     0.320 C 
BRANCH   3   4
ATOM      4  C4  ZIN A   1      19.017  -4.396  10.621  0.00  0.00     0.292 C 
ATOM      5  O5  ZIN A   1      19.876  -4.905   9.941  0.00  0.00    -0.263 OA
BRANCH   4   6
ATOM      6  O3  ZIN A   1      18.134  -5.168  11.276  0.00  0.00    -0.320 OA
BRANCH   6   7
ATOM      7  C2  ZIN A   1      16.728  -4.848  11.109  0.00  0.00     0.174 C 
ATOM      8  C1  ZIN A   1      16.250  -5.349   9.745  0.00  0.00     0.034 C 
ENDBRANCH   6   7
ENDBRANCH   4   6
ENDBRANCH   3   4
BRANCH   3   9
ATOM      9  C8  ZIN A   1      19.312  -2.262   9.392  0.00  0.00     0.051 C 
BRANCH   9  10
ATOM     10  C9  ZIN A   1      18.094  -2.272   8.465  0.00  0.00     0.041 C 
BRANCH  10  11
ATOM     11  C10 ZIN A   1      18.384  -1.433   7.247  0.00  0.00    -0.058 A 
ATOM     12  C15 ZIN A   1      17.960  -0.118   7.196  0.00  0.00     0.007 A 
ATOM     13  C14 ZIN A   1      18.229   0.652   6.080  0.00  0.00     0.001 A 
ATOM     14  C13 ZIN A   1      18.913   0.105   5.011  0.00  0.00     0.000 A 
ATOM     15  C12 ZIN A   1      19.332  -1.211   5.060  0.00  0.00     0.001 A 
ATOM     16  C11 ZIN A   1      19.068  -1.981   6.177  0.00  0.00     0.007 A 
ENDBRANCH  10  11
ENDBRANCH   9  10
ENDBRANCH   3   9
ENDBRANCH   1   3
BRANCH   1  17
ATOM     17  C17 ZIN A   1      19.319  -1.266  12.482  0.00  0.00     0.308 C 
ATOM     18  C19 ZIN A   1      19.691  -1.352  13.964  0.00  0.00     0.053 C 
BRANCH  17  19
ATOM     19  C20 ZIN A   1      19.893  -0.004  11.893  0.00  0.00     0.254 C 
ATOM     20  O21 ZIN A   1      21.047   0.019  11.516  0.00  0.00    -0.271 OA
ATOM     21  N22 ZIN A   1      19.127   1.099  11.783  0.00  0.00    -0.330 N 
ATOM     22  C34 ZIN A   1      19.541   2.354  11.159  0.00  0.00     0.092 C 
ATOM     23  C23 ZIN A   1      17.752   1.225  12.277  0.00  0.00     0.189 C 
ATOM     24  C29 ZIN A   1      18.521   3.435  11.571  0.00  0.00     0.011 C 
ATOM     25  C33 ZIN A   1      19.480   2.264   9.610  0.00  0.00     0.026 C 
ATOM     26  C28 ZIN A   1      17.248   2.630  11.914  0.00  0.00     0.043 C 
ATOM     27  C31 ZIN A   1      18.235   4.263  10.303  0.00  0.00     0.007 C 
ATOM     28  C32 ZIN A   1      18.433   3.284   9.132  0.00  0.00     0.002 C 
BRANCH  23  29
ATOM     29  C25 ZIN A   1      16.879   0.185  11.624  0.00  0.00     0.197 C 
ATOM     30  O26 ZIN A   1      16.425  -0.733  12.287  0.00  0.00    -0.646 OA
ATOM     31  O27 ZIN A   1      16.627   0.259  10.433  0.00  0.00    -0.646 OA
ENDBRANCH  23  29
ENDBRANCH  17  19
ENDBRANCH   1  17
TORSDOF 10
ENDMDL
MODEL 5
REMARK VINA RESULT:      -7.6      2.077      3.356
REMARK  10 active torsions:
REMARK  status: ('A' for Active; 'I' for Inactive)
REMARK    1  A    between atoms: C2_2  and  O3_3 
REMARK    2  A    between atoms: O3_3  and  C4_4 
REMARK    3  A    between atoms: C4_4  and  C6_6 
REMARK    4  A    between atoms: C6_6  and  C8_7 
REMARK    5  A    between atoms: C6_6  and  N16_15 
REMARK    6  A    between atoms: C8_7  and  C9_8 
REMARK    7  A    between atoms: C9_8  and  C10_9 
REMARK    8  A    between atoms: N16_15  and  C17_16 
REMARK    9  A    between atoms: C17_16  and  C20_18 
REMARK       I    between atoms: C20_18  and  N22_20 
REMARK   10  A    between atoms: C23_21  and  C25_22 
ROOT
ATOM      1  N16 ZIN A   1      18.427   2.168  11.296  0.00  0.00     0.111 N 
ATOM      2  H50 ZIN A   1      17.635   2.362  11.889  0.00  0.00     0.318 HD
ENDROOT
BRANCH   1   3
ATOM      3  C6  ZIN A   1      18.593   3.217  10.281  0.00  0.00     0.320 C 
BRANCH   3   4
ATOM      4  C4  ZIN A   1      17.504   4.246  10.438  0.00  0.00     0.292 C 
ATOM      5  O5  ZIN A   1      17.442   5.182   9.676  0.00  0.00    -0.263 OA
BRANCH   4   6
ATOM      6  O3  ZIN A   1      16.602   4.125  11.427  0.00  0.00    -0.320 OA
BRANCH   6   7
ATOM      7  C2  ZIN A   1      16.331   5.309  12.220  0.00  0.00     0.174 C 
ATOM      8  C1  ZIN A   1      17.542   5.622  13.100  0.00  0.00     0.034 C 
ENDBRANCH   6   7
ENDBRANCH   4   6
ENDBRANCH   3   4
BRANCH   3   9
ATOM      9  C8  ZIN A   1      18.509   2.594   8.886  0.00  0.00     0.051 C 
BRANCH   9  10
ATOM     10  C9  ZIN A   1      18.380   1.075   9.013  0.00  0.00     0.041 C 
BRANCH  10  11
ATOM     11  C10 ZIN A   1      18.716   0.429   7.693  0.00  0.00    -0.058 A 
ATOM     12  C15 ZIN A   1      18.829  -0.946   7.605  0.00  0.00     0.007 A 
ATOM     13  C14 ZIN A   1      19.134  -1.538   6.394  0.00  0.00     0.001 A 
ATOM     14  C13 ZIN A   1      19.335  -0.755   5.272  0.00  0.00     0.000 A 
ATOM     15  C12 ZIN A   1      19.227   0.620   5.362  0.00  0.00     0.001 A 
ATOM     16  C11 ZIN A   1      18.918   1.213   6.572  0.00  0.00     0.007 A 
ENDBRANCH  10  11
ENDBRANCH   9  10
ENDBRANCH   3   9
ENDBRANCH   1   3
BRANCH   1  17
ATOM     17  C17 ZIN A   1      19.652   2.005  12.090  0.00  0.00     0.308 C 
ATOM     18  C19 ZIN A   1      20.609   3.162  11.794  0.00  0.00     0.053 C 
BRANCH  17  19
ATOM     19  C20 ZIN A   1      19.304   2.004  13.556  0.00  0.00     0.254 C 
ATOM     20  O21 ZIN A   1      19.050   3.048  14.120  0.00  0.00    -0.271 OA
ATOM     21  N22 ZIN A   1      19.274   0.844  14.241  0.00  0.00    -0.330 N 
ATOM     22  C34 ZIN A   1      18.876   0.701  15.640  0.00  0.00     0.092 C 
ATOM     23  C23 ZIN A   1      19.643  -0.468  13.698  0.00  0.00     0.189 C 
ATOM     24  C29 ZIN A   1      19.332  -0.694  16.111  0.00  0.00     0.011 C 
ATOM     25  C33 ZIN A   1      17.331   0.731  15.795  0.00  0.00     0.026 C 
ATOM     26  C28 ZIN A   1      19.432  -1.512  14.805  0.00  0.00     0.043 C 
ATOM     27  C31 ZIN A   1      18.170  -1.268  16.946  0.00  0.00     0.007 C 
ATOM     28  C32 ZIN A   1      16.899  -0.636  16.351  0.00  0.00     0.002 C 
BRANCH  23  29
ATOM     29  C25 ZIN A   1      18.768  -0.793  12.515  0.00  0.00     0.197 C 
ATOM     30  O26 ZIN A   1      17.554  -0.722  12.616  0.00  0.00    -0.646 OA
ATOM     31  O27 ZIN A   1      19.272  -1.128  11.457  0.00  0.00    -0.646 OA
ENDBRANCH  23  29
ENDBRANCH  17  19
ENDBRANCH   1  17
TORSDOF 10
ENDMDL
MODEL 6
REMARK VINA RESULT:      -7.4      1.962      6.197
REMARK  10 active torsions:
REMARK  status: ('A' for Active; 'I' for Inactive)
REMARK    1  A    between atoms: C2_2  and  O3_3 
REMARK    2  A    between atoms: O3_3  and  C4_4 
REMARK    3  A    between atoms: C4_4  and  C6_6 
REMARK    4  A    between atoms: C6_6  and  C8_7 
REMARK    5  A    between atoms: C6_6  and  N16_15 
REMARK    6  A    between atoms: C8_7  and  C9_8 
REMARK    7  A    between atoms: C9_8  and  C10_9 
REMARK    8  A    between atoms: N16_15  and  C17_16 
REMARK    9  A    between atoms: C17_16  and  C20_18 
REMARK       I    between atoms: C20_18  and  N22_20 
REMARK   10  A    between atoms: C23_21  and  C25_22 
ROOT
ATOM      1  N16 ZIN A   1      18.940  -0.587  11.852  0.00  0.00     0.111 N 
ATOM      2  H50 ZIN A   1      18.872  -0.901  12.808  0.00  0.00     0.318 HD
ENDROOT
BRANCH   1   3
ATOM      3  C6  ZIN A   1      18.717  -1.697  10.917  0.00  0.00     0.320 C 
BRANCH   3   4
ATOM      4  C4  ZIN A   1      19.089  -2.997  11.582  0.00  0.00     0.292 C 
ATOM      5  O5  ZIN A   1      20.238  -3.370  11.580  0.00  0.00    -0.263 OA
BRANCH   4   6
ATOM      6  O3  ZIN A   1      18.142  -3.743  12.176  0.00  0.00    -0.320 OA
BRANCH   6   7
ATOM      7  C2  ZIN A   1      17.094  -4.276  11.326  0.00  0.00     0.174 C 
ATOM      8  C1  ZIN A   1      17.595  -5.545  10.635  0.00  0.00     0.034 C 
ENDBRANCH   6   7
ENDBRANCH   4   6
ENDBRANCH   3   4
BRANCH   3   9
ATOM      9  C8  ZIN A   1      19.583  -1.496   9.671  0.00  0.00     0.051 C 
BRANCH   9  10
ATOM     10  C9  ZIN A   1      18.914  -2.172   8.472  0.00  0.00     0.041 C 
BRANCH  10  11
ATOM     11  C10 ZIN A   1      19.002  -1.266   7.271  0.00  0.00    -0.058 A 
ATOM     12  C15 ZIN A   1      18.840   0.099   7.421  0.00  0.00     0.007 A 
ATOM     13  C14 ZIN A   1      18.924   0.930   6.320  0.00  0.00     0.001 A 
ATOM     14  C13 ZIN A   1      19.162   0.396   5.067  0.00  0.00     0.000 A 
ATOM     15  C12 ZIN A   1      19.318  -0.969   4.917  0.00  0.00     0.001 A 
ATOM     16  C11 ZIN A   1      19.239  -1.801   6.018  0.00  0.00     0.007 A 
ENDBRANCH  10  11
ENDBRANCH   9  10
ENDBRANCH   3   9
ENDBRANCH   1   3
BRANCH   1  17
ATOM     17  C17 ZIN A   1      18.005   0.516  11.593  0.00  0.00     0.308 C 
ATOM     18  C19 ZIN A   1      16.648  -0.053  11.173  0.00  0.00     0.053 C 
BRANCH  17  19
ATOM     19  C20 ZIN A   1      17.838   1.339  12.844  0.00  0.00     0.254 C 
ATOM     20  O21 ZIN A   1      17.806   0.794  13.928  0.00  0.00    -0.271 OA
ATOM     21  N22 ZIN A   1      17.726   2.679  12.760  0.00  0.00    -0.330 N 
ATOM     22  C34 ZIN A   1      17.640   3.590  13.900  0.00  0.00     0.092 C 
ATOM     23  C23 ZIN A   1      17.665   3.445  11.512  0.00  0.00     0.189 C 
ATOM     24  C29 ZIN A   1      17.162   4.956  13.366  0.00  0.00     0.011 C 
ATOM     25  C33 ZIN A   1      19.036   3.835  14.536  0.00  0.00     0.026 C 
ATOM     26  C28 ZIN A   1      17.572   4.934  11.877  0.00  0.00     0.043 C 
ATOM     27  C31 ZIN A   1      18.016   6.021  14.081  0.00  0.00     0.007 C 
ATOM     28  C32 ZIN A   1      19.360   5.328  14.370  0.00  0.00     0.002 C 
BRANCH  23  29
ATOM     29  C25 ZIN A   1      18.909   3.195  10.699  0.00  0.00     0.197 C 
ATOM     30  O26 ZIN A   1      18.818   2.905   9.518  0.00  0.00    -0.646 OA
ATOM     31  O27 ZIN A   1      20.007   3.282  11.222  0.00  0.00    -0.646 OA
ENDBRANCH  23  29
ENDBRANCH  17  19
ENDBRANCH   1  17
TORSDOF 10
ENDMDL
MODEL 7
REMARK VINA RESULT:      -7.3      2.228      6.824
REMARK  10 active torsions:
REMARK  status: ('A' for Active; 'I' for Inactive)
REMARK    1  A    between atoms: C2_2  and  O3_3 
REMARK    2  A    between atoms: O3_3  and  C4_4 
REMARK    3  A    between atoms: C4_4  and  C6_6 
REMARK    4  A    between atoms: C6_6  and  C8_7 
REMARK    5  A    between atoms: C6_6  and  N16_15 
REMARK    6  A    between atoms: C8_7  and  C9_8 
REMARK    7  A    between atoms: C9_8  and  C10_9 
REMARK    8  A    between atoms: N16_15  and  C17_16 
REMARK    9  A    between atoms: C17_16  and  C20_18 
REMARK       I    between atoms: C20_18  and  N22_20 
REMARK   10  A    between atoms: C23_21  and  C25_22 
ROOT
ATOM      1  N16 ZIN A   1      18.165  -0.372   8.407  0.00  0.00     0.111 N 
ATOM      2  H50 ZIN A   1      17.905   0.413   7.830  0.00  0.00     0.318 HD
ENDROOT
BRANCH   1   3
ATOM      3  C6  ZIN A   1      18.919  -1.367   7.633  0.00  0.00     0.320 C 
BRANCH   3   4
ATOM      4  C4  ZIN A   1      19.006  -0.924   6.195  0.00  0.00     0.292 C 
ATOM      5  O5  ZIN A   1      19.269   0.225   5.931  0.00  0.00    -0.263 OA
BRANCH   4   6
ATOM      6  O3  ZIN A   1      18.789  -1.807   5.206  0.00  0.00    -0.320 OA
BRANCH   6   7
ATOM      7  C2  ZIN A   1      17.690  -1.526   4.301  0.00  0.00     0.174 C 
ATOM      8  C1  ZIN A   1      16.989  -2.834   3.930  0.00  0.00     0.034 C 
ENDBRANCH   6   7
ENDBRANCH   4   6
ENDBRANCH   3   4
BRANCH   3   9
ATOM      9  C8  ZIN A   1      18.205  -2.719   7.708  0.00  0.00     0.051 C 
BRANCH   9  10
ATOM     10  C9  ZIN A   1      19.136  -3.751   8.348  0.00  0.00     0.041 C 
BRANCH  10  11
ATOM     11  C10 ZIN A   1      18.514  -4.269   9.620  0.00  0.00    -0.058 A 
ATOM     12  C15 ZIN A   1      17.907  -5.511   9.636  0.00  0.00     0.007 A 
ATOM     13  C14 ZIN A   1      17.340  -5.987  10.803  0.00  0.00     0.001 A 
ATOM     14  C13 ZIN A   1      17.371  -5.218  11.952  0.00  0.00     0.000 A 
ATOM     15  C12 ZIN A   1      17.974  -3.974  11.933  0.00  0.00     0.001 A 
ATOM     16  C11 ZIN A   1      18.545  -3.499  10.768  0.00  0.00     0.007 A 
ENDBRANCH  10  11
ENDBRANCH   9  10
ENDBRANCH   3   9
ENDBRANCH   1   3
BRANCH   1  17
ATOM     17  C17 ZIN A   1      18.929   0.069   9.582  0.00  0.00     0.308 C 
ATOM     18  C19 ZIN A   1      20.362  -0.459   9.487  0.00  0.00     0.053 C 
BRANCH  17  19
ATOM     19  C20 ZIN A   1      18.951   1.575   9.632  0.00  0.00     0.254 C 
ATOM     20  O21 ZIN A   1      19.069   2.213   8.607  0.00  0.00    -0.271 OA
ATOM     21  N22 ZIN A   1      18.838   2.212  10.813  0.00  0.00    -0.330 N 
ATOM     22  C34 ZIN A   1      18.766   3.662  10.985  0.00  0.00     0.092 C 
ATOM     23  C23 ZIN A   1      18.775   1.558  12.124  0.00  0.00     0.189 C 
ATOM     24  C29 ZIN A   1      19.011   3.964  12.477  0.00  0.00     0.011 C 
ATOM     25  C33 ZIN A   1      17.346   4.201  10.658  0.00  0.00     0.026 C 
ATOM     26  C28 ZIN A   1      18.617   2.652  13.190  0.00  0.00     0.043 C 
ATOM     27  C31 ZIN A   1      17.988   5.048  12.871  0.00  0.00     0.007 C 
ATOM     28  C32 ZIN A   1      16.777   4.809  11.951  0.00  0.00     0.002 C 
BRANCH  23  29
ATOM     29  C25 ZIN A   1      17.593   0.624  12.171  0.00  0.00     0.197 C 
ATOM     30  O26 ZIN A   1      16.536   0.953  11.659  0.00  0.00    -0.646 OA
ATOM     31  O27 ZIN A   1      17.693  -0.460  12.720  0.00  0.00    -0.646 OA
ENDBRANCH  23  29
ENDBRANCH  17  19
ENDBRANCH   1  17
TORSDOF 10
ENDMDL
MODEL 8
REMARK VINA RESULT:      -7.3      2.871      6.165
REMARK  10 active torsions:
REMARK  status: ('A' for Active; 'I' for Inactive)
REMARK    1  A    between atoms: C2_2  and  O3_3 
REMARK    2  A    between atoms: O3_3  and  C4_4 
REMARK    3  A    between atoms: C4_4  and  C6_6 
REMARK    4  A    between atoms: C6_6  and  C8_7 
REMARK    5  A    between atoms: C6_6  and  N16_15 
REMARK    6  A    between atoms: C8_7  and  C9_8 
REMARK    7  A    between atoms: C9_8  and  C10_9 
REMARK    8  A    between atoms: N16_15  and  C17_16 
REMARK    9  A    between atoms: C17_16  and  C20_18 
REMARK       I    between atoms: C20_18  and  N22_20 
REMARK   10  A    between atoms: C23_21  and  C25_22 
ROOT
ATOM      1  N16 ZIN A   1      19.271  -1.110  11.194  0.00  0.00     0.111 N 
ATOM      2  H50 ZIN A   1      19.783  -0.570  10.513  0.00  0.00     0.318 HD
ENDROOT
BRANCH   1   3
ATOM      3  C6  ZIN A   1      19.116  -0.363  12.449  0.00  0.00     0.320 C 
BRANCH   3   4
ATOM      4  C4  ZIN A   1      20.051   0.819  12.448  0.00  0.00     0.292 C 
ATOM      5  O5  ZIN A   1      21.228   0.659  12.226  0.00  0.00    -0.263 OA
BRANCH   4   6
ATOM      6  O3  ZIN A   1      19.576   2.051  12.696  0.00  0.00    -0.320 OA
BRANCH   6   7
ATOM      7  C2  ZIN A   1      18.268   2.140  13.319  0.00  0.00     0.174 C 
ATOM      8  C1  ZIN A   1      18.373   2.951  14.612  0.00  0.00     0.034 C 
ENDBRANCH   6   7
ENDBRANCH   4   6
ENDBRANCH   3   4
BRANCH   3   9
ATOM      9  C8  ZIN A   1      19.450  -1.277  13.630  0.00  0.00     0.051 C 
BRANCH   9  10
ATOM     10  C9  ZIN A   1      18.168  -1.609  14.395  0.00  0.00     0.041 C 
BRANCH  10  11
ATOM     11  C10 ZIN A   1      18.230  -0.998  15.771  0.00  0.00    -0.058 A 
ATOM     12  C15 ZIN A   1      17.215  -0.165  16.204  0.00  0.00     0.007 A 
ATOM     13  C14 ZIN A   1      17.271   0.393  17.468  0.00  0.00     0.001 A 
ATOM     14  C13 ZIN A   1      18.346   0.125  18.295  0.00  0.00     0.000 A 
ATOM     15  C12 ZIN A   1      19.363  -0.703  17.860  0.00  0.00     0.001 A 
ATOM     16  C11 ZIN A   1      19.306  -1.265  16.598  0.00  0.00     0.007 A 
ENDBRANCH  10  11
ENDBRANCH   9  10
ENDBRANCH   3   9
ENDBRANCH   1   3
BRANCH   1  17
ATOM     17  C17 ZIN A   1      17.964  -1.523  10.663  0.00  0.00     0.308 C 
ATOM     18  C19 ZIN A   1      16.977  -0.360  10.776  0.00  0.00     0.053 C 
BRANCH  17  19
ATOM     19  C20 ZIN A   1      18.111  -1.918   9.217  0.00  0.00     0.254 C 
ATOM     20  O21 ZIN A   1      18.320  -1.070   8.375  0.00  0.00    -0.271 OA
ATOM     21  N22 ZIN A   1      18.012  -3.213   8.858  0.00  0.00    -0.330 N 
ATOM     22  C34 ZIN A   1      18.214  -3.731   7.506  0.00  0.00     0.092 C 
ATOM     23  C23 ZIN A   1      17.679  -4.318   9.762  0.00  0.00     0.189 C 
ATOM     24  C29 ZIN A   1      17.654  -5.168   7.472  0.00  0.00     0.011 C 
ATOM     25  C33 ZIN A   1      19.724  -3.843   7.161  0.00  0.00     0.026 C 
ATOM     26  C28 ZIN A   1      17.706  -5.619   8.948  0.00  0.00     0.043 C 
ATOM     27  C31 ZIN A   1      18.675  -6.009   6.679  0.00  0.00     0.007 C 
ATOM     28  C32 ZIN A   1      20.033  -5.330   6.931  0.00  0.00     0.002 C 
BRANCH  23  29
ATOM     29  C25 ZIN A   1      18.694  -4.390  10.874  0.00  0.00     0.197 C 
ATOM     30  O26 ZIN A   1      19.884  -4.309  10.619  0.00  0.00    -0.646 OA
ATOM     31  O27 ZIN A   1      18.327  -4.530  12.028  0.00  0.00    -0.646 OA
ENDBRANCH  23  29
ENDBRANCH  17  19
ENDBRANCH   1  17
TORSDOF 10
ENDMDL
MODEL 9
REMARK VINA RESULT:      -7.3      2.513      5.019
REMARK  10 active torsions:
REMARK  status: ('A' for Active; 'I' for Inactive)
REMARK    1  A    between atoms: C2_2  and  O3_3 
REMARK    2  A    between atoms: O3_3  and  C4_4 
REMARK    3  A    between atoms: C4_4  and  C6_6 
REMARK    4  A    between atoms: C6_6  and  C8_7 
REMARK    5  A    between atoms: C6_6  and  N16_15 
REMARK    6  A    between atoms: C8_7  and  C9_8 
REMARK    7  A    between atoms: C9_8  and  C10_9 
REMARK    8  A    between atoms: N16_15  and  C17_16 
REMARK    9  A    between atoms: C17_16  and  C20_18 
REMARK       I    between atoms: C20_18  and  N22_20 
REMARK   10  A    between atoms: C23_21  and  C25_22 
ROOT
ATOM      1  N16 ZIN A   1      19.268  -0.236  10.406  0.00  0.00     0.111 N 
ATOM      2  H50 ZIN A   1      19.395  -0.176   9.407  0.00  0.00     0.318 HD
ENDROOT
BRANCH   1   3
ATOM      3  C6  ZIN A   1      18.942   1.078  10.975  0.00  0.00     0.320 C 
BRANCH   3   4
ATOM      4  C4  ZIN A   1      19.076   2.135   9.909  0.00  0.00     0.292 C 
ATOM      5  O5  ZIN A   1      19.436   1.829   8.797  0.00  0.00    -0.263 OA
BRANCH   4   6
ATOM      6  O3  ZIN A   1      18.796   3.417  10.195  0.00  0.00    -0.320 OA
BRANCH   6   7
ATOM      7  C2  ZIN A   1      17.440   3.717  10.616  0.00  0.00     0.174 C 
ATOM      8  C1  ZIN A   1      17.211   5.228  10.557  0.00  0.00     0.034 C 
ENDBRANCH   6   7
ENDBRANCH   4   6
ENDBRANCH   3   4
BRANCH   3   9
ATOM      9  C8  ZIN A   1      19.902   1.388  12.125  0.00  0.00     0.051 C 
BRANCH   9  10
ATOM     10  C9  ZIN A   1      19.109   1.916  13.322  0.00  0.00     0.041 C 
BRANCH  10  11
ATOM     11  C10 ZIN A   1      18.806   0.780  14.265  0.00  0.00    -0.058 A 
ATOM     12  C15 ZIN A   1      17.710   0.851  15.105  0.00  0.00     0.007 A 
ATOM     13  C14 ZIN A   1      17.431  -0.192  15.967  0.00  0.00     0.001 A 
ATOM     14  C13 ZIN A   1      18.252  -1.304  15.997  0.00  0.00     0.000 A 
ATOM     15  C12 ZIN A   1      19.351  -1.373  15.161  0.00  0.00     0.001 A 
ATOM     16  C11 ZIN A   1      19.629  -0.332  14.295  0.00  0.00     0.007 A 
ENDBRANCH  10  11
ENDBRANCH   9  10
ENDBRANCH   3   9
ENDBRANCH   1   3
BRANCH   1  17
ATOM     17  C17 ZIN A   1      18.239  -1.228  10.746  0.00  0.00     0.308 C 
ATOM     18  C19 ZIN A   1      17.003  -0.513  11.295  0.00  0.00     0.053 C 
BRANCH  17  19
ATOM     19  C20 ZIN A   1      17.863  -2.006   9.512  0.00  0.00     0.254 C 
ATOM     20  O21 ZIN A   1      17.697  -1.429   8.458  0.00  0.00    -0.271 OA
ATOM     21  N22 ZIN A   1      17.712  -3.344   9.579  0.00  0.00    -0.330 N 
ATOM     22  C34 ZIN A   1      17.428  -4.217   8.441  0.00  0.00     0.092 C 
ATOM     23  C23 ZIN A   1      17.801  -4.145  10.803  0.00  0.00     0.189 C 
ATOM     24  C29 ZIN A   1      16.979  -5.580   9.005  0.00  0.00     0.011 C 
ATOM     25  C33 ZIN A   1      18.708  -4.491   7.604  0.00  0.00     0.026 C 
ATOM     26  C28 ZIN A   1      17.598  -5.618  10.419  0.00  0.00     0.043 C 
ATOM     27  C31 ZIN A   1      17.680  -6.653   8.148  0.00  0.00     0.007 C 
ATOM     28  C32 ZIN A   1      18.995  -5.999   7.685  0.00  0.00     0.002 C 
BRANCH  23  29
ATOM     29  C25 ZIN A   1      19.157  -3.962  11.434  0.00  0.00     0.197 C 
ATOM     30  O26 ZIN A   1      19.260  -3.384  12.503  0.00  0.00    -0.646 OA
ATOM     31  O27 ZIN A   1      20.153  -4.392  10.875  0.00  0.00    -0.646 OA
ENDBRANCH  23  29
ENDBRANCH  17  19
ENDBRANCH   1  17
TORSDOF 10
ENDMDL
