MODEL 1
REMARK VINA RESULT:      -7.1      0.000      0.000
REMARK  1 active torsions:
REMARK  status: ('A' for Active; 'I' for Inactive)
REMARK    1  A    between atoms: N17_17  and  C18_18 
ROOT
ATOM      1  C1  ZIN A   1      19.240   0.767   7.178  0.00  0.00     0.050 C 
ATOM      2  C2  ZIN A   1      18.571   0.101   8.353  0.00  0.00    -0.030 A 
ATOM      3  C3  ZIN A   1      17.778   0.833   9.224  0.00  0.00     0.028 A 
ATOM      4  C4  ZIN A   1      17.176   0.193  10.289  0.00  0.00     0.119 A 
ATOM      5  N5  ZIN A   1      17.332  -1.104  10.475  0.00  0.00    -0.241 NA
ATOM      6  C6  ZIN A   1      18.073  -1.845   9.662  0.00  0.00     0.159 A 
ATOM      7  C7  ZIN A   1      18.730  -1.263   8.582  0.00  0.00     0.087 A 
ATOM      8  N8  ZIN A   1      19.584  -1.993   7.759  0.00  0.00    -0.319 N 
ATOM      9  C9  ZIN A   1      19.398  -3.229   7.321  0.00  0.00     0.260 C 
ATOM     10  O10 ZIN A   1      20.251  -3.693   6.589  0.00  0.00    -0.267 OA
ATOM     11  C11 ZIN A   1      18.253  -4.085   7.643  0.00  0.00     0.078 A 
ATOM     12  C12 ZIN A   1      17.698  -4.913   6.659  0.00  0.00     0.022 A 
ATOM     13  C13 ZIN A   1      16.643  -5.737   7.011  0.00  0.00     0.020 A 
ATOM     14  C14 ZIN A   1      16.173  -5.722   8.312  0.00  0.00     0.119 A 
ATOM     15  N15 ZIN A   1      16.701  -4.925   9.220  0.00  0.00    -0.242 NA
ATOM     16  C16 ZIN A   1      17.697  -4.099   8.930  0.00  0.00     0.147 A 
ATOM     17  N17 ZIN A   1      18.157  -3.219   9.888  0.00  0.00    -0.309 N 
ATOM     18  H26 ZIN A   1      20.399  -1.549   7.476  0.00  0.00     0.169 HD
ENDROOT
BRANCH  17  19
ATOM     19  C18 ZIN A   1      18.733  -3.722  11.138  0.00  0.00     0.093 A 
ATOM     20  C20 ZIN A   1      20.128  -3.225  11.524  0.00  0.00     0.028 A 
ATOM     21  C19 ZIN A   1      19.936  -4.661  11.034  0.00  0.00     0.028 A 
ENDBRANCH  17  19
TORSDOF 1
ENDMDL
MODEL 2
REMARK VINA RESULT:      -7.0      3.156      6.038
REMARK  1 active torsions:
REMARK  status: ('A' for Active; 'I' for Inactive)
REMARK    1  A    between atoms: N17_17  and  C18_18 
ROOT
ATOM      1  C1  ZIN A   1      17.070  -4.062   9.986  0.00  0.00     0.050 C 
ATOM      2  C2  ZIN A   1      18.258  -3.601  10.792  0.00  0.00    -0.030 A 
ATOM      3  C3  ZIN A   1      19.420  -4.358  10.835  0.00  0.00     0.028 A 
ATOM      4  C4  ZIN A   1      20.491  -3.907  11.579  0.00  0.00     0.119 A 
ATOM      5  N5  ZIN A   1      20.428  -2.763  12.233  0.00  0.00    -0.241 NA
ATOM      6  C6  ZIN A   1      19.341  -2.004  12.213  0.00  0.00     0.159 A 
ATOM      7  C7  ZIN A   1      18.213  -2.406  11.504  0.00  0.00     0.087 A 
ATOM      8  N8  ZIN A   1      17.028  -1.676  11.530  0.00  0.00    -0.319 N 
ATOM      9  C9  ZIN A   1      16.906  -0.358  11.494  0.00  0.00     0.260 C 
ATOM     10  O10 ZIN A   1      15.779   0.097  11.506  0.00  0.00    -0.267 OA
ATOM     11  C11 ZIN A   1      18.015   0.599  11.442  0.00  0.00     0.078 A 
ATOM     12  C12 ZIN A   1      17.912   1.749  10.650  0.00  0.00     0.022 A 
ATOM     13  C13 ZIN A   1      18.962   2.650  10.657  0.00  0.00     0.020 A 
ATOM     14  C14 ZIN A   1      20.072   2.394  11.443  0.00  0.00     0.119 A 
ATOM     15  N15 ZIN A   1      20.155   1.298  12.171  0.00  0.00    -0.242 NA
ATOM     16  C16 ZIN A   1      19.188   0.391  12.182  0.00  0.00     0.147 A 
ATOM     17  N17 ZIN A   1      19.358  -0.783  12.888  0.00  0.00    -0.309 N 
ATOM     18  H26 ZIN A   1      16.204  -2.187  11.579  0.00  0.00     0.169 HD
ENDROOT
BRANCH  17  19
ATOM     19  C18 ZIN A   1      19.553  -0.750  14.339  0.00  0.00     0.093 A 
ATOM     20  C20 ZIN A   1      18.459  -1.364  15.214  0.00  0.00     0.028 A 
ATOM     21  C19 ZIN A   1      18.630   0.155  15.157  0.00  0.00     0.028 A 
ENDBRANCH  17  19
TORSDOF 1
ENDMDL
MODEL 3
REMARK VINA RESULT:      -6.9      6.207      9.442
REMARK  1 active torsions:
REMARK  status: ('A' for Active; 'I' for Inactive)
REMARK    1  A    between atoms: N17_17  and  C18_18 
ROOT
ATOM      1  C1  ZIN A   1      19.058  -0.751  15.685  0.00  0.00     0.050 C 
ATOM      2  C2  ZIN A   1      18.443   0.044  14.563  0.00  0.00    -0.030 A 
ATOM      3  C3  ZIN A   1      17.661  -0.578  13.601  0.00  0.00     0.028 A 
ATOM      4  C4  ZIN A   1      17.109   0.179  12.587  0.00  0.00     0.119 A 
ATOM      5  N5  ZIN A   1      17.303   1.483  12.533  0.00  0.00    -0.241 NA
ATOM      6  C6  ZIN A   1      18.035   2.120  13.436  0.00  0.00     0.159 A 
ATOM      7  C7  ZIN A   1      18.643   1.419  14.473  0.00  0.00     0.087 A 
ATOM      8  N8  ZIN A   1      19.488   2.042  15.388  0.00  0.00    -0.319 N 
ATOM      9  C9  ZIN A   1      19.319   3.234  15.939  0.00  0.00     0.260 C 
ATOM     10  O10 ZIN A   1      20.160   3.602  16.737  0.00  0.00    -0.267 OA
ATOM     11  C11 ZIN A   1      18.206   4.149  15.669  0.00  0.00     0.078 A 
ATOM     12  C12 ZIN A   1      17.640   4.892  16.712  0.00  0.00     0.022 A 
ATOM     13  C13 ZIN A   1      16.617   5.775  16.412  0.00  0.00     0.020 A 
ATOM     14  C14 ZIN A   1      16.190   5.900  15.102  0.00  0.00     0.119 A 
ATOM     15  N15 ZIN A   1      16.727   5.180  14.136  0.00  0.00    -0.242 NA
ATOM     16  C16 ZIN A   1      17.692   4.303  14.373  0.00  0.00     0.147 A 
ATOM     17  N17 ZIN A   1      18.160   3.507  13.347  0.00  0.00    -0.309 N 
ATOM     18  H26 ZIN A   1      20.282   1.551  15.650  0.00  0.00     0.169 HD
ENDROOT
BRANCH  17  19
ATOM     19  C18 ZIN A   1      18.788   4.113  12.171  0.00  0.00     0.093 A 
ATOM     20  C20 ZIN A   1      20.068   3.464  11.640  0.00  0.00     0.028 A 
ATOM     21  C19 ZIN A   1      20.136   4.808  12.367  0.00  0.00     0.028 A 
ENDBRANCH  17  19
TORSDOF 1
ENDMDL
MODEL 4
REMARK VINA RESULT:      -6.8      1.308      1.535
REMARK  1 active torsions:
REMARK  status: ('A' for Active; 'I' for Inactive)
REMARK    1  A    between atoms: N17_17  and  C18_18 
ROOT
ATOM      1  C1  ZIN A   1      19.600  -1.008   5.133  0.00  0.00     0.050 C 
ATOM      2  C2  ZIN A   1      18.827  -0.970   6.427  0.00  0.00    -0.030 A 
ATOM      3  C3  ZIN A   1      18.006   0.106   6.728  0.00  0.00     0.028 A 
ATOM      4  C4  ZIN A   1      17.309   0.110   7.920  0.00  0.00     0.119 A 
ATOM      5  N5  ZIN A   1      17.402  -0.901   8.762  0.00  0.00    -0.241 NA
ATOM      6  C6  ZIN A   1      18.168  -1.954   8.511  0.00  0.00     0.159 A 
ATOM      7  C7  ZIN A   1      18.919  -2.016   7.341  0.00  0.00     0.087 A 
ATOM      8  N8  ZIN A   1      19.798  -3.065   7.084  0.00  0.00    -0.319 N 
ATOM      9  C9  ZIN A   1      19.596  -4.349   7.337  0.00  0.00     0.260 C 
ATOM     10  O10 ZIN A   1      20.479  -5.123   7.020  0.00  0.00    -0.267 OA
ATOM     11  C11 ZIN A   1      18.400  -4.917   7.965  0.00  0.00     0.078 A 
ATOM     12  C12 ZIN A   1      17.882  -6.136   7.513  0.00  0.00     0.022 A 
ATOM     13  C13 ZIN A   1      16.775  -6.661   8.157  0.00  0.00     0.020 A 
ATOM     14  C14 ZIN A   1      16.219  -5.974   9.221  0.00  0.00     0.119 A 
ATOM     15  N15 ZIN A   1      16.714  -4.819   9.623  0.00  0.00    -0.242 NA
ATOM     16  C16 ZIN A   1      17.758  -4.261   9.026  0.00  0.00     0.147 A 
ATOM     17  N17 ZIN A   1      18.184  -3.010   9.422  0.00  0.00    -0.309 N 
ATOM     18  H26 ZIN A   1      20.647  -2.830   6.677  0.00  0.00     0.169 HD
ENDROOT
BRANCH  17  19
ATOM     19  C18 ZIN A   1      18.655  -2.789  10.792  0.00  0.00     0.093 A 
ATOM     20  C20 ZIN A   1      19.984  -2.054  10.973  0.00  0.00     0.028 A 
ATOM     21  C19 ZIN A   1      19.898  -3.557  11.245  0.00  0.00     0.028 A 
ENDBRANCH  17  19
TORSDOF 1
ENDMDL
MODEL 5
REMARK VINA RESULT:      -6.7      6.368      8.038
REMARK  1 active torsions:
REMARK  status: ('A' for Active; 'I' for Inactive)
REMARK    1  A    between atoms: N17_17  and  C18_18 
ROOT
ATOM      1  C1  ZIN A   1      18.275   3.258  10.512  0.00  0.00     0.050 C 
ATOM      2  C2  ZIN A   1      17.956   3.684  11.923  0.00  0.00    -0.030 A 
ATOM      3  C3  ZIN A   1      17.028   4.685  12.167  0.00  0.00     0.028 A 
ATOM      4  C4  ZIN A   1      16.755   5.050  13.470  0.00  0.00     0.119 A 
ATOM      5  N5  ZIN A   1      17.353   4.448  14.480  0.00  0.00    -0.241 NA
ATOM      6  C6  ZIN A   1      18.239   3.480  14.294  0.00  0.00     0.159 A 
ATOM      7  C7  ZIN A   1      18.583   3.076  13.007  0.00  0.00     0.087 A 
ATOM      8  N8  ZIN A   1      19.571   2.124  12.773  0.00  0.00    -0.319 N 
ATOM      9  C9  ZIN A   1      19.783   1.014  13.463  0.00  0.00     0.260 C 
ATOM     10  O10 ZIN A   1      20.688   0.292  13.091  0.00  0.00    -0.267 OA
ATOM     11  C11 ZIN A   1      19.020   0.581  14.637  0.00  0.00     0.078 A 
ATOM     12  C12 ZIN A   1      18.708  -0.773  14.811  0.00  0.00     0.022 A 
ATOM     13  C13 ZIN A   1      18.021  -1.149  15.952  0.00  0.00     0.020 A 
ATOM     14  C14 ZIN A   1      17.669  -0.187  16.882  0.00  0.00     0.119 A 
ATOM     15  N15 ZIN A   1      17.961   1.085  16.693  0.00  0.00    -0.242 NA
ATOM     16  C16 ZIN A   1      18.596   1.502  15.606  0.00  0.00     0.147 A 
ATOM     17  N17 ZIN A   1      18.799   2.853  15.408  0.00  0.00    -0.309 N 
ATOM     18  H26 ZIN A   1      20.166   2.291  12.024  0.00  0.00     0.169 HD
ENDROOT
BRANCH  17  19
ATOM     19  C18 ZIN A   1      19.599   3.627  16.360  0.00  0.00     0.093 A 
ATOM     20  C20 ZIN A   1      18.983   4.908  16.925  0.00  0.00     0.028 A 
ATOM     21  C19 ZIN A   1      20.118   4.991  15.903  0.00  0.00     0.028 A 
ENDBRANCH  17  19
TORSDOF 1
ENDMDL
MODEL 6
REMARK VINA RESULT:      -6.5      6.882      9.366
REMARK  1 active torsions:
REMARK  status: ('A' for Active; 'I' for Inactive)
REMARK    1  A    between atoms: N17_17  and  C18_18 
ROOT
ATOM      1  C1  ZIN A   1      19.252   1.568  18.075  0.00  0.00     0.050 C 
ATOM      2  C2  ZIN A   1      18.653   1.247  16.730  0.00  0.00    -0.030 A 
ATOM      3  C3  ZIN A   1      17.914   0.088  16.544  0.00  0.00     0.028 A 
ATOM      4  C4  ZIN A   1      17.375  -0.176  15.300  0.00  0.00     0.119 A 
ATOM      5  N5  ZIN A   1      17.541   0.666  14.298  0.00  0.00    -0.241 NA
ATOM      6  C6  ZIN A   1      18.232   1.790  14.434  0.00  0.00     0.159 A 
ATOM      7  C7  ZIN A   1      18.825   2.110  15.651  0.00  0.00     0.087 A 
ATOM      8  N8  ZIN A   1      19.627   3.238  15.806  0.00  0.00    -0.319 N 
ATOM      9  C9  ZIN A   1      19.415   4.439  15.292  0.00  0.00     0.260 C 
ATOM     10  O10 ZIN A   1      20.223   5.308  15.557  0.00  0.00    -0.267 OA
ATOM     11  C11 ZIN A   1      18.290   4.811  14.429  0.00  0.00     0.078 A 
ATOM     12  C12 ZIN A   1      17.677   6.061  14.575  0.00  0.00     0.022 A 
ATOM     13  C13 ZIN A   1      16.644   6.392  13.716  0.00  0.00     0.020 A 
ATOM     14  C14 ZIN A   1      16.252   5.490  12.744  0.00  0.00     0.119 A 
ATOM     15  N15 ZIN A   1      16.834   4.312  12.631  0.00  0.00    -0.242 NA
ATOM     16  C16 ZIN A   1      17.811   3.935  13.443  0.00  0.00     0.147 A 
ATOM     17  N17 ZIN A   1      18.328   2.659  13.347  0.00  0.00    -0.309 N 
ATOM     18  H26 ZIN A   1      20.424   3.132  16.349  0.00  0.00     0.169 HD
ENDROOT
BRANCH  17  19
ATOM     19  C18 ZIN A   1      18.977   2.216  12.110  0.00  0.00     0.093 A 
ATOM     20  C20 ZIN A   1      20.360   1.574  12.228  0.00  0.00     0.028 A 
ATOM     21  C19 ZIN A   1      20.218   2.983  11.649  0.00  0.00     0.028 A 
ENDBRANCH  17  19
TORSDOF 1
ENDMDL
MODEL 7
REMARK VINA RESULT:      -6.4      2.169      4.663
REMARK  1 active torsions:
REMARK  status: ('A' for Active; 'I' for Inactive)
REMARK    1  A    between atoms: N17_17  and  C18_18 
ROOT
ATOM      1  C1  ZIN A   1      19.101  -3.396   5.597  0.00  0.00     0.050 C 
ATOM      2  C2  ZIN A   1      19.265  -3.886   7.012  0.00  0.00    -0.030 A 
ATOM      3  C3  ZIN A   1      20.017  -5.019   7.286  0.00  0.00     0.028 A 
ATOM      4  C4  ZIN A   1      20.151  -5.441   8.594  0.00  0.00     0.119 A 
ATOM      5  N5  ZIN A   1      19.588  -4.772   9.582  0.00  0.00    -0.241 NA
ATOM      6  C6  ZIN A   1      18.869  -3.679   9.367  0.00  0.00     0.159 A 
ATOM      7  C7  ZIN A   1      18.670  -3.208   8.073  0.00  0.00     0.087 A 
ATOM      8  N8  ZIN A   1      17.851  -2.115   7.804  0.00  0.00    -0.319 N 
ATOM      9  C9  ZIN A   1      17.764  -0.996   8.507  0.00  0.00     0.260 C 
ATOM     10  O10 ZIN A   1      17.002  -0.141   8.100  0.00  0.00    -0.267 OA
ATOM     11  C11 ZIN A   1      18.509  -0.701   9.735  0.00  0.00     0.078 A 
ATOM     12  C12 ZIN A   1      19.008   0.588   9.960  0.00  0.00     0.022 A 
ATOM     13  C13 ZIN A   1      19.671   0.838  11.149  0.00  0.00     0.020 A 
ATOM     14  C14 ZIN A   1      19.817  -0.180  12.074  0.00  0.00     0.119 A 
ATOM     15  N15 ZIN A   1      19.352  -1.391  11.836  0.00  0.00    -0.242 NA
ATOM     16  C16 ZIN A   1      18.731  -1.690  10.704  0.00  0.00     0.147 A 
ATOM     17  N17 ZIN A   1      18.341  -2.992  10.461  0.00  0.00    -0.309 N 
ATOM     18  H26 ZIN A   1      17.285  -2.179   7.018  0.00  0.00     0.169 HD
ENDROOT
BRANCH  17  19
ATOM     19  C18 ZIN A   1      17.377  -3.652  11.345  0.00  0.00     0.093 A 
ATOM     20  C20 ZIN A   1      17.729  -5.049  11.858  0.00  0.00     0.028 A 
ATOM     21  C19 ZIN A   1      16.638  -4.875  10.799  0.00  0.00     0.028 A 
ENDBRANCH  17  19
TORSDOF 1
ENDMDL
MODEL 8
REMARK VINA RESULT:      -6.2      4.556      7.263
REMARK  1 active torsions:
REMARK  status: ('A' for Active; 'I' for Inactive)
REMARK    1  A    between atoms: N17_17  and  C18_18 
ROOT
ATOM      1  C1  ZIN A   1      18.233   0.632  15.796  0.00  0.00     0.050 C 
ATOM      2  C2  ZIN A   1      18.415   1.871  14.958  0.00  0.00    -0.030 A 
ATOM      3  C3  ZIN A   1      19.096   2.971  15.459  0.00  0.00     0.028 A 
ATOM      4  C4  ZIN A   1      19.250   4.089  14.665  0.00  0.00     0.119 A 
ATOM      5  N5  ZIN A   1      18.773   4.117  13.435  0.00  0.00    -0.241 NA
ATOM      6  C6  ZIN A   1      18.124   3.086  12.912  0.00  0.00     0.159 A 
ATOM      7  C7  ZIN A   1      17.910   1.934  13.662  0.00  0.00     0.087 A 
ATOM      8  N8  ZIN A   1      17.160   0.866  13.175  0.00  0.00    -0.319 N 
ATOM      9  C9  ZIN A   1      17.178   0.380  11.944  0.00  0.00     0.260 C 
ATOM     10  O10 ZIN A   1      16.463  -0.576  11.713  0.00  0.00    -0.267 OA
ATOM     11  C11 ZIN A   1      17.988   0.895  10.836  0.00  0.00     0.078 A 
ATOM     12  C12 ZIN A   1      18.584   0.007   9.931  0.00  0.00     0.022 A 
ATOM     13  C13 ZIN A   1      19.308   0.532   8.875  0.00  0.00     0.020 A 
ATOM     14  C14 ZIN A   1      19.417   1.905   8.741  0.00  0.00     0.119 A 
ATOM     15  N15 ZIN A   1      18.859   2.723   9.611  0.00  0.00    -0.242 NA
ATOM     16  C16 ZIN A   1      18.176   2.273  10.655  0.00  0.00     0.147 A 
ATOM     17  N17 ZIN A   1      17.688   3.163  11.589  0.00  0.00    -0.309 N 
ATOM     18  H26 ZIN A   1      16.562   0.433  13.805  0.00  0.00     0.169 HD
ENDROOT
BRANCH  17  19
ATOM     19  C18 ZIN A   1      16.714   4.185  11.197  0.00  0.00     0.093 A 
ATOM     20  C20 ZIN A   1      17.256   5.500  10.634  0.00  0.00     0.028 A 
ATOM     21  C19 ZIN A   1      16.650   5.461  12.038  0.00  0.00     0.028 A 
ENDBRANCH  17  19
TORSDOF 1
ENDMDL
MODEL 9
REMARK VINA RESULT:      -6.2      2.373      4.404
REMARK  1 active torsions:
REMARK  status: ('A' for Active; 'I' for Inactive)
REMARK    1  A    between atoms: N17_17  and  C18_18 
ROOT
ATOM      1  C1  ZIN A   1      18.120   0.688   6.663  0.00  0.00     0.050 C 
ATOM      2  C2  ZIN A   1      18.462  -0.711   7.107  0.00  0.00    -0.030 A 
ATOM      3  C3  ZIN A   1      19.252  -1.531   6.314  0.00  0.00     0.028 A 
ATOM      4  C4  ZIN A   1      19.550  -2.807   6.750  0.00  0.00     0.119 A 
ATOM      5  N5  ZIN A   1      19.109  -3.245   7.914  0.00  0.00    -0.241 NA
ATOM      6  C6  ZIN A   1      18.359  -2.492   8.707  0.00  0.00     0.159 A 
ATOM      7  C7  ZIN A   1      17.998  -1.205   8.322  0.00  0.00     0.087 A 
ATOM      8  N8  ZIN A   1      17.143  -0.419   9.091  0.00  0.00    -0.319 N 
ATOM      9  C9  ZIN A   1      17.135  -0.312  10.410  0.00  0.00     0.260 C 
ATOM     10  O10 ZIN A   1      16.321   0.446  10.902  0.00  0.00    -0.267 OA
ATOM     11  C11 ZIN A   1      18.023  -1.029  11.330  0.00  0.00     0.078 A 
ATOM     12  C12 ZIN A   1      18.536  -0.380  12.460  0.00  0.00     0.022 A 
ATOM     13  C13 ZIN A   1      19.339  -1.101  13.325  0.00  0.00     0.020 A 
ATOM     14  C14 ZIN A   1      19.607  -2.431  13.055  0.00  0.00     0.119 A 
ATOM     15  N15 ZIN A   1      19.126  -3.020  11.978  0.00  0.00    -0.242 NA
ATOM     16  C16 ZIN A   1      18.372  -2.369  11.104  0.00  0.00     0.147 A 
ATOM     17  N17 ZIN A   1      17.966  -3.000   9.946  0.00  0.00    -0.309 N 
ATOM     18  H26 ZIN A   1      16.484   0.106   8.608  0.00  0.00     0.169 HD
ENDROOT
BRANCH  17  19
ATOM     19  C18 ZIN A   1      17.124  -4.197  10.013  0.00  0.00     0.093 A 
ATOM     20  C20 ZIN A   1      16.902  -4.829  11.388  0.00  0.00     0.028 A 
ATOM     21  C19 ZIN A   1      17.804  -5.521  10.365  0.00  0.00     0.028 A 
ENDBRANCH  17  19
TORSDOF 1
ENDMDL
