MODEL 1
REMARK VINA RESULT:      -5.4      0.000      0.000
REMARK  2 active torsions:
REMARK  status: ('A' for Active; 'I' for Inactive)
REMARK    1  A    between atoms: N1_1  and  C5_5 
REMARK    2  A    between atoms: C8_7  and  C10_8 
ROOT
ATOM      1  C5  <0> d   1      19.452   2.815  10.582  0.00  0.00     0.192 A 
ATOM      2  C7  <0> d   1      17.950   2.756  10.866  0.00  0.00     0.045 A 
ATOM      3  C8  <0> d   1      18.681   1.513  10.353  0.00  0.00     0.051 A 
ENDROOT
BRANCH   3   4
ATOM      4  C10 <0> d   1      18.428   1.095   8.927  0.00  0.00    -0.052 A 
ATOM      5  C15 <0> d   1      17.459   0.152   8.645  0.00  0.00     0.007 A 
ATOM      6  C14 <0> d   1      17.225  -0.229   7.336  0.00  0.00     0.001 A 
ATOM      7  C13 <0> d   1      17.967   0.328   6.312  0.00  0.00     0.000 A 
ATOM      8  C12 <0> d   1      18.940   1.268   6.595  0.00  0.00     0.001 A 
ATOM      9  C11 <0> d   1      19.172   1.651   7.902  0.00  0.00     0.007 A 
ENDBRANCH   3   4
BRANCH   1  10
ATOM     10  N1  <0> d   1      20.358   2.873  11.736  0.00  0.00    -0.074 N 
ATOM     11  H2  <0> d   1      19.823   2.811  12.589  0.00  0.00     0.274 HD
ATOM     12  H3  <0> d   1      20.868   3.744  11.721  0.00  0.00     0.274 HD
ATOM     13  H4  <0> d   1      21.009   2.103  11.691  0.00  0.00     0.274 HD
ENDBRANCH   1  10
TORSDOF 2
ENDMDL
MODEL 2
REMARK VINA RESULT:      -5.2      4.987      6.937
REMARK  2 active torsions:
REMARK  status: ('A' for Active; 'I' for Inactive)
REMARK    1  A    between atoms: N1_1  and  C5_5 
REMARK    2  A    between atoms: C8_7  and  C10_8 
ROOT
ATOM      1  C5  <0> d   1      20.217   0.175  12.678  0.00  0.00     0.192 A 
ATOM      2  C7  <0> d   1      19.032   1.123  12.487  0.00  0.00     0.045 A 
ATOM      3  C8  <0> d   1      19.660   0.954  13.872  0.00  0.00     0.051 A 
ENDROOT
BRANCH   3   4
ATOM      4  C10 <0> d   1      18.876   0.183  14.903  0.00  0.00    -0.052 A 
ATOM      5  C15 <0> d   1      19.181  -1.141  15.155  0.00  0.00     0.007 A 
ATOM      6  C14 <0> d   1      18.464  -1.846  16.105  0.00  0.00     0.001 A 
ATOM      7  C13 <0> d   1      17.437  -1.229  16.794  0.00  0.00     0.000 A 
ATOM      8  C12 <0> d   1      17.130   0.094  16.537  0.00  0.00     0.001 A 
ATOM      9  C11 <0> d   1      17.849   0.800  15.592  0.00  0.00     0.007 A 
ENDBRANCH   3   4
BRANCH   1  10
ATOM     10  N1  <0> d   1      21.517   0.595  12.141  0.00  0.00    -0.074 N 
ATOM     11  H2  <0> d   1      21.374   1.198  11.344  0.00  0.00     0.274 HD
ATOM     12  H3  <0> d   1      22.043  -0.218  11.856  0.00  0.00     0.274 HD
ATOM     13  H4  <0> d   1      22.030   1.095  12.852  0.00  0.00     0.274 HD
ENDBRANCH   1  10
TORSDOF 2
ENDMDL
MODEL 3
REMARK VINA RESULT:      -5.0      1.931      2.191
REMARK  2 active torsions:
REMARK  status: ('A' for Active; 'I' for Inactive)
REMARK    1  A    between atoms: N1_1  and  C5_5 
REMARK    2  A    between atoms: C8_7  and  C10_8 
ROOT
ATOM      1  C5  <0> d   1      20.333   0.500  11.359  0.00  0.00     0.192 A 
ATOM      2  C7  <0> d   1      19.477  -0.766  11.431  0.00  0.00     0.045 A 
ATOM      3  C8  <0> d   1      20.364  -0.511  10.211  0.00  0.00     0.051 A 
ENDROOT
BRANCH   3   4
ATOM      4  C10 <0> d   1      19.683  -0.124   8.923  0.00  0.00    -0.052 A 
ATOM      5  C15 <0> d   1      19.225  -1.103   8.062  0.00  0.00     0.007 A 
ATOM      6  C14 <0> d   1      18.597  -0.747   6.882  0.00  0.00     0.001 A 
ATOM      7  C13 <0> d   1      18.435   0.587   6.561  0.00  0.00     0.000 A 
ATOM      8  C12 <0> d   1      18.898   1.567   7.421  0.00  0.00     0.001 A 
ATOM      9  C11 <0> d   1      19.522   1.211   8.602  0.00  0.00     0.007 A 
ENDBRANCH   3   4
BRANCH   1  10
ATOM     10  N1  <0> d   1      21.512   0.572  12.231  0.00  0.00    -0.074 N 
ATOM     11  H2  <0> d   1      21.351   0.023  13.062  0.00  0.00     0.274 HD
ATOM     12  H3  <0> d   1      21.681   1.533  12.491  0.00  0.00     0.274 HD
ATOM     13  H4  <0> d   1      22.317   0.211  11.740  0.00  0.00     0.274 HD
ENDBRANCH   1  10
TORSDOF 2
ENDMDL
MODEL 4
REMARK VINA RESULT:      -5.0      3.027      4.618
REMARK  2 active torsions:
REMARK  status: ('A' for Active; 'I' for Inactive)
REMARK    1  A    between atoms: N1_1  and  C5_5 
REMARK    2  A    between atoms: C8_7  and  C10_8 
ROOT
ATOM      1  C5  <0> d   1      20.086   1.186  12.076  0.00  0.00     0.192 A 
ATOM      2  C7  <0> d   1      19.205   0.727  10.912  0.00  0.00     0.045 A 
ATOM      3  C8  <0> d   1      19.720   2.167  10.960  0.00  0.00     0.051 A 
ENDROOT
BRANCH   3   4
ATOM      4  C10 <0> d   1      18.725   3.252  11.285  0.00  0.00    -0.052 A 
ATOM      5  C15 <0> d   1      18.543   3.654  12.594  0.00  0.00     0.007 A 
ATOM      6  C14 <0> d   1      17.634   4.653  12.891  0.00  0.00     0.001 A 
ATOM      7  C13 <0> d   1      16.900   5.241  11.879  0.00  0.00     0.000 A 
ATOM      8  C12 <0> d   1      17.079   4.836  10.569  0.00  0.00     0.001 A 
ATOM      9  C11 <0> d   1      17.991   3.841  10.272  0.00  0.00     0.007 A 
ENDBRANCH   3   4
BRANCH   1  10
ATOM     10  N1  <0> d   1      21.468   0.691  12.117  0.00  0.00    -0.074 N 
ATOM     11  H2  <0> d   1      22.097   1.463  12.280  0.00  0.00     0.274 HD
ATOM     12  H3  <0> d   1      21.695   0.252  11.237  0.00  0.00     0.274 HD
ATOM     13  H4  <0> d   1      21.562   0.018  12.863  0.00  0.00     0.274 HD
ENDBRANCH   1  10
TORSDOF 2
ENDMDL
MODEL 5
REMARK VINA RESULT:      -5.0      4.234      5.140
REMARK  2 active torsions:
REMARK  status: ('A' for Active; 'I' for Inactive)
REMARK    1  A    between atoms: N1_1  and  C5_5 
REMARK    2  A    between atoms: C8_7  and  C10_8 
ROOT
ATOM      1  C5  <0> d   1      20.626  -0.358  11.353  0.00  0.00     0.192 A 
ATOM      2  C7  <0> d   1      19.217   0.137  11.022  0.00  0.00     0.045 A 
ATOM      3  C8  <0> d   1      19.420  -0.924  12.106  0.00  0.00     0.051 A 
ENDROOT
BRANCH   3   4
ATOM      4  C10 <0> d   1      18.999  -2.335  11.787  0.00  0.00    -0.052 A 
ATOM      5  C15 <0> d   1      19.954  -3.313  11.587  0.00  0.00     0.007 A 
ATOM      6  C14 <0> d   1      19.567  -4.609  11.299  0.00  0.00     0.001 A 
ATOM      7  C13 <0> d   1      18.225  -4.924  11.202  0.00  0.00     0.000 A 
ATOM      8  C12 <0> d   1      17.269  -3.944  11.398  0.00  0.00     0.001 A 
ATOM      9  C11 <0> d   1      17.656  -2.650  11.690  0.00  0.00     0.007 A 
ENDBRANCH   3   4
BRANCH   1  10
ATOM     10  N1  <0> d   1      21.513   0.557  12.083  0.00  0.00    -0.074 N 
ATOM     11  H2  <0> d   1      21.003   0.990  12.838  0.00  0.00     0.274 HD
ATOM     12  H3  <0> d   1      21.851   1.271  11.454  0.00  0.00     0.274 HD
ATOM     13  H4  <0> d   1      22.295   0.041  12.457  0.00  0.00     0.274 HD
ENDBRANCH   1  10
TORSDOF 2
ENDMDL
MODEL 6
REMARK VINA RESULT:      -4.9      2.664      4.566
REMARK  2 active torsions:
REMARK  status: ('A' for Active; 'I' for Inactive)
REMARK    1  A    between atoms: N1_1  and  C5_5 
REMARK    2  A    between atoms: C8_7  and  C10_8 
ROOT
ATOM      1  C5  <0> d   1      17.617  -0.457   6.482  0.00  0.00     0.192 A 
ATOM      2  C7  <0> d   1      18.410   0.730   5.931  0.00  0.00     0.045 A 
ATOM      3  C8  <0> d   1      18.800   0.105   7.273  0.00  0.00     0.051 A 
ENDROOT
BRANCH   3   4
ATOM      4  C10 <0> d   1      18.493   0.891   8.522  0.00  0.00    -0.052 A 
ATOM      5  C15 <0> d   1      19.043   2.145   8.703  0.00  0.00     0.007 A 
ATOM      6  C14 <0> d   1      18.757   2.867   9.848  0.00  0.00     0.001 A 
ATOM      7  C13 <0> d   1      17.929   2.329  10.814  0.00  0.00     0.000 A 
ATOM      8  C12 <0> d   1      17.382   1.072  10.635  0.00  0.00     0.001 A 
ATOM      9  C11 <0> d   1      17.664   0.352   9.490  0.00  0.00     0.007 A 
ENDBRANCH   3   4
BRANCH   1  10
ATOM     10  N1  <0> d   1      17.797  -1.758   5.825  0.00  0.00    -0.074 N 
ATOM     11  H2  <0> d   1      18.505  -1.679   5.110  0.00  0.00     0.274 HD
ATOM     12  H3  <0> d   1      16.926  -2.046   5.404  0.00  0.00     0.274 HD
ATOM     13  H4  <0> d   1      18.084  -2.443   6.508  0.00  0.00     0.274 HD
ENDBRANCH   1  10
TORSDOF 2
ENDMDL
MODEL 7
REMARK VINA RESULT:      -4.8      5.269      6.463
REMARK  2 active torsions:
REMARK  status: ('A' for Active; 'I' for Inactive)
REMARK    1  A    between atoms: N1_1  and  C5_5 
REMARK    2  A    between atoms: C8_7  and  C10_8 
ROOT
ATOM      1  C5  <0> d   1      18.924  -0.188  16.946  0.00  0.00     0.192 A 
ATOM      2  C7  <0> d   1      17.631  -0.908  16.558  0.00  0.00     0.045 A 
ATOM      3  C8  <0> d   1      18.963  -1.344  15.944  0.00  0.00     0.051 A 
ENDROOT
BRANCH   3   4
ATOM      4  C10 <0> d   1      19.207  -1.003  14.496  0.00  0.00    -0.052 A 
ATOM      5  C15 <0> d   1      19.813   0.192  14.160  0.00  0.00     0.007 A 
ATOM      6  C14 <0> d   1      20.041   0.502  12.831  0.00  0.00     0.001 A 
ATOM      7  C13 <0> d   1      19.654  -0.380  11.840  0.00  0.00     0.000 A 
ATOM      8  C12 <0> d   1      19.043  -1.574  12.177  0.00  0.00     0.001 A 
ATOM      9  C11 <0> d   1      18.819  -1.885  13.504  0.00  0.00     0.007 A 
ENDBRANCH   3   4
BRANCH   1  10
ATOM     10  N1  <0> d   1      19.463  -0.436  18.289  0.00  0.00    -0.074 N 
ATOM     11  H2  <0> d   1      19.357  -1.413  18.519  0.00  0.00     0.274 HD
ATOM     12  H3  <0> d   1      18.961   0.124  18.962  0.00  0.00     0.274 HD
ATOM     13  H4  <0> d   1      20.441  -0.190  18.310  0.00  0.00     0.274 HD
ENDBRANCH   1  10
TORSDOF 2
ENDMDL
MODEL 8
REMARK VINA RESULT:      -4.6      1.372      2.377
REMARK  2 active torsions:
REMARK  status: ('A' for Active; 'I' for Inactive)
REMARK    1  A    between atoms: N1_1  and  C5_5 
REMARK    2  A    between atoms: C8_7  and  C10_8 
ROOT
ATOM      1  C5  <0> d   1      18.973   2.601  12.501  0.00  0.00     0.192 A 
ATOM      2  C7  <0> d   1      19.982   3.419  11.693  0.00  0.00     0.045 A 
ATOM      3  C8  <0> d   1      18.596   3.126  11.115  0.00  0.00     0.051 A 
ENDROOT
BRANCH   3   4
ATOM      4  C10 <0> d   1      18.506   2.125   9.991  0.00  0.00    -0.052 A 
ATOM      5  C15 <0> d   1      19.182   2.353   8.808  0.00  0.00     0.007 A 
ATOM      6  C14 <0> d   1      19.104   1.432   7.779  0.00  0.00     0.001 A 
ATOM      7  C13 <0> d   1      18.342   0.290   7.931  0.00  0.00     0.000 A 
ATOM      8  C12 <0> d   1      17.661   0.064   9.114  0.00  0.00     0.001 A 
ATOM      9  C11 <0> d   1      17.743   0.982  10.144  0.00  0.00     0.007 A 
ENDBRANCH   3   4
BRANCH   1  10
ATOM     10  N1  <0> d   1      18.351   3.248  13.664  0.00  0.00    -0.074 N 
ATOM     11  H2  <0> d   1      18.887   3.039  14.493  0.00  0.00     0.274 HD
ATOM     12  H3  <0> d   1      17.409   2.903  13.777  0.00  0.00     0.274 HD
ATOM     13  H4  <0> d   1      18.328   4.247  13.521  0.00  0.00     0.274 HD
ENDBRANCH   1  10
TORSDOF 2
ENDMDL
MODEL 9
REMARK VINA RESULT:      -4.6      2.230      4.094
REMARK  2 active torsions:
REMARK  status: ('A' for Active; 'I' for Inactive)
REMARK    1  A    between atoms: N1_1  and  C5_5 
REMARK    2  A    between atoms: C8_7  and  C10_8 
ROOT
ATOM      1  C5  <0> d   1      18.570  -0.907   8.623  0.00  0.00     0.192 A 
ATOM      2  C7  <0> d   1      17.789  -0.097   7.587  0.00  0.00     0.045 A 
ATOM      3  C8  <0> d   1      18.887   0.575   8.415  0.00  0.00     0.051 A 
ENDROOT
BRANCH   3   4
ATOM      4  C10 <0> d   1      18.456   1.538   9.492  0.00  0.00    -0.052 A 
ATOM      5  C15 <0> d   1      17.962   1.059  10.690  0.00  0.00     0.007 A 
ATOM      6  C14 <0> d   1      17.571   1.943  11.679  0.00  0.00     0.001 A 
ATOM      7  C13 <0> d   1      17.667   3.305  11.466  0.00  0.00     0.000 A 
ATOM      8  C12 <0> d   1      18.158   3.784  10.265  0.00  0.00     0.001 A 
ATOM      9  C11 <0> d   1      18.553   2.901   9.278  0.00  0.00     0.007 A 
ENDBRANCH   3   4
BRANCH   1  10
ATOM     10  N1  <0> d   1      19.545  -1.886   8.125  0.00  0.00    -0.074 N 
ATOM     11  H2  <0> d   1      19.890  -1.590   7.224  0.00  0.00     0.274 HD
ATOM     12  H3  <0> d   1      19.101  -2.788   8.035  0.00  0.00     0.274 HD
ATOM     13  H4  <0> d   1      20.315  -1.954   8.774  0.00  0.00     0.274 HD
ENDBRANCH   1  10
TORSDOF 2
ENDMDL
