MODEL 1
REMARK VINA RESULT:      -8.6      0.000      0.000
REMARK  1 active torsions:
REMARK  status: ('A' for Active; 'I' for Inactive)
REMARK    1  A    between atoms: C3_3  and  O4_4 
ROOT
ATOM      1  C1  ZIN A   1      15.386  -5.760   8.483  0.00  0.00     0.015 C 
ATOM      2  C2  ZIN A   1      16.382  -5.656   9.097  0.00  0.00    -0.078 C 
ATOM      3  C3  ZIN A   1      17.631  -5.525   9.866  0.00  0.00     0.128 C 
ATOM      4  C5  ZIN A   1      17.377  -5.850  11.359  0.00  0.00     0.052 C 
ATOM      5  C6  ZIN A   1      17.645  -4.537  12.144  0.00  0.00     0.010 C 
ATOM      6  C7  ZIN A   1      17.424  -3.452  11.084  0.00  0.00     0.002 C 
ATOM      7  C9  ZIN A   1      18.088  -2.115  11.361  0.00  0.00    -0.005 C 
ATOM      8  C11 ZIN A   1      17.482  -1.487  12.620  0.00  0.00     0.010 C 
ATOM      9  C12 ZIN A   1      18.208  -0.176  12.924  0.00  0.00     0.035 C 
ATOM     10  C13 ZIN A   1      18.137   0.719  11.700  0.00  0.00    -0.072 C 
ATOM     11  C14 ZIN A   1      17.756   1.983  11.878  0.00  0.00     0.053 C 
ATOM     12  C15 ZIN A   1      17.684   2.897  10.733  0.00  0.00     0.149 C 
ATOM     13  O16 ZIN A   1      17.005   3.903  10.760  0.00  0.00    -0.293 OA
ATOM     14  C17 ZIN A   1      18.502   2.519   9.514  0.00  0.00     0.084 C 
ATOM     15  C18 ZIN A   1      18.195   1.057   9.193  0.00  0.00     0.017 C 
ATOM     16  C19 ZIN A   1      18.508   0.147  10.367  0.00  0.00     0.019 C 
ATOM     17  C21 ZIN A   1      17.817  -1.206  10.152  0.00  0.00    -0.002 C 
ATOM     18  C23 ZIN A   1      18.314  -1.818   8.845  0.00  0.00     0.006 C 
ATOM     19  C24 ZIN A   1      17.752  -3.232   8.630  0.00  0.00     0.014 C 
ATOM     20  C25 ZIN A   1      18.116  -4.080   9.845  0.00  0.00     0.003 C 
ATOM     21  C26 ZIN A   1      19.626  -4.026  10.080  0.00  0.00     0.020 C 
ENDROOT
BRANCH   3  22
ATOM     22  O4  ZIN A   1      18.633  -6.393   9.332  0.00  0.00    -0.377 OA
ATOM     23  H28 ZIN A   1      18.612  -6.473   8.369  0.00  0.00     0.211 HD
ENDBRANCH   3  22
TORSDOF 1
ENDMDL
MODEL 2
REMARK VINA RESULT:      -8.4      3.071      4.757
REMARK  1 active torsions:
REMARK  status: ('A' for Active; 'I' for Inactive)
REMARK    1  A    between atoms: C3_3  and  O4_4 
ROOT
ATOM      1  C1  ZIN A   1      20.005  -3.544   6.236  0.00  0.00     0.015 C 
ATOM      2  C2  ZIN A   1      19.289  -2.636   6.032  0.00  0.00    -0.078 C 
ATOM      3  C3  ZIN A   1      18.390  -1.498   5.776  0.00  0.00     0.128 C 
ATOM      4  C5  ZIN A   1      19.162  -0.354   5.072  0.00  0.00     0.052 C 
ATOM      5  C6  ZIN A   1      19.163   0.844   6.059  0.00  0.00     0.010 C 
ATOM      6  C7  ZIN A   1      18.974   0.168   7.421  0.00  0.00     0.002 C 
ATOM      7  C9  ZIN A   1      18.424   1.052   8.527  0.00  0.00    -0.005 C 
ATOM      8  C11 ZIN A   1      19.424   2.169   8.840  0.00  0.00     0.010 C 
ATOM      9  C12 ZIN A   1      18.827   3.091   9.905  0.00  0.00     0.035 C 
ATOM     10  C13 ZIN A   1      18.443   2.258  11.114  0.00  0.00    -0.072 C 
ATOM     11  C14 ZIN A   1      18.837   2.687  12.312  0.00  0.00     0.053 C 
ATOM     12  C15 ZIN A   1      18.482   1.929  13.517  0.00  0.00     0.149 C 
ATOM     13  O16 ZIN A   1      19.107   2.044  14.551  0.00  0.00    -0.293 OA
ATOM     14  C17 ZIN A   1      17.293   0.996  13.402  0.00  0.00     0.084 C 
ATOM     15  C18 ZIN A   1      17.495   0.150  12.145  0.00  0.00     0.017 C 
ATOM     16  C19 ZIN A   1      17.635   1.014  10.905  0.00  0.00     0.019 C 
ATOM     17  C21 ZIN A   1      18.232   0.171   9.771  0.00  0.00    -0.002 C 
ATOM     18  C23 ZIN A   1      17.318  -1.021   9.500  0.00  0.00     0.006 C 
ATOM     19  C24 ZIN A   1      17.794  -1.841   8.291  0.00  0.00     0.014 C 
ATOM     20  C25 ZIN A   1      17.901  -0.904   7.092  0.00  0.00     0.003 C 
ATOM     21  C26 ZIN A   1      16.570  -0.179   6.882  0.00  0.00     0.020 C 
ENDROOT
BRANCH   3  22
ATOM     22  O4  ZIN A   1      17.282  -1.914   4.976  0.00  0.00    -0.377 OA
ATOM     23  H28 ZIN A   1      16.678  -2.521   5.425  0.00  0.00     0.211 HD
ENDBRANCH   3  22
TORSDOF 1
ENDMDL
MODEL 3
REMARK VINA RESULT:      -8.4      3.737      5.735
REMARK  1 active torsions:
REMARK  status: ('A' for Active; 'I' for Inactive)
REMARK    1  A    between atoms: C3_3  and  O4_4 
ROOT
ATOM      1  C1  ZIN A   1      17.207   0.238   9.368  0.00  0.00     0.015 C 
ATOM      2  C2  ZIN A   1      18.206  -0.106   9.879  0.00  0.00    -0.078 C 
ATOM      3  C3  ZIN A   1      19.460  -0.538  10.520  0.00  0.00     0.128 C 
ATOM      4  C5  ZIN A   1      19.416  -2.058  10.812  0.00  0.00     0.052 C 
ATOM      5  C6  ZIN A   1      19.461  -2.208  12.357  0.00  0.00     0.010 C 
ATOM      6  C7  ZIN A   1      18.916  -0.862  12.848  0.00  0.00     0.002 C 
ATOM      7  C9  ZIN A   1      19.295  -0.475  14.267  0.00  0.00    -0.005 C 
ATOM      8  C11 ZIN A   1      18.682  -1.470  15.256  0.00  0.00     0.010 C 
ATOM      9  C12 ZIN A   1      19.129  -1.107  16.673  0.00  0.00     0.035 C 
ATOM     10  C13 ZIN A   1      18.757   0.337  16.950  0.00  0.00    -0.072 C 
ATOM     11  C14 ZIN A   1      18.128   0.607  18.093  0.00  0.00     0.053 C 
ATOM     12  C15 ZIN A   1      17.757   1.988  18.419  0.00  0.00     0.149 C 
ATOM     13  O16 ZIN A   1      16.881   2.243  19.220  0.00  0.00    -0.293 OA
ATOM     14  C17 ZIN A   1      18.527   3.081  17.704  0.00  0.00     0.084 C 
ATOM     15  C18 ZIN A   1      18.518   2.747  16.213  0.00  0.00     0.017 C 
ATOM     16  C19 ZIN A   1      19.124   1.382  15.941  0.00  0.00     0.019 C 
ATOM     17  C21 ZIN A   1      18.728   0.928  14.531  0.00  0.00    -0.002 C 
ATOM     18  C23 ZIN A   1      19.227   1.954  13.517  0.00  0.00     0.006 C 
ATOM     19  C24 ZIN A   1      18.970   1.499  12.072  0.00  0.00     0.014 C 
ATOM     20  C25 ZIN A   1      19.615   0.130  11.881  0.00  0.00     0.003 C 
ATOM     21  C26 ZIN A   1      21.093   0.196  12.272  0.00  0.00     0.020 C 
ENDROOT
BRANCH   3  22
ATOM     22  O4  ZIN A   1      20.575  -0.225   9.683  0.00  0.00    -0.377 OA
ATOM     23  H28 ZIN A   1      20.332   0.151   8.827  0.00  0.00     0.211 HD
ENDBRANCH   3  22
TORSDOF 1
ENDMDL
MODEL 4
REMARK VINA RESULT:      -8.3      2.105      6.595
REMARK  1 active torsions:
REMARK  status: ('A' for Active; 'I' for Inactive)
REMARK    1  A    between atoms: C3_3  and  O4_4 
ROOT
ATOM      1  C1  ZIN A   1      17.075  -0.150  16.638  0.00  0.00     0.015 C 
ATOM      2  C2  ZIN A   1      17.743   0.375  15.827  0.00  0.00    -0.078 C 
ATOM      3  C3  ZIN A   1      18.580   1.033  14.810  0.00  0.00     0.128 C 
ATOM      4  C5  ZIN A   1      17.751   2.083  14.031  0.00  0.00     0.052 C 
ATOM      5  C6  ZIN A   1      17.684   1.584  12.562  0.00  0.00     0.010 C 
ATOM      6  C7  ZIN A   1      17.907   0.074  12.701  0.00  0.00     0.002 C 
ATOM      7  C9  ZIN A   1      18.406  -0.637  11.456  0.00  0.00    -0.005 C 
ATOM      8  C11 ZIN A   1      17.349  -0.551  10.351  0.00  0.00     0.010 C 
ATOM      9  C12 ZIN A   1      17.894  -1.211   9.084  0.00  0.00     0.035 C 
ATOM     10  C13 ZIN A   1      18.319  -2.629   9.413  0.00  0.00    -0.072 C 
ATOM     11  C14 ZIN A   1      17.900  -3.604   8.608  0.00  0.00     0.053 C 
ATOM     12  C15 ZIN A   1      18.293  -4.993   8.870  0.00  0.00     0.149 C 
ATOM     13  O16 ZIN A   1      17.661  -5.930   8.427  0.00  0.00    -0.293 OA
ATOM     14  C17 ZIN A   1      19.529  -5.197   9.723  0.00  0.00     0.084 C 
ATOM     15  C18 ZIN A   1      19.375  -4.324  10.968  0.00  0.00     0.017 C 
ATOM     16  C19 ZIN A   1      19.192  -2.861  10.609  0.00  0.00     0.019 C 
ATOM     17  C21 ZIN A   1      18.642  -2.109  11.827  0.00  0.00    -0.002 C 
ATOM     18  C23 ZIN A   1      19.619  -2.263  12.990  0.00  0.00     0.006 C 
ATOM     19  C24 ZIN A   1      19.188  -1.431  14.209  0.00  0.00     0.014 C 
ATOM     20  C25 ZIN A   1      19.035   0.021  13.765  0.00  0.00     0.003 C 
ATOM     21  C26 ZIN A   1      20.326   0.496  13.096  0.00  0.00     0.020 C 
ENDROOT
BRANCH   3  22
ATOM     22  O4  ZIN A   1      19.711   1.652  15.427  0.00  0.00    -0.377 OA
ATOM     23  H28 ZIN A   1      19.487   2.235  16.164  0.00  0.00     0.211 HD
ENDBRANCH   3  22
TORSDOF 1
ENDMDL
MODEL 5
REMARK VINA RESULT:      -8.3      2.587      4.079
REMARK  1 active torsions:
REMARK  status: ('A' for Active; 'I' for Inactive)
REMARK    1  A    between atoms: C3_3  and  O4_4 
ROOT
ATOM      1  C1  ZIN A   1      17.017  -0.033   6.539  0.00  0.00     0.015 C 
ATOM      2  C2  ZIN A   1      17.716  -0.522   7.347  0.00  0.00    -0.078 C 
ATOM      3  C3  ZIN A   1      18.592  -1.134   8.359  0.00  0.00     0.128 C 
ATOM      4  C5  ZIN A   1      17.813  -2.200   9.168  0.00  0.00     0.052 C 
ATOM      5  C6  ZIN A   1      17.752  -1.681  10.630  0.00  0.00     0.010 C 
ATOM      6  C7  ZIN A   1      17.919  -0.167  10.465  0.00  0.00     0.002 C 
ATOM      7  C9  ZIN A   1      18.413   0.581  11.691  0.00  0.00    -0.005 C 
ATOM      8  C11 ZIN A   1      17.377   0.474  12.814  0.00  0.00     0.010 C 
ATOM      9  C12 ZIN A   1      17.919   1.172  14.063  0.00  0.00     0.035 C 
ATOM     10  C13 ZIN A   1      18.289   2.600  13.705  0.00  0.00    -0.072 C 
ATOM     11  C14 ZIN A   1      17.849   3.572  14.502  0.00  0.00     0.053 C 
ATOM     12  C15 ZIN A   1      18.188   4.970  14.213  0.00  0.00     0.149 C 
ATOM     13  O16 ZIN A   1      17.531   5.891  14.652  0.00  0.00    -0.293 OA
ATOM     14  C17 ZIN A   1      19.403   5.203  13.337  0.00  0.00     0.084 C 
ATOM     15  C18 ZIN A   1      19.259   4.306  12.108  0.00  0.00     0.017 C 
ATOM     16  C19 ZIN A   1      19.133   2.843  12.492  0.00  0.00     0.019 C 
ATOM     17  C21 ZIN A   1      18.591   2.054  11.294  0.00  0.00    -0.002 C 
ATOM     18  C23 ZIN A   1      19.543   2.223  10.113  0.00  0.00     0.006 C 
ATOM     19  C24 ZIN A   1      19.123   1.358   8.914  0.00  0.00     0.014 C 
ATOM     20  C25 ZIN A   1      19.028  -0.091   9.382  0.00  0.00     0.003 C 
ATOM     21  C26 ZIN A   1      20.345  -0.510  10.037  0.00  0.00     0.020 C 
ENDROOT
BRANCH   3  22
ATOM     22  O4  ZIN A   1      19.734  -1.723   7.734  0.00  0.00    -0.377 OA
ATOM     23  H28 ZIN A   1      19.615  -2.650   7.489  0.00  0.00     0.211 HD
ENDBRANCH   3  22
TORSDOF 1
ENDMDL
MODEL 6
REMARK VINA RESULT:      -8.1      3.100      6.174
REMARK  1 active torsions:
REMARK  status: ('A' for Active; 'I' for Inactive)
REMARK    1  A    between atoms: C3_3  and  O4_4 
ROOT
ATOM      1  C1  ZIN A   1      17.320  -0.118  13.711  0.00  0.00     0.015 C 
ATOM      2  C2  ZIN A   1      18.318   0.194  13.177  0.00  0.00    -0.078 C 
ATOM      3  C3  ZIN A   1      19.570   0.586  12.507  0.00  0.00     0.128 C 
ATOM      4  C5  ZIN A   1      19.547   2.097  12.169  0.00  0.00     0.052 C 
ATOM      5  C6  ZIN A   1      19.573   2.198  10.620  0.00  0.00     0.010 C 
ATOM      6  C7  ZIN A   1      19.001   0.847  10.177  0.00  0.00     0.002 C 
ATOM      7  C9  ZIN A   1      19.356   0.411   8.767  0.00  0.00    -0.005 C 
ATOM      8  C11 ZIN A   1      18.745   1.386   7.755  0.00  0.00     0.010 C 
ATOM      9  C12 ZIN A   1      19.168   0.972   6.344  0.00  0.00     0.035 C 
ATOM     10  C13 ZIN A   1      18.770  -0.474   6.117  0.00  0.00    -0.072 C 
ATOM     11  C14 ZIN A   1      18.121  -0.768   4.991  0.00  0.00     0.053 C 
ATOM     12  C15 ZIN A   1      17.724  -2.152   4.711  0.00  0.00     0.149 C 
ATOM     13  O16 ZIN A   1      16.834  -2.417   3.930  0.00  0.00    -0.293 OA
ATOM     14  C17 ZIN A   1      18.486  -3.235   5.450  0.00  0.00     0.084 C 
ATOM     15  C18 ZIN A   1      18.502  -2.855   6.930  0.00  0.00     0.017 C 
ATOM     16  C19 ZIN A   1      19.133  -1.493   7.153  0.00  0.00     0.019 C 
ATOM     17  C21 ZIN A   1      18.762  -0.990   8.553  0.00  0.00    -0.002 C 
ATOM     18  C23 ZIN A   1      19.259  -1.993   9.591  0.00  0.00     0.006 C 
ATOM     19  C24 ZIN A   1      19.027  -1.489  11.025  0.00  0.00     0.014 C 
ATOM     20  C25 ZIN A   1      19.697  -0.126  11.166  0.00  0.00     0.003 C 
ATOM     21  C26 ZIN A   1      21.168  -0.227  10.758  0.00  0.00     0.020 C 
ENDROOT
BRANCH   3  22
ATOM     22  O4  ZIN A   1      20.691   0.281  13.339  0.00  0.00    -0.377 OA
ATOM     23  H28 ZIN A   1      20.520  -0.410  13.993  0.00  0.00     0.211 HD
ENDBRANCH   3  22
TORSDOF 1
ENDMDL
MODEL 7
REMARK VINA RESULT:      -8.0      3.020      6.619
REMARK  1 active torsions:
REMARK  status: ('A' for Active; 'I' for Inactive)
REMARK    1  A    between atoms: C3_3  and  O4_4 
ROOT
ATOM      1  C1  ZIN A   1      16.958   0.268  12.604  0.00  0.00     0.015 C 
ATOM      2  C2  ZIN A   1      17.929   0.536  12.001  0.00  0.00    -0.078 C 
ATOM      3  C3  ZIN A   1      19.147   0.872  11.245  0.00  0.00     0.128 C 
ATOM      4  C5  ZIN A   1      19.043   2.306  10.670  0.00  0.00     0.052 C 
ATOM      5  C6  ZIN A   1      19.036   2.157   9.124  0.00  0.00     0.010 C 
ATOM      6  C7  ZIN A   1      18.524   0.728   8.919  0.00  0.00     0.002 C 
ATOM      7  C9  ZIN A   1      18.874   0.086   7.588  0.00  0.00    -0.005 C 
ATOM      8  C11 ZIN A   1      18.197   0.855   6.449  0.00  0.00     0.010 C 
ATOM      9  C12 ZIN A   1      18.615   0.240   5.112  0.00  0.00     0.035 C 
ATOM     10  C13 ZIN A   1      18.285  -1.241   5.130  0.00  0.00    -0.072 C 
ATOM     11  C14 ZIN A   1      17.631  -1.743   4.083  0.00  0.00     0.053 C 
ATOM     12  C15 ZIN A   1      17.299  -3.171   4.040  0.00  0.00     0.149 C 
ATOM     13  O16 ZIN A   1      16.409  -3.599   3.334  0.00  0.00    -0.293 OA
ATOM     14  C17 ZIN A   1      18.127  -4.084   4.923  0.00  0.00     0.084 C 
ATOM     15  C18 ZIN A   1      18.151  -3.470   6.321  0.00  0.00     0.017 C 
ATOM     16  C19 ZIN A   1      18.718  -2.061   6.306  0.00  0.00     0.019 C 
ATOM     17  C21 ZIN A   1      18.348  -1.357   7.617  0.00  0.00    -0.002 C 
ATOM     18  C23 ZIN A   1      18.912  -2.155   8.789  0.00  0.00     0.006 C 
ATOM     19  C24 ZIN A   1      18.682  -1.438  10.129  0.00  0.00     0.014 C 
ATOM     20  C25 ZIN A   1      19.285  -0.040  10.032  0.00  0.00     0.003 C 
ATOM     21  C26 ZIN A   1      20.752  -0.138   9.608  0.00  0.00     0.020 C 
ENDROOT
BRANCH   3  22
ATOM     22  O4  ZIN A   1      20.298   0.757  12.086  0.00  0.00    -0.377 OA
ATOM     23  H28 ZIN A   1      20.590  -0.152  12.231  0.00  0.00     0.211 HD
ENDBRANCH   3  22
TORSDOF 1
ENDMDL
MODEL 8
REMARK VINA RESULT:      -7.9      2.088      2.708
REMARK  1 active torsions:
REMARK  status: ('A' for Active; 'I' for Inactive)
REMARK    1  A    between atoms: C3_3  and  O4_4 
ROOT
ATOM      1  C1  ZIN A   1      15.916  -5.739   5.432  0.00  0.00     0.015 C 
ATOM      2  C2  ZIN A   1      16.971  -5.785   5.945  0.00  0.00    -0.078 C 
ATOM      3  C3  ZIN A   1      18.294  -5.841   6.589  0.00  0.00     0.128 C 
ATOM      4  C5  ZIN A   1      18.193  -6.554   7.960  0.00  0.00     0.052 C 
ATOM      5  C6  ZIN A   1      18.556  -5.491   9.033  0.00  0.00     0.010 C 
ATOM      6  C7  ZIN A   1      18.239  -4.168   8.327  0.00  0.00     0.002 C 
ATOM      7  C9  ZIN A   1      18.943  -2.941   8.877  0.00  0.00    -0.005 C 
ATOM      8  C11 ZIN A   1      18.478  -2.678  10.313  0.00  0.00     0.010 C 
ATOM      9  C12 ZIN A   1      19.247  -1.482  10.877  0.00  0.00     0.035 C 
ATOM     10  C13 ZIN A   1      19.060  -0.297   9.947  0.00  0.00    -0.072 C 
ATOM     11  C14 ZIN A   1      18.714   0.869  10.492  0.00  0.00     0.053 C 
ATOM     12  C15 ZIN A   1      18.534   2.052   9.643  0.00  0.00     0.149 C 
ATOM     13  O16 ZIN A   1      17.873   3.003  10.005  0.00  0.00    -0.293 OA
ATOM     14  C17 ZIN A   1      19.217   2.022   8.290  0.00  0.00     0.084 C 
ATOM     15  C18 ZIN A   1      18.862   0.693   7.627  0.00  0.00     0.017 C 
ATOM     16  C19 ZIN A   1      19.284  -0.490   8.479  0.00  0.00     0.019 C 
ATOM     17  C21 ZIN A   1      18.559  -1.749   7.987  0.00  0.00    -0.002 C 
ATOM     18  C23 ZIN A   1      18.911  -1.986   6.520  0.00  0.00     0.006 C 
ATOM     19  C24 ZIN A   1      18.313  -3.302   5.998  0.00  0.00     0.014 C 
ATOM     20  C25 ZIN A   1      18.791  -4.434   6.901  0.00  0.00     0.003 C 
ATOM     21  C26 ZIN A   1      20.318  -4.420   6.985  0.00  0.00     0.020 C 
ENDROOT
BRANCH   3  22
ATOM     22  O4  ZIN A   1      19.226  -6.521   5.745  0.00  0.00    -0.377 OA
ATOM     23  H28 ZIN A   1      19.656  -7.279   6.162  0.00  0.00     0.211 HD
ENDBRANCH   3  22
TORSDOF 1
ENDMDL
MODEL 9
REMARK VINA RESULT:      -7.9      1.872      6.469
REMARK  1 active torsions:
REMARK  status: ('A' for Active; 'I' for Inactive)
REMARK    1  A    between atoms: C3_3  and  O4_4 
ROOT
ATOM      1  C1  ZIN A   1      20.303   3.364  11.483  0.00  0.00     0.015 C 
ATOM      2  C2  ZIN A   1      19.366   2.714  11.763  0.00  0.00    -0.078 C 
ATOM      3  C3  ZIN A   1      18.191   1.899  12.114  0.00  0.00     0.128 C 
ATOM      4  C5  ZIN A   1      18.363   1.292  13.529  0.00  0.00     0.052 C 
ATOM      5  C6  ZIN A   1      18.430  -0.248  13.339  0.00  0.00     0.010 C 
ATOM      6  C7  ZIN A   1      18.907  -0.395  11.890  0.00  0.00     0.002 C 
ATOM      7  C9  ZIN A   1      18.594  -1.723  11.224  0.00  0.00    -0.005 C 
ATOM      8  C11 ZIN A   1      19.341  -2.851  11.943  0.00  0.00     0.010 C 
ATOM      9  C12 ZIN A   1      18.961  -4.188  11.305  0.00  0.00     0.035 C 
ATOM     10  C13 ZIN A   1      19.245  -4.119   9.816  0.00  0.00    -0.072 C 
ATOM     11  C14 ZIN A   1      19.927  -5.124   9.268  0.00  0.00     0.053 C 
ATOM     12  C15 ZIN A   1      20.217  -5.117   7.830  0.00  0.00     0.149 C 
ATOM     13  O16 ZIN A   1      21.123  -5.773   7.358  0.00  0.00    -0.293 OA
ATOM     14  C17 ZIN A   1      19.326  -4.248   6.965  0.00  0.00     0.084 C 
ATOM     15  C18 ZIN A   1      19.262  -2.868   7.616  0.00  0.00     0.017 C 
ATOM     16  C19 ZIN A   1      18.739  -2.942   9.040  0.00  0.00     0.019 C 
ATOM     17  C21 ZIN A   1      19.075  -1.635   9.768  0.00  0.00    -0.002 C 
ATOM     18  C23 ZIN A   1      18.438  -0.468   9.018  0.00  0.00     0.006 C 
ATOM     19  C24 ZIN A   1      18.633   0.862   9.763  0.00  0.00     0.014 C 
ATOM     20  C25 ZIN A   1      18.077   0.704  11.174  0.00  0.00     0.003 C 
ATOM     21  C26 ZIN A   1      16.627   0.220  11.108  0.00  0.00     0.020 C 
ENDROOT
BRANCH   3  22
ATOM     22  O4  ZIN A   1      17.004   2.692  12.055  0.00  0.00    -0.377 OA
ATOM     23  H28 ZIN A   1      16.763   2.974  11.163  0.00  0.00     0.211 HD
ENDBRANCH   3  22
TORSDOF 1
ENDMDL
