MODEL 1
REMARK VINA RESULT:      -9.2      0.000      0.000
REMARK  4 active torsions:
REMARK  status: ('A' for Active; 'I' for Inactive)
REMARK       I    between atoms: N2_2  and  C3_3 
REMARK    1  A    between atoms: C3_3  and  C5_5 
REMARK    2  A    between atoms: C8_8  and  N9_9 
REMARK    3  A    between atoms: N12_12  and  C13_13 
REMARK    4  A    between atoms: C19_19  and  C20_20 
ROOT
ATOM      1  C13 ZIN A   1      18.279   4.558  14.003  0.00  0.00     0.045 A 
ATOM      2  C14 ZIN A   1      19.397   5.357  14.211  0.00  0.00     0.032 A 
ATOM      3  C15 ZIN A   1      19.265   6.579  14.835  0.00  0.00     0.026 A 
ATOM      4  C16 ZIN A   1      18.007   7.013  15.257  0.00  0.00     0.059 A 
ATOM      5  C17 ZIN A   1      17.865   8.283  15.906  0.00  0.00     0.100 C 
ATOM      6  N18 ZIN A   1      17.753   9.289  16.420  0.00  0.00    -0.191 NA
ATOM      7  C19 ZIN A   1      16.886   6.206  15.046  0.00  0.00     0.070 A 
ATOM      8  C24 ZIN A   1      17.023   4.990  14.417  0.00  0.00     0.048 A 
ENDROOT
BRANCH   7   9
ATOM      9  C20 ZIN A   1      15.525   6.672  15.499  0.00  0.00     0.419 C 
ATOM     10  F21 ZIN A   1      14.554   5.761  15.068  0.00  0.00    -0.166 F 
ATOM     11  F22 ZIN A   1      15.502   6.752  16.895  0.00  0.00    -0.166 F 
ATOM     12  F23 ZIN A   1      15.257   7.931  14.954  0.00  0.00    -0.166 F 
ENDBRANCH   7   9
BRANCH   1  13
ATOM     13  N12 ZIN A   1      18.416   3.319  13.369  0.00  0.00    -0.256 N 
ATOM     14  C10 ZIN A   1      18.215   3.116  12.063  0.00  0.00     0.189 A 
ATOM     15  N9  ZIN A   1      18.412   1.834  11.705  0.00  0.00    -0.305 N 
ATOM     16  S11 ZIN A   1      17.757   4.350  10.967  0.00  0.00    -0.040 SA
ATOM     17  C27 ZIN A   1      18.784   1.107  12.930  0.00  0.00     0.114 A 
ATOM     18  C25 ZIN A   1      18.768   2.181  14.000  0.00  0.00     0.259 A 
ATOM     19  C28 ZIN A   1      17.761   0.015  13.248  0.00  0.00     0.049 C 
ATOM     20  C29 ZIN A   1      20.185   0.509  12.788  0.00  0.00     0.049 C 
ATOM     21  O26 ZIN A   1      19.015   2.044  15.179  0.00  0.00    -0.270 OA
BRANCH  15  22
ATOM     22  C8  ZIN A   1      18.283   1.298  10.425  0.00  0.00     0.041 A 
ATOM     23  C7  ZIN A   1      17.346   0.298  10.182  0.00  0.00     0.031 A 
ATOM     24  C6  ZIN A   1      17.215  -0.235   8.921  0.00  0.00     0.022 A 
ATOM     25  C5  ZIN A   1      18.023   0.229   7.879  0.00  0.00     0.070 A 
ATOM     26  C31 ZIN A   1      18.970   1.231   8.127  0.00  0.00     0.134 A 
ATOM     27  C30 ZIN A   1      19.091   1.764   9.393  0.00  0.00     0.073 A 
ATOM     28  F32 ZIN A   1      19.755   1.684   7.124  0.00  0.00    -0.205 F 
BRANCH  25  29
ATOM     29  C3  ZIN A   1      17.885  -0.339   6.526  0.00  0.00     0.254 C 
ATOM     30  N2  ZIN A   1      18.864  -1.113   6.017  0.00  0.00    -0.361 N 
ATOM     31  C1  ZIN A   1      18.727  -1.677   4.672  0.00  0.00     0.149 C 
ATOM     32  H36 ZIN A   1      19.660  -1.296   6.541  0.00  0.00     0.162 HD
ATOM     33  O4  ZIN A   1      16.888  -0.109   5.869  0.00  0.00    -0.268 OA
ENDBRANCH  25  29
ENDBRANCH  15  22
ENDBRANCH   1  13
TORSDOF 4
ENDMDL
MODEL 2
REMARK VINA RESULT:      -9.0      5.369     11.075
REMARK  4 active torsions:
REMARK  status: ('A' for Active; 'I' for Inactive)
REMARK       I    between atoms: N2_2  and  C3_3 
REMARK    1  A    between atoms: C3_3  and  C5_5 
REMARK    2  A    between atoms: C8_8  and  N9_9 
REMARK    3  A    between atoms: N12_12  and  C13_13 
REMARK    4  A    between atoms: C19_19  and  C20_20 
ROOT
ATOM      1  C13 ZIN A   1      18.127  -4.205   8.885  0.00  0.00     0.045 A 
ATOM      2  C14 ZIN A   1      19.257  -4.909   8.485  0.00  0.00     0.032 A 
ATOM      3  C15 ZIN A   1      19.123  -6.112   7.826  0.00  0.00     0.026 A 
ATOM      4  C16 ZIN A   1      17.851  -6.624   7.562  0.00  0.00     0.059 A 
ATOM      5  C17 ZIN A   1      17.707  -7.875   6.879  0.00  0.00     0.100 C 
ATOM      6  N18 ZIN A   1      17.594  -8.867   6.337  0.00  0.00    -0.191 NA
ATOM      7  C19 ZIN A   1      16.717  -5.913   7.967  0.00  0.00     0.070 A 
ATOM      8  C24 ZIN A   1      16.858  -4.715   8.629  0.00  0.00     0.048 A 
ENDROOT
BRANCH   7   9
ATOM      9  C20 ZIN A   1      15.342  -6.463   7.685  0.00  0.00     0.419 C 
ATOM     10  F21 ZIN A   1      14.382  -5.652   8.301  0.00  0.00    -0.166 F 
ATOM     11  F22 ZIN A   1      15.122  -6.479   6.303  0.00  0.00    -0.166 F 
ATOM     12  F23 ZIN A   1      15.247  -7.764   8.189  0.00  0.00    -0.166 F 
ENDBRANCH   7   9
BRANCH   1  13
ATOM     13  N12 ZIN A   1      18.266  -2.985   9.553  0.00  0.00    -0.256 N 
ATOM     14  C10 ZIN A   1      18.152  -2.835  10.877  0.00  0.00     0.189 A 
ATOM     15  N9  ZIN A   1      18.329  -1.560  11.268  0.00  0.00    -0.305 N 
ATOM     16  S11 ZIN A   1      17.816  -4.122  11.955  0.00  0.00    -0.040 SA
ATOM     17  C27 ZIN A   1      18.587  -0.778  10.047  0.00  0.00     0.114 A 
ATOM     18  C25 ZIN A   1      18.532  -1.814   8.942  0.00  0.00     0.259 A 
ATOM     19  C28 ZIN A   1      17.507   0.286   9.843  0.00  0.00     0.049 C 
ATOM     20  C29 ZIN A   1      19.973  -0.133  10.113  0.00  0.00     0.049 C 
ATOM     21  O26 ZIN A   1      18.690  -1.626   7.754  0.00  0.00    -0.270 OA
BRANCH  15  22
ATOM     22  C8  ZIN A   1      18.273  -1.074  12.573  0.00  0.00     0.041 A 
ATOM     23  C7  ZIN A   1      17.424  -0.017  12.884  0.00  0.00     0.031 A 
ATOM     24  C6  ZIN A   1      17.364   0.468  14.171  0.00  0.00     0.022 A 
ATOM     25  C5  ZIN A   1      18.160  -0.104  15.169  0.00  0.00     0.070 A 
ATOM     26  C31 ZIN A   1      19.019  -1.163  14.852  0.00  0.00     0.134 A 
ATOM     27  C30 ZIN A   1      19.068  -1.646  13.561  0.00  0.00     0.073 A 
ATOM     28  F32 ZIN A   1      19.791  -1.719  15.812  0.00  0.00    -0.205 F 
BRANCH  25  29
ATOM     29  C3  ZIN A   1      18.099   0.412  16.548  0.00  0.00     0.254 C 
ATOM     30  N2  ZIN A   1      19.096   1.185  17.023  0.00  0.00    -0.361 N 
ATOM     31  C1  ZIN A   1      19.037   1.697  18.394  0.00  0.00     0.149 C 
ATOM     32  H36 ZIN A   1      19.854   1.401  16.457  0.00  0.00     0.162 HD
ATOM     33  O4  ZIN A   1      17.150   0.140  17.258  0.00  0.00    -0.268 OA
ENDBRANCH  25  29
ENDBRANCH  15  22
ENDBRANCH   1  13
TORSDOF 4
ENDMDL
MODEL 3
REMARK VINA RESULT:      -8.8      2.224      2.697
REMARK  4 active torsions:
REMARK  status: ('A' for Active; 'I' for Inactive)
REMARK       I    between atoms: N2_2  and  C3_3 
REMARK    1  A    between atoms: C3_3  and  C5_5 
REMARK    2  A    between atoms: C8_8  and  N9_9 
REMARK    3  A    between atoms: N12_12  and  C13_13 
REMARK    4  A    between atoms: C19_19  and  C20_20 
ROOT
ATOM      1  C13 ZIN A   1      18.093   3.656  13.170  0.00  0.00     0.045 A 
ATOM      2  C14 ZIN A   1      17.093   4.559  12.825  0.00  0.00     0.032 A 
ATOM      3  C15 ZIN A   1      17.075   5.816  13.387  0.00  0.00     0.026 A 
ATOM      4  C16 ZIN A   1      18.061   6.184  14.306  0.00  0.00     0.059 A 
ATOM      5  C17 ZIN A   1      18.044   7.489  14.894  0.00  0.00     0.100 C 
ATOM      6  N18 ZIN A   1      18.031   8.525  15.360  0.00  0.00    -0.191 NA
ATOM      7  C19 ZIN A   1      19.064   5.273  14.650  0.00  0.00     0.070 A 
ATOM      8  C24 ZIN A   1      19.074   4.017  14.088  0.00  0.00     0.048 A 
ENDROOT
BRANCH   7   9
ATOM      9  C20 ZIN A   1      20.130   5.665  15.641  0.00  0.00     0.419 C 
ATOM     10  F21 ZIN A   1      20.838   4.525  16.038  0.00  0.00    -0.166 F 
ATOM     11  F22 ZIN A   1      21.009   6.575  15.045  0.00  0.00    -0.166 F 
ATOM     12  F23 ZIN A   1      19.533   6.255  16.760  0.00  0.00    -0.166 F 
ENDBRANCH   7   9
BRANCH   1  13
ATOM     13  N12 ZIN A   1      18.109   2.381  12.597  0.00  0.00    -0.256 N 
ATOM     14  C10 ZIN A   1      18.321   2.143  11.298  0.00  0.00     0.189 A 
ATOM     15  N9  ZIN A   1      18.285   0.831  11.003  0.00  0.00    -0.305 N 
ATOM     16  S11 ZIN A   1      18.606   3.371  10.139  0.00  0.00    -0.040 SA
ATOM     17  C27 ZIN A   1      18.011   0.123  12.265  0.00  0.00     0.114 A 
ATOM     18  C25 ZIN A   1      17.912   1.240  13.285  0.00  0.00     0.259 A 
ATOM     19  C28 ZIN A   1      16.693  -0.649  12.181  0.00  0.00     0.049 C 
ATOM     20  C29 ZIN A   1      19.168  -0.819  12.607  0.00  0.00     0.049 C 
ATOM     21  O26 ZIN A   1      17.696   1.128  14.473  0.00  0.00    -0.270 OA
BRANCH  15  22
ATOM     22  C8  ZIN A   1      18.466   0.255   9.746  0.00  0.00     0.041 A 
ATOM     23  C7  ZIN A   1      19.630  -0.455   9.469  0.00  0.00     0.031 A 
ATOM     24  C6  ZIN A   1      19.814  -1.025   8.231  0.00  0.00     0.022 A 
ATOM     25  C5  ZIN A   1      18.829  -0.892   7.248  0.00  0.00     0.070 A 
ATOM     26  C31 ZIN A   1      17.661  -0.172   7.527  0.00  0.00     0.134 A 
ATOM     27  C30 ZIN A   1      17.482   0.392   8.773  0.00  0.00     0.073 A 
ATOM     28  F32 ZIN A   1      16.705  -0.039   6.580  0.00  0.00    -0.205 F 
BRANCH  25  29
ATOM     29  C3  ZIN A   1      19.022  -1.502   5.920  0.00  0.00     0.254 C 
ATOM     30  N2  ZIN A   1      18.335  -2.611   5.581  0.00  0.00    -0.361 N 
ATOM     31  C1  ZIN A   1      18.527  -3.217   4.262  0.00  0.00     0.149 C 
ATOM     32  H36 ZIN A   1      17.714  -3.009   6.212  0.00  0.00     0.162 HD
ATOM     33  O4  ZIN A   1      19.802  -1.005   5.130  0.00  0.00    -0.268 OA
ENDBRANCH  25  29
ENDBRANCH  15  22
ENDBRANCH   1  13
TORSDOF 4
ENDMDL
MODEL 4
REMARK VINA RESULT:      -8.1      4.378      6.402
REMARK  4 active torsions:
REMARK  status: ('A' for Active; 'I' for Inactive)
REMARK       I    between atoms: N2_2  and  C3_3 
REMARK    1  A    between atoms: C3_3  and  C5_5 
REMARK    2  A    between atoms: C8_8  and  N9_9 
REMARK    3  A    between atoms: N12_12  and  C13_13 
REMARK    4  A    between atoms: C19_19  and  C20_20 
ROOT
ATOM      1  C13 ZIN A   1      18.085  -0.454  11.529  0.00  0.00     0.045 A 
ATOM      2  C14 ZIN A   1      17.315  -0.121  12.637  0.00  0.00     0.032 A 
ATOM      3  C15 ZIN A   1      17.143   1.200  12.987  0.00  0.00     0.026 A 
ATOM      4  C16 ZIN A   1      17.746   2.206  12.228  0.00  0.00     0.059 A 
ATOM      5  C17 ZIN A   1      17.572   3.581  12.589  0.00  0.00     0.100 C 
ATOM      6  N18 ZIN A   1      17.433   4.671  12.876  0.00  0.00    -0.191 NA
ATOM      7  C19 ZIN A   1      18.520   1.867  11.115  0.00  0.00     0.070 A 
ATOM      8  C24 ZIN A   1      18.692   0.545  10.774  0.00  0.00     0.048 A 
ENDROOT
BRANCH   7   9
ATOM      9  C20 ZIN A   1      19.173   2.949  10.293  0.00  0.00     0.419 C 
ATOM     10  F21 ZIN A   1      20.132   3.609  11.069  0.00  0.00    -0.166 F 
ATOM     11  F22 ZIN A   1      19.791   2.377   9.176  0.00  0.00    -0.166 F 
ATOM     12  F23 ZIN A   1      18.204   3.865   9.872  0.00  0.00    -0.166 F 
ENDBRANCH   7   9
BRANCH   1  13
ATOM     13  N12 ZIN A   1      18.257  -1.796  11.176  0.00  0.00    -0.256 N 
ATOM     14  C10 ZIN A   1      18.071  -2.279   9.943  0.00  0.00     0.189 A 
ATOM     15  N9  ZIN A   1      18.300  -3.603   9.869  0.00  0.00    -0.305 N 
ATOM     16  S11 ZIN A   1      17.592  -1.321   8.607  0.00  0.00    -0.040 SA
ATOM     17  C27 ZIN A   1      18.680  -4.040  11.223  0.00  0.00     0.114 A 
ATOM     18  C25 ZIN A   1      18.630  -2.763  12.037  0.00  0.00     0.259 A 
ATOM     19  C28 ZIN A   1      17.680  -5.064  11.765  0.00  0.00     0.049 C 
ATOM     20  C29 ZIN A   1      20.096  -4.620  11.216  0.00  0.00     0.049 C 
ATOM     21  O26 ZIN A   1      18.872  -2.638  13.220  0.00  0.00    -0.270 OA
BRANCH  15  22
ATOM     22  C8  ZIN A   1      18.194  -4.404   8.734  0.00  0.00     0.041 A 
ATOM     23  C7  ZIN A   1      19.306  -4.611   7.924  0.00  0.00     0.031 A 
ATOM     24  C6  ZIN A   1      19.207  -5.401   6.801  0.00  0.00     0.022 A 
ATOM     25  C5  ZIN A   1      17.986  -5.998   6.474  0.00  0.00     0.070 A 
ATOM     26  C31 ZIN A   1      16.866  -5.783   7.287  0.00  0.00     0.134 A 
ATOM     27  C30 ZIN A   1      16.976  -4.994   8.413  0.00  0.00     0.073 A 
ATOM     28  F32 ZIN A   1      15.683  -6.356   6.975  0.00  0.00    -0.205 F 
BRANCH  25  29
ATOM     29  C3  ZIN A   1      17.875  -6.845   5.272  0.00  0.00     0.254 C 
ATOM     30  N2  ZIN A   1      17.893  -6.283   4.048  0.00  0.00    -0.361 N 
ATOM     31  C1  ZIN A   1      17.783  -7.124   2.854  0.00  0.00     0.149 C 
ATOM     32  H36 ZIN A   1      17.978  -5.321   3.956  0.00  0.00     0.162 HD
ATOM     33  O4  ZIN A   1      17.768  -8.051   5.387  0.00  0.00    -0.268 OA
ENDBRANCH  25  29
ENDBRANCH  15  22
ENDBRANCH   1  13
TORSDOF 4
ENDMDL
MODEL 5
REMARK VINA RESULT:      -8.0      4.850     11.135
REMARK  4 active torsions:
REMARK  status: ('A' for Active; 'I' for Inactive)
REMARK       I    between atoms: N2_2  and  C3_3 
REMARK    1  A    between atoms: C3_3  and  C5_5 
REMARK    2  A    between atoms: C8_8  and  N9_9 
REMARK    3  A    between atoms: N12_12  and  C13_13 
REMARK    4  A    between atoms: C19_19  and  C20_20 
ROOT
ATOM      1  C13 ZIN A   1      18.253  -4.142   7.137  0.00  0.00     0.045 A 
ATOM      2  C14 ZIN A   1      19.076  -3.515   6.209  0.00  0.00     0.032 A 
ATOM      3  C15 ZIN A   1      18.864  -3.701   4.861  0.00  0.00     0.026 A 
ATOM      4  C16 ZIN A   1      17.821  -4.522   4.426  0.00  0.00     0.059 A 
ATOM      5  C17 ZIN A   1      17.598  -4.719   3.026  0.00  0.00     0.100 C 
ATOM      6  N18 ZIN A   1      17.421  -4.875   1.914  0.00  0.00    -0.191 NA
ATOM      7  C19 ZIN A   1      16.995  -5.151   5.363  0.00  0.00     0.070 A 
ATOM      8  C24 ZIN A   1      17.216  -4.965   6.708  0.00  0.00     0.048 A 
ENDROOT
BRANCH   7   9
ATOM      9  C20 ZIN A   1      15.869  -6.038   4.899  0.00  0.00     0.419 C 
ATOM     10  F21 ZIN A   1      16.387  -7.085   4.129  0.00  0.00    -0.166 F 
ATOM     11  F22 ZIN A   1      15.201  -6.563   6.010  0.00  0.00    -0.166 F 
ATOM     12  F23 ZIN A   1      14.973  -5.291   4.126  0.00  0.00    -0.166 F 
ENDBRANCH   7   9
BRANCH   1  13
ATOM     13  N12 ZIN A   1      18.471  -3.950   8.505  0.00  0.00    -0.256 N 
ATOM     14  C10 ZIN A   1      18.413  -2.762   9.116  0.00  0.00     0.189 A 
ATOM     15  N9  ZIN A   1      18.662  -2.850  10.435  0.00  0.00    -0.305 N 
ATOM     16  S11 ZIN A   1      18.061  -1.293   8.311  0.00  0.00    -0.040 SA
ATOM     17  C27 ZIN A   1      18.920  -4.272  10.721  0.00  0.00     0.114 A 
ATOM     18  C25 ZIN A   1      18.766  -4.940   9.370  0.00  0.00     0.259 A 
ATOM     19  C28 ZIN A   1      20.337  -4.471  11.263  0.00  0.00     0.049 C 
ATOM     20  C29 ZIN A   1      17.884  -4.810  11.710  0.00  0.00     0.049 C 
ATOM     21  O26 ZIN A   1      18.887  -6.121   9.119  0.00  0.00    -0.270 OA
BRANCH  15  22
ATOM     22  C8  ZIN A   1      18.680  -1.800  11.351  0.00  0.00     0.041 A 
ATOM     23  C7  ZIN A   1      17.517  -1.453  12.032  0.00  0.00     0.031 A 
ATOM     24  C6  ZIN A   1      17.528  -0.417  12.937  0.00  0.00     0.022 A 
ATOM     25  C5  ZIN A   1      18.711   0.291  13.174  0.00  0.00     0.070 A 
ATOM     26  C31 ZIN A   1      19.878  -0.056  12.482  0.00  0.00     0.134 A 
ATOM     27  C30 ZIN A   1      19.860  -1.100  11.581  0.00  0.00     0.073 A 
ATOM     28  F32 ZIN A   1      21.025   0.624  12.706  0.00  0.00    -0.205 F 
BRANCH  25  29
ATOM     29  C3  ZIN A   1      18.727   1.401  14.143  0.00  0.00     0.254 C 
ATOM     30  N2  ZIN A   1      19.062   1.170  15.427  0.00  0.00    -0.361 N 
ATOM     31  C1  ZIN A   1      19.078   2.274  16.390  0.00  0.00     0.149 C 
ATOM     32  H36 ZIN A   1      19.293   0.272  15.715  0.00  0.00     0.162 HD
ATOM     33  O4  ZIN A   1      18.438   2.526  13.783  0.00  0.00    -0.268 OA
ENDBRANCH  25  29
ENDBRANCH  15  22
ENDBRANCH   1  13
TORSDOF 4
ENDMDL
MODEL 6
REMARK VINA RESULT:      -7.9      3.626      9.564
REMARK  4 active torsions:
REMARK  status: ('A' for Active; 'I' for Inactive)
REMARK       I    between atoms: N2_2  and  C3_3 
REMARK    1  A    between atoms: C3_3  and  C5_5 
REMARK    2  A    between atoms: C8_8  and  N9_9 
REMARK    3  A    between atoms: N12_12  and  C13_13 
REMARK    4  A    between atoms: C19_19  and  C20_20 
ROOT
ATOM      1  C13 ZIN A   1      18.432  -0.339  10.447  0.00  0.00     0.045 A 
ATOM      2  C14 ZIN A   1      17.648  -0.554   9.319  0.00  0.00     0.032 A 
ATOM      3  C15 ZIN A   1      17.484  -1.830   8.826  0.00  0.00     0.026 A 
ATOM      4  C16 ZIN A   1      18.108  -2.908   9.458  0.00  0.00     0.059 A 
ATOM      5  C17 ZIN A   1      17.942  -4.235   8.948  0.00  0.00     0.100 C 
ATOM      6  N18 ZIN A   1      17.810  -5.288   8.542  0.00  0.00    -0.191 NA
ATOM      7  C19 ZIN A   1      18.896  -2.687  10.592  0.00  0.00     0.070 A 
ATOM      8  C24 ZIN A   1      19.060  -1.410  11.076  0.00  0.00     0.048 A 
ENDROOT
BRANCH   7   9
ATOM      9  C20 ZIN A   1      19.572  -3.847  11.277  0.00  0.00     0.419 C 
ATOM     10  F21 ZIN A   1      20.406  -3.366  12.293  0.00  0.00    -0.166 F 
ATOM     11  F22 ZIN A   1      18.603  -4.690  11.830  0.00  0.00    -0.166 F 
ATOM     12  F23 ZIN A   1      20.335  -4.559  10.347  0.00  0.00    -0.166 F 
ENDBRANCH   7   9
BRANCH   1  13
ATOM     13  N12 ZIN A   1      18.596   0.956  10.946  0.00  0.00    -0.256 N 
ATOM     14  C10 ZIN A   1      18.217   1.345  12.168  0.00  0.00     0.189 A 
ATOM     15  N9  ZIN A   1      18.486   2.643  12.401  0.00  0.00    -0.305 N 
ATOM     16  S11 ZIN A   1      17.470   0.309  13.308  0.00  0.00    -0.040 SA
ATOM     17  C27 ZIN A   1      19.116   3.169  11.178  0.00  0.00     0.114 A 
ATOM     18  C25 ZIN A   1      19.156   1.968  10.254  0.00  0.00     0.259 A 
ATOM     19  C28 ZIN A   1      18.272   4.290  10.569  0.00  0.00     0.049 C 
ATOM     20  C29 ZIN A   1      20.532   3.663  11.481  0.00  0.00     0.049 C 
ATOM     21  O26 ZIN A   1      19.596   1.929   9.124  0.00  0.00    -0.270 OA
BRANCH  15  22
ATOM     22  C8  ZIN A   1      18.215   3.352  13.570  0.00  0.00     0.041 A 
ATOM     23  C7  ZIN A   1      17.282   4.384  13.556  0.00  0.00     0.031 A 
ATOM     24  C6  ZIN A   1      17.011   5.087  14.707  0.00  0.00     0.022 A 
ATOM     25  C5  ZIN A   1      17.675   4.764  15.895  0.00  0.00     0.070 A 
ATOM     26  C31 ZIN A   1      18.618   3.729  15.905  0.00  0.00     0.134 A 
ATOM     27  C30 ZIN A   1      18.879   3.026  14.748  0.00  0.00     0.073 A 
ATOM     28  F32 ZIN A   1      19.263   3.413  17.050  0.00  0.00    -0.205 F 
BRANCH  25  29
ATOM     29  C3  ZIN A   1      17.388   5.515  17.130  0.00  0.00     0.254 C 
ATOM     30  N2  ZIN A   1      16.276   5.243  17.841  0.00  0.00    -0.361 N 
ATOM     31  C1  ZIN A   1      15.990   5.989  19.069  0.00  0.00     0.149 C 
ATOM     32  H36 ZIN A   1      15.664   4.553  17.540  0.00  0.00     0.162 HD
ATOM     33  O4  ZIN A   1      18.154   6.381  17.508  0.00  0.00    -0.268 OA
ENDBRANCH  25  29
ENDBRANCH  15  22
ENDBRANCH   1  13
TORSDOF 4
ENDMDL
MODEL 7
REMARK VINA RESULT:      -7.8      3.222      3.697
REMARK  4 active torsions:
REMARK  status: ('A' for Active; 'I' for Inactive)
REMARK       I    between atoms: N2_2  and  C3_3 
REMARK    1  A    between atoms: C3_3  and  C5_5 
REMARK    2  A    between atoms: C8_8  and  N9_9 
REMARK    3  A    between atoms: N12_12  and  C13_13 
REMARK    4  A    between atoms: C19_19  and  C20_20 
ROOT
ATOM      1  C13 ZIN A   1      18.309   4.044  14.643  0.00  0.00     0.045 A 
ATOM      2  C14 ZIN A   1      19.344   4.215  15.556  0.00  0.00     0.032 A 
ATOM      3  C15 ZIN A   1      19.187   5.069  16.625  0.00  0.00     0.026 A 
ATOM      4  C16 ZIN A   1      17.987   5.765  16.791  0.00  0.00     0.059 A 
ATOM      5  C17 ZIN A   1      17.821   6.655  17.901  0.00  0.00     0.100 C 
ATOM      6  N18 ZIN A   1      17.689   7.361  18.781  0.00  0.00    -0.191 NA
ATOM      7  C19 ZIN A   1      16.949   5.590  15.871  0.00  0.00     0.070 A 
ATOM      8  C24 ZIN A   1      17.115   4.739  14.803  0.00  0.00     0.048 A 
ENDROOT
BRANCH   7   9
ATOM      9  C20 ZIN A   1      15.653   6.339  16.046  0.00  0.00     0.419 C 
ATOM     10  F21 ZIN A   1      14.770   5.988  15.018  0.00  0.00    -0.166 F 
ATOM     11  F22 ZIN A   1      15.086   6.007  17.281  0.00  0.00    -0.166 F 
ATOM     12  F23 ZIN A   1      15.899   7.715  16.000  0.00  0.00    -0.166 F 
ENDBRANCH   7   9
BRANCH   1  13
ATOM     13  N12 ZIN A   1      18.472   3.176  13.559  0.00  0.00    -0.256 N 
ATOM     14  C10 ZIN A   1      18.259   1.857  13.614  0.00  0.00     0.189 A 
ATOM     15  N9  ZIN A   1      18.487   1.249  12.436  0.00  0.00    -0.305 N 
ATOM     16  S11 ZIN A   1      17.753   1.032  15.027  0.00  0.00    -0.040 SA
ATOM     17  C27 ZIN A   1      18.905   2.301  11.494  0.00  0.00     0.114 A 
ATOM     18  C25 ZIN A   1      18.863   3.565  12.330  0.00  0.00     0.259 A 
ATOM     19  C28 ZIN A   1      20.323   2.042  10.981  0.00  0.00     0.049 C 
ATOM     20  C29 ZIN A   1      17.918   2.393  10.328  0.00  0.00     0.049 C 
ATOM     21  O26 ZIN A   1      19.130   4.692  11.968  0.00  0.00    -0.270 OA
BRANCH  15  22
ATOM     22  C8  ZIN A   1      18.358  -0.111  12.161  0.00  0.00     0.041 A 
ATOM     23  C7  ZIN A   1      17.143  -0.616  11.710  0.00  0.00     0.031 A 
ATOM     24  C6  ZIN A   1      17.010  -1.959  11.437  0.00  0.00     0.022 A 
ATOM     25  C5  ZIN A   1      18.099  -2.818  11.615  0.00  0.00     0.070 A 
ATOM     26  C31 ZIN A   1      19.319  -2.308  12.076  0.00  0.00     0.134 A 
ATOM     27  C30 ZIN A   1      19.445  -0.961  12.341  0.00  0.00     0.073 A 
ATOM     28  F32 ZIN A   1      20.375  -3.134  12.250  0.00  0.00    -0.205 F 
BRANCH  25  29
ATOM     29  C3  ZIN A   1      17.961  -4.256  11.324  0.00  0.00     0.254 C 
ATOM     30  N2  ZIN A   1      18.045  -4.698  10.054  0.00  0.00    -0.361 N 
ATOM     31  C1  ZIN A   1      17.907  -6.127   9.765  0.00  0.00     0.149 C 
ATOM     32  H36 ZIN A   1      18.196  -4.070   9.330  0.00  0.00     0.162 HD
ATOM     33  O4  ZIN A   1      17.771  -5.044  12.231  0.00  0.00    -0.268 OA
ENDBRANCH  25  29
ENDBRANCH  15  22
ENDBRANCH   1  13
TORSDOF 4
ENDMDL
MODEL 8
REMARK VINA RESULT:      -7.8      1.164      1.444
REMARK  4 active torsions:
REMARK  status: ('A' for Active; 'I' for Inactive)
REMARK       I    between atoms: N2_2  and  C3_3 
REMARK    1  A    between atoms: C3_3  and  C5_5 
REMARK    2  A    between atoms: C8_8  and  N9_9 
REMARK    3  A    between atoms: N12_12  and  C13_13 
REMARK    4  A    between atoms: C19_19  and  C20_20 
ROOT
ATOM      1  C13 ZIN A   1      18.345   4.327  14.507  0.00  0.00     0.045 A 
ATOM      2  C14 ZIN A   1      18.711   5.541  13.936  0.00  0.00     0.032 A 
ATOM      3  C15 ZIN A   1      18.523   6.715  14.632  0.00  0.00     0.026 A 
ATOM      4  C16 ZIN A   1      17.963   6.685  15.911  0.00  0.00     0.059 A 
ATOM      5  C17 ZIN A   1      17.765   7.904  16.638  0.00  0.00     0.100 C 
ATOM      6  N18 ZIN A   1      17.608   8.870  17.213  0.00  0.00    -0.191 NA
ATOM      7  C19 ZIN A   1      17.597   5.463  16.482  0.00  0.00     0.070 A 
ATOM      8  C24 ZIN A   1      17.783   4.294  15.779  0.00  0.00     0.048 A 
ENDROOT
BRANCH   7   9
ATOM      9  C20 ZIN A   1      16.992   5.426  17.862  0.00  0.00     0.419 C 
ATOM     10  F21 ZIN A   1      15.724   6.017  17.831  0.00  0.00    -0.166 F 
ATOM     11  F22 ZIN A   1      16.876   4.097  18.284  0.00  0.00    -0.166 F 
ATOM     12  F23 ZIN A   1      17.812   6.128  18.750  0.00  0.00    -0.166 F 
ENDBRANCH   7   9
BRANCH   1  13
ATOM     13  N12 ZIN A   1      18.538   3.137  13.799  0.00  0.00    -0.256 N 
ATOM     14  C10 ZIN A   1      18.228   2.973  12.508  0.00  0.00     0.189 A 
ATOM     15  N9  ZIN A   1      18.511   1.734  12.065  0.00  0.00    -0.305 N 
ATOM     16  S11 ZIN A   1      17.546   4.200  11.528  0.00  0.00    -0.040 SA
ATOM     17  C27 ZIN A   1      19.071   0.996  13.210  0.00  0.00     0.114 A 
ATOM     18  C25 ZIN A   1      19.058   2.015  14.332  0.00  0.00     0.259 A 
ATOM     19  C28 ZIN A   1      18.195  -0.207  13.565  0.00  0.00     0.049 C 
ATOM     20  C29 ZIN A   1      20.502   0.549  12.904  0.00  0.00     0.049 C 
ATOM     21  O26 ZIN A   1      19.435   1.852  15.473  0.00  0.00    -0.270 OA
BRANCH  15  22
ATOM     22  C8  ZIN A   1      18.307   1.244  10.777  0.00  0.00     0.041 A 
ATOM     23  C7  ZIN A   1      17.287   0.329  10.536  0.00  0.00     0.031 A 
ATOM     24  C6  ZIN A   1      17.081  -0.159   9.265  0.00  0.00     0.022 A 
ATOM     25  C5  ZIN A   1      17.899   0.266   8.214  0.00  0.00     0.070 A 
ATOM     26  C31 ZIN A   1      18.929   1.183   8.460  0.00  0.00     0.134 A 
ATOM     27  C30 ZIN A   1      19.124   1.670   9.735  0.00  0.00     0.073 A 
ATOM     28  F32 ZIN A   1      19.723   1.597   7.448  0.00  0.00    -0.205 F 
BRANCH  25  29
ATOM     29  C3  ZIN A   1      17.682  -0.253   6.852  0.00  0.00     0.254 C 
ATOM     30  N2  ZIN A   1      18.602  -1.055   6.282  0.00  0.00    -0.361 N 
ATOM     31  C1  ZIN A   1      18.387  -1.572   4.928  0.00  0.00     0.149 C 
ATOM     32  H36 ZIN A   1      19.408  -1.291   6.768  0.00  0.00     0.162 HD
ATOM     33  O4  ZIN A   1      16.671   0.042   6.242  0.00  0.00    -0.268 OA
ENDBRANCH  25  29
ENDBRANCH  15  22
ENDBRANCH   1  13
TORSDOF 4
ENDMDL
MODEL 9
REMARK VINA RESULT:      -7.8      2.376      3.075
REMARK  4 active torsions:
REMARK  status: ('A' for Active; 'I' for Inactive)
REMARK       I    between atoms: N2_2  and  C3_3 
REMARK    1  A    between atoms: C3_3  and  C5_5 
REMARK    2  A    between atoms: C8_8  and  N9_9 
REMARK    3  A    between atoms: N12_12  and  C13_13 
REMARK    4  A    between atoms: C19_19  and  C20_20 
ROOT
ATOM      1  C13 ZIN A   1      19.055   2.406  12.813  0.00  0.00     0.045 A 
ATOM      2  C14 ZIN A   1      19.465   3.563  12.161  0.00  0.00     0.032 A 
ATOM      3  C15 ZIN A   1      19.605   4.739  12.865  0.00  0.00     0.026 A 
ATOM      4  C16 ZIN A   1      19.334   4.768  14.235  0.00  0.00     0.059 A 
ATOM      5  C17 ZIN A   1      19.477   5.989  14.970  0.00  0.00     0.100 C 
ATOM      6  N18 ZIN A   1      19.591   6.957  15.553  0.00  0.00    -0.191 NA
ATOM      7  C19 ZIN A   1      18.923   3.602  14.887  0.00  0.00     0.070 A 
ATOM      8  C24 ZIN A   1      18.780   2.432  14.177  0.00  0.00     0.048 A 
ENDROOT
BRANCH   7   9
ATOM      9  C20 ZIN A   1      18.629   3.628  16.365  0.00  0.00     0.419 C 
ATOM     10  F21 ZIN A   1      18.131   2.382  16.763  0.00  0.00    -0.166 F 
ATOM     11  F22 ZIN A   1      19.805   3.907  17.069  0.00  0.00    -0.166 F 
ATOM     12  F23 ZIN A   1      17.678   4.617  16.634  0.00  0.00    -0.166 F 
ENDBRANCH   7   9
BRANCH   1  13
ATOM     13  N12 ZIN A   1      18.915   1.214  12.096  0.00  0.00    -0.256 N 
ATOM     14  C10 ZIN A   1      18.727   1.150  10.773  0.00  0.00     0.189 A 
ATOM     15  N9  ZIN A   1      18.621  -0.115  10.329  0.00  0.00    -0.305 N 
ATOM     16  S11 ZIN A   1      18.631   2.526   9.758  0.00  0.00    -0.040 SA
ATOM     17  C27 ZIN A   1      18.751  -0.988  11.509  0.00  0.00     0.114 A 
ATOM     18  C25 ZIN A   1      18.950  -0.013  12.652  0.00  0.00     0.259 A 
ATOM     19  C28 ZIN A   1      17.480  -1.813  11.720  0.00  0.00     0.049 C 
ATOM     20  C29 ZIN A   1      19.969  -1.902  11.361  0.00  0.00     0.049 C 
ATOM     21  O26 ZIN A   1      19.106  -0.282  13.825  0.00  0.00    -0.270 OA
BRANCH  15  22
ATOM     22  C8  ZIN A   1      18.421  -0.521   9.011  0.00  0.00     0.041 A 
ATOM     23  C7  ZIN A   1      17.321  -0.053   8.300  0.00  0.00     0.031 A 
ATOM     24  C6  ZIN A   1      17.118  -0.450   6.998  0.00  0.00     0.022 A 
ATOM     25  C5  ZIN A   1      18.020  -1.326   6.388  0.00  0.00     0.070 A 
ATOM     26  C31 ZIN A   1      19.124  -1.802   7.107  0.00  0.00     0.134 A 
ATOM     27  C30 ZIN A   1      19.322  -1.394   8.410  0.00  0.00     0.073 A 
ATOM     28  F32 ZIN A   1      19.999  -2.649   6.523  0.00  0.00    -0.205 F 
BRANCH  25  29
ATOM     29  C3  ZIN A   1      17.807  -1.754   4.993  0.00  0.00     0.254 C 
ATOM     30  N2  ZIN A   1      17.101  -2.872   4.732  0.00  0.00    -0.361 N 
ATOM     31  C1  ZIN A   1      16.889  -3.297   3.347  0.00  0.00     0.149 C 
ATOM     32  H36 ZIN A   1      16.733  -3.395   5.461  0.00  0.00     0.162 HD
ATOM     33  O4  ZIN A   1      18.269  -1.099   4.079  0.00  0.00    -0.268 OA
ENDBRANCH  25  29
ENDBRANCH  15  22
ENDBRANCH   1  13
TORSDOF 4
ENDMDL
