MODEL 1
REMARK VINA RESULT:      -5.6      0.000      0.000
REMARK  2 active torsions:
REMARK  status: ('A' for Active; 'I' for Inactive)
REMARK    1  A    between atoms: C8_8  and  N9_9 
REMARK    2  A    between atoms: N9_9  and  C10_10 
ROOT
ATOM      1 Cl1  ZIN A   1      19.379   1.722   8.211  0.00  0.00    -0.082 Cl
ATOM      2  C2  ZIN A   1      18.937   2.081   9.850  0.00  0.00     0.063 A 
ATOM      3  C3  ZIN A   1      18.050   3.107  10.119  0.00  0.00     0.026 A 
ATOM      4  C4  ZIN A   1      17.697   3.393  11.425  0.00  0.00     0.003 A 
ATOM      5  C5  ZIN A   1      18.229   2.656  12.467  0.00  0.00     0.026 A 
ATOM      6  C6  ZIN A   1      19.116   1.629  12.205  0.00  0.00     0.063 A 
ATOM      7 Cl7  ZIN A   1      19.784   0.703  13.513  0.00  0.00    -0.082 Cl
ATOM      8  C8  ZIN A   1      19.469   1.334  10.894  0.00  0.00     0.092 A 
ENDROOT
BRANCH   8   9
ATOM      9  N9  ZIN A   1      20.368   0.294  10.625  0.00  0.00    -0.187 N 
ATOM     10  H18 ZIN A   1      21.297   0.494  10.434  0.00  0.00     0.184 HD
BRANCH   9  11
ATOM     11  C10 ZIN A   1      19.931  -1.011  10.634  0.00  0.00     0.696 A 
ATOM     12  N14 ZIN A   1      20.584  -2.007  11.308  0.00  0.00    -0.223 N 
ATOM     13  C13 ZIN A   1      19.846  -3.265  11.104  0.00  0.00     0.160 A 
ATOM     14  H23 ZIN A   1      21.391  -1.902  11.834  0.00  0.00     0.177 HD
ATOM     15  C12 ZIN A   1      18.670  -2.844  10.199  0.00  0.00     0.189 A 
ATOM     16  N11 ZIN A   1      18.874  -1.402  10.001  0.00  0.00    -0.106 NA
ENDBRANCH   9  11
ENDBRANCH   8   9
TORSDOF 2
ENDMDL
MODEL 2
REMARK VINA RESULT:      -5.6      0.074      2.417
REMARK  2 active torsions:
REMARK  status: ('A' for Active; 'I' for Inactive)
REMARK    1  A    between atoms: C8_8  and  N9_9 
REMARK    2  A    between atoms: N9_9  and  C10_10 
ROOT
ATOM      1 Cl1  ZIN A   1      19.762   0.674  13.564  0.00  0.00    -0.082 Cl
ATOM      2  C2  ZIN A   1      19.125   1.602  12.243  0.00  0.00     0.063 A 
ATOM      3  C3  ZIN A   1      18.240   2.636  12.487  0.00  0.00     0.026 A 
ATOM      4  C4  ZIN A   1      17.733   3.377  11.435  0.00  0.00     0.003 A 
ATOM      5  C5  ZIN A   1      18.106   3.086  10.136  0.00  0.00     0.026 A 
ATOM      6  C6  ZIN A   1      18.990   2.054   9.885  0.00  0.00     0.063 A 
ATOM      7 Cl7  ZIN A   1      19.460   1.689   8.254  0.00  0.00    -0.082 Cl
ATOM      8  C8  ZIN A   1      19.508   1.311  10.939  0.00  0.00     0.092 A 
ENDROOT
BRANCH   8   9
ATOM      9  N9  ZIN A   1      20.403   0.264  10.689  0.00  0.00    -0.187 N 
ATOM     10  H18 ZIN A   1      21.335   0.457  10.504  0.00  0.00     0.184 HD
BRANCH   9  11
ATOM     11  C10 ZIN A   1      19.959  -1.039  10.705  0.00  0.00     0.696 A 
ATOM     12  N14 ZIN A   1      20.627  -2.042  11.354  0.00  0.00    -0.223 N 
ATOM     13  C13 ZIN A   1      19.875  -3.295  11.168  0.00  0.00     0.160 A 
ATOM     14  H23 ZIN A   1      21.451  -1.944  11.854  0.00  0.00     0.177 HD
ATOM     15  C12 ZIN A   1      18.674  -2.862  10.304  0.00  0.00     0.189 A 
ATOM     16  N11 ZIN A   1      18.879  -1.421  10.105  0.00  0.00    -0.106 NA
ENDBRANCH   9  11
ENDBRANCH   8   9
TORSDOF 2
ENDMDL
MODEL 3
REMARK VINA RESULT:      -5.6      3.444      5.349
REMARK  2 active torsions:
REMARK  status: ('A' for Active; 'I' for Inactive)
REMARK    1  A    between atoms: C8_8  and  N9_9 
REMARK    2  A    between atoms: N9_9  and  C10_10 
ROOT
ATOM      1 Cl1  ZIN A   1      19.312   2.907  16.054  0.00  0.00    -0.082 Cl
ATOM      2  C2  ZIN A   1      18.851   1.235  15.990  0.00  0.00     0.063 A 
ATOM      3  C3  ZIN A   1      18.095   0.687  17.010  0.00  0.00     0.026 A 
ATOM      4  C4  ZIN A   1      17.726  -0.645  16.960  0.00  0.00     0.003 A 
ATOM      5  C5  ZIN A   1      18.113  -1.434  15.892  0.00  0.00     0.026 A 
ATOM      6  C6  ZIN A   1      18.869  -0.892  14.870  0.00  0.00     0.063 A 
ATOM      7 Cl7  ZIN A   1      19.355  -1.882  13.529  0.00  0.00    -0.082 Cl
ATOM      8  C8  ZIN A   1      19.237   0.448  14.913  0.00  0.00     0.092 A 
ENDROOT
BRANCH   8   9
ATOM      9  N9  ZIN A   1      20.003   0.999  13.879  0.00  0.00    -0.187 N 
ATOM     10  H18 ZIN A   1      20.967   0.896  13.882  0.00  0.00     0.184 HD
BRANCH   9  11
ATOM     11  C10 ZIN A   1      19.387   1.688  12.859  0.00  0.00     0.696 A 
ATOM     12  N14 ZIN A   1      20.004   2.692  12.163  0.00  0.00    -0.223 N 
ATOM     13  C13 ZIN A   1      19.063   3.201  11.151  0.00  0.00     0.160 A 
ATOM     14  H23 ZIN A   1      20.908   3.010  12.308  0.00  0.00     0.177 HD
ATOM     15  C12 ZIN A   1      17.803   2.342  11.376  0.00  0.00     0.189 A 
ATOM     16  N11 ZIN A   1      18.175   1.446  12.480  0.00  0.00    -0.106 NA
ENDBRANCH   9  11
ENDBRANCH   8   9
TORSDOF 2
ENDMDL
MODEL 4
REMARK VINA RESULT:      -5.6      3.435      5.199
REMARK  2 active torsions:
REMARK  status: ('A' for Active; 'I' for Inactive)
REMARK    1  A    between atoms: C8_8  and  N9_9 
REMARK    2  A    between atoms: N9_9  and  C10_10 
ROOT
ATOM      1 Cl1  ZIN A   1      19.335  -1.877  13.460  0.00  0.00    -0.082 Cl
ATOM      2  C2  ZIN A   1      18.898  -0.903  14.828  0.00  0.00     0.063 A 
ATOM      3  C3  ZIN A   1      18.170  -1.454  15.866  0.00  0.00     0.026 A 
ATOM      4  C4  ZIN A   1      17.822  -0.679  16.957  0.00  0.00     0.003 A 
ATOM      5  C5  ZIN A   1      18.199   0.650  17.014  0.00  0.00     0.026 A 
ATOM      6  C6  ZIN A   1      18.927   1.208  15.980  0.00  0.00     0.063 A 
ATOM      7 Cl7  ZIN A   1      19.401   2.876  16.051  0.00  0.00    -0.082 Cl
ATOM      8  C8  ZIN A   1      19.284   0.431  14.885  0.00  0.00     0.092 A 
ENDROOT
BRANCH   8   9
ATOM      9  N9  ZIN A   1      20.021   0.992  13.835  0.00  0.00    -0.187 N 
ATOM     10  H18 ZIN A   1      20.982   0.873  13.799  0.00  0.00     0.184 HD
BRANCH   9  11
ATOM     11  C10 ZIN A   1      19.379   1.714  12.854  0.00  0.00     0.696 A 
ATOM     12  N14 ZIN A   1      19.953   2.786  12.226  0.00  0.00    -0.223 N 
ATOM     13  C13 ZIN A   1      18.995   3.313  11.240  0.00  0.00     0.160 A 
ATOM     14  H23 ZIN A   1      20.840   3.136  12.397  0.00  0.00     0.177 HD
ATOM     15  C12 ZIN A   1      17.774   2.385  11.401  0.00  0.00     0.189 A 
ATOM     16  N11 ZIN A   1      18.182   1.441  12.451  0.00  0.00    -0.106 NA
ENDBRANCH   9  11
ENDBRANCH   8   9
TORSDOF 2
ENDMDL
MODEL 5
REMARK VINA RESULT:      -5.5      3.172      4.396
REMARK  2 active torsions:
REMARK  status: ('A' for Active; 'I' for Inactive)
REMARK    1  A    between atoms: C8_8  and  N9_9 
REMARK    2  A    between atoms: N9_9  and  C10_10 
ROOT
ATOM      1 Cl1  ZIN A   1      19.597  -3.462   7.152  0.00  0.00    -0.082 Cl
ATOM      2  C2  ZIN A   1      19.078  -1.850   6.773  0.00  0.00     0.063 A 
ATOM      3  C3  ZIN A   1      18.438  -1.593   5.574  0.00  0.00     0.026 A 
ATOM      4  C4  ZIN A   1      18.024  -0.309   5.271  0.00  0.00     0.003 A 
ATOM      5  C5  ZIN A   1      18.248   0.723   6.164  0.00  0.00     0.026 A 
ATOM      6  C6  ZIN A   1      18.886   0.473   7.364  0.00  0.00     0.063 A 
ATOM      7 Cl7  ZIN A   1      19.167   1.768   8.486  0.00  0.00    -0.082 Cl
ATOM      8  C8  ZIN A   1      19.299  -0.817   7.676  0.00  0.00     0.092 A 
ENDROOT
BRANCH   8   9
ATOM      9  N9  ZIN A   1      19.947  -1.074   8.890  0.00  0.00    -0.187 N 
ATOM     10  H18 ZIN A   1      20.875  -0.819   9.008  0.00  0.00     0.184 HD
BRANCH   9  11
ATOM     11  C10 ZIN A   1      19.266  -1.688   9.916  0.00  0.00     0.696 A 
ATOM     12  N14 ZIN A   1      19.818  -2.672  10.690  0.00  0.00    -0.223 N 
ATOM     13  C13 ZIN A   1      18.819  -3.096  11.685  0.00  0.00     0.160 A 
ATOM     14  H23 ZIN A   1      20.716  -3.025  10.602  0.00  0.00     0.177 HD
ATOM     15  C12 ZIN A   1      17.598  -2.212  11.360  0.00  0.00     0.189 A 
ATOM     16  N11 ZIN A   1      18.047  -1.388  10.229  0.00  0.00    -0.106 NA
ENDBRANCH   9  11
ENDBRANCH   8   9
TORSDOF 2
ENDMDL
MODEL 6
REMARK VINA RESULT:      -5.5      2.484      2.821
REMARK  2 active torsions:
REMARK  status: ('A' for Active; 'I' for Inactive)
REMARK    1  A    between atoms: C8_8  and  N9_9 
REMARK    2  A    between atoms: N9_9  and  C10_10 
ROOT
ATOM      1 Cl1  ZIN A   1      19.034   2.502   9.322  0.00  0.00    -0.082 Cl
ATOM      2  C2  ZIN A   1      18.423   3.521  10.586  0.00  0.00     0.063 A 
ATOM      3  C3  ZIN A   1      17.445   4.458  10.307  0.00  0.00     0.026 A 
ATOM      4  C4  ZIN A   1      16.956   5.270  11.313  0.00  0.00     0.003 A 
ATOM      5  C5  ZIN A   1      17.443   5.150  12.602  0.00  0.00     0.026 A 
ATOM      6  C6  ZIN A   1      18.420   4.215  12.888  0.00  0.00     0.063 A 
ATOM      7 Cl7  ZIN A   1      19.031   4.064  14.506  0.00  0.00    -0.082 Cl
ATOM      8  C8  ZIN A   1      18.910   3.393  11.881  0.00  0.00     0.092 A 
ENDROOT
BRANCH   8   9
ATOM      9  N9  ZIN A   1      19.900   2.445  12.167  0.00  0.00    -0.187 N 
ATOM     10  H18 ZIN A   1      20.830   2.645  11.982  0.00  0.00     0.184 HD
BRANCH   9  11
ATOM     11  C10 ZIN A   1      19.552   1.229  12.710  0.00  0.00     0.696 A 
ATOM     12  N14 ZIN A   1      20.275   0.625  13.702  0.00  0.00    -0.223 N 
ATOM     13  C13 ZIN A   1      19.620  -0.649  14.043  0.00  0.00     0.160 A 
ATOM     14  H23 ZIN A   1      21.077   0.978  14.115  0.00  0.00     0.177 HD
ATOM     15  C12 ZIN A   1      18.412  -0.693  13.087  0.00  0.00     0.189 A 
ATOM     16  N11 ZIN A   1      18.517   0.558  12.323  0.00  0.00    -0.106 NA
ENDBRANCH   9  11
ENDBRANCH   8   9
TORSDOF 2
ENDMDL
MODEL 7
REMARK VINA RESULT:      -5.5      2.585      3.381
REMARK  2 active torsions:
REMARK  status: ('A' for Active; 'I' for Inactive)
REMARK    1  A    between atoms: C8_8  and  N9_9 
REMARK    2  A    between atoms: N9_9  and  C10_10 
ROOT
ATOM      1 Cl1  ZIN A   1      20.338  -1.292  10.781  0.00  0.00    -0.082 Cl
ATOM      2  C2  ZIN A   1      19.772   0.310  10.426  0.00  0.00     0.063 A 
ATOM      3  C3  ZIN A   1      19.230   0.593   9.186  0.00  0.00     0.026 A 
ATOM      4  C4  ZIN A   1      18.778   1.868   8.902  0.00  0.00     0.003 A 
ATOM      5  C5  ZIN A   1      18.867   2.866   9.855  0.00  0.00     0.026 A 
ATOM      6  C6  ZIN A   1      19.408   2.590  11.097  0.00  0.00     0.063 A 
ATOM      7 Cl7  ZIN A   1      19.520   3.842  12.294  0.00  0.00    -0.082 Cl
ATOM      8  C8  ZIN A   1      19.858   1.308  11.389  0.00  0.00     0.092 A 
ENDROOT
BRANCH   8   9
ATOM      9  N9  ZIN A   1      20.407   1.025  12.645  0.00  0.00    -0.187 N 
ATOM     10  H18 ZIN A   1      21.318   1.287  12.846  0.00  0.00     0.184 HD
BRANCH   9  11
ATOM     11  C10 ZIN A   1      19.652   0.373  13.594  0.00  0.00     0.696 A 
ATOM     12  N14 ZIN A   1      19.977  -0.864  14.080  0.00  0.00    -0.223 N 
ATOM     13  C13 ZIN A   1      18.962  -1.253  15.074  0.00  0.00     0.160 A 
ATOM     14  H23 ZIN A   1      20.746  -1.392  13.819  0.00  0.00     0.177 HD
ATOM     15  C12 ZIN A   1      17.995  -0.053  15.080  0.00  0.00     0.189 A 
ATOM     16  N11 ZIN A   1      18.573   0.876  14.099  0.00  0.00    -0.106 NA
ENDBRANCH   9  11
ENDBRANCH   8   9
TORSDOF 2
ENDMDL
MODEL 8
REMARK VINA RESULT:      -5.5      2.232      3.278
REMARK  2 active torsions:
REMARK  status: ('A' for Active; 'I' for Inactive)
REMARK    1  A    between atoms: C8_8  and  N9_9 
REMARK    2  A    between atoms: N9_9  and  C10_10 
ROOT
ATOM      1 Cl1  ZIN A   1      19.221   3.766  14.057  0.00  0.00    -0.082 Cl
ATOM      2  C2  ZIN A   1      18.772   3.782  12.380  0.00  0.00     0.063 A 
ATOM      3  C3  ZIN A   1      17.874   4.723  11.913  0.00  0.00     0.026 A 
ATOM      4  C4  ZIN A   1      17.516   4.737  10.578  0.00  0.00     0.003 A 
ATOM      5  C5  ZIN A   1      18.054   3.810   9.704  0.00  0.00     0.026 A 
ATOM      6  C6  ZIN A   1      18.953   2.865  10.164  0.00  0.00     0.063 A 
ATOM      7 Cl7  ZIN A   1      19.628   1.701   9.068  0.00  0.00    -0.082 Cl
ATOM      8  C8  ZIN A   1      19.320   2.852  11.505  0.00  0.00     0.092 A 
ENDROOT
BRANCH   8   9
ATOM      9  N9  ZIN A   1      20.229   1.897  11.975  0.00  0.00    -0.187 N 
ATOM     10  H18 ZIN A   1      21.181   2.030  11.848  0.00  0.00     0.184 HD
BRANCH   9  11
ATOM     11  C10 ZIN A   1      19.771   0.769  12.616  0.00  0.00     0.696 A 
ATOM     12  N14 ZIN A   1      20.377   0.249  13.727  0.00  0.00    -0.223 N 
ATOM     13  C13 ZIN A   1      19.627  -0.947  14.149  0.00  0.00     0.160 A 
ATOM     14  H23 ZIN A   1      21.163   0.609  14.166  0.00  0.00     0.177 HD
ATOM     15  C12 ZIN A   1      18.499  -1.044  13.103  0.00  0.00     0.189 A 
ATOM     16  N11 ZIN A   1      18.734   0.106  12.218  0.00  0.00    -0.106 NA
ENDBRANCH   9  11
ENDBRANCH   8   9
TORSDOF 2
ENDMDL
MODEL 9
REMARK VINA RESULT:      -5.5      2.048      3.333
REMARK  2 active torsions:
REMARK  status: ('A' for Active; 'I' for Inactive)
REMARK    1  A    between atoms: C8_8  and  N9_9 
REMARK    2  A    between atoms: N9_9  and  C10_10 
ROOT
ATOM      1 Cl1  ZIN A   1      16.678   0.062  11.611  0.00  0.00    -0.082 Cl
ATOM      2  C2  ZIN A   1      17.630   0.641  10.279  0.00  0.00     0.063 A 
ATOM      3  C3  ZIN A   1      18.009   1.969  10.225  0.00  0.00     0.026 A 
ATOM      4  C4  ZIN A   1      18.768   2.431   9.166  0.00  0.00     0.003 A 
ATOM      5  C5  ZIN A   1      19.150   1.567   8.155  0.00  0.00     0.026 A 
ATOM      6  C6  ZIN A   1      18.774   0.238   8.203  0.00  0.00     0.063 A 
ATOM      7 Cl7  ZIN A   1      19.253  -0.847   6.935  0.00  0.00    -0.082 Cl
ATOM      8  C8  ZIN A   1      18.017  -0.232   9.270  0.00  0.00     0.092 A 
ENDROOT
BRANCH   8   9
ATOM      9  N9  ZIN A   1      17.634  -1.577   9.321  0.00  0.00    -0.187 N 
ATOM     10  H18 ZIN A   1      16.917  -1.900   8.753  0.00  0.00     0.184 HD
BRANCH   9  11
ATOM     11  C10 ZIN A   1      18.276  -2.443  10.177  0.00  0.00     0.696 A 
ATOM     12  N14 ZIN A   1      19.635  -2.460  10.334  0.00  0.00    -0.223 N 
ATOM     13  C13 ZIN A   1      19.975  -3.498  11.322  0.00  0.00     0.160 A 
ATOM     14  H23 ZIN A   1      20.266  -1.884   9.877  0.00  0.00     0.177 HD
ATOM     15  C12 ZIN A   1      18.602  -4.086  11.705  0.00  0.00     0.189 A 
ATOM     16  N11 ZIN A   1      17.647  -3.312  10.899  0.00  0.00    -0.106 NA
ENDBRANCH   9  11
ENDBRANCH   8   9
TORSDOF 2
ENDMDL
