MODEL 1
REMARK VINA RESULT:      -8.2      0.000      0.000
REMARK  3 active torsions:
REMARK  status: ('A' for Active; 'I' for Inactive)
REMARK    1  A    between atoms: C5_5  and  S6_6 
REMARK    2  A    between atoms: S6_6  and  N9_9 
REMARK       I    between atoms: N9_9  and  C10_10 
REMARK       I    between atoms: C10_10  and  N12_12 
REMARK    3  A    between atoms: N12_12  and  N13_13 
ROOT
ATOM      1  N9  ZIN A   1      18.217   2.459  12.491  0.00  0.00    -0.101 NA
ATOM      2  C10 ZIN A   1      19.395   1.895  12.763  0.00  0.00     0.367 C 
ATOM      3  O11 ZIN A   1      20.307   1.971  11.960  0.00  0.00    -0.243 OA
ATOM      4  N12 ZIN A   1      19.577   1.241  13.928  0.00  0.00    -0.269 N 
ATOM      5  H27 ZIN A   1      20.433   0.831  14.126  0.00  0.00     0.185 HD
ENDROOT
BRANCH   1   6
ATOM      6  S6  ZIN A   1      18.016   3.183  11.201  0.00  0.00     0.287 S 
ATOM      7  O7  ZIN A   1      19.038   4.233  11.064  0.00  0.00    -0.198 OA
ATOM      8  O8  ZIN A   1      16.678   3.796  11.186  0.00  0.00    -0.198 OA
BRANCH   6   9
ATOM      9  C5  ZIN A   1      18.157   2.047   9.861  0.00  0.00     0.081 A 
ATOM     10  C4  ZIN A   1      18.990   2.335   8.797  0.00  0.00     0.026 A 
ATOM     11  C3  ZIN A   1      19.102   1.444   7.746  0.00  0.00     0.008 A 
ATOM     12  C2  ZIN A   1      18.380   0.264   7.761  0.00  0.00    -0.062 A 
ATOM     13  C1  ZIN A   1      18.502  -0.707   6.615  0.00  0.00     0.048 C 
ATOM     14  C21 ZIN A   1      17.543  -0.020   8.823  0.00  0.00     0.008 A 
ATOM     15  C20 ZIN A   1      17.434   0.869   9.876  0.00  0.00     0.026 A 
ENDBRANCH   6   9
ENDBRANCH   1   6
BRANCH   4  16
ATOM     16  N13 ZIN A   1      18.555   1.155  14.830  0.00  0.00    -0.227 NA
ATOM     17  C19 ZIN A   1      19.038   1.409  16.205  0.00  0.00     0.113 C 
ATOM     18  C18 ZIN A   1      18.018   1.062  17.256  0.00  0.00     0.016 C 
ATOM     19  C17 ZIN A   1      18.276  -0.383  17.730  0.00  0.00     0.001 C 
ATOM     20  C16 ZIN A   1      17.762  -1.372  16.789  0.00  0.00     0.001 C 
ATOM     21  C15 ZIN A   1      18.430  -1.261  15.403  0.00  0.00     0.016 C 
ATOM     22  C14 ZIN A   1      17.805  -0.110  14.663  0.00  0.00     0.113 C 
ENDBRANCH   4  16
TORSDOF 3
ENDMDL
MODEL 2
REMARK VINA RESULT:      -8.0      1.086      1.845
REMARK  3 active torsions:
REMARK  status: ('A' for Active; 'I' for Inactive)
REMARK    1  A    between atoms: C5_5  and  S6_6 
REMARK    2  A    between atoms: S6_6  and  N9_9 
REMARK       I    between atoms: N9_9  and  C10_10 
REMARK       I    between atoms: C10_10  and  N12_12 
REMARK    3  A    between atoms: N12_12  and  N13_13 
ROOT
ATOM      1  N9  ZIN A   1      18.075   2.899  12.761  0.00  0.00    -0.101 NA
ATOM      2  C10 ZIN A   1      17.696   3.534  13.871  0.00  0.00     0.367 C 
ATOM      3  O11 ZIN A   1      17.193   4.641  13.798  0.00  0.00    -0.243 OA
ATOM      4  N12 ZIN A   1      17.871   2.952  15.075  0.00  0.00    -0.269 N 
ATOM      5  H27 ZIN A   1      17.597   3.414  15.882  0.00  0.00     0.185 HD
ENDROOT
BRANCH   1   6
ATOM      6  S6  ZIN A   1      17.880   3.545  11.428  0.00  0.00     0.287 S 
ATOM      7  O7  ZIN A   1      18.849   4.640  11.269  0.00  0.00    -0.198 OA
ATOM      8  O8  ZIN A   1      16.513   4.081  11.338  0.00  0.00    -0.198 OA
BRANCH   6   9
ATOM      9  C5  ZIN A   1      18.128   2.351  10.156  0.00  0.00     0.081 A 
ATOM     10  C4  ZIN A   1      18.970   2.635   9.098  0.00  0.00     0.026 A 
ATOM     11  C3  ZIN A   1      19.166   1.698   8.100  0.00  0.00     0.008 A 
ATOM     12  C2  ZIN A   1      18.519   0.478   8.161  0.00  0.00    -0.062 A 
ATOM     13  C1  ZIN A   1      18.732  -0.543   7.073  0.00  0.00     0.048 C 
ATOM     14  C21 ZIN A   1      17.673   0.197   9.217  0.00  0.00     0.008 A 
ATOM     15  C20 ZIN A   1      17.480   1.132  10.217  0.00  0.00     0.026 A 
ENDBRANCH   6   9
ENDBRANCH   1   6
BRANCH   4  16
ATOM     16  N13 ZIN A   1      18.436   1.711  15.157  0.00  0.00    -0.227 NA
ATOM     17  C19 ZIN A   1      17.406   0.652  15.074  0.00  0.00     0.113 C 
ATOM     18  C18 ZIN A   1      17.937  -0.710  15.429  0.00  0.00     0.016 C 
ATOM     19  C17 ZIN A   1      17.677  -0.961  16.929  0.00  0.00     0.001 C 
ATOM     20  C16 ZIN A   1      18.643  -0.273  17.779  0.00  0.00     0.001 C 
ATOM     21  C15 ZIN A   1      18.594   1.258  17.596  0.00  0.00     0.016 C 
ATOM     22  C14 ZIN A   1      19.330   1.612  16.332  0.00  0.00     0.113 C 
ENDBRANCH   4  16
TORSDOF 3
ENDMDL
MODEL 3
REMARK VINA RESULT:      -7.7      2.161      7.151
REMARK  3 active torsions:
REMARK  status: ('A' for Active; 'I' for Inactive)
REMARK    1  A    between atoms: C5_5  and  S6_6 
REMARK    2  A    between atoms: S6_6  and  N9_9 
REMARK       I    between atoms: N9_9  and  C10_10 
REMARK       I    between atoms: C10_10  and  N12_12 
REMARK    3  A    between atoms: N12_12  and  N13_13 
ROOT
ATOM      1  N9  ZIN A   1      18.477   1.328  10.309  0.00  0.00    -0.101 NA
ATOM      2  C10 ZIN A   1      17.478   0.494  10.014  0.00  0.00     0.367 C 
ATOM      3  O11 ZIN A   1      16.538   0.376  10.778  0.00  0.00    -0.243 OA
ATOM      4  N12 ZIN A   1      17.512  -0.221   8.872  0.00  0.00    -0.269 N 
ATOM      5  H27 ZIN A   1      16.787  -0.828   8.657  0.00  0.00     0.185 HD
ENDROOT
BRANCH   1   6
ATOM      6  S6  ZIN A   1      18.440   2.119  11.575  0.00  0.00     0.287 S 
ATOM      7  O7  ZIN A   1      17.181   2.877  11.642  0.00  0.00    -0.198 OA
ATOM      8  O8  ZIN A   1      19.577   3.053  11.604  0.00  0.00    -0.198 OA
BRANCH   6   9
ATOM      9  C5  ZIN A   1      18.541   1.026  12.954  0.00  0.00     0.081 A 
ATOM     10  C4  ZIN A   1      19.527   0.058  12.996  0.00  0.00     0.026 A 
ATOM     11  C3  ZIN A   1      19.608  -0.799  14.077  0.00  0.00     0.008 A 
ATOM     12  C2  ZIN A   1      18.703  -0.688  15.116  0.00  0.00    -0.062 A 
ATOM     13  C1  ZIN A   1      18.791  -1.623  16.295  0.00  0.00     0.048 C 
ATOM     14  C21 ZIN A   1      17.714   0.277  15.071  0.00  0.00     0.008 A 
ATOM     15  C20 ZIN A   1      17.635   1.136  13.992  0.00  0.00     0.026 A 
ENDBRANCH   6   9
ENDBRANCH   1   6
BRANCH   4  16
ATOM     16  N13 ZIN A   1      18.567  -0.089   8.015  0.00  0.00    -0.227 NA
ATOM     17  C19 ZIN A   1      18.172   0.647   6.794  0.00  0.00     0.113 C 
ATOM     18  C18 ZIN A   1      19.212   0.582   5.709  0.00  0.00     0.016 C 
ATOM     19  C17 ZIN A   1      18.872  -0.596   4.773  0.00  0.00     0.001 C 
ATOM     20  C16 ZIN A   1      19.266  -1.881   5.339  0.00  0.00     0.001 C 
ATOM     21  C15 ZIN A   1      18.542  -2.179   6.669  0.00  0.00     0.016 C 
ATOM     22  C14 ZIN A   1      19.213  -1.397   7.764  0.00  0.00     0.113 C 
ENDBRANCH   4  16
TORSDOF 3
ENDMDL
MODEL 4
REMARK VINA RESULT:      -7.7      2.785      3.646
REMARK  3 active torsions:
REMARK  status: ('A' for Active; 'I' for Inactive)
REMARK    1  A    between atoms: C5_5  and  S6_6 
REMARK    2  A    between atoms: S6_6  and  N9_9 
REMARK       I    between atoms: N9_9  and  C10_10 
REMARK       I    between atoms: C10_10  and  N12_12 
REMARK    3  A    between atoms: N12_12  and  N13_13 
ROOT
ATOM      1  N9  ZIN A   1      18.473  -1.678  12.532  0.00  0.00    -0.101 NA
ATOM      2  C10 ZIN A   1      17.529  -0.784  12.831  0.00  0.00     0.367 C 
ATOM      3  O11 ZIN A   1      16.603  -0.597  12.063  0.00  0.00    -0.243 OA
ATOM      4  N12 ZIN A   1      17.602  -0.086  13.982  0.00  0.00    -0.269 N 
ATOM      5  H27 ZIN A   1      16.916   0.565  14.199  0.00  0.00     0.185 HD
ENDROOT
BRANCH   1   6
ATOM      6  S6  ZIN A   1      18.393  -2.451  11.257  0.00  0.00     0.287 S 
ATOM      7  O7  ZIN A   1      17.096  -3.141  11.183  0.00  0.00    -0.198 OA
ATOM      8  O8  ZIN A   1      19.480  -3.443  11.215  0.00  0.00    -0.198 OA
BRANCH   6   9
ATOM      9  C5  ZIN A   1      18.551  -1.348   9.892  0.00  0.00     0.081 A 
ATOM     10  C4  ZIN A   1      19.545  -0.388   9.891  0.00  0.00     0.026 A 
ATOM     11  C3  ZIN A   1      19.670   0.477   8.820  0.00  0.00     0.008 A 
ATOM     12  C2  ZIN A   1      18.801   0.381   7.749  0.00  0.00    -0.062 A 
ATOM     13  C1  ZIN A   1      18.937   1.324   6.581  0.00  0.00     0.048 C 
ATOM     14  C21 ZIN A   1      17.804  -0.576   7.753  0.00  0.00     0.008 A 
ATOM     15  C20 ZIN A   1      17.681  -1.444   8.822  0.00  0.00     0.026 A 
ENDBRANCH   6   9
ENDBRANCH   1   6
BRANCH   4  16
ATOM     16  N13 ZIN A   1      18.641  -0.295  14.843  0.00  0.00    -0.227 NA
ATOM     17  C19 ZIN A   1      18.231  -1.162  15.969  0.00  0.00     0.113 C 
ATOM     18  C18 ZIN A   1      19.248  -1.201  17.078  0.00  0.00     0.016 C 
ATOM     19  C17 ZIN A   1      18.871  -0.135  18.127  0.00  0.00     0.001 C 
ATOM     20  C16 ZIN A   1      19.257   1.209  17.710  0.00  0.00     0.001 C 
ATOM     21  C15 ZIN A   1      18.556   1.639  16.404  0.00  0.00     0.016 C 
ATOM     22  C14 ZIN A   1      19.262   0.987  15.246  0.00  0.00     0.113 C 
ENDBRANCH   4  16
TORSDOF 3
ENDMDL
MODEL 5
REMARK VINA RESULT:      -7.5      3.098      4.189
REMARK  3 active torsions:
REMARK  status: ('A' for Active; 'I' for Inactive)
REMARK    1  A    between atoms: C5_5  and  S6_6 
REMARK    2  A    between atoms: S6_6  and  N9_9 
REMARK       I    between atoms: N9_9  and  C10_10 
REMARK       I    between atoms: C10_10  and  N12_12 
REMARK    3  A    between atoms: N12_12  and  N13_13 
ROOT
ATOM      1  N9  ZIN A   1      17.779   1.593  12.558  0.00  0.00    -0.101 NA
ATOM      2  C10 ZIN A   1      17.631   1.594  13.883  0.00  0.00     0.367 C 
ATOM      3  O11 ZIN A   1      17.270   0.582  14.457  0.00  0.00    -0.243 OA
ATOM      4  N12 ZIN A   1      17.879   2.716  14.588  0.00  0.00    -0.269 N 
ATOM      5  H27 ZIN A   1      17.771   2.717  15.552  0.00  0.00     0.185 HD
ENDROOT
BRANCH   1   6
ATOM      6  S6  ZIN A   1      17.504   0.350  11.777  0.00  0.00     0.287 S 
ATOM      7  O7  ZIN A   1      16.069   0.036  11.845  0.00  0.00    -0.198 OA
ATOM      8  O8  ZIN A   1      18.278  -0.767  12.342  0.00  0.00    -0.198 OA
BRANCH   6   9
ATOM      9  C5  ZIN A   1      17.972   0.597  10.096  0.00  0.00     0.081 A 
ATOM     10  C4  ZIN A   1      18.915   1.555   9.775  0.00  0.00     0.026 A 
ATOM     11  C3  ZIN A   1      19.283   1.748   8.457  0.00  0.00     0.008 A 
ATOM     12  C2  ZIN A   1      18.708   0.984   7.459  0.00  0.00    -0.062 A 
ATOM     13  C1  ZIN A   1      19.109   1.196   6.022  0.00  0.00     0.048 C 
ATOM     14  C21 ZIN A   1      17.760   0.030   7.780  0.00  0.00     0.008 A 
ATOM     15  C20 ZIN A   1      17.395  -0.166   9.099  0.00  0.00     0.026 A 
ENDBRANCH   6   9
ENDBRANCH   1   6
BRANCH   4  16
ATOM     16  N13 ZIN A   1      18.284   3.851  13.946  0.00  0.00    -0.227 NA
ATOM     17  C19 ZIN A   1      19.319   4.563  14.727  0.00  0.00     0.113 C 
ATOM     18  C18 ZIN A   1      19.600   5.945  14.203  0.00  0.00     0.016 C 
ATOM     19  C17 ZIN A   1      18.721   6.950  14.977  0.00  0.00     0.001 C 
ATOM     20  C16 ZIN A   1      17.343   6.960  14.498  0.00  0.00     0.001 C 
ATOM     21  C15 ZIN A   1      16.657   5.588  14.665  0.00  0.00     0.016 C 
ATOM     22  C14 ZIN A   1      17.123   4.683  13.558  0.00  0.00     0.113 C 
ENDBRANCH   4  16
TORSDOF 3
ENDMDL
MODEL 6
REMARK VINA RESULT:      -7.3      3.533      7.114
REMARK  3 active torsions:
REMARK  status: ('A' for Active; 'I' for Inactive)
REMARK    1  A    between atoms: C5_5  and  S6_6 
REMARK    2  A    between atoms: S6_6  and  N9_9 
REMARK       I    between atoms: N9_9  and  C10_10 
REMARK       I    between atoms: C10_10  and  N12_12 
REMARK    3  A    between atoms: N12_12  and  N13_13 
ROOT
ATOM      1  N9  ZIN A   1      17.804  -0.964  10.688  0.00  0.00    -0.101 NA
ATOM      2  C10 ZIN A   1      19.041  -0.855  10.201  0.00  0.00     0.367 C 
ATOM      3  O11 ZIN A   1      19.712   0.128  10.458  0.00  0.00    -0.243 OA
ATOM      4  N12 ZIN A   1      19.548  -1.833   9.423  0.00  0.00    -0.269 N 
ATOM      5  H27 ZIN A   1      20.447  -1.753   9.069  0.00  0.00     0.185 HD
ENDROOT
BRANCH   1   6
ATOM      6  S6  ZIN A   1      17.242   0.119  11.550  0.00  0.00     0.287 S 
ATOM      7  O7  ZIN A   1      15.773   0.088  11.482  0.00  0.00    -0.198 OA
ATOM      8  O8  ZIN A   1      17.728   1.425  11.075  0.00  0.00    -0.198 OA
BRANCH   6   9
ATOM      9  C5  ZIN A   1      17.759  -0.129  13.216  0.00  0.00     0.081 A 
ATOM     10  C4  ZIN A   1      18.395  -1.302  13.574  0.00  0.00     0.026 A 
ATOM     11  C3  ZIN A   1      18.802  -1.497  14.880  0.00  0.00     0.008 A 
ATOM     12  C2  ZIN A   1      18.572  -0.518  15.829  0.00  0.00    -0.062 A 
ATOM     13  C1  ZIN A   1      19.015  -0.731  17.254  0.00  0.00     0.048 C 
ATOM     14  C21 ZIN A   1      17.931   0.653  15.472  0.00  0.00     0.008 A 
ATOM     15  C20 ZIN A   1      17.528   0.850  14.164  0.00  0.00     0.026 A 
ENDBRANCH   6   9
ENDBRANCH   1   6
BRANCH   4  16
ATOM     16  N13 ZIN A   1      18.795  -2.935   9.134  0.00  0.00    -0.227 NA
ATOM     17  C19 ZIN A   1      19.293  -4.123   9.862  0.00  0.00     0.113 C 
ATOM     18  C18 ZIN A   1      18.677  -5.407   9.376  0.00  0.00     0.016 C 
ATOM     19  C17 ZIN A   1      19.602  -6.020   8.305  0.00  0.00     0.001 C 
ATOM     20  C16 ZIN A   1      19.456  -5.365   7.010  0.00  0.00     0.001 C 
ATOM     21  C15 ZIN A   1      19.820  -3.866   7.070  0.00  0.00     0.016 C 
ATOM     22  C14 ZIN A   1      18.662  -3.118   7.672  0.00  0.00     0.113 C 
ENDBRANCH   4  16
TORSDOF 3
ENDMDL
MODEL 7
REMARK VINA RESULT:      -7.3      3.562      7.016
REMARK  3 active torsions:
REMARK  status: ('A' for Active; 'I' for Inactive)
REMARK    1  A    between atoms: C5_5  and  S6_6 
REMARK    2  A    between atoms: S6_6  and  N9_9 
REMARK       I    between atoms: N9_9  and  C10_10 
REMARK       I    between atoms: C10_10  and  N12_12 
REMARK    3  A    between atoms: N12_12  and  N13_13 
ROOT
ATOM      1  N9  ZIN A   1      19.063  -0.816  12.046  0.00  0.00    -0.101 NA
ATOM      2  C10 ZIN A   1      17.763  -0.885  11.751  0.00  0.00     0.367 C 
ATOM      3  O11 ZIN A   1      17.026   0.042  12.031  0.00  0.00    -0.243 OA
ATOM      4  N12 ZIN A   1      17.267  -1.982  11.145  0.00  0.00    -0.269 N 
ATOM      5  H27 ZIN A   1      16.322  -2.033  10.931  0.00  0.00     0.185 HD
ENDROOT
BRANCH   1   6
ATOM      6  S6  ZIN A   1      19.612   0.399  12.718  0.00  0.00     0.287 S 
ATOM      7  O7  ZIN A   1      18.959   1.598  12.172  0.00  0.00    -0.198 OA
ATOM      8  O8  ZIN A   1      21.063   0.478  12.479  0.00  0.00    -0.198 OA
BRANCH   6   9
ATOM      9  C5  ZIN A   1      19.307   0.300  14.451  0.00  0.00     0.081 A 
ATOM     10  C4  ZIN A   1      19.166  -0.933  15.058  0.00  0.00     0.026 A 
ATOM     11  C3  ZIN A   1      18.928  -1.011  16.417  0.00  0.00     0.008 A 
ATOM     12  C2  ZIN A   1      18.830   0.144  17.169  0.00  0.00    -0.062 A 
ATOM     13  C1  ZIN A   1      18.570   0.059  18.651  0.00  0.00     0.048 C 
ATOM     14  C21 ZIN A   1      18.965   1.378  16.560  0.00  0.00     0.008 A 
ATOM     15  C20 ZIN A   1      19.208   1.456  15.202  0.00  0.00     0.026 A 
ENDBRANCH   6   9
ENDBRANCH   1   6
BRANCH   4  16
ATOM     16  N13 ZIN A   1      18.094  -3.022  10.832  0.00  0.00    -0.227 NA
ATOM     17  C19 ZIN A   1      18.041  -3.326   9.384  0.00  0.00     0.113 C 
ATOM     18  C18 ZIN A   1      18.717  -4.624   9.033  0.00  0.00     0.016 C 
ATOM     19  C17 ZIN A   1      17.654  -5.742   9.024  0.00  0.00     0.001 C 
ATOM     20  C16 ZIN A   1      17.313  -6.190  10.369  0.00  0.00     0.001 C 
ATOM     21  C15 ZIN A   1      16.718  -5.055  11.229  0.00  0.00     0.016 C 
ATOM     22  C14 ZIN A   1      17.845  -4.184  11.715  0.00  0.00     0.113 C 
ENDBRANCH   4  16
TORSDOF 3
ENDMDL
MODEL 8
REMARK VINA RESULT:      -7.2      3.669      6.726
REMARK  3 active torsions:
REMARK  status: ('A' for Active; 'I' for Inactive)
REMARK    1  A    between atoms: C5_5  and  S6_6 
REMARK    2  A    between atoms: S6_6  and  N9_9 
REMARK       I    between atoms: N9_9  and  C10_10 
REMARK       I    between atoms: C10_10  and  N12_12 
REMARK    3  A    between atoms: N12_12  and  N13_13 
ROOT
ATOM      1  N9  ZIN A   1      18.379  -0.694  11.432  0.00  0.00    -0.101 NA
ATOM      2  C10 ZIN A   1      19.529  -1.261  11.065  0.00  0.00     0.367 C 
ATOM      3  O11 ZIN A   1      20.585  -0.702  11.297  0.00  0.00    -0.243 OA
ATOM      4  N12 ZIN A   1      19.522  -2.453  10.435  0.00  0.00    -0.269 N 
ATOM      5  H27 ZIN A   1      20.359  -2.865  10.167  0.00  0.00     0.185 HD
ENDROOT
BRANCH   1   6
ATOM      6  S6  ZIN A   1      18.386   0.626  12.130  0.00  0.00     0.287 S 
ATOM      7  O7  ZIN A   1      17.115   1.321  11.877  0.00  0.00    -0.198 OA
ATOM      8  O8  ZIN A   1      19.501   1.443  11.622  0.00  0.00    -0.198 OA
BRANCH   6   9
ATOM      9  C5  ZIN A   1      18.585   0.374  13.862  0.00  0.00     0.081 A 
ATOM     10  C4  ZIN A   1      18.410  -0.887  14.400  0.00  0.00     0.026 A 
ATOM     11  C3  ZIN A   1      18.566  -1.086  15.759  0.00  0.00     0.008 A 
ATOM     12  C2  ZIN A   1      18.897  -0.024  16.580  0.00  0.00    -0.062 A 
ATOM     13  C1  ZIN A   1      19.067  -0.241  18.062  0.00  0.00     0.048 C 
ATOM     14  C21 ZIN A   1      19.066   1.238  16.041  0.00  0.00     0.008 A 
ATOM     15  C20 ZIN A   1      18.914   1.436  14.682  0.00  0.00     0.026 A 
ENDBRANCH   6   9
ENDBRANCH   1   6
BRANCH   4  16
ATOM     16  N13 ZIN A   1      18.338  -3.080  10.173  0.00  0.00    -0.227 NA
ATOM     17  C19 ZIN A   1      17.887  -3.870  11.340  0.00  0.00     0.113 C 
ATOM     18  C18 ZIN A   1      16.741  -4.790  11.016  0.00  0.00     0.016 C 
ATOM     19  C17 ZIN A   1      17.313  -6.176  10.650  0.00  0.00     0.001 C 
ATOM     20  C16 ZIN A   1      17.835  -6.214   9.289  0.00  0.00     0.001 C 
ATOM     21  C15 ZIN A   1      18.992  -5.215   9.079  0.00  0.00     0.016 C 
ATOM     22  C14 ZIN A   1      18.409  -3.839   8.904  0.00  0.00     0.113 C 
ENDBRANCH   4  16
TORSDOF 3
ENDMDL
MODEL 9
REMARK VINA RESULT:      -7.2      2.734      3.260
REMARK  3 active torsions:
REMARK  status: ('A' for Active; 'I' for Inactive)
REMARK    1  A    between atoms: C5_5  and  S6_6 
REMARK    2  A    between atoms: S6_6  and  N9_9 
REMARK       I    between atoms: N9_9  and  C10_10 
REMARK       I    between atoms: C10_10  and  N12_12 
REMARK    3  A    between atoms: N12_12  and  N13_13 
ROOT
ATOM      1  N9  ZIN A   1      17.798   0.517  12.815  0.00  0.00    -0.101 NA
ATOM      2  C10 ZIN A   1      19.112   0.618  13.024  0.00  0.00     0.367 C 
ATOM      3  O11 ZIN A   1      19.890   0.422  12.109  0.00  0.00    -0.243 OA
ATOM      4  N12 ZIN A   1      19.577   0.937  14.248  0.00  0.00    -0.269 N 
ATOM      5  H27 ZIN A   1      20.533   1.010  14.400  0.00  0.00     0.185 HD
ENDROOT
BRANCH   1   6
ATOM      6  S6  ZIN A   1      17.282   0.164  11.459  0.00  0.00     0.287 S 
ATOM      7  O7  ZIN A   1      17.732   1.171  10.486  0.00  0.00    -0.198 OA
ATOM      8  O8  ZIN A   1      15.811   0.131  11.487  0.00  0.00    -0.198 OA
BRANCH   6   9
ATOM      9  C5  ZIN A   1      17.897  -1.420  10.992  0.00  0.00     0.081 A 
ATOM     10  C4  ZIN A   1      17.809  -2.482  11.872  0.00  0.00     0.026 A 
ATOM     11  C3  ZIN A   1      18.290  -3.725  11.506  0.00  0.00     0.008 A 
ATOM     12  C2  ZIN A   1      18.858  -3.906  10.258  0.00  0.00    -0.062 A 
ATOM     13  C1  ZIN A   1      19.383  -5.261   9.859  0.00  0.00     0.048 C 
ATOM     14  C21 ZIN A   1      18.951  -2.842   9.381  0.00  0.00     0.008 A 
ATOM     15  C20 ZIN A   1      18.466  -1.600   9.745  0.00  0.00     0.026 A 
ENDBRANCH   6   9
ENDBRANCH   1   6
BRANCH   4  16
ATOM     16  N13 ZIN A   1      18.705   1.157  15.275  0.00  0.00    -0.227 NA
ATOM     17  C19 ZIN A   1      19.241   2.159  16.222  0.00  0.00     0.113 C 
ATOM     18  C18 ZIN A   1      18.451   2.237  17.501  0.00  0.00     0.016 C 
ATOM     19  C17 ZIN A   1      19.111   1.309  18.542  0.00  0.00     0.001 C 
ATOM     20  C16 ZIN A   1      18.774  -0.093  18.323  0.00  0.00     0.001 C 
ATOM     21  C15 ZIN A   1      19.252  -0.601  16.946  0.00  0.00     0.016 C 
ATOM     22  C14 ZIN A   1      18.286  -0.119  15.898  0.00  0.00     0.113 C 
ENDBRANCH   4  16
TORSDOF 3
ENDMDL
