MODEL 1
REMARK VINA RESULT:      -7.8      0.000      0.000
REMARK  2 active torsions:
REMARK  status: ('A' for Active; 'I' for Inactive)
REMARK    1  A    between atoms: O2_2  and  C3_3 
REMARK    2  A    between atoms: C15_15  and  O17_16 
ROOT
ATOM      1  C3  ZIN A   1      18.537  -0.587   6.844  0.00  0.00     0.102 A 
ATOM      2  C4  ZIN A   1      18.926   0.701   6.496  0.00  0.00     0.040 A 
ATOM      3  C5  ZIN A   1      19.027   1.702   7.435  0.00  0.00     0.012 A 
ATOM      4  C6  ZIN A   1      18.718   1.484   8.785  0.00  0.00    -0.020 A 
ATOM      5  C7  ZIN A   1      18.710   2.702   9.660  0.00  0.00     0.311 C 
ATOM      6  N8  ZIN A   1      17.608   2.707  10.600  0.00  0.00     0.088 N 
ATOM      7  C9  ZIN A   1      17.370   4.058  11.126  0.00  0.00     0.310 C 
ATOM      8  C10 ZIN A   1      17.685   1.746  11.666  0.00  0.00     0.273 C 
ATOM      9  C11 ZIN A   1      17.158   0.384  11.316  0.00  0.00     0.051 C 
ATOM     10  C12 ZIN A   1      18.138  -0.427  10.491  0.00  0.00     0.036 C 
ATOM     11  C13 ZIN A   1      19.445  -0.584  11.194  0.00  0.00    -0.011 C 
ATOM     12  C14 ZIN A   1      19.965  -1.707  11.563  0.00  0.00     0.002 C 
ATOM     13  C15 ZIN A   1      19.322  -3.035  11.326  0.00  0.00     0.143 C 
ATOM     14  C18 ZIN A   1      17.840  -2.901  11.037  0.00  0.00     0.069 C 
ATOM     15  C19 ZIN A   1      17.501  -1.766  10.113  0.00  0.00     0.148 C 
ATOM     16  O21 ZIN A   1      17.944  -2.003   8.772  0.00  0.00    -0.341 OA
ATOM     17  C22 ZIN A   1      18.269  -0.825   8.198  0.00  0.00     0.110 A 
ATOM     18  C23 ZIN A   1      18.375   0.212   9.137  0.00  0.00     0.001 A 
ENDROOT
BRANCH   1  19
ATOM     19  O2  ZIN A   1      18.417  -1.570   5.912  0.00  0.00    -0.353 OA
ATOM     20  C1  ZIN A   1      19.169  -1.417   4.706  0.00  0.00     0.210 C 
ENDBRANCH   1  19
BRANCH  13  21
ATOM     21  O17 ZIN A   1      19.956  -3.667  10.212  0.00  0.00    -0.392 OA
ATOM     22  H40 ZIN A   1      19.966  -4.633  10.262  0.00  0.00     0.210 HD
ENDBRANCH  13  21
TORSDOF 2
ENDMDL
MODEL 2
REMARK VINA RESULT:      -7.6      1.400      4.309
REMARK  2 active torsions:
REMARK  status: ('A' for Active; 'I' for Inactive)
REMARK    1  A    between atoms: O2_2  and  C3_3 
REMARK    2  A    between atoms: C15_15  and  O17_16 
ROOT
ATOM      1  C3  ZIN A   1      18.148  -3.147   9.773  0.00  0.00     0.102 A 
ATOM      2  C4  ZIN A   1      17.599  -2.661  10.953  0.00  0.00     0.040 A 
ATOM      3  C5  ZIN A   1      17.412  -1.314  11.160  0.00  0.00     0.012 A 
ATOM      4  C6  ZIN A   1      17.789  -0.359  10.206  0.00  0.00    -0.020 A 
ATOM      5  C7  ZIN A   1      17.682   1.074  10.635  0.00  0.00     0.311 C 
ATOM      6  N8  ZIN A   1      18.806   1.874  10.194  0.00  0.00     0.088 N 
ATOM      7  C9  ZIN A   1      18.900   3.121  10.966  0.00  0.00     0.310 C 
ATOM      8  C10 ZIN A   1      18.878   2.136   8.783  0.00  0.00     0.273 C 
ATOM      9  C11 ZIN A   1      19.551   1.057   7.983  0.00  0.00     0.051 C 
ATOM     10  C12 ZIN A   1      18.647  -0.134   7.734  0.00  0.00     0.036 C 
ATOM     11  C13 ZIN A   1      17.391   0.270   7.035  0.00  0.00    -0.011 C 
ATOM     12  C14 ZIN A   1      17.020  -0.140   5.868  0.00  0.00     0.002 C 
ATOM     13  C15 ZIN A   1      17.807  -1.103   5.039  0.00  0.00     0.143 C 
ATOM     14  C18 ZIN A   1      19.252  -1.184   5.488  0.00  0.00     0.069 C 
ATOM     15  C19 ZIN A   1      19.425  -1.217   6.981  0.00  0.00     0.148 C 
ATOM     16  O21 ZIN A   1      18.969  -2.446   7.557  0.00  0.00    -0.341 OA
ATOM     17  C22 ZIN A   1      18.488  -2.202   8.795  0.00  0.00     0.110 A 
ATOM     18  C23 ZIN A   1      18.291  -0.834   9.030  0.00  0.00     0.001 A 
ENDROOT
BRANCH   1  19
ATOM     19  O2  ZIN A   1      18.352  -4.477   9.578  0.00  0.00    -0.353 OA
ATOM     20  C1  ZIN A   1      19.622  -5.004   9.970  0.00  0.00     0.210 C 
ENDBRANCH   1  19
BRANCH  13  21
ATOM     21  O17 ZIN A   1      17.216  -2.400   5.146  0.00  0.00    -0.392 OA
ATOM     22  H40 ZIN A   1      17.851  -3.128   5.087  0.00  0.00     0.210 HD
ENDBRANCH  13  21
TORSDOF 2
ENDMDL
MODEL 3
REMARK VINA RESULT:      -7.6      4.115      7.048
REMARK  2 active torsions:
REMARK  status: ('A' for Active; 'I' for Inactive)
REMARK    1  A    between atoms: O2_2  and  C3_3 
REMARK    2  A    between atoms: C15_15  and  O17_16 
ROOT
ATOM      1  C3  ZIN A   1      18.494   0.569  15.984  0.00  0.00     0.102 A 
ATOM      2  C4  ZIN A   1      18.880  -0.757  16.146  0.00  0.00     0.040 A 
ATOM      3  C5  ZIN A   1      18.987  -1.611  15.073  0.00  0.00     0.012 A 
ATOM      4  C6  ZIN A   1      18.690  -1.200  13.766  0.00  0.00    -0.020 A 
ATOM      5  C7  ZIN A   1      18.689  -2.279  12.724  0.00  0.00     0.311 C 
ATOM      6  N8  ZIN A   1      17.595  -2.146  11.784  0.00  0.00     0.088 N 
ATOM      7  C9  ZIN A   1      17.361  -3.406  11.066  0.00  0.00     0.310 C 
ATOM      8  C10 ZIN A   1      17.682  -1.041  10.869  0.00  0.00     0.273 C 
ATOM      9  C11 ZIN A   1      17.153   0.257  11.408  0.00  0.00     0.051 C 
ATOM     10  C12 ZIN A   1      18.126   0.938  12.350  0.00  0.00     0.036 C 
ATOM     11  C13 ZIN A   1      19.440   1.193  11.687  0.00  0.00    -0.011 C 
ATOM     12  C14 ZIN A   1      19.963   2.356  11.489  0.00  0.00     0.002 C 
ATOM     13  C15 ZIN A   1      19.319   3.638  11.910  0.00  0.00     0.143 C 
ATOM     14  C18 ZIN A   1      17.835   3.466  12.164  0.00  0.00     0.069 C 
ATOM     15  C19 ZIN A   1      17.487   2.210  12.912  0.00  0.00     0.148 C 
ATOM     16  O21 ZIN A   1      17.918   2.250  14.277  0.00  0.00    -0.341 OA
ATOM     17  C22 ZIN A   1      18.238   1.000  14.676  0.00  0.00     0.110 A 
ATOM     18  C23 ZIN A   1      18.351   0.110  13.599  0.00  0.00     0.001 A 
ENDROOT
BRANCH   1  19
ATOM     19  O2  ZIN A   1      18.367   1.407  17.048  0.00  0.00    -0.353 OA
ATOM     20  C1  ZIN A   1      19.241   1.185  18.157  0.00  0.00     0.210 C 
ENDBRANCH   1  19
BRANCH  13  21
ATOM     21  O17 ZIN A   1      19.944   4.100  13.110  0.00  0.00    -0.392 OA
ATOM     22  H40 ZIN A   1      20.840   3.759  13.242  0.00  0.00     0.210 HD
ENDBRANCH  13  21
TORSDOF 2
ENDMDL
MODEL 4
REMARK VINA RESULT:      -7.4      1.788      2.491
REMARK  2 active torsions:
REMARK  status: ('A' for Active; 'I' for Inactive)
REMARK    1  A    between atoms: O2_2  and  C3_3 
REMARK    2  A    between atoms: C15_15  and  O17_16 
ROOT
ATOM      1  C3  ZIN A   1      18.000  -1.228   9.095  0.00  0.00     0.102 A 
ATOM      2  C4  ZIN A   1      18.300  -0.363   8.050  0.00  0.00     0.040 A 
ATOM      3  C5  ZIN A   1      18.542   0.974   8.268  0.00  0.00     0.012 A 
ATOM      4  C6  ZIN A   1      18.473   1.539   9.548  0.00  0.00    -0.020 A 
ATOM      5  C7  ZIN A   1      18.594   3.033   9.613  0.00  0.00     0.311 C 
ATOM      6  N8  ZIN A   1      17.669   3.628  10.556  0.00  0.00     0.088 N 
ATOM      7  C9  ZIN A   1      17.501   5.064  10.295  0.00  0.00     0.310 C 
ATOM      8  C10 ZIN A   1      17.946   3.386  11.946  0.00  0.00     0.273 C 
ATOM      9  C11 ZIN A   1      17.391   2.095  12.475  0.00  0.00     0.051 C 
ATOM     10  C12 ZIN A   1      18.229   0.895  12.083  0.00  0.00     0.036 C 
ATOM     11  C13 ZIN A   1      19.641   1.038  12.548  0.00  0.00    -0.011 C 
ATOM     12  C14 ZIN A   1      20.236   0.252  13.381  0.00  0.00     0.002 C 
ATOM     13  C15 ZIN A   1      19.586  -0.941  14.004  0.00  0.00     0.143 C 
ATOM     14  C18 ZIN A   1      18.074  -0.868  13.921  0.00  0.00     0.069 C 
ATOM     15  C19 ZIN A   1      17.561  -0.384  12.594  0.00  0.00     0.148 C 
ATOM     16  O21 ZIN A   1      17.771  -1.337  11.546  0.00  0.00    -0.341 OA
ATOM     17  C22 ZIN A   1      17.972  -0.680  10.384  0.00  0.00     0.110 A 
ATOM     18  C23 ZIN A   1      18.219   0.686  10.581  0.00  0.00     0.001 A 
ENDROOT
BRANCH   1  19
ATOM     19  O2  ZIN A   1      17.740  -2.545   8.876  0.00  0.00    -0.353 OA
ATOM     20  C1  ZIN A   1      18.836  -3.453   9.001  0.00  0.00     0.210 C 
ENDBRANCH   1  19
BRANCH  13  21
ATOM     21  O17 ZIN A   1      20.030  -2.119  13.328  0.00  0.00    -0.392 OA
ATOM     22  H40 ZIN A   1      20.882  -2.454  13.642  0.00  0.00     0.210 HD
ENDBRANCH  13  21
TORSDOF 2
ENDMDL
MODEL 5
REMARK VINA RESULT:      -7.3      2.912      5.100
REMARK  2 active torsions:
REMARK  status: ('A' for Active; 'I' for Inactive)
REMARK    1  A    between atoms: O2_2  and  C3_3 
REMARK    2  A    between atoms: C15_15  and  O17_16 
ROOT
ATOM      1  C3  ZIN A   1      17.418   3.241  11.940  0.00  0.00     0.102 A 
ATOM      2  C4  ZIN A   1      17.850   3.692  13.181  0.00  0.00     0.040 A 
ATOM      3  C5  ZIN A   1      18.489   2.857  14.069  0.00  0.00     0.012 A 
ATOM      4  C6  ZIN A   1      18.715   1.504  13.781  0.00  0.00    -0.020 A 
ATOM      5  C7  ZIN A   1      19.268   0.679  14.905  0.00  0.00     0.311 C 
ATOM      6  N8  ZIN A   1      18.654  -0.631  14.991  0.00  0.00     0.088 N 
ATOM      7  C9  ZIN A   1      18.883  -1.234  16.311  0.00  0.00     0.310 C 
ATOM      8  C10 ZIN A   1      18.986  -1.551  13.939  0.00  0.00     0.273 C 
ATOM      9  C11 ZIN A   1      18.137  -1.422  12.707  0.00  0.00     0.051 C 
ATOM     10  C12 ZIN A   1      18.548  -0.252  11.835  0.00  0.00     0.036 C 
ATOM     11  C13 ZIN A   1      19.980  -0.354  11.424  0.00  0.00    -0.011 C 
ATOM     12  C14 ZIN A   1      20.402  -0.455  10.208  0.00  0.00     0.002 C 
ATOM     13  C15 ZIN A   1      19.500  -0.476   9.016  0.00  0.00     0.143 C 
ATOM     14  C18 ZIN A   1      18.074  -0.823   9.394  0.00  0.00     0.069 C 
ATOM     15  C19 ZIN A   1      17.593  -0.141  10.644  0.00  0.00     0.148 C 
ATOM     16  O21 ZIN A   1      17.413   1.268  10.463  0.00  0.00    -0.341 OA
ATOM     17  C22 ZIN A   1      17.679   1.900  11.626  0.00  0.00     0.110 A 
ATOM     18  C23 ZIN A   1      18.328   1.068  12.548  0.00  0.00     0.001 A 
ENDROOT
BRANCH   1  19
ATOM     19  O2  ZIN A   1      16.768   4.061  11.072  0.00  0.00    -0.353 OA
ATOM     20  C1  ZIN A   1      17.558   5.026  10.374  0.00  0.00     0.210 C 
ENDBRANCH   1  19
BRANCH  13  21
ATOM     21  O17 ZIN A   1      19.515   0.812   8.398  0.00  0.00    -0.392 OA
ATOM     22  H40 ZIN A   1      18.675   1.289   8.464  0.00  0.00     0.210 HD
ENDBRANCH  13  21
TORSDOF 2
ENDMDL
MODEL 6
REMARK VINA RESULT:      -7.3      3.668      6.495
REMARK  2 active torsions:
REMARK  status: ('A' for Active; 'I' for Inactive)
REMARK    1  A    between atoms: O2_2  and  C3_3 
REMARK    2  A    between atoms: C15_15  and  O17_16 
ROOT
ATOM      1  C3  ZIN A   1      18.157   0.236  14.799  0.00  0.00     0.102 A 
ATOM      2  C4  ZIN A   1      18.526  -1.058  14.454  0.00  0.00     0.040 A 
ATOM      3  C5  ZIN A   1      18.825  -1.400  13.155  0.00  0.00     0.012 A 
ATOM      4  C6  ZIN A   1      18.747  -0.472  12.108  0.00  0.00    -0.020 A 
ATOM      5  C7  ZIN A   1      18.936  -1.024  10.726  0.00  0.00     0.311 C 
ATOM      6  N8  ZIN A   1      18.014  -0.452   9.766  0.00  0.00     0.088 N 
ATOM      7  C9  ZIN A   1      17.921  -1.291   8.563  0.00  0.00     0.310 C 
ATOM      8  C10 ZIN A   1      18.240   0.924   9.419  0.00  0.00     0.273 C 
ATOM      9  C11 ZIN A   1      17.610   1.913  10.357  0.00  0.00     0.051 C 
ATOM     10  C12 ZIN A   1      18.402   2.089  11.637  0.00  0.00     0.036 C 
ATOM     11  C13 ZIN A   1      19.805   2.517  11.359  0.00  0.00    -0.011 C 
ATOM     12  C14 ZIN A   1      20.339   3.626  11.747  0.00  0.00     0.002 C 
ATOM     13  C15 ZIN A   1      19.616   4.656  12.554  0.00  0.00     0.143 C 
ATOM     14  C18 ZIN A   1      18.113   4.482  12.475  0.00  0.00     0.069 C 
ATOM     15  C19 ZIN A   1      17.660   3.052  12.568  0.00  0.00     0.148 C 
ATOM     16  O21 ZIN A   1      17.855   2.501  13.876  0.00  0.00    -0.341 OA
ATOM     17  C22 ZIN A   1      18.118   1.182  13.765  0.00  0.00     0.110 A 
ATOM     18  C23 ZIN A   1      18.424   0.809  12.449  0.00  0.00     0.001 A 
ENDROOT
BRANCH   1  19
ATOM     19  O2  ZIN A   1      17.841   0.569  16.079  0.00  0.00    -0.353 OA
ATOM     20  C1  ZIN A   1      17.049  -0.365  16.816  0.00  0.00     0.210 C 
ENDBRANCH   1  19
BRANCH  13  21
ATOM     21  O17 ZIN A   1      20.024   4.547  13.920  0.00  0.00    -0.392 OA
ATOM     22  H40 ZIN A   1      19.352   4.161  14.501  0.00  0.00     0.210 HD
ENDBRANCH  13  21
TORSDOF 2
ENDMDL
MODEL 7
REMARK VINA RESULT:      -7.2      5.082      7.166
REMARK  2 active torsions:
REMARK  status: ('A' for Active; 'I' for Inactive)
REMARK    1  A    between atoms: O2_2  and  C3_3 
REMARK    2  A    between atoms: C15_15  and  O17_16 
ROOT
ATOM      1  C3  ZIN A   1      18.340   3.704  14.117  0.00  0.00     0.102 A 
ATOM      2  C4  ZIN A   1      17.904   3.519  12.810  0.00  0.00     0.040 A 
ATOM      3  C5  ZIN A   1      17.752   2.262  12.272  0.00  0.00     0.012 A 
ATOM      4  C6  ZIN A   1      18.052   1.103  13.002  0.00  0.00    -0.020 A 
ATOM      5  C7  ZIN A   1      18.000  -0.186  12.236  0.00  0.00     0.311 C 
ATOM      6  N8  ZIN A   1      19.090  -1.080  12.573  0.00  0.00     0.088 N 
ATOM      7  C9  ZIN A   1      19.267  -2.107  11.538  0.00  0.00     0.310 C 
ATOM      8  C10 ZIN A   1      19.037  -1.670  13.882  0.00  0.00     0.273 C 
ATOM      9  C11 ZIN A   1      19.622  -0.820  14.973  0.00  0.00     0.051 C 
ATOM     10  C12 ZIN A   1      18.686   0.286  15.416  0.00  0.00     0.036 C 
ATOM     11  C13 ZIN A   1      17.377  -0.260  15.883  0.00  0.00    -0.011 C 
ATOM     12  C14 ZIN A   1      16.898  -0.135  17.075  0.00  0.00     0.002 C 
ATOM     13  C15 ZIN A   1      17.596   0.595  18.177  0.00  0.00     0.143 C 
ATOM     14  C18 ZIN A   1      19.075   0.766  17.892  0.00  0.00     0.069 C 
ATOM     15  C19 ZIN A   1      19.381   1.151  16.472  0.00  0.00     0.148 C 
ATOM     16  O21 ZIN A   1      18.964   2.486  16.166  0.00  0.00    -0.341 OA
ATOM     17  C22 ZIN A   1      18.600   2.550  14.868  0.00  0.00     0.110 A 
ATOM     18  C23 ZIN A   1      18.441   1.279  14.297  0.00  0.00     0.001 A 
ENDROOT
BRANCH   1  19
ATOM     19  O2  ZIN A   1      18.510   4.947  14.640  0.00  0.00    -0.353 OA
ATOM     20  C1  ZIN A   1      19.736   5.616  14.338  0.00  0.00     0.210 C 
ENDBRANCH   1  19
BRANCH  13  21
ATOM     21  O17 ZIN A   1      17.002   1.886  18.329  0.00  0.00    -0.392 OA
ATOM     22  H40 ZIN A   1      17.507   2.486  18.896  0.00  0.00     0.210 HD
ENDBRANCH  13  21
TORSDOF 2
ENDMDL
MODEL 8
REMARK VINA RESULT:      -7.1      3.940      6.171
REMARK  2 active torsions:
REMARK  status: ('A' for Active; 'I' for Inactive)
REMARK    1  A    between atoms: O2_2  and  C3_3 
REMARK    2  A    between atoms: C15_15  and  O17_16 
ROOT
ATOM      1  C3  ZIN A   1      17.338   4.701  13.517  0.00  0.00     0.102 A 
ATOM      2  C4  ZIN A   1      16.846   5.124  12.288  0.00  0.00     0.040 A 
ATOM      3  C5  ZIN A   1      17.007   4.369  11.149  0.00  0.00     0.012 A 
ATOM      4  C6  ZIN A   1      17.697   3.149  11.161  0.00  0.00    -0.020 A 
ATOM      5  C7  ZIN A   1      17.940   2.520   9.821  0.00  0.00     0.311 C 
ATOM      6  N8  ZIN A   1      19.267   1.951   9.704  0.00  0.00     0.088 N 
ATOM      7  C9  ZIN A   1      19.627   1.740   8.295  0.00  0.00     0.310 C 
ATOM      8  C10 ZIN A   1      19.516   0.769  10.482  0.00  0.00     0.273 C 
ATOM      9  C11 ZIN A   1      19.939   1.033  11.898  0.00  0.00     0.051 C 
ATOM     10  C12 ZIN A   1      18.774   1.399  12.797  0.00  0.00     0.036 C 
ATOM     11  C13 ZIN A   1      17.729   0.333  12.799  0.00  0.00    -0.011 C 
ATOM     12  C14 ZIN A   1      17.356  -0.345  13.832  0.00  0.00     0.002 C 
ATOM     13  C15 ZIN A   1      17.922  -0.148  15.201  0.00  0.00     0.143 C 
ATOM     14  C18 ZIN A   1      19.254   0.573  15.163  0.00  0.00     0.069 C 
ATOM     15  C19 ZIN A   1      19.294   1.726  14.199  0.00  0.00     0.148 C 
ATOM     16  O21 ZIN A   1      18.485   2.826  14.630  0.00  0.00    -0.341 OA
ATOM     17  C22 ZIN A   1      17.991   3.462  13.546  0.00  0.00     0.110 A 
ATOM     18  C23 ZIN A   1      18.146   2.712  12.373  0.00  0.00     0.001 A 
ENDROOT
BRANCH   1  19
ATOM     19  O2  ZIN A   1      17.197   5.459  14.638  0.00  0.00    -0.353 OA
ATOM     20  C1  ZIN A   1      15.876   5.895  14.964  0.00  0.00     0.210 C 
ENDBRANCH   1  19
BRANCH  13  21
ATOM     21  O17 ZIN A   1      17.002   0.620  15.979  0.00  0.00    -0.392 OA
ATOM     22  H40 ZIN A   1      16.672   1.411  15.530  0.00  0.00     0.210 HD
ENDBRANCH  13  21
TORSDOF 2
ENDMDL
MODEL 9
REMARK VINA RESULT:      -7.1      2.289      4.769
REMARK  2 active torsions:
REMARK  status: ('A' for Active; 'I' for Inactive)
REMARK    1  A    between atoms: O2_2  and  C3_3 
REMARK    2  A    between atoms: C15_15  and  O17_16 
ROOT
ATOM      1  C3  ZIN A   1      17.321  -4.730   9.143  0.00  0.00     0.102 A 
ATOM      2  C4  ZIN A   1      16.830  -5.046  10.404  0.00  0.00     0.040 A 
ATOM      3  C5  ZIN A   1      16.997  -4.200  11.476  0.00  0.00     0.012 A 
ATOM      4  C6  ZIN A   1      17.691  -2.988  11.360  0.00  0.00    -0.020 A 
ATOM      5  C7  ZIN A   1      17.940  -2.250  12.642  0.00  0.00     0.311 C 
ATOM      6  N8  ZIN A   1      19.269  -1.678  12.708  0.00  0.00     0.088 N 
ATOM      7  C9  ZIN A   1      19.633  -1.352  14.094  0.00  0.00     0.310 C 
ATOM      8  C10 ZIN A   1      19.521  -0.566  11.834  0.00  0.00     0.273 C 
ATOM      9  C11 ZIN A   1      19.940  -0.950  10.444  0.00  0.00     0.051 C 
ATOM     10  C12 ZIN A   1      18.771  -1.385   9.581  0.00  0.00     0.036 C 
ATOM     11  C13 ZIN A   1      17.730  -0.319   9.493  0.00  0.00    -0.011 C 
ATOM     12  C14 ZIN A   1      17.357   0.272   8.407  0.00  0.00     0.002 C 
ATOM     13  C15 ZIN A   1      17.919  -0.040   7.058  0.00  0.00     0.143 C 
ATOM     14  C18 ZIN A   1      19.249  -0.761   7.154  0.00  0.00     0.069 C 
ATOM     15  C19 ZIN A   1      19.287  -1.830   8.210  0.00  0.00     0.148 C 
ATOM     16  O21 ZIN A   1      18.472  -2.959   7.875  0.00  0.00    -0.341 OA
ATOM     17  C22 ZIN A   1      17.978  -3.500   9.008  0.00  0.00     0.110 A 
ATOM     18  C23 ZIN A   1      18.139  -2.655  10.115  0.00  0.00     0.001 A 
ENDROOT
BRANCH   1  19
ATOM     19  O2  ZIN A   1      17.174  -5.577   8.090  0.00  0.00    -0.353 OA
ATOM     20  C1  ZIN A   1      18.257  -6.469   7.818  0.00  0.00     0.210 C 
ENDBRANCH   1  19
BRANCH  13  21
ATOM     21  O17 ZIN A   1      16.994  -0.867   6.349  0.00  0.00    -0.392 OA
ATOM     22  H40 ZIN A   1      16.486  -0.397   5.672  0.00  0.00     0.210 HD
ENDBRANCH  13  21
TORSDOF 2
ENDMDL
