MODEL 1
REMARK VINA RESULT:      -8.9      0.000      0.000
REMARK  16 active torsions:
REMARK  status: ('A' for Active; 'I' for Inactive)
REMARK    1  A    between atoms: C2_2  and  C3_3 
REMARK    2  A    between atoms: C3_3  and  C4_4 
REMARK    3  A    between atoms: C4_4  and  C5_5 
REMARK    4  A    between atoms: C5_5  and  O7_7 
REMARK    5  A    between atoms: O7_7  and  C8_8 
REMARK    6  A    between atoms: C8_8  and  C9_9 
REMARK    7  A    between atoms: C9_9  and  C11_11 
REMARK    8  A    between atoms: C11_11  and  O12_12 
REMARK    9  A    between atoms: C15_15  and  O16_16 
REMARK   10  A    between atoms: C22_22  and  O23_23 
REMARK   11  A    between atoms: C31_31  and  O32_32 
REMARK   12  A    between atoms: C34_34  and  O36_35 
REMARK   13  A    between atoms: O36_35  and  C37_36 
REMARK   14  A    between atoms: C40_38  and  N42_39 
REMARK       I    between atoms: N42_39  and  C43_40 
REMARK   15  A    between atoms: C43_40  and  C45_42 
REMARK   16  A    between atoms: C49_46  and  O51_47 
ROOT
ATOM      1  C11 ZIN A   1      18.898  -4.804  10.366  0.00  0.00     0.127 C 
ATOM      2  C13 ZIN A   1      19.603  -3.992  11.449  0.00  0.00     0.088 C 
ATOM      3  C14 ZIN A   1      19.027  -2.601  11.532  0.00  0.00    -0.009 A 
ATOM      4  C15 ZIN A   1      19.286  -1.867  12.699  0.00  0.00     0.088 A 
ATOM      5  C17 ZIN A   1      18.790  -0.573  12.841  0.00  0.00     0.066 A 
ATOM      6  C18 ZIN A   1      18.024  -0.005  11.801  0.00  0.00     0.066 A 
ATOM      7  C19 ZIN A   1      17.502   1.366  11.945  0.00  0.00     0.200 C 
ATOM      8  O20 ZIN A   1      16.646   1.780  11.187  0.00  0.00    -0.286 OA
ATOM      9  C21 ZIN A   1      18.031   2.229  13.019  0.00  0.00     0.062 A 
ATOM     10  C22 ZIN A   1      17.783   3.604  13.013  0.00  0.00     0.083 A 
ATOM     11  C25 ZIN A   1      18.292   4.399  14.036  0.00  0.00     0.038 A 
ATOM     12  C26 ZIN A   1      19.037   3.838  15.052  0.00  0.00     0.004 A 
ATOM     13  C27 ZIN A   1      19.291   2.475  15.070  0.00  0.00     0.017 A 
ATOM     14  C28 ZIN A   1      18.794   1.664  14.058  0.00  0.00     0.032 A 
ATOM     15  C29 ZIN A   1      19.059   0.208  14.062  0.00  0.00     0.197 C 
ATOM     16  O30 ZIN A   1      19.490  -0.336  15.060  0.00  0.00    -0.286 OA
ATOM     17  C31 ZIN A   1      17.774  -0.750  10.653  0.00  0.00     0.090 A 
ATOM     18  C33 ZIN A   1      18.277  -2.051  10.524  0.00  0.00     0.014 A 
ATOM     19  C34 ZIN A   1      17.952  -2.797   9.255  0.00  0.00     0.164 C 
ATOM     20  C56 ZIN A   1      18.895  -3.983   9.071  0.00  0.00     0.083 C 
ENDROOT
BRANCH  19  21
ATOM     21  O36 ZIN A   1      18.085  -1.912   8.142  0.00  0.00    -0.351 OA
BRANCH  21  22
ATOM     22  C37 ZIN A   1      19.320  -2.045   7.436  0.00  0.00     0.263 C 
ATOM     23  O55 ZIN A   1      19.611  -0.827   6.749  0.00  0.00    -0.354 OA
ATOM     24  C52 ZIN A   1      18.608  -0.432   5.811  0.00  0.00     0.151 C 
ATOM     25  C49 ZIN A   1      18.467  -1.509   4.732  0.00  0.00     0.171 C 
ATOM     26  C54 ZIN A   1      19.010   0.893   5.160  0.00  0.00     0.042 C 
ATOM     27  C40 ZIN A   1      18.122  -2.845   5.398  0.00  0.00     0.147 C 
ATOM     28  C39 ZIN A   1      19.208  -3.188   6.422  0.00  0.00     0.090 C 
BRANCH  25  29
ATOM     29  O51 ZIN A   1      19.698  -1.634   4.018  0.00  0.00    -0.391 OA
ATOM     30  H81 ZIN A   1      20.182  -0.803   3.917  0.00  0.00     0.210 HD
ENDBRANCH  25  29
BRANCH  27  31
ATOM     31  N42 ZIN A   1      18.058  -3.898   4.382  0.00  0.00    -0.240 NA
ATOM     32  C43 ZIN A   1      16.904  -4.131   3.725  0.00  0.00     0.346 C 
ATOM     33  O44 ZIN A   1      15.920  -3.469   3.975  0.00  0.00    -0.261 OA
BRANCH  32  34
ATOM     34  C45 ZIN A   1      16.837  -5.215   2.680  0.00  0.00     0.474 C 
ATOM     35  F46 ZIN A   1      17.773  -4.951   1.673  0.00  0.00    -0.162 F 
ATOM     36  F47 ZIN A   1      17.125  -6.451   3.271  0.00  0.00    -0.162 F 
ATOM     37  F48 ZIN A   1      15.554  -5.251   2.126  0.00  0.00    -0.162 F 
ENDBRANCH  32  34
ENDBRANCH  27  31
ENDBRANCH  21  22
ENDBRANCH  19  21
BRANCH  17  38
ATOM     38  O32 ZIN A   1      17.037  -0.211   9.649  0.00  0.00    -0.359 OA
ATOM     39  H78 ZIN A   1      16.208   0.191   9.942  0.00  0.00     0.217 HD
ENDBRANCH  17  38
BRANCH   1  40
ATOM     40  C9  ZIN A   1      17.479  -5.089  10.788  0.00  0.00     0.185 C 
ATOM     41  O10 ZIN A   1      17.169  -5.011  11.952  0.00  0.00    -0.292 OA
BRANCH  40  42
ATOM     42  C8  ZIN A   1      16.450  -5.473   9.757  0.00  0.00     0.260 C 
BRANCH  42  43
ATOM     43  O7  ZIN A   1      16.762  -6.787   9.225  0.00  0.00    -0.314 OA
BRANCH  43  44
ATOM     44  C5  ZIN A   1      17.236  -6.841   7.971  0.00  0.00     0.259 C 
ATOM     45  O6  ZIN A   1      18.233  -7.479   7.728  0.00  0.00    -0.265 OA
BRANCH  44  46
ATOM     46  C4  ZIN A   1      16.524  -6.106   6.864  0.00  0.00     0.111 C 
BRANCH  46  47
ATOM     47  C3  ZIN A   1      15.549  -7.056   6.165  0.00  0.00     0.009 C 
BRANCH  47  48
ATOM     48  C2  ZIN A   1      14.180  -6.383   6.044  0.00  0.00    -0.004 C 
ATOM     49  C1  ZIN A   1      13.518  -6.323   7.423  0.00  0.00     0.005 C 
ENDBRANCH  47  48
ENDBRANCH  46  47
ENDBRANCH  44  46
ENDBRANCH  43  44
ENDBRANCH  42  43
ENDBRANCH  40  42
ENDBRANCH   1  40
BRANCH   1  50
ATOM     50  O12 ZIN A   1      19.594  -6.034  10.154  0.00  0.00    -0.382 OA
ATOM     51  H68 ZIN A   1      19.276  -6.765  10.703  0.00  0.00     0.211 HD
ENDBRANCH   1  50
BRANCH   4  52
ATOM     52  O16 ZIN A   1      20.023  -2.420  13.693  0.00  0.00    -0.359 OA
ATOM     53  H71 ZIN A   1      20.262  -1.801  14.397  0.00  0.00     0.217 HD
ENDBRANCH   4  52
BRANCH  10  54
ATOM     54  O23 ZIN A   1      17.049   4.161  12.018  0.00  0.00    -0.355 OA
ATOM     55  C24 ZIN A   1      16.595   5.501  12.218  0.00  0.00     0.210 C 
ENDBRANCH  10  54
TORSDOF 16
ENDMDL
MODEL 2
REMARK VINA RESULT:      -8.6      6.167     11.746
REMARK  16 active torsions:
REMARK  status: ('A' for Active; 'I' for Inactive)
REMARK    1  A    between atoms: C2_2  and  C3_3 
REMARK    2  A    between atoms: C3_3  and  C4_4 
REMARK    3  A    between atoms: C4_4  and  C5_5 
REMARK    4  A    between atoms: C5_5  and  O7_7 
REMARK    5  A    between atoms: O7_7  and  C8_8 
REMARK    6  A    between atoms: C8_8  and  C9_9 
REMARK    7  A    between atoms: C9_9  and  C11_11 
REMARK    8  A    between atoms: C11_11  and  O12_12 
REMARK    9  A    between atoms: C15_15  and  O16_16 
REMARK   10  A    between atoms: C22_22  and  O23_23 
REMARK   11  A    between atoms: C31_31  and  O32_32 
REMARK   12  A    between atoms: C34_34  and  O36_35 
REMARK   13  A    between atoms: O36_35  and  C37_36 
REMARK   14  A    between atoms: C40_38  and  N42_39 
REMARK       I    between atoms: N42_39  and  C43_40 
REMARK   15  A    between atoms: C43_40  and  C45_42 
REMARK   16  A    between atoms: C49_46  and  O51_47 
ROOT
ATOM      1  C11 ZIN A   1      18.769   4.310  12.181  0.00  0.00     0.127 C 
ATOM      2  C13 ZIN A   1      19.517   3.426  11.186  0.00  0.00     0.088 C 
ATOM      3  C14 ZIN A   1      18.968   2.022  11.202  0.00  0.00    -0.009 A 
ATOM      4  C15 ZIN A   1      19.271   1.201  10.107  0.00  0.00     0.088 A 
ATOM      5  C17 ZIN A   1      18.802  -0.110  10.058  0.00  0.00     0.066 A 
ATOM      6  C18 ZIN A   1      18.018  -0.606  11.122  0.00  0.00     0.066 A 
ATOM      7  C19 ZIN A   1      17.524  -1.995  11.078  0.00  0.00     0.200 C 
ATOM      8  O20 ZIN A   1      16.654  -2.362  11.844  0.00  0.00    -0.286 OA
ATOM      9  C21 ZIN A   1      18.096  -2.932  10.092  0.00  0.00     0.062 A 
ATOM     10  C22 ZIN A   1      17.872  -4.306  10.204  0.00  0.00     0.083 A 
ATOM     11  C25 ZIN A   1      18.422  -5.172   9.263  0.00  0.00     0.038 A 
ATOM     12  C26 ZIN A   1      19.185  -4.681   8.224  0.00  0.00     0.004 A 
ATOM     13  C27 ZIN A   1      19.416  -3.320   8.101  0.00  0.00     0.017 A 
ATOM     14  C28 ZIN A   1      18.877  -2.438   9.029  0.00  0.00     0.032 A 
ATOM     15  C29 ZIN A   1      19.117  -0.983   8.913  0.00  0.00     0.197 C 
ATOM     16  O30 ZIN A   1      19.566  -0.513   7.885  0.00  0.00    -0.286 OA
ATOM     17  C31 ZIN A   1      17.724   0.224  12.198  0.00  0.00     0.090 A 
ATOM     18  C33 ZIN A   1      18.201   1.542  12.233  0.00  0.00     0.014 A 
ATOM     19  C34 ZIN A   1      17.828   2.382  13.427  0.00  0.00     0.164 C 
ATOM     20  C56 ZIN A   1      18.746   3.597  13.538  0.00  0.00     0.083 C 
ENDROOT
BRANCH  19  21
ATOM     21  O36 ZIN A   1      17.946   1.593  14.612  0.00  0.00    -0.351 OA
BRANCH  21  22
ATOM     22  C37 ZIN A   1      19.252   1.604  15.191  0.00  0.00     0.263 C 
ATOM     23  O55 ZIN A   1      19.614   0.278  15.580  0.00  0.00    -0.354 OA
ATOM     24  C52 ZIN A   1      18.720  -0.319  16.521  0.00  0.00     0.151 C 
ATOM     25  C49 ZIN A   1      18.703   0.513  17.806  0.00  0.00     0.171 C 
ATOM     26  C54 ZIN A   1      19.187  -1.741  16.839  0.00  0.00     0.042 C 
ATOM     27  C40 ZIN A   1      18.290   1.950  17.468  0.00  0.00     0.147 C 
ATOM     28  C39 ZIN A   1      19.257   2.515  16.424  0.00  0.00     0.090 C 
BRANCH  25  29
ATOM     29  O51 ZIN A   1      20.006   0.514  18.392  0.00  0.00    -0.391 OA
ATOM     30  H81 ZIN A   1      20.570  -0.214  18.100  0.00  0.00     0.210 HD
ENDBRANCH  25  29
BRANCH  27  31
ATOM     31  N42 ZIN A   1      18.342   2.773  18.679  0.00  0.00    -0.240 NA
ATOM     32  C43 ZIN A   1      17.630   3.915  18.748  0.00  0.00     0.346 C 
ATOM     33  O44 ZIN A   1      16.947   4.261  17.809  0.00  0.00    -0.261 OA
BRANCH  32  34
ATOM     34  C45 ZIN A   1      17.684   4.762  19.994  0.00  0.00     0.474 C 
ATOM     35  F46 ZIN A   1      18.835   4.446  20.723  0.00  0.00    -0.162 F 
ATOM     36  F47 ZIN A   1      17.714   6.115  19.637  0.00  0.00    -0.162 F 
ATOM     37  F48 ZIN A   1      16.552   4.513  20.777  0.00  0.00    -0.162 F 
ENDBRANCH  32  34
ENDBRANCH  27  31
ENDBRANCH  21  22
ENDBRANCH  19  21
BRANCH  17  38
ATOM     38  O32 ZIN A   1      16.969  -0.245  13.224  0.00  0.00    -0.359 OA
ATOM     39  H78 ZIN A   1      16.513   0.444  13.724  0.00  0.00     0.217 HD
ENDBRANCH  17  38
BRANCH   1  40
ATOM     40  C9  ZIN A   1      17.357   4.532  11.700  0.00  0.00     0.185 C 
ATOM     41  O10 ZIN A   1      17.040   4.200  10.583  0.00  0.00    -0.292 OA
BRANCH  40  42
ATOM     42  C8  ZIN A   1      16.343   5.169  12.614  0.00  0.00     0.260 C 
BRANCH  42  43
ATOM     43  O7  ZIN A   1      16.949   6.295  13.301  0.00  0.00    -0.314 OA
BRANCH  43  44
ATOM     44  C5  ZIN A   1      16.388   6.677  14.459  0.00  0.00     0.259 C 
ATOM     45  O6  ZIN A   1      15.186   6.676  14.577  0.00  0.00    -0.265 OA
BRANCH  44  46
ATOM     46  C4  ZIN A   1      17.258   7.108  15.611  0.00  0.00     0.111 C 
BRANCH  46  47
ATOM     47  C3  ZIN A   1      18.730   7.029  15.197  0.00  0.00     0.009 C 
BRANCH  47  48
ATOM     48  C2  ZIN A   1      19.490   6.142  16.186  0.00  0.00    -0.004 C 
ATOM     49  C1  ZIN A   1      20.880   5.830  15.626  0.00  0.00     0.005 C 
ENDBRANCH  47  48
ENDBRANCH  46  47
ENDBRANCH  44  46
ENDBRANCH  43  44
ENDBRANCH  42  43
ENDBRANCH  40  42
ENDBRANCH   1  40
BRANCH   1  50
ATOM     50  O12 ZIN A   1      19.437   5.567  12.308  0.00  0.00    -0.382 OA
ATOM     51  H68 ZIN A   1      19.747   5.934  11.469  0.00  0.00     0.211 HD
ENDBRANCH   1  50
BRANCH   4  52
ATOM     52  O16 ZIN A   1      20.025   1.685   9.090  0.00  0.00    -0.359 OA
ATOM     53  H71 ZIN A   1      20.022   2.649   9.021  0.00  0.00     0.217 HD
ENDBRANCH   4  52
BRANCH  10  54
ATOM     54  O23 ZIN A   1      17.122  -4.794  11.223  0.00  0.00    -0.355 OA
ATOM     55  C24 ZIN A   1      17.760  -5.703  12.122  0.00  0.00     0.210 C 
ENDBRANCH  10  54
TORSDOF 16
ENDMDL
MODEL 3
REMARK VINA RESULT:      -6.7      3.958     10.339
REMARK  16 active torsions:
REMARK  status: ('A' for Active; 'I' for Inactive)
REMARK    1  A    between atoms: C2_2  and  C3_3 
REMARK    2  A    between atoms: C3_3  and  C4_4 
REMARK    3  A    between atoms: C4_4  and  C5_5 
REMARK    4  A    between atoms: C5_5  and  O7_7 
REMARK    5  A    between atoms: O7_7  and  C8_8 
REMARK    6  A    between atoms: C8_8  and  C9_9 
REMARK    7  A    between atoms: C9_9  and  C11_11 
REMARK    8  A    between atoms: C11_11  and  O12_12 
REMARK    9  A    between atoms: C15_15  and  O16_16 
REMARK   10  A    between atoms: C22_22  and  O23_23 
REMARK   11  A    between atoms: C31_31  and  O32_32 
REMARK   12  A    between atoms: C34_34  and  O36_35 
REMARK   13  A    between atoms: O36_35  and  C37_36 
REMARK   14  A    between atoms: C40_38  and  N42_39 
REMARK       I    between atoms: N42_39  and  C43_40 
REMARK   15  A    between atoms: C43_40  and  C45_42 
REMARK   16  A    between atoms: C49_46  and  O51_47 
ROOT
ATOM      1  C11 ZIN A   1      19.051  -1.556   5.242  0.00  0.00     0.127 C 
ATOM      2  C13 ZIN A   1      19.185  -2.780   4.340  0.00  0.00     0.088 C 
ATOM      3  C14 ZIN A   1      18.270  -3.885   4.801  0.00  0.00    -0.009 A 
ATOM      4  C15 ZIN A   1      17.988  -4.910   3.887  0.00  0.00     0.088 A 
ATOM      5  C17 ZIN A   1      17.155  -5.966   4.248  0.00  0.00     0.066 A 
ATOM      6  C18 ZIN A   1      16.596  -5.997   5.544  0.00  0.00     0.066 A 
ATOM      7  C19 ZIN A   1      15.718  -7.117   5.933  0.00  0.00     0.200 C 
ATOM      8  O20 ZIN A   1      15.036  -7.042   6.936  0.00  0.00    -0.286 OA
ATOM      9  C21 ZIN A   1      15.678  -8.327   5.090  0.00  0.00     0.062 A 
ATOM     10  C22 ZIN A   1      15.095  -9.505   5.564  0.00  0.00     0.083 A 
ATOM     11  C25 ZIN A   1      15.069 -10.635   4.751  0.00  0.00     0.038 A 
ATOM     12  C26 ZIN A   1      15.614 -10.598   3.485  0.00  0.00     0.004 A 
ATOM     13  C27 ZIN A   1      16.195  -9.436   3.002  0.00  0.00     0.017 A 
ATOM     14  C28 ZIN A   1      16.234  -8.297   3.796  0.00  0.00     0.032 A 
ATOM     15  C29 ZIN A   1      16.854  -7.050   3.296  0.00  0.00     0.197 C 
ATOM     16  O30 ZIN A   1      17.110  -6.922   2.115  0.00  0.00    -0.286 OA
ATOM     17  C31 ZIN A   1      16.884  -4.970   6.436  0.00  0.00     0.090 A 
ATOM     18  C33 ZIN A   1      17.722  -3.912   6.059  0.00  0.00     0.014 A 
ATOM     19  C34 ZIN A   1      17.975  -2.832   7.078  0.00  0.00     0.164 C 
ATOM     20  C56 ZIN A   1      19.205  -2.010   6.698  0.00  0.00     0.083 C 
ENDROOT
BRANCH  19  21
ATOM     21  O36 ZIN A   1      18.184  -3.431   8.357  0.00  0.00    -0.351 OA
BRANCH  21  22
ATOM     22  C37 ZIN A   1      19.521  -3.305   8.847  0.00  0.00     0.263 C 
ATOM     23  O55 ZIN A   1      19.831  -4.423   9.679  0.00  0.00    -0.354 OA
ATOM     24  C52 ZIN A   1      18.963  -4.573  10.804  0.00  0.00     0.151 C 
ATOM     25  C49 ZIN A   1      19.066  -3.334  11.696  0.00  0.00     0.171 C 
ATOM     26  C54 ZIN A   1      19.369  -5.813  11.602  0.00  0.00     0.042 C 
ATOM     27  C40 ZIN A   1      18.714  -2.091  10.872  0.00  0.00     0.147 C 
ATOM     28  C39 ZIN A   1      19.647  -2.014   9.661  0.00  0.00     0.090 C 
BRANCH  25  29
ATOM     29  O51 ZIN A   1      20.399  -3.215  12.196  0.00  0.00    -0.391 OA
ATOM     30  H81 ZIN A   1      20.838  -4.062  12.353  0.00  0.00     0.210 HD
ENDBRANCH  25  29
BRANCH  27  31
ATOM     31  N42 ZIN A   1      18.881  -0.892  11.697  0.00  0.00    -0.240 NA
ATOM     32  C43 ZIN A   1      17.809  -0.322  12.284  0.00  0.00     0.346 C 
ATOM     33  O44 ZIN A   1      16.707  -0.803  12.129  0.00  0.00    -0.261 OA
BRANCH  32  34
ATOM     34  C45 ZIN A   1      17.981   0.912  13.132  0.00  0.00     0.474 C 
ATOM     35  F46 ZIN A   1      17.820   0.577  14.481  0.00  0.00    -0.162 F 
ATOM     36  F47 ZIN A   1      19.262   1.440  12.932  0.00  0.00    -0.162 F 
ATOM     37  F48 ZIN A   1      17.023   1.864  12.770  0.00  0.00    -0.162 F 
ENDBRANCH  32  34
ENDBRANCH  27  31
ENDBRANCH  21  22
ENDBRANCH  19  21
BRANCH  17  38
ATOM     38  O32 ZIN A   1      16.349  -4.992   7.683  0.00  0.00    -0.359 OA
ATOM     39  H78 ZIN A   1      16.989  -5.179   8.382  0.00  0.00     0.217 HD
ENDBRANCH  17  38
BRANCH   1  40
ATOM     40  C9  ZIN A   1      17.696  -0.927   5.047  0.00  0.00     0.185 C 
ATOM     41  O10 ZIN A   1      16.942  -1.364   4.212  0.00  0.00    -0.292 OA
BRANCH  40  42
ATOM     42  C8  ZIN A   1      17.282   0.249   5.894  0.00  0.00     0.260 C 
BRANCH  42  43
ATOM     43  O7  ZIN A   1      18.403   0.672   6.715  0.00  0.00    -0.314 OA
BRANCH  43  44
ATOM     44  C5  ZIN A   1      18.148   0.935   8.006  0.00  0.00     0.259 C 
ATOM     45  O6  ZIN A   1      17.356   0.257   8.616  0.00  0.00    -0.265 OA
BRANCH  44  46
ATOM     46  C4  ZIN A   1      18.851   2.076   8.695  0.00  0.00     0.111 C 
BRANCH  46  47
ATOM     47  C3  ZIN A   1      18.056   2.489   9.937  0.00  0.00     0.009 C 
BRANCH  47  48
ATOM     48  C2  ZIN A   1      18.509   3.878  10.393  0.00  0.00    -0.004 C 
ATOM     49  C1  ZIN A   1      17.299   4.811  10.465  0.00  0.00     0.005 C 
ENDBRANCH  47  48
ENDBRANCH  46  47
ENDBRANCH  44  46
ENDBRANCH  43  44
ENDBRANCH  42  43
ENDBRANCH  40  42
ENDBRANCH   1  40
BRANCH   1  50
ATOM     50  O12 ZIN A   1      20.073  -0.607   4.924  0.00  0.00    -0.382 OA
ATOM     51  H68 ZIN A   1      20.961  -0.885   5.183  0.00  0.00     0.211 HD
ENDBRANCH   1  50
BRANCH   4  52
ATOM     52  O16 ZIN A   1      18.529  -4.873   2.645  0.00  0.00    -0.359 OA
ATOM     53  H71 ZIN A   1      18.884  -5.721   2.344  0.00  0.00     0.217 HD
ENDBRANCH   4  52
BRANCH  10  54
ATOM     54  O23 ZIN A   1      14.557  -9.547   6.808  0.00  0.00    -0.355 OA
ATOM     55  C24 ZIN A   1      15.027 -10.572   7.685  0.00  0.00     0.210 C 
ENDBRANCH  10  54
TORSDOF 16
ENDMDL
MODEL 4
REMARK VINA RESULT:      -6.3      5.146     10.106
REMARK  16 active torsions:
REMARK  status: ('A' for Active; 'I' for Inactive)
REMARK    1  A    between atoms: C2_2  and  C3_3 
REMARK    2  A    between atoms: C3_3  and  C4_4 
REMARK    3  A    between atoms: C4_4  and  C5_5 
REMARK    4  A    between atoms: C5_5  and  O7_7 
REMARK    5  A    between atoms: O7_7  and  C8_8 
REMARK    6  A    between atoms: C8_8  and  C9_9 
REMARK    7  A    between atoms: C9_9  and  C11_11 
REMARK    8  A    between atoms: C11_11  and  O12_12 
REMARK    9  A    between atoms: C15_15  and  O16_16 
REMARK   10  A    between atoms: C22_22  and  O23_23 
REMARK   11  A    between atoms: C31_31  and  O32_32 
REMARK   12  A    between atoms: C34_34  and  O36_35 
REMARK   13  A    between atoms: O36_35  and  C37_36 
REMARK   14  A    between atoms: C40_38  and  N42_39 
REMARK       I    between atoms: N42_39  and  C43_40 
REMARK   15  A    between atoms: C43_40  and  C45_42 
REMARK   16  A    between atoms: C49_46  and  O51_47 
ROOT
ATOM      1  C11 ZIN A   1      17.943  -1.301  13.614  0.00  0.00     0.127 C 
ATOM      2  C13 ZIN A   1      17.326  -2.309  12.647  0.00  0.00     0.088 C 
ATOM      3  C14 ZIN A   1      17.851  -2.097  11.251  0.00  0.00    -0.009 A 
ATOM      4  C15 ZIN A   1      17.689  -3.148  10.337  0.00  0.00     0.088 A 
ATOM      5  C17 ZIN A   1      18.145  -3.020   9.027  0.00  0.00     0.066 A 
ATOM      6  C18 ZIN A   1      18.772  -1.821   8.625  0.00  0.00     0.066 A 
ATOM      7  C19 ZIN A   1      19.251  -1.677   7.238  0.00  0.00     0.200 C 
ATOM      8  O20 ZIN A   1      20.004  -0.771   6.938  0.00  0.00    -0.286 OA
ATOM      9  C21 ZIN A   1      18.806  -2.647   6.219  0.00  0.00     0.062 A 
ATOM     10  C22 ZIN A   1      18.996  -2.388   4.859  0.00  0.00     0.083 A 
ATOM     11  C25 ZIN A   1      18.569  -3.317   3.915  0.00  0.00     0.038 A 
ATOM     12  C26 ZIN A   1      17.960  -4.488   4.313  0.00  0.00     0.004 A 
ATOM     13  C27 ZIN A   1      17.764  -4.759   5.659  0.00  0.00     0.017 A 
ATOM     14  C28 ZIN A   1      18.182  -3.845   6.618  0.00  0.00     0.032 A 
ATOM     15  C29 ZIN A   1      17.978  -4.118   8.058  0.00  0.00     0.197 C 
ATOM     16  O30 ZIN A   1      17.678  -5.233   8.436  0.00  0.00    -0.286 OA
ATOM     17  C31 ZIN A   1      18.927  -0.790   9.546  0.00  0.00     0.090 A 
ATOM     18  C33 ZIN A   1      18.465  -0.934  10.861  0.00  0.00     0.014 A 
ATOM     19  C34 ZIN A   1      18.682   0.223  11.802  0.00  0.00     0.164 C 
ATOM     20  C56 ZIN A   1      17.773   0.103  13.023  0.00  0.00     0.083 C 
ENDROOT
BRANCH  19  21
ATOM     21  O36 ZIN A   1      18.396   1.445  11.119  0.00  0.00    -0.351 OA
BRANCH  21  22
ATOM     22  C37 ZIN A   1      17.232   2.120  11.600  0.00  0.00     0.263 C 
ATOM     23  O55 ZIN A   1      16.929   3.220  10.740  0.00  0.00    -0.354 OA
ATOM     24  C52 ZIN A   1      17.981   4.180  10.627  0.00  0.00     0.151 C 
ATOM     25  C49 ZIN A   1      18.270   4.782  12.005  0.00  0.00     0.171 C 
ATOM     26  C54 ZIN A   1      17.559   5.291   9.663  0.00  0.00     0.042 C 
ATOM     27  C40 ZIN A   1      18.635   3.656  12.978  0.00  0.00     0.147 C 
ATOM     28  C39 ZIN A   1      17.491   2.639  13.017  0.00  0.00     0.090 C 
BRANCH  25  29
ATOM     29  O51 ZIN A   1      17.111   5.468  12.480  0.00  0.00    -0.391 OA
ATOM     30  H81 ZIN A   1      16.352   4.892  12.645  0.00  0.00     0.210 HD
ENDBRANCH  25  29
BRANCH  27  31
ATOM     31  N42 ZIN A   1      18.842   4.213  14.317  0.00  0.00    -0.240 NA
ATOM     32  C43 ZIN A   1      19.789   5.151  14.518  0.00  0.00     0.346 C 
ATOM     33  O44 ZIN A   1      20.469   5.534  13.590  0.00  0.00    -0.261 OA
BRANCH  32  34
ATOM     34  C45 ZIN A   1      20.003   5.723  15.896  0.00  0.00     0.474 C 
ATOM     35  F46 ZIN A   1      19.718   4.746  16.856  0.00  0.00    -0.162 F 
ATOM     36  F47 ZIN A   1      21.334   6.134  16.029  0.00  0.00    -0.162 F 
ATOM     37  F48 ZIN A   1      19.156   6.821  16.082  0.00  0.00    -0.162 F 
ENDBRANCH  32  34
ENDBRANCH  27  31
ENDBRANCH  21  22
ENDBRANCH  19  21
BRANCH  17  38
ATOM     38  O32 ZIN A   1      19.530   0.366   9.167  0.00  0.00    -0.359 OA
ATOM     39  H78 ZIN A   1      19.774   0.394   8.233  0.00  0.00     0.217 HD
ENDBRANCH  17  38
BRANCH   1  40
ATOM     40  C9  ZIN A   1      19.409  -1.602  13.794  0.00  0.00     0.185 C 
ATOM     41  O10 ZIN A   1      19.927  -2.483  13.151  0.00  0.00    -0.292 OA
BRANCH  40  42
ATOM     42  C8  ZIN A   1      20.227  -0.804  14.776  0.00  0.00     0.260 C 
BRANCH  42  43
ATOM     43  O7  ZIN A   1      19.643  -0.921  16.100  0.00  0.00    -0.314 OA
BRANCH  43  44
ATOM     44  C5  ZIN A   1      19.230   0.213  16.687  0.00  0.00     0.259 C 
ATOM     45  O6  ZIN A   1      18.868   1.147  16.010  0.00  0.00    -0.265 OA
BRANCH  44  46
ATOM     46  C4  ZIN A   1      19.219   0.323  18.190  0.00  0.00     0.111 C 
BRANCH  46  47
ATOM     47  C3  ZIN A   1      18.826   1.746  18.594  0.00  0.00     0.009 C 
BRANCH  47  48
ATOM     48  C2  ZIN A   1      17.350   1.773  18.997  0.00  0.00    -0.004 C 
ATOM     49  C1  ZIN A   1      16.932   3.212  19.304  0.00  0.00     0.005 C 
ENDBRANCH  47  48
ENDBRANCH  46  47
ENDBRANCH  44  46
ENDBRANCH  43  44
ENDBRANCH  42  43
ENDBRANCH  40  42
ENDBRANCH   1  40
BRANCH   1  50
ATOM     50  O12 ZIN A   1      17.278  -1.375  14.878  0.00  0.00    -0.382 OA
ATOM     51  H68 ZIN A   1      16.441  -1.859  14.854  0.00  0.00     0.211 HD
ENDBRANCH   1  50
BRANCH   4  52
ATOM     52  O16 ZIN A   1      17.086  -4.296  10.730  0.00  0.00    -0.359 OA
ATOM     53  H71 ZIN A   1      16.221  -4.165  11.144  0.00  0.00     0.217 HD
ENDBRANCH   4  52
BRANCH  10  54
ATOM     54  O23 ZIN A   1      19.596  -1.238   4.462  0.00  0.00    -0.355 OA
ATOM     55  C24 ZIN A   1      18.742  -0.140   4.134  0.00  0.00     0.210 C 
ENDBRANCH  10  54
TORSDOF 16
ENDMDL
MODEL 5
REMARK VINA RESULT:      -6.3      2.354      5.117
REMARK  16 active torsions:
REMARK  status: ('A' for Active; 'I' for Inactive)
REMARK    1  A    between atoms: C2_2  and  C3_3 
REMARK    2  A    between atoms: C3_3  and  C4_4 
REMARK    3  A    between atoms: C4_4  and  C5_5 
REMARK    4  A    between atoms: C5_5  and  O7_7 
REMARK    5  A    between atoms: O7_7  and  C8_8 
REMARK    6  A    between atoms: C8_8  and  C9_9 
REMARK    7  A    between atoms: C9_9  and  C11_11 
REMARK    8  A    between atoms: C11_11  and  O12_12 
REMARK    9  A    between atoms: C15_15  and  O16_16 
REMARK   10  A    between atoms: C22_22  and  O23_23 
REMARK   11  A    between atoms: C31_31  and  O32_32 
REMARK   12  A    between atoms: C34_34  and  O36_35 
REMARK   13  A    between atoms: O36_35  and  C37_36 
REMARK   14  A    between atoms: C40_38  and  N42_39 
REMARK       I    between atoms: N42_39  and  C43_40 
REMARK   15  A    between atoms: C43_40  and  C45_42 
REMARK   16  A    between atoms: C49_46  and  O51_47 
ROOT
ATOM      1  C11 ZIN A   1      17.686   0.029   7.840  0.00  0.00     0.127 C 
ATOM      2  C13 ZIN A   1      17.377   1.021   8.958  0.00  0.00     0.088 C 
ATOM      3  C14 ZIN A   1      17.817   0.474  10.292  0.00  0.00    -0.009 A 
ATOM      4  C15 ZIN A   1      17.957   1.388  11.346  0.00  0.00     0.088 A 
ATOM      5  C17 ZIN A   1      18.354   0.951  12.608  0.00  0.00     0.066 A 
ATOM      6  C18 ZIN A   1      18.614  -0.420  12.818  0.00  0.00     0.066 A 
ATOM      7  C19 ZIN A   1      19.029  -0.887  14.154  0.00  0.00     0.200 C 
ATOM      8  O20 ZIN A   1      19.493  -2.002  14.297  0.00  0.00    -0.286 OA
ATOM      9  C21 ZIN A   1      18.874   0.013  15.312  0.00  0.00     0.062 A 
ATOM     10  C22 ZIN A   1      18.980  -0.480  16.615  0.00  0.00     0.083 A 
ATOM     11  C25 ZIN A   1      18.830   0.388  17.693  0.00  0.00     0.038 A 
ATOM     12  C26 ZIN A   1      18.579   1.728  17.482  0.00  0.00     0.004 A 
ATOM     13  C27 ZIN A   1      18.472   2.230  16.195  0.00  0.00     0.017 A 
ATOM     14  C28 ZIN A   1      18.617   1.382  15.105  0.00  0.00     0.032 A 
ATOM     15  C29 ZIN A   1      18.502   1.903  13.725  0.00  0.00     0.197 C 
ATOM     16  O30 ZIN A   1      18.532   3.100  13.514  0.00  0.00    -0.286 OA
ATOM     17  C31 ZIN A   1      18.473  -1.311  11.759  0.00  0.00     0.090 A 
ATOM     18  C33 ZIN A   1      18.075  -0.858  10.495  0.00  0.00     0.014 A 
ATOM     19  C34 ZIN A   1      17.958  -1.883   9.397  0.00  0.00     0.164 C 
ATOM     20  C56 ZIN A   1      17.124  -1.340   8.239  0.00  0.00     0.083 C 
ENDROOT
BRANCH  19  21
ATOM     21  O36 ZIN A   1      17.335  -3.059   9.916  0.00  0.00    -0.351 OA
BRANCH  21  22
ATOM     22  C37 ZIN A   1      18.237  -4.146  10.136  0.00  0.00     0.263 C 
ATOM     23  O55 ZIN A   1      19.272  -4.114   9.153  0.00  0.00    -0.354 OA
ATOM     24  C52 ZIN A   1      18.801  -4.199   7.806  0.00  0.00     0.151 C 
ATOM     25  C49 ZIN A   1      18.062  -5.525   7.608  0.00  0.00     0.171 C 
ATOM     26  C54 ZIN A   1      19.988  -4.126   6.844  0.00  0.00     0.042 C 
ATOM     27  C40 ZIN A   1      16.912  -5.614   8.615  0.00  0.00     0.147 C 
ATOM     28  C39 ZIN A   1      17.475  -5.471  10.032  0.00  0.00     0.090 C 
BRANCH  25  29
ATOM     29  O51 ZIN A   1      18.966  -6.612   7.816  0.00  0.00    -0.391 OA
ATOM     30  H81 ZIN A   1      18.599  -7.478   7.594  0.00  0.00     0.210 HD
ENDBRANCH  25  29
BRANCH  27  31
ATOM     31  N42 ZIN A   1      16.244  -6.912   8.483  0.00  0.00    -0.240 NA
ATOM     32  C43 ZIN A   1      15.245  -7.068   7.591  0.00  0.00     0.346 C 
ATOM     33  O44 ZIN A   1      14.900  -6.135   6.898  0.00  0.00    -0.261 OA
BRANCH  32  34
ATOM     34  C45 ZIN A   1      14.557  -8.402   7.456  0.00  0.00     0.474 C 
ATOM     35  F46 ZIN A   1      15.354  -9.398   8.032  0.00  0.00    -0.162 F 
ATOM     36  F47 ZIN A   1      13.321  -8.358   8.110  0.00  0.00    -0.162 F 
ATOM     37  F48 ZIN A   1      14.358  -8.689   6.102  0.00  0.00    -0.162 F 
ENDBRANCH  32  34
ENDBRANCH  27  31
ENDBRANCH  21  22
ENDBRANCH  19  21
BRANCH  17  38
ATOM     38  O32 ZIN A   1      18.723  -2.631  11.953  0.00  0.00    -0.359 OA
ATOM     39  H78 ZIN A   1      19.538  -2.809  12.441  0.00  0.00     0.217 HD
ENDBRANCH  17  38
BRANCH   1  40
ATOM     40  C9  ZIN A   1      19.178  -0.072   7.648  0.00  0.00     0.185 C 
ATOM     41  O10 ZIN A   1      19.921   0.576   8.346  0.00  0.00    -0.292 OA
BRANCH  40  42
ATOM     42  C8  ZIN A   1      19.741  -0.979   6.585  0.00  0.00     0.260 C 
BRANCH  42  43
ATOM     43  O7  ZIN A   1      19.151  -0.646   5.301  0.00  0.00    -0.314 OA
BRANCH  43  44
ATOM     44  C5  ZIN A   1      18.785  -1.669   4.514  0.00  0.00     0.259 C 
ATOM     45  O6  ZIN A   1      19.627  -2.354   3.984  0.00  0.00    -0.265 OA
BRANCH  44  46
ATOM     46  C4  ZIN A   1      17.324  -1.964   4.292  0.00  0.00     0.111 C 
BRANCH  46  47
ATOM     47  C3  ZIN A   1      17.106  -3.479   4.274  0.00  0.00     0.009 C 
BRANCH  47  48
ATOM     48  C2  ZIN A   1      16.455  -3.885   2.951  0.00  0.00    -0.004 C 
ATOM     49  C1  ZIN A   1      15.431  -4.993   3.206  0.00  0.00     0.005 C 
ENDBRANCH  47  48
ENDBRANCH  46  47
ENDBRANCH  44  46
ENDBRANCH  43  44
ENDBRANCH  42  43
ENDBRANCH  40  42
ENDBRANCH   1  40
BRANCH   1  50
ATOM     50  O12 ZIN A   1      17.073   0.465   6.624  0.00  0.00    -0.382 OA
ATOM     51  H68 ZIN A   1      16.987  -0.228   5.956  0.00  0.00     0.211 HD
ENDBRANCH   1  50
BRANCH   4  52
ATOM     52  O16 ZIN A   1      17.705   2.703  11.137  0.00  0.00    -0.359 OA
ATOM     53  H71 ZIN A   1      18.383   3.157  10.618  0.00  0.00     0.217 HD
ENDBRANCH   4  52
BRANCH  10  54
ATOM     54  O23 ZIN A   1      19.228  -1.796  16.829  0.00  0.00    -0.355 OA
ATOM     55  C24 ZIN A   1      20.002  -2.132  17.982  0.00  0.00     0.210 C 
ENDBRANCH  10  54
TORSDOF 16
ENDMDL
MODEL 6
REMARK VINA RESULT:      -6.3      4.566      8.986
REMARK  16 active torsions:
REMARK  status: ('A' for Active; 'I' for Inactive)
REMARK    1  A    between atoms: C2_2  and  C3_3 
REMARK    2  A    between atoms: C3_3  and  C4_4 
REMARK    3  A    between atoms: C4_4  and  C5_5 
REMARK    4  A    between atoms: C5_5  and  O7_7 
REMARK    5  A    between atoms: O7_7  and  C8_8 
REMARK    6  A    between atoms: C8_8  and  C9_9 
REMARK    7  A    between atoms: C9_9  and  C11_11 
REMARK    8  A    between atoms: C11_11  and  O12_12 
REMARK    9  A    between atoms: C15_15  and  O16_16 
REMARK   10  A    between atoms: C22_22  and  O23_23 
REMARK   11  A    between atoms: C31_31  and  O32_32 
REMARK   12  A    between atoms: C34_34  and  O36_35 
REMARK   13  A    between atoms: O36_35  and  C37_36 
REMARK   14  A    between atoms: C40_38  and  N42_39 
REMARK       I    between atoms: N42_39  and  C43_40 
REMARK   15  A    between atoms: C43_40  and  C45_42 
REMARK   16  A    between atoms: C49_46  and  O51_47 
ROOT
ATOM      1  C11 ZIN A   1      17.607   3.000  11.866  0.00  0.00     0.127 C 
ATOM      2  C13 ZIN A   1      16.559   3.993  12.362  0.00  0.00     0.088 C 
ATOM      3  C14 ZIN A   1      17.000   4.632  13.654  0.00  0.00    -0.009 A 
ATOM      4  C15 ZIN A   1      16.356   5.817  14.038  0.00  0.00     0.088 A 
ATOM      5  C17 ZIN A   1      16.708   6.458  15.224  0.00  0.00     0.066 A 
ATOM      6  C18 ZIN A   1      17.719   5.904  16.038  0.00  0.00     0.066 A 
ATOM      7  C19 ZIN A   1      18.092   6.575  17.297  0.00  0.00     0.200 C 
ATOM      8  O20 ZIN A   1      19.113   6.264  17.880  0.00  0.00    -0.286 OA
ATOM      9  C21 ZIN A   1      17.213   7.629  17.838  0.00  0.00     0.062 A 
ATOM     10  C22 ZIN A   1      17.369   8.081  19.151  0.00  0.00     0.083 A 
ATOM     11  C25 ZIN A   1      16.528   9.075  19.641  0.00  0.00     0.038 A 
ATOM     12  C26 ZIN A   1      15.543   9.615  18.841  0.00  0.00     0.004 A 
ATOM     13  C27 ZIN A   1      15.376   9.176  17.536  0.00  0.00     0.017 A 
ATOM     14  C28 ZIN A   1      16.204   8.183  17.027  0.00  0.00     0.032 A 
ATOM     15  C29 ZIN A   1      16.036   7.703  15.638  0.00  0.00     0.197 C 
ATOM     16  O30 ZIN A   1      15.354   8.326  14.849  0.00  0.00    -0.286 OA
ATOM     17  C31 ZIN A   1      18.350   4.730  15.639  0.00  0.00     0.090 A 
ATOM     18  C33 ZIN A   1      17.987   4.097  14.443  0.00  0.00     0.014 A 
ATOM     19  C34 ZIN A   1      18.726   2.836  14.074  0.00  0.00     0.164 C 
ATOM     20  C56 ZIN A   1      17.954   2.049  13.017  0.00  0.00     0.083 C 
ENDROOT
BRANCH  19  21
ATOM     21  O36 ZIN A   1      18.886   2.027  15.241  0.00  0.00    -0.351 OA
BRANCH  21  22
ATOM     22  C37 ZIN A   1      17.751   1.215  15.546  0.00  0.00     0.263 C 
ATOM     23  O55 ZIN A   1      17.849   0.744  16.891  0.00  0.00    -0.354 OA
ATOM     24  C52 ZIN A   1      19.024  -0.024  17.157  0.00  0.00     0.151 C 
ATOM     25  C49 ZIN A   1      19.031  -1.269  16.266  0.00  0.00     0.171 C 
ATOM     26  C54 ZIN A   1      19.037  -0.447  18.627  0.00  0.00     0.042 C 
ATOM     27  C40 ZIN A   1      18.959  -0.837  14.798  0.00  0.00     0.147 C 
ATOM     28  C39 ZIN A   1      17.706   0.019  14.590  0.00  0.00     0.090 C 
BRANCH  25  29
ATOM     29  O51 ZIN A   1      17.903  -2.088  16.580  0.00  0.00    -0.391 OA
ATOM     30  H81 ZIN A   1      17.106  -1.868  16.079  0.00  0.00     0.210 HD
ENDBRANCH  25  29
BRANCH  27  31
ATOM     31  N42 ZIN A   1      18.891  -2.022  13.940  0.00  0.00    -0.240 NA
ATOM     32  C43 ZIN A   1      19.382  -1.975  12.686  0.00  0.00     0.346 C 
ATOM     33  O44 ZIN A   1      19.881  -0.953  12.268  0.00  0.00    -0.261 OA
BRANCH  32  34
ATOM     34  C45 ZIN A   1      19.311  -3.195  11.803  0.00  0.00     0.474 C 
ATOM     35  F46 ZIN A   1      18.248  -4.007  12.213  0.00  0.00    -0.162 F 
ATOM     36  F47 ZIN A   1      19.110  -2.798  10.475  0.00  0.00    -0.162 F 
ATOM     37  F48 ZIN A   1      20.509  -3.910  11.898  0.00  0.00    -0.162 F 
ENDBRANCH  32  34
ENDBRANCH  27  31
ENDBRANCH  21  22
ENDBRANCH  19  21
BRANCH  17  38
ATOM     38  O32 ZIN A   1      19.325   4.192  16.416  0.00  0.00    -0.359 OA
ATOM     39  H78 ZIN A   1      19.043   3.993  17.318  0.00  0.00     0.217 HD
ENDBRANCH  17  38
BRANCH   1  40
ATOM     40  C9  ZIN A   1      18.844   3.742  11.430  0.00  0.00     0.185 C 
ATOM     41  O10 ZIN A   1      19.012   4.888  11.771  0.00  0.00    -0.292 OA
BRANCH  40  42
ATOM     42  C8  ZIN A   1      19.870   3.054  10.567  0.00  0.00     0.260 C 
BRANCH  42  43
ATOM     43  O7  ZIN A   1      19.314   2.820   9.247  0.00  0.00    -0.314 OA
BRANCH  43  44
ATOM     44  C5  ZIN A   1      19.367   1.565   8.776  0.00  0.00     0.259 C 
ATOM     45  O6  ZIN A   1      19.578   0.645   9.530  0.00  0.00    -0.265 OA
BRANCH  44  46
ATOM     46  C4  ZIN A   1      19.163   1.302   7.306  0.00  0.00     0.111 C 
BRANCH  46  47
ATOM     47  C3  ZIN A   1      18.007   0.316   7.120  0.00  0.00     0.009 C 
BRANCH  47  48
ATOM     48  C2  ZIN A   1      17.892  -0.061   5.641  0.00  0.00    -0.004 C 
ATOM     49  C1  ZIN A   1      19.259   0.090   4.970  0.00  0.00     0.005 C 
ENDBRANCH  47  48
ENDBRANCH  46  47
ENDBRANCH  44  46
ENDBRANCH  43  44
ENDBRANCH  42  43
ENDBRANCH  40  42
ENDBRANCH   1  40
BRANCH   1  50
ATOM     50  O12 ZIN A   1      17.081   2.252  10.767  0.00  0.00    -0.382 OA
ATOM     51  H68 ZIN A   1      17.675   2.203  10.005  0.00  0.00     0.211 HD
ENDBRANCH   1  50
BRANCH   4  52
ATOM     52  O16 ZIN A   1      15.385   6.341  13.251  0.00  0.00    -0.359 OA
ATOM     53  H71 ZIN A   1      14.538   5.879  13.310  0.00  0.00     0.217 HD
ENDBRANCH   4  52
BRANCH  10  54
ATOM     54  O23 ZIN A   1      18.337   7.555  19.942  0.00  0.00    -0.355 OA
ATOM     55  C24 ZIN A   1      17.921   6.988  21.187  0.00  0.00     0.210 C 
ENDBRANCH  10  54
TORSDOF 16
ENDMDL
MODEL 7
REMARK VINA RESULT:      -6.2      3.813      9.290
REMARK  16 active torsions:
REMARK  status: ('A' for Active; 'I' for Inactive)
REMARK    1  A    between atoms: C2_2  and  C3_3 
REMARK    2  A    between atoms: C3_3  and  C4_4 
REMARK    3  A    between atoms: C4_4  and  C5_5 
REMARK    4  A    between atoms: C5_5  and  O7_7 
REMARK    5  A    between atoms: O7_7  and  C8_8 
REMARK    6  A    between atoms: C8_8  and  C9_9 
REMARK    7  A    between atoms: C9_9  and  C11_11 
REMARK    8  A    between atoms: C11_11  and  O12_12 
REMARK    9  A    between atoms: C15_15  and  O16_16 
REMARK   10  A    between atoms: C22_22  and  O23_23 
REMARK   11  A    between atoms: C31_31  and  O32_32 
REMARK   12  A    between atoms: C34_34  and  O36_35 
REMARK   13  A    between atoms: O36_35  and  C37_36 
REMARK   14  A    between atoms: C40_38  and  N42_39 
REMARK       I    between atoms: N42_39  and  C43_40 
REMARK   15  A    between atoms: C43_40  and  C45_42 
REMARK   16  A    between atoms: C49_46  and  O51_47 
ROOT
ATOM      1  C11 ZIN A   1      17.376  -3.925  10.649  0.00  0.00     0.127 C 
ATOM      2  C13 ZIN A   1      16.232  -4.639   9.934  0.00  0.00     0.088 C 
ATOM      3  C14 ZIN A   1      16.612  -4.963   8.512  0.00  0.00    -0.009 A 
ATOM      4  C15 ZIN A   1      15.848  -5.933   7.847  0.00  0.00     0.088 A 
ATOM      5  C17 ZIN A   1      16.138  -6.277   6.529  0.00  0.00     0.066 A 
ATOM      6  C18 ZIN A   1      17.209  -5.640   5.866  0.00  0.00     0.066 A 
ATOM      7  C19 ZIN A   1      17.517  -5.997   4.468  0.00  0.00     0.200 C 
ATOM      8  O20 ZIN A   1      18.569  -5.654   3.965  0.00  0.00    -0.286 OA
ATOM      9  C21 ZIN A   1      16.534  -6.775   3.690  0.00  0.00     0.062 A 
ATOM     10  C22 ZIN A   1      16.651  -6.884   2.302  0.00  0.00     0.083 A 
ATOM     11  C25 ZIN A   1      15.712  -7.623   1.589  0.00  0.00     0.038 A 
ATOM     12  C26 ZIN A   1      14.669  -8.246   2.242  0.00  0.00     0.004 A 
ATOM     13  C27 ZIN A   1      14.540  -8.145   3.619  0.00  0.00     0.017 A 
ATOM     14  C28 ZIN A   1      15.466  -7.412   4.351  0.00  0.00     0.032 A 
ATOM     15  C29 ZIN A   1      15.340  -7.294   5.820  0.00  0.00     0.197 C 
ATOM     16  O30 ZIN A   1      14.589  -8.026   6.435  0.00  0.00    -0.286 OA
ATOM     17  C31 ZIN A   1      17.958  -4.683   6.542  0.00  0.00     0.090 A 
ATOM     18  C33 ZIN A   1      17.656  -4.348   7.869  0.00  0.00     0.014 A 
ATOM     19  C34 ZIN A   1      18.522  -3.312   8.536  0.00  0.00     0.164 C 
ATOM     20  C56 ZIN A   1      17.832  -2.749   9.776  0.00  0.00     0.083 C 
ENDROOT
BRANCH  19  21
ATOM     21  O36 ZIN A   1      18.777  -2.249   7.616  0.00  0.00    -0.351 OA
BRANCH  21  22
ATOM     22  C37 ZIN A   1      17.619  -1.486   7.272  0.00  0.00     0.263 C 
ATOM     23  O55 ZIN A   1      17.666  -1.144   5.886  0.00  0.00    -0.354 OA
ATOM     24  C52 ZIN A   1      18.819  -0.388   5.510  0.00  0.00     0.151 C 
ATOM     25  C49 ZIN A   1      18.832   0.936   6.278  0.00  0.00     0.171 C 
ATOM     26  C54 ZIN A   1      18.778  -0.107   4.007  0.00  0.00     0.042 C 
ATOM     27  C40 ZIN A   1      18.813   0.645   7.782  0.00  0.00     0.147 C 
ATOM     28  C39 ZIN A   1      17.583  -0.205   8.112  0.00  0.00     0.090 C 
BRANCH  25  29
ATOM     29  O51 ZIN A   1      17.680   1.705   5.925  0.00  0.00    -0.391 OA
ATOM     30  H81 ZIN A   1      16.860   1.193   5.892  0.00  0.00     0.210 HD
ENDBRANCH  25  29
BRANCH  27  31
ATOM     31  N42 ZIN A   1      18.751   1.906   8.526  0.00  0.00    -0.240 NA
ATOM     32  C43 ZIN A   1      18.850   1.901   9.870  0.00  0.00     0.346 C 
ATOM     33  O44 ZIN A   1      18.992   0.854  10.464  0.00  0.00    -0.261 OA
BRANCH  32  34
ATOM     34  C45 ZIN A   1      18.785   3.198  10.635  0.00  0.00     0.474 C 
ATOM     35  F46 ZIN A   1      18.333   4.216   9.789  0.00  0.00    -0.162 F 
ATOM     36  F47 ZIN A   1      17.902   3.060  11.713  0.00  0.00    -0.162 F 
ATOM     37  F48 ZIN A   1      20.059   3.521  11.115  0.00  0.00    -0.162 F 
ENDBRANCH  32  34
ENDBRANCH  27  31
ENDBRANCH  21  22
ENDBRANCH  19  21
BRANCH  17  38
ATOM     38  O32 ZIN A   1      18.991  -4.068   5.911  0.00  0.00    -0.359 OA
ATOM     39  H78 ZIN A   1      19.386  -4.591   5.202  0.00  0.00     0.217 HD
ENDBRANCH  17  38
BRANCH   1  40
ATOM     40  C9  ZIN A   1      18.523  -4.880  10.852  0.00  0.00     0.185 C 
ATOM     41  O10 ZIN A   1      18.352  -6.068  10.711  0.00  0.00    -0.292 OA
BRANCH  40  42
ATOM     42  C8  ZIN A   1      19.883  -4.355  11.233  0.00  0.00     0.260 C 
BRANCH  42  43
ATOM     43  O7  ZIN A   1      19.764  -3.506  12.405  0.00  0.00    -0.314 OA
BRANCH  43  44
ATOM     44  C5  ZIN A   1      19.961  -2.191  12.229  0.00  0.00     0.259 C 
ATOM     45  O6  ZIN A   1      20.670  -1.801  11.331  0.00  0.00    -0.265 OA
BRANCH  44  46
ATOM     46  C4  ZIN A   1      19.301  -1.199  13.152  0.00  0.00     0.111 C 
BRANCH  46  47
ATOM     47  C3  ZIN A   1      19.702  -1.503  14.598  0.00  0.00     0.009 C 
BRANCH  47  48
ATOM     48  C2  ZIN A   1      18.485  -1.332  15.510  0.00  0.00    -0.004 C 
ATOM     49  C1  ZIN A   1      17.672  -0.119  15.052  0.00  0.00     0.005 C 
ENDBRANCH  47  48
ENDBRANCH  46  47
ENDBRANCH  44  46
ENDBRANCH  43  44
ENDBRANCH  42  43
ENDBRANCH  40  42
ENDBRANCH   1  40
BRANCH   1  50
ATOM     50  O12 ZIN A   1      16.924  -3.437  11.915  0.00  0.00    -0.382 OA
ATOM     51  H68 ZIN A   1      15.986  -3.595  12.085  0.00  0.00     0.211 HD
ENDBRANCH   1  50
BRANCH   4  52
ATOM     52  O16 ZIN A   1      14.820  -6.539   8.491  0.00  0.00    -0.359 OA
ATOM     53  H71 ZIN A   1      13.946  -6.278   8.170  0.00  0.00     0.217 HD
ENDBRANCH   4  52
BRANCH  10  54
ATOM     54  O23 ZIN A   1      17.675  -6.276   1.655  0.00  0.00    -0.355 OA
ATOM     55  C24 ZIN A   1      18.613  -7.121   0.984  0.00  0.00     0.210 C 
ENDBRANCH  10  54
TORSDOF 16
ENDMDL
MODEL 8
REMARK VINA RESULT:      -6.0      2.016      5.155
REMARK  16 active torsions:
REMARK  status: ('A' for Active; 'I' for Inactive)
REMARK    1  A    between atoms: C2_2  and  C3_3 
REMARK    2  A    between atoms: C3_3  and  C4_4 
REMARK    3  A    between atoms: C4_4  and  C5_5 
REMARK    4  A    between atoms: C5_5  and  O7_7 
REMARK    5  A    between atoms: O7_7  and  C8_8 
REMARK    6  A    between atoms: C8_8  and  C9_9 
REMARK    7  A    between atoms: C9_9  and  C11_11 
REMARK    8  A    between atoms: C11_11  and  O12_12 
REMARK    9  A    between atoms: C15_15  and  O16_16 
REMARK   10  A    between atoms: C22_22  and  O23_23 
REMARK   11  A    between atoms: C31_31  and  O32_32 
REMARK   12  A    between atoms: C34_34  and  O36_35 
REMARK   13  A    between atoms: O36_35  and  C37_36 
REMARK   14  A    between atoms: C40_38  and  N42_39 
REMARK       I    between atoms: N42_39  and  C43_40 
REMARK   15  A    between atoms: C43_40  and  C45_42 
REMARK   16  A    between atoms: C49_46  and  O51_47 
ROOT
ATOM      1  C11 ZIN A   1      17.737   0.068   8.171  0.00  0.00     0.127 C 
ATOM      2  C13 ZIN A   1      17.185   1.179   9.060  0.00  0.00     0.088 C 
ATOM      3  C14 ZIN A   1      17.770   1.092  10.446  0.00  0.00    -0.009 A 
ATOM      4  C15 ZIN A   1      17.671   2.232  11.258  0.00  0.00     0.088 A 
ATOM      5  C17 ZIN A   1      18.185   2.221  12.553  0.00  0.00     0.066 A 
ATOM      6  C18 ZIN A   1      18.806   1.052  13.043  0.00  0.00     0.066 A 
ATOM      7  C19 ZIN A   1      19.347   1.034  14.415  0.00  0.00     0.200 C 
ATOM      8  O20 ZIN A   1      20.095   0.143  14.768  0.00  0.00    -0.286 OA
ATOM      9  C21 ZIN A   1      18.969   2.109  15.352  0.00  0.00     0.062 A 
ATOM     10  C22 ZIN A   1      19.217   1.979  16.721  0.00  0.00     0.083 A 
ATOM     11  C25 ZIN A   1      18.852   3.006  17.587  0.00  0.00     0.038 A 
ATOM     12  C26 ZIN A   1      18.247   4.147  17.102  0.00  0.00     0.004 A 
ATOM     13  C27 ZIN A   1      17.994   4.289  15.746  0.00  0.00     0.017 A 
ATOM     14  C28 ZIN A   1      18.350   3.276  14.864  0.00  0.00     0.032 A 
ATOM     15  C29 ZIN A   1      18.084   3.412  13.415  0.00  0.00     0.197 C 
ATOM     16  O30 ZIN A   1      17.788   4.492  12.942  0.00  0.00    -0.286 OA
ATOM     17  C31 ZIN A   1      18.899  -0.067  12.222  0.00  0.00     0.090 A 
ATOM     18  C33 ZIN A   1      18.379  -0.041  10.921  0.00  0.00     0.014 A 
ATOM     19  C34 ZIN A   1      18.530  -1.289  10.090  0.00  0.00     0.164 C 
ATOM     20  C56 ZIN A   1      17.568  -1.268   8.905  0.00  0.00     0.083 C 
ENDROOT
BRANCH  19  21
ATOM     21  O36 ZIN A   1      18.252  -2.432  10.902  0.00  0.00    -0.351 OA
BRANCH  21  22
ATOM     22  C37 ZIN A   1      17.074  -3.144  10.520  0.00  0.00     0.263 C 
ATOM     23  O55 ZIN A   1      16.745  -4.100  11.530  0.00  0.00    -0.354 OA
ATOM     24  C52 ZIN A   1      17.776  -5.056  11.785  0.00  0.00     0.151 C 
ATOM     25  C49 ZIN A   1      18.053  -5.858  10.511  0.00  0.00     0.171 C 
ATOM     26  C54 ZIN A   1      17.328  -6.005  12.899  0.00  0.00     0.042 C 
ATOM     27  C40 ZIN A   1      18.444  -4.895   9.386  0.00  0.00     0.147 C 
ATOM     28  C39 ZIN A   1      17.323  -3.870   9.194  0.00  0.00     0.090 C 
BRANCH  25  29
ATOM     29  O51 ZIN A   1      16.879  -6.581  10.136  0.00  0.00    -0.391 OA
ATOM     30  H81 ZIN A   1      16.202  -6.618  10.825  0.00  0.00     0.210 HD
ENDBRANCH  25  29
BRANCH  27  31
ATOM     31  N42 ZIN A   1      18.641  -5.645   8.143  0.00  0.00    -0.240 NA
ATOM     32  C43 ZIN A   1      17.594  -5.883   7.328  0.00  0.00     0.346 C 
ATOM     33  O44 ZIN A   1      16.491  -5.477   7.623  0.00  0.00    -0.261 OA
BRANCH  32  34
ATOM     34  C45 ZIN A   1      17.796  -6.656   6.049  0.00  0.00     0.474 C 
ATOM     35  F46 ZIN A   1      18.936  -6.181   5.393  0.00  0.00    -0.162 F 
ATOM     36  F47 ZIN A   1      17.959  -8.014   6.346  0.00  0.00    -0.162 F 
ATOM     37  F48 ZIN A   1      16.679  -6.490   5.223  0.00  0.00    -0.162 F 
ENDBRANCH  32  34
ENDBRANCH  27  31
ENDBRANCH  21  22
ENDBRANCH  19  21
BRANCH  17  38
ATOM     38  O32 ZIN A   1      19.497  -1.194  12.686  0.00  0.00    -0.359 OA
ATOM     39  H78 ZIN A   1      20.107  -1.602  12.058  0.00  0.00     0.217 HD
ENDBRANCH  17  38
BRANCH   1  40
ATOM     40  C9  ZIN A   1      19.198   0.315   7.898  0.00  0.00     0.185 C 
ATOM     41  O10 ZIN A   1      19.699   1.370   8.204  0.00  0.00    -0.292 OA
BRANCH  40  42
ATOM     42  C8  ZIN A   1      20.033  -0.754   7.241  0.00  0.00     0.260 C 
BRANCH  42  43
ATOM     43  O7  ZIN A   1      19.419  -1.144   5.985  0.00  0.00    -0.314 OA
BRANCH  43  44
ATOM     44  C5  ZIN A   1      19.475  -2.444   5.656  0.00  0.00     0.259 C 
ATOM     45  O6  ZIN A   1      20.033  -3.229   6.387  0.00  0.00    -0.265 OA
BRANCH  44  46
ATOM     46  C4  ZIN A   1      18.843  -2.926   4.376  0.00  0.00     0.111 C 
BRANCH  46  47
ATOM     47  C3  ZIN A   1      17.351  -3.182   4.609  0.00  0.00     0.009 C 
BRANCH  47  48
ATOM     48  C2  ZIN A   1      16.713  -3.689   3.314  0.00  0.00    -0.004 C 
ATOM     49  C1  ZIN A   1      17.650  -4.697   2.645  0.00  0.00     0.005 C 
ENDBRANCH  47  48
ENDBRANCH  46  47
ENDBRANCH  44  46
ENDBRANCH  43  44
ENDBRANCH  42  43
ENDBRANCH  40  42
ENDBRANCH   1  40
BRANCH   1  50
ATOM     50  O12 ZIN A   1      17.015   0.033   6.937  0.00  0.00    -0.382 OA
ATOM     51  H68 ZIN A   1      17.573   0.126   6.153  0.00  0.00     0.211 HD
ENDBRANCH   1  50
BRANCH   4  52
ATOM     52  O16 ZIN A   1      17.072   3.349  10.780  0.00  0.00    -0.359 OA
ATOM     53  H71 ZIN A   1      16.330   3.175  10.186  0.00  0.00     0.217 HD
ENDBRANCH   4  52
BRANCH  10  54
ATOM     54  O23 ZIN A   1      19.812   0.860  17.203  0.00  0.00    -0.355 OA
ATOM     55  C24 ZIN A   1      19.118   0.145  18.227  0.00  0.00     0.210 C 
ENDBRANCH  10  54
TORSDOF 16
ENDMDL
