MODEL 1
REMARK VINA RESULT:      -7.6      0.000      0.000
REMARK  4 active torsions:
REMARK  status: ('A' for Active; 'I' for Inactive)
REMARK    1  A    between atoms: O2_2  and  C3_3 
REMARK    2  A    between atoms: C8_8  and  O9_9 
REMARK    3  A    between atoms: C16_15  and  C18_16 
REMARK    4  A    between atoms: C18_16  and  C19_17 
ROOT
ATOM      1  C3  ZIN A   1      18.900  -0.006  15.383  0.00  0.00     0.102 A 
ATOM      2  C4  ZIN A   1      18.929  -1.082  14.511  0.00  0.00     0.047 A 
ATOM      3  C5  ZIN A   1      18.771  -0.883  13.149  0.00  0.00    -0.045 A 
ATOM      4  C6  ZIN A   1      18.581   0.389  12.653  0.00  0.00    -0.018 A 
ATOM      5  C7  ZIN A   1      18.551   1.471  13.523  0.00  0.00     0.049 A 
ATOM      6  C8  ZIN A   1      18.705   1.278  14.884  0.00  0.00     0.102 A 
ATOM      7  C11 ZIN A   1      18.398   0.650  11.182  0.00  0.00     0.228 C 
ATOM      8  C13 ZIN A   1      19.196   1.899  10.786  0.00  0.00     0.116 C 
ATOM      9  C14 ZIN A   1      19.068   2.086   9.288  0.00  0.00     0.135 C 
ATOM     10  O15 ZIN A   1      18.784   3.160   8.814  0.00  0.00    -0.297 OA
ATOM     11  C16 ZIN A   1      19.311   0.878   8.407  0.00  0.00     0.081 C 
ATOM     12  C22 ZIN A   1      18.504  -0.296   8.972  0.00  0.00     0.247 C 
ATOM     13  N23 ZIN A   1      18.870  -0.485  10.385  0.00  0.00    -0.061 N 
ATOM     14  H24 ZIN A   1      19.873  -0.572  10.462  0.00  0.00     0.280 HD
ATOM     15  C25 ZIN A   1      18.233  -1.708  10.894  0.00  0.00     0.240 C 
ATOM     16  C26 ZIN A   1      18.814  -2.081  12.234  0.00  0.00     0.067 C 
ENDROOT
BRANCH  11  17
ATOM     17  C18 ZIN A   1      18.852   1.182   6.979  0.00  0.00     0.017 C 
BRANCH  17  18
ATOM     18  C19 ZIN A   1      18.514  -0.127   6.263  0.00  0.00    -0.022 C 
ATOM     19  C20 ZIN A   1      17.038  -0.122   5.862  0.00  0.00     0.009 C 
ATOM     20  C21 ZIN A   1      19.382  -0.260   5.010  0.00  0.00     0.009 C 
ENDBRANCH  17  18
ENDBRANCH  11  17
BRANCH   6  21
ATOM     21  O9  ZIN A   1      18.675   2.342  15.731  0.00  0.00    -0.353 OA
ATOM     22  C10 ZIN A   1      18.476   3.631  15.147  0.00  0.00     0.210 C 
ENDBRANCH   6  21
BRANCH   1  23
ATOM     23  O2  ZIN A   1      19.055  -0.205  16.719  0.00  0.00    -0.353 OA
ATOM     24  C1  ZIN A   1      17.883  -0.536  17.467  0.00  0.00     0.210 C 
ENDBRANCH   1  23
TORSDOF 4
ENDMDL
MODEL 2
REMARK VINA RESULT:      -7.5      3.383      8.110
REMARK  4 active torsions:
REMARK  status: ('A' for Active; 'I' for Inactive)
REMARK    1  A    between atoms: O2_2  and  C3_3 
REMARK    2  A    between atoms: C8_8  and  O9_9 
REMARK    3  A    between atoms: C16_15  and  C18_16 
REMARK    4  A    between atoms: C18_16  and  C19_17 
ROOT
ATOM      1  C3  ZIN A   1      18.481  -3.499   5.322  0.00  0.00     0.102 A 
ATOM      2  C4  ZIN A   1      17.990  -4.346   6.301  0.00  0.00     0.047 A 
ATOM      3  C5  ZIN A   1      18.250  -4.094   7.639  0.00  0.00    -0.045 A 
ATOM      4  C6  ZIN A   1      19.001  -2.997   8.003  0.00  0.00    -0.018 A 
ATOM      5  C7  ZIN A   1      19.494  -2.144   7.025  0.00  0.00     0.049 A 
ATOM      6  C8  ZIN A   1      19.243  -2.393   5.688  0.00  0.00     0.102 A 
ATOM      7  C11 ZIN A   1      19.312  -2.690   9.443  0.00  0.00     0.228 C 
ATOM      8  C13 ZIN A   1      19.168  -1.180   9.680  0.00  0.00     0.116 C 
ATOM      9  C14 ZIN A   1      19.398  -0.911  11.154  0.00  0.00     0.135 C 
ATOM     10  O15 ZIN A   1      20.143  -0.034  11.520  0.00  0.00    -0.297 OA
ATOM     11  C16 ZIN A   1      18.657  -1.778  12.150  0.00  0.00     0.081 C 
ATOM     12  C22 ZIN A   1      18.838  -3.243  11.736  0.00  0.00     0.247 C 
ATOM     13  N23 ZIN A   1      18.397  -3.398  10.341  0.00  0.00    -0.061 N 
ATOM     14  H24 ZIN A   1      17.461  -3.034  10.243  0.00  0.00     0.280 HD
ATOM     15  C25 ZIN A   1      18.407  -4.824   9.983  0.00  0.00     0.240 C 
ATOM     16  C26 ZIN A   1      17.692  -5.040   8.673  0.00  0.00     0.067 C 
ENDROOT
BRANCH  11  17
ATOM     17  C18 ZIN A   1      19.233  -1.561  13.551  0.00  0.00     0.017 C 
BRANCH  17  18
ATOM     18  C19 ZIN A   1      18.115  -1.126  14.500  0.00  0.00    -0.022 C 
ATOM     19  C20 ZIN A   1      18.543  -1.391  15.946  0.00  0.00     0.009 C 
ATOM     20  C21 ZIN A   1      17.842   0.367  14.316  0.00  0.00     0.009 C 
ENDBRANCH  17  18
ENDBRANCH  11  17
BRANCH   6  21
ATOM     21  O9  ZIN A   1      19.729  -1.553   4.735  0.00  0.00    -0.353 OA
ATOM     22  C10 ZIN A   1      19.235  -0.213   4.739  0.00  0.00     0.210 C 
ENDBRANCH   6  21
BRANCH   1  23
ATOM     23  O2  ZIN A   1      18.225  -3.749   4.010  0.00  0.00    -0.353 OA
ATOM     24  C1  ZIN A   1      16.885  -3.545   3.560  0.00  0.00     0.210 C 
ENDBRANCH   1  23
TORSDOF 4
ENDMDL
MODEL 3
REMARK VINA RESULT:      -7.5      2.331      4.118
REMARK  4 active torsions:
REMARK  status: ('A' for Active; 'I' for Inactive)
REMARK    1  A    between atoms: O2_2  and  C3_3 
REMARK    2  A    between atoms: C8_8  and  O9_9 
REMARK    3  A    between atoms: C16_15  and  C18_16 
REMARK    4  A    between atoms: C18_16  and  C19_17 
ROOT
ATOM      1  C3  ZIN A   1      17.362   4.952  14.905  0.00  0.00     0.102 A 
ATOM      2  C4  ZIN A   1      16.910   5.369  13.665  0.00  0.00     0.047 A 
ATOM      3  C5  ZIN A   1      17.354   4.742  12.511  0.00  0.00    -0.045 A 
ATOM      4  C6  ZIN A   1      18.252   3.700  12.593  0.00  0.00    -0.018 A 
ATOM      5  C7  ZIN A   1      18.708   3.278  13.835  0.00  0.00     0.049 A 
ATOM      6  C8  ZIN A   1      18.271   3.903  14.989  0.00  0.00     0.102 A 
ATOM      7  C11 ZIN A   1      18.766   2.995  11.366  0.00  0.00     0.228 C 
ATOM      8  C13 ZIN A   1      18.808   1.484  11.630  0.00  0.00     0.116 C 
ATOM      9  C14 ZIN A   1      19.241   0.794  10.353  0.00  0.00     0.135 C 
ATOM     10  O15 ZIN A   1      20.111  -0.043  10.359  0.00  0.00    -0.297 OA
ATOM     11  C16 ZIN A   1      18.542   1.190   9.069  0.00  0.00     0.081 C 
ATOM     12  C22 ZIN A   1      18.521   2.720   8.988  0.00  0.00     0.247 C 
ATOM     13  N23 ZIN A   1      17.899   3.250  10.213  0.00  0.00    -0.061 N 
ATOM     14  H24 ZIN A   1      17.001   2.812  10.349  0.00  0.00     0.280 HD
ATOM     15  C25 ZIN A   1      17.720   4.702  10.078  0.00  0.00     0.240 C 
ATOM     16  C26 ZIN A   1      16.833   5.224  11.180  0.00  0.00     0.067 C 
ENDROOT
BRANCH  11  17
ATOM     17  C18 ZIN A   1      19.304   0.619   7.870  0.00  0.00     0.017 C 
BRANCH  17  18
ATOM     18  C19 ZIN A   1      18.477   0.819   6.599  0.00  0.00    -0.022 C 
ATOM     19  C20 ZIN A   1      19.319   0.437   5.379  0.00  0.00     0.009 C 
ATOM     20  C21 ZIN A   1      17.232  -0.068   6.656  0.00  0.00     0.009 C 
ENDBRANCH  17  18
ENDBRANCH  11  17
BRANCH   6  21
ATOM     21  O9  ZIN A   1      18.721   3.484  16.202  0.00  0.00    -0.353 OA
ATOM     22  C10 ZIN A   1      19.104   2.113  16.315  0.00  0.00     0.210 C 
ENDBRANCH   6  21
BRANCH   1  23
ATOM     23  O2  ZIN A   1      16.924   5.570  16.034  0.00  0.00    -0.353 OA
ATOM     24  C1  ZIN A   1      15.620   6.152  15.992  0.00  0.00     0.210 C 
ENDBRANCH   1  23
TORSDOF 4
ENDMDL
MODEL 4
REMARK VINA RESULT:      -7.4      3.040      7.719
REMARK  4 active torsions:
REMARK  status: ('A' for Active; 'I' for Inactive)
REMARK    1  A    between atoms: O2_2  and  C3_3 
REMARK    2  A    between atoms: C8_8  and  O9_9 
REMARK    3  A    between atoms: C16_15  and  C18_16 
REMARK    4  A    between atoms: C18_16  and  C19_17 
ROOT
ATOM      1  C3  ZIN A   1      18.783  -3.535   6.829  0.00  0.00     0.102 A 
ATOM      2  C4  ZIN A   1      19.100  -4.298   7.940  0.00  0.00     0.047 A 
ATOM      3  C5  ZIN A   1      19.160  -3.715   9.196  0.00  0.00    -0.045 A 
ATOM      4  C6  ZIN A   1      18.905  -2.368   9.345  0.00  0.00    -0.018 A 
ATOM      5  C7  ZIN A   1      18.586  -1.599   8.234  0.00  0.00     0.049 A 
ATOM      6  C8  ZIN A   1      18.530  -2.175   6.978  0.00  0.00     0.102 A 
ATOM      7  C11 ZIN A   1      18.966  -1.692  10.689  0.00  0.00     0.228 C 
ATOM      8  C13 ZIN A   1      17.790  -0.715  10.817  0.00  0.00     0.116 C 
ATOM      9  C14 ZIN A   1      17.823  -0.117  12.209  0.00  0.00     0.135 C 
ATOM     10  O15 ZIN A   1      17.723   1.074  12.379  0.00  0.00    -0.297 OA
ATOM     11  C16 ZIN A   1      17.982  -1.068  13.377  0.00  0.00     0.081 C 
ATOM     12  C22 ZIN A   1      19.144  -2.017  13.066  0.00  0.00     0.247 C 
ATOM     13  N23 ZIN A   1      18.886  -2.673  11.774  0.00  0.00    -0.061 N 
ATOM     14  H24 ZIN A   1      17.972  -3.099  11.792  0.00  0.00     0.280 HD
ATOM     15  C25 ZIN A   1      19.904  -3.707  11.541  0.00  0.00     0.240 C 
ATOM     16  C26 ZIN A   1      19.504  -4.583  10.380  0.00  0.00     0.067 C 
ENDROOT
BRANCH  11  17
ATOM     17  C18 ZIN A   1      18.289  -0.273  14.649  0.00  0.00     0.017 C 
BRANCH  17  18
ATOM     18  C19 ZIN A   1      17.913  -1.108  15.875  0.00  0.00    -0.022 C 
ATOM     19  C20 ZIN A   1      19.180  -1.467  16.654  0.00  0.00     0.009 C 
ATOM     20  C21 ZIN A   1      16.974  -0.300  16.772  0.00  0.00     0.009 C 
ENDBRANCH  17  18
ENDBRANCH  11  17
BRANCH   6  21
ATOM     21  O9  ZIN A   1      18.216  -1.417   5.894  0.00  0.00    -0.353 OA
ATOM     22  C10 ZIN A   1      19.271  -0.649   5.312  0.00  0.00     0.210 C 
ENDBRANCH   6  21
BRANCH   1  23
ATOM     23  O2  ZIN A   1      18.726  -4.111   5.599  0.00  0.00    -0.353 OA
ATOM     24  C1  ZIN A   1      17.746  -5.134   5.406  0.00  0.00     0.210 C 
ENDBRANCH   1  23
TORSDOF 4
ENDMDL
MODEL 5
REMARK VINA RESULT:      -7.3      2.076      7.718
REMARK  4 active torsions:
REMARK  status: ('A' for Active; 'I' for Inactive)
REMARK    1  A    between atoms: O2_2  and  C3_3 
REMARK    2  A    between atoms: C8_8  and  O9_9 
REMARK    3  A    between atoms: C16_15  and  C18_16 
REMARK    4  A    between atoms: C18_16  and  C19_17 
ROOT
ATOM      1  C3  ZIN A   1      18.896   0.059   7.710  0.00  0.00     0.102 A 
ATOM      2  C4  ZIN A   1      18.913   1.322   8.279  0.00  0.00     0.047 A 
ATOM      3  C5  ZIN A   1      18.641   1.485   9.628  0.00  0.00    -0.045 A 
ATOM      4  C6  ZIN A   1      18.348   0.389  10.411  0.00  0.00    -0.018 A 
ATOM      5  C7  ZIN A   1      18.330  -0.878   9.845  0.00  0.00     0.049 A 
ATOM      6  C8  ZIN A   1      18.597  -1.047   8.499  0.00  0.00     0.102 A 
ATOM      7  C11 ZIN A   1      18.040   0.521  11.879  0.00  0.00     0.228 C 
ATOM      8  C13 ZIN A   1      18.740  -0.608  12.647  0.00  0.00     0.116 C 
ATOM      9  C14 ZIN A   1      18.488  -0.399  14.126  0.00  0.00     0.135 C 
ATOM     10  O15 ZIN A   1      18.114  -1.306  14.830  0.00  0.00    -0.297 OA
ATOM     11  C16 ZIN A   1      18.724   0.987  14.690  0.00  0.00     0.081 C 
ATOM     12  C22 ZIN A   1      18.025   2.000  13.777  0.00  0.00     0.247 C 
ATOM     13  N23 ZIN A   1      18.507   1.808  12.400  0.00  0.00    -0.061 N 
ATOM     14  H24 ZIN A   1      19.516   1.842  12.391  0.00  0.00     0.280 HD
ATOM     15  C25 ZIN A   1      17.974   2.877  11.544  0.00  0.00     0.240 C 
ATOM     16  C26 ZIN A   1      18.675   2.876  10.208  0.00  0.00     0.067 C 
ENDROOT
BRANCH  11  17
ATOM     17  C18 ZIN A   1      18.142   1.075  16.102  0.00  0.00     0.017 C 
BRANCH  17  18
ATOM     18  C19 ZIN A   1      19.249   1.452  17.088  0.00  0.00    -0.022 C 
ATOM     19  C20 ZIN A   1      19.133   2.936  17.441  0.00  0.00     0.009 C 
ATOM     20  C21 ZIN A   1      19.107   0.613  18.359  0.00  0.00     0.009 C 
ENDBRANCH  17  18
ENDBRANCH  11  17
BRANCH   6  21
ATOM     21  O9  ZIN A   1      18.579  -2.291   7.951  0.00  0.00    -0.353 OA
ATOM     22  C10 ZIN A   1      18.559  -3.398   8.854  0.00  0.00     0.210 C 
ENDBRANCH   6  21
BRANCH   1  23
ATOM     23  O2  ZIN A   1      19.163  -0.097   6.386  0.00  0.00    -0.353 OA
ATOM     24  C1  ZIN A   1      18.090   0.146   5.474  0.00  0.00     0.210 C 
ENDBRANCH   1  23
TORSDOF 4
ENDMDL
MODEL 6
REMARK VINA RESULT:      -7.3      2.932      5.286
REMARK  4 active torsions:
REMARK  status: ('A' for Active; 'I' for Inactive)
REMARK    1  A    between atoms: O2_2  and  C3_3 
REMARK    2  A    between atoms: C8_8  and  O9_9 
REMARK    3  A    between atoms: C16_15  and  C18_16 
REMARK    4  A    between atoms: C18_16  and  C19_17 
ROOT
ATOM      1  C3  ZIN A   1      18.319   2.922  10.830  0.00  0.00     0.102 A 
ATOM      2  C4  ZIN A   1      18.547   2.337   9.596  0.00  0.00     0.047 A 
ATOM      3  C5  ZIN A   1      18.662   0.960   9.484  0.00  0.00    -0.045 A 
ATOM      4  C6  ZIN A   1      18.551   0.165  10.604  0.00  0.00    -0.018 A 
ATOM      5  C7  ZIN A   1      18.321   0.747  11.844  0.00  0.00     0.049 A 
ATOM      6  C8  ZIN A   1      18.210   2.120  11.961  0.00  0.00     0.102 A 
ATOM      7  C11 ZIN A   1      18.676  -1.334  10.530  0.00  0.00     0.228 C 
ATOM      8  C13 ZIN A   1      17.609  -1.975  11.428  0.00  0.00     0.116 C 
ATOM      9  C14 ZIN A   1      17.698  -3.479  11.265  0.00  0.00     0.135 C 
ATOM     10  O15 ZIN A   1      17.725  -4.211  12.225  0.00  0.00    -0.297 OA
ATOM     11  C16 ZIN A   1      17.750  -4.030   9.856  0.00  0.00     0.081 C 
ATOM     12  C22 ZIN A   1      18.806  -3.243   9.073  0.00  0.00     0.247 C 
ATOM     13  N23 ZIN A   1      18.487  -1.809   9.158  0.00  0.00    -0.061 N 
ATOM     14  H24 ZIN A   1      17.533  -1.660   8.866  0.00  0.00     0.280 HD
ATOM     15  C25 ZIN A   1      19.391  -1.056   8.277  0.00  0.00     0.240 C 
ATOM     16  C26 ZIN A   1      18.906   0.364   8.121  0.00  0.00     0.067 C 
ENDROOT
BRANCH  11  17
ATOM     17  C18 ZIN A   1      18.133  -5.512   9.896  0.00  0.00     0.017 C 
BRANCH  17  18
ATOM     18  C19 ZIN A   1      17.001  -6.347   9.296  0.00  0.00    -0.022 C 
ATOM     19  C20 ZIN A   1      15.784  -5.453   9.046  0.00  0.00     0.009 C 
ATOM     20  C21 ZIN A   1      17.464  -6.958   7.973  0.00  0.00     0.009 C 
ENDBRANCH  17  18
ENDBRANCH  11  17
BRANCH   6  21
ATOM     21  O9  ZIN A   1      17.984   2.684  13.178  0.00  0.00    -0.353 OA
ATOM     22  C10 ZIN A   1      17.946   1.805  14.304  0.00  0.00     0.210 C 
ENDBRANCH   6  21
BRANCH   1  23
ATOM     23  O2  ZIN A   1      18.207   4.273  10.935  0.00  0.00    -0.353 OA
ATOM     24  C1  ZIN A   1      16.949   4.851  10.578  0.00  0.00     0.210 C 
ENDBRANCH   1  23
TORSDOF 4
ENDMDL
MODEL 7
REMARK VINA RESULT:      -7.3      1.955      3.566
REMARK  4 active torsions:
REMARK  status: ('A' for Active; 'I' for Inactive)
REMARK    1  A    between atoms: O2_2  and  C3_3 
REMARK    2  A    between atoms: C8_8  and  O9_9 
REMARK    3  A    between atoms: C16_15  and  C18_16 
REMARK    4  A    between atoms: C18_16  and  C19_17 
ROOT
ATOM      1  C3  ZIN A   1      19.176   2.540  16.702  0.00  0.00     0.102 A 
ATOM      2  C4  ZIN A   1      19.090   3.438  15.651  0.00  0.00     0.047 A 
ATOM      3  C5  ZIN A   1      18.944   2.981  14.350  0.00  0.00    -0.045 A 
ATOM      4  C6  ZIN A   1      18.885   1.628  14.096  0.00  0.00    -0.018 A 
ATOM      5  C7  ZIN A   1      18.970   0.724  15.146  0.00  0.00     0.049 A 
ATOM      6  C8  ZIN A   1      19.120   1.174  16.445  0.00  0.00     0.102 A 
ATOM      7  C11 ZIN A   1      18.734   1.088  12.698  0.00  0.00     0.228 C 
ATOM      8  C13 ZIN A   1      17.737  -0.078  12.712  0.00  0.00     0.116 C 
ATOM      9  C14 ZIN A   1      17.536  -0.543  11.284  0.00  0.00     0.135 C 
ATOM     10  O15 ZIN A   1      17.595  -1.713  10.993  0.00  0.00    -0.297 OA
ATOM     11  C16 ZIN A   1      17.255   0.514  10.235  0.00  0.00     0.081 C 
ATOM     12  C22 ZIN A   1      18.286   1.635  10.399  0.00  0.00     0.247 C 
ATOM     13  N23 ZIN A   1      18.239   2.122  11.787  0.00  0.00    -0.061 N 
ATOM     14  H24 ZIN A   1      17.290   2.370  12.023  0.00  0.00     0.280 HD
ATOM     15  C25 ZIN A   1      19.101   3.307  11.917  0.00  0.00     0.240 C 
ATOM     16  C26 ZIN A   1      18.851   3.993  13.236  0.00  0.00     0.067 C 
ENDROOT
BRANCH  11  17
ATOM     17  C18 ZIN A   1      17.377  -0.102   8.839  0.00  0.00     0.017 C 
BRANCH  17  18
ATOM     18  C19 ZIN A   1      18.759   0.209   8.263  0.00  0.00    -0.022 C 
ATOM     19  C20 ZIN A   1      19.578  -1.081   8.179  0.00  0.00     0.009 C 
ATOM     20  C21 ZIN A   1      18.606   0.807   6.864  0.00  0.00     0.009 C 
ENDBRANCH  17  18
ENDBRANCH  11  17
BRANCH   6  21
ATOM     21  O9  ZIN A   1      19.202   0.283  17.470  0.00  0.00    -0.353 OA
ATOM     22  C10 ZIN A   1      19.076  -1.101  17.138  0.00  0.00     0.210 C 
ENDBRANCH   6  21
BRANCH   1  23
ATOM     23  O2  ZIN A   1      19.319   2.992  17.976  0.00  0.00    -0.353 OA
ATOM     24  C1  ZIN A   1      18.154   3.520  18.613  0.00  0.00     0.210 C 
ENDBRANCH   1  23
TORSDOF 4
ENDMDL
MODEL 8
REMARK VINA RESULT:      -7.1      1.099      1.380
REMARK  4 active torsions:
REMARK  status: ('A' for Active; 'I' for Inactive)
REMARK    1  A    between atoms: O2_2  and  C3_3 
REMARK    2  A    between atoms: C8_8  and  O9_9 
REMARK    3  A    between atoms: C16_15  and  C18_16 
REMARK    4  A    between atoms: C18_16  and  C19_17 
ROOT
ATOM      1  C3  ZIN A   1      18.958   0.038  15.009  0.00  0.00     0.102 A 
ATOM      2  C4  ZIN A   1      18.866  -1.224  14.446  0.00  0.00     0.047 A 
ATOM      3  C5  ZIN A   1      18.576  -1.370  13.098  0.00  0.00    -0.045 A 
ATOM      4  C6  ZIN A   1      18.376  -0.257  12.310  0.00  0.00    -0.018 A 
ATOM      5  C7  ZIN A   1      18.469   1.010  12.870  0.00  0.00     0.049 A 
ATOM      6  C8  ZIN A   1      18.753   1.162  14.215  0.00  0.00     0.102 A 
ATOM      7  C11 ZIN A   1      18.052  -0.369  10.844  0.00  0.00     0.228 C 
ATOM      8  C13 ZIN A   1      18.845   0.693  10.069  0.00  0.00     0.116 C 
ATOM      9  C14 ZIN A   1      18.571   0.500   8.592  0.00  0.00     0.135 C 
ATOM     10  O15 ZIN A   1      18.273   1.432   7.884  0.00  0.00    -0.297 OA
ATOM     11  C16 ZIN A   1      18.685  -0.904   8.034  0.00  0.00     0.081 C 
ATOM     12  C22 ZIN A   1      17.905  -1.849   8.954  0.00  0.00     0.247 C 
ATOM     13  N23 ZIN A   1      18.407  -1.693  10.329  0.00  0.00    -0.061 N 
ATOM     14  H24 ZIN A   1      19.408  -1.813  10.335  0.00  0.00     0.280 HD
ATOM     15  C25 ZIN A   1      17.786  -2.709  11.191  0.00  0.00     0.240 C 
ATOM     16  C26 ZIN A   1      18.489  -2.762  12.525  0.00  0.00     0.067 C 
ENDROOT
BRANCH  11  17
ATOM     17  C18 ZIN A   1      18.093  -0.948   6.623  0.00  0.00     0.017 C 
BRANCH  17  18
ATOM     18  C19 ZIN A   1      19.224  -1.057   5.599  0.00  0.00    -0.022 C 
ATOM     19  C20 ZIN A   1      18.976  -2.265   4.694  0.00  0.00     0.009 C 
ATOM     20  C21 ZIN A   1      19.266   0.215   4.750  0.00  0.00     0.009 C 
ENDBRANCH  17  18
ENDBRANCH  11  17
BRANCH   6  21
ATOM     21  O9  ZIN A   1      18.843   2.406  14.757  0.00  0.00    -0.353 OA
ATOM     22  C10 ZIN A   1      18.878   3.508  13.850  0.00  0.00     0.210 C 
ENDBRANCH   6  21
BRANCH   1  23
ATOM     23  O2  ZIN A   1      19.243   0.176  16.331  0.00  0.00    -0.353 OA
ATOM     24  C1  ZIN A   1      18.612  -0.738  17.230  0.00  0.00     0.210 C 
ENDBRANCH   1  23
TORSDOF 4
ENDMDL
MODEL 9
REMARK VINA RESULT:      -7.1      3.685      6.779
REMARK  4 active torsions:
REMARK  status: ('A' for Active; 'I' for Inactive)
REMARK    1  A    between atoms: O2_2  and  C3_3 
REMARK    2  A    between atoms: C8_8  and  O9_9 
REMARK    3  A    between atoms: C16_15  and  C18_16 
REMARK    4  A    between atoms: C18_16  and  C19_17 
ROOT
ATOM      1  C3  ZIN A   1      17.900  -5.058   8.323  0.00  0.00     0.102 A 
ATOM      2  C4  ZIN A   1      17.596  -4.573   9.584  0.00  0.00     0.047 A 
ATOM      3  C5  ZIN A   1      17.871  -3.254   9.911  0.00  0.00    -0.045 A 
ATOM      4  C6  ZIN A   1      18.452  -2.418   8.982  0.00  0.00    -0.018 A 
ATOM      5  C7  ZIN A   1      18.757  -2.900   7.716  0.00  0.00     0.049 A 
ATOM      6  C8  ZIN A   1      18.489  -4.216   7.385  0.00  0.00     0.102 A 
ATOM      7  C11 ZIN A   1      18.774  -0.982   9.297  0.00  0.00     0.228 C 
ATOM      8  C13 ZIN A   1      18.400  -0.104   8.094  0.00  0.00     0.116 C 
ATOM      9  C14 ZIN A   1      18.649   1.342   8.471  0.00  0.00     0.135 C 
ATOM     10  O15 ZIN A   1      19.260   2.082   7.737  0.00  0.00    -0.297 OA
ATOM     11  C16 ZIN A   1      18.103   1.826   9.798  0.00  0.00     0.081 C 
ATOM     12  C22 ZIN A   1      18.499   0.812  10.876  0.00  0.00     0.247 C 
ATOM     13  N23 ZIN A   1      18.026  -0.521  10.468  0.00  0.00    -0.061 N 
ATOM     14  H24 ZIN A   1      17.041  -0.476  10.258  0.00  0.00     0.280 HD
ATOM     15  C25 ZIN A   1      18.249  -1.473  11.566  0.00  0.00     0.240 C 
ATOM     16  C26 ZIN A   1      17.520  -2.765  11.294  0.00  0.00     0.067 C 
ENDROOT
BRANCH  11  17
ATOM     17  C18 ZIN A   1      18.699   3.196  10.131  0.00  0.00     0.017 C 
BRANCH  17  18
ATOM     18  C19 ZIN A   1      18.107   3.703  11.447  0.00  0.00    -0.022 C 
ATOM     19  C20 ZIN A   1      19.211   4.345  12.289  0.00  0.00     0.009 C 
ATOM     20  C21 ZIN A   1      17.023   4.742  11.151  0.00  0.00     0.009 C 
ENDBRANCH  17  18
ENDBRANCH  11  17
BRANCH   6  21
ATOM     21  O9  ZIN A   1      18.790  -4.682   6.143  0.00  0.00    -0.353 OA
ATOM     22  C10 ZIN A   1      18.093  -4.095   5.043  0.00  0.00     0.210 C 
ENDBRANCH   6  21
BRANCH   1  23
ATOM     23  O2  ZIN A   1      17.629  -6.352   8.006  0.00  0.00    -0.353 OA
ATOM     24  C1  ZIN A   1      16.543  -6.976   8.695  0.00  0.00     0.210 C 
ENDBRANCH   1  23
TORSDOF 4
ENDMDL
