MODEL 1
REMARK VINA RESULT:      -7.6      0.000      0.000
REMARK  11 active torsions:
REMARK  status: ('A' for Active; 'I' for Inactive)
REMARK    1  A    between atoms: O2_2  and  C3_3 
REMARK    2  A    between atoms: C12_12  and  O13_13 
REMARK    3  A    between atoms: C14_14  and  C15_15 
REMARK    4  A    between atoms: C15_15  and  C16_16 
REMARK    5  A    between atoms: C17_17  and  C19_19 
REMARK    6  A    between atoms: C19_19  and  C20_20 
REMARK    7  A    between atoms: C20_20  and  C21_21 
REMARK    8  A    between atoms: C21_21  and  O23_23 
REMARK    9  A    between atoms: O23_23  and  C24_24 
REMARK   10  A    between atoms: C24_24  and  C25_25 
REMARK   11  A    between atoms: C25_25  and  N26_26 
ROOT
ATOM      1  C16 ZIN A   1      18.879   0.065   9.343  0.00  0.00    -0.020 C 
ATOM      2  C17 ZIN A   1      18.541   0.465   8.144  0.00  0.00    -0.087 C 
ATOM      3  C18 ZIN A   1      19.220   1.662   7.530  0.00  0.00     0.043 C 
ENDROOT
BRANCH   1   4
ATOM      4  C15 ZIN A   1      20.041   0.709  10.055  0.00  0.00     0.072 C 
BRANCH   4   5
ATOM      5  C14 ZIN A   1      19.635   1.063  11.462  0.00  0.00     0.013 A 
ATOM      6  C3  ZIN A   1      19.214   2.352  11.756  0.00  0.00     0.084 A 
ATOM      7  C4  ZIN A   1      18.837   2.687  13.055  0.00  0.00    -0.018 A 
ATOM      8  C5  ZIN A   1      18.374   4.087  13.367  0.00  0.00     0.052 C 
ATOM      9  C6  ZIN A   1      18.886   1.744  14.049  0.00  0.00    -0.006 A 
ATOM     10  C11 ZIN A   1      18.558   1.773  15.521  0.00  0.00     0.219 A 
ATOM     11  C7  ZIN A   1      19.313   0.440  13.769  0.00  0.00     0.082 A 
ATOM     12  O10 ZIN A   1      18.824   0.435  16.025  0.00  0.00    -0.313 OA
ATOM     13  C8  ZIN A   1      19.261  -0.335  15.014  0.00  0.00     0.297 A 
ATOM     14  O9  ZIN A   1      19.569  -1.506  15.117  0.00  0.00    -0.259 OA
ATOM     15  C12 ZIN A   1      19.693   0.105  12.459  0.00  0.00     0.091 A 
BRANCH   6  16
ATOM     16  O2  ZIN A   1      19.163   3.288  10.774  0.00  0.00    -0.355 OA
ATOM     17  C1  ZIN A   1      17.877   3.585  10.227  0.00  0.00     0.210 C 
ENDBRANCH   6  16
BRANCH  15  18
ATOM     18  O13 ZIN A   1      20.110  -1.153  12.171  0.00  0.00    -0.359 OA
ATOM     19  H41 ZIN A   1      19.473  -1.842  12.405  0.00  0.00     0.217 HD
ENDBRANCH  15  18
ENDBRANCH   4   5
ENDBRANCH   1   4
BRANCH   2  20
ATOM     20  C19 ZIN A   1      17.473  -0.270   7.375  0.00  0.00     0.043 C 
BRANCH  20  21
ATOM     21  C20 ZIN A   1      17.785  -0.207   5.879  0.00  0.00     0.115 C 
BRANCH  21  22
ATOM     22  C21 ZIN A   1      18.782  -1.280   5.528  0.00  0.00     0.259 C 
ATOM     23  O22 ZIN A   1      19.736  -1.016   4.834  0.00  0.00    -0.265 OA
BRANCH  22  24
ATOM     24  O23 ZIN A   1      18.611  -2.531   5.986  0.00  0.00    -0.320 OA
BRANCH  24  25
ATOM     25  C24 ZIN A   1      19.714  -3.119   6.723  0.00  0.00     0.206 C 
BRANCH  25  26
ATOM     26  C25 ZIN A   1      19.195  -4.273   7.583  0.00  0.00     0.261 C 
BRANCH  26  27
ATOM     27  N26 ZIN A   1      19.154  -3.855   8.991  0.00  0.00    -0.065 N 
ATOM     28  H27 ZIN A   1      19.688  -3.008   9.105  0.00  0.00     0.280 HD
ATOM     29  C32 ZIN A   1      17.761  -3.616   9.390  0.00  0.00     0.261 C 
ATOM     30  C31 ZIN A   1      17.721  -3.180  10.857  0.00  0.00     0.195 C 
ATOM     31  O30 ZIN A   1      18.334  -4.189  11.665  0.00  0.00    -0.388 OA
ATOM     32  C29 ZIN A   1      19.686  -4.475  11.299  0.00  0.00     0.195 C 
ATOM     33  C28 ZIN A   1      19.730  -4.914   9.833  0.00  0.00     0.261 C 
ENDBRANCH  26  27
ENDBRANCH  25  26
ENDBRANCH  24  25
ENDBRANCH  22  24
ENDBRANCH  21  22
ENDBRANCH  20  21
ENDBRANCH   2  20
TORSDOF 11
ENDMDL
MODEL 2
REMARK VINA RESULT:      -7.6      3.212      8.788
REMARK  11 active torsions:
REMARK  status: ('A' for Active; 'I' for Inactive)
REMARK    1  A    between atoms: O2_2  and  C3_3 
REMARK    2  A    between atoms: C12_12  and  O13_13 
REMARK    3  A    between atoms: C14_14  and  C15_15 
REMARK    4  A    between atoms: C15_15  and  C16_16 
REMARK    5  A    between atoms: C17_17  and  C19_19 
REMARK    6  A    between atoms: C19_19  and  C20_20 
REMARK    7  A    between atoms: C20_20  and  C21_21 
REMARK    8  A    between atoms: C21_21  and  O23_23 
REMARK    9  A    between atoms: O23_23  and  C24_24 
REMARK   10  A    between atoms: C24_24  and  C25_25 
REMARK   11  A    between atoms: C25_25  and  N26_26 
ROOT
ATOM      1  C16 ZIN A   1      18.072  -0.683  14.988  0.00  0.00    -0.020 C 
ATOM      2  C17 ZIN A   1      18.202  -0.773  16.287  0.00  0.00    -0.087 C 
ATOM      3  C18 ZIN A   1      19.290  -1.632  16.878  0.00  0.00     0.043 C 
ENDROOT
BRANCH   1   4
ATOM      4  C15 ZIN A   1      19.093  -1.322  14.081  0.00  0.00     0.072 C 
BRANCH   4   5
ATOM      5  C14 ZIN A   1      18.970  -0.739  12.697  0.00  0.00     0.013 A 
ATOM      6  C3  ZIN A   1      18.489  -1.522  11.658  0.00  0.00     0.084 A 
ATOM      7  C4  ZIN A   1      18.372  -0.991  10.375  0.00  0.00    -0.018 A 
ATOM      8  C5  ZIN A   1      17.843  -1.844   9.251  0.00  0.00     0.052 C 
ATOM      9  C6  ZIN A   1      18.739   0.309  10.134  0.00  0.00    -0.006 A 
ATOM     10  C11 ZIN A   1      18.741   1.171   8.897  0.00  0.00     0.219 A 
ATOM     11  C7  ZIN A   1      19.232   1.110  11.172  0.00  0.00     0.082 A 
ATOM     12  O10 ZIN A   1      19.253   2.470   9.306  0.00  0.00    -0.313 OA
ATOM     13  C8  ZIN A   1      19.537   2.435  10.619  0.00  0.00     0.297 A 
ATOM     14  O9  ZIN A   1      19.984   3.368  11.257  0.00  0.00    -0.259 OA
ATOM     15  C12 ZIN A   1      19.348   0.572  12.463  0.00  0.00     0.091 A 
BRANCH   6  16
ATOM     16  O2  ZIN A   1      18.124  -2.808  11.893  0.00  0.00    -0.355 OA
ATOM     17  C1  ZIN A   1      19.125  -3.811  11.706  0.00  0.00     0.210 C 
ENDBRANCH   6  16
BRANCH  15  18
ATOM     18  O13 ZIN A   1      19.824   1.334  13.479  0.00  0.00    -0.359 OA
ATOM     19  H41 ZIN A   1      20.095   0.828  14.257  0.00  0.00     0.217 HD
ENDBRANCH  15  18
ENDBRANCH   4   5
ENDBRANCH   1   4
BRANCH   2  20
ATOM     20  C19 ZIN A   1      17.263  -0.018  17.193  0.00  0.00     0.043 C 
BRANCH  20  21
ATOM     21  C20 ZIN A   1      17.963   0.277  18.521  0.00  0.00     0.115 C 
BRANCH  21  22
ATOM     22  C21 ZIN A   1      18.705   1.584  18.418  0.00  0.00     0.259 C 
ATOM     23  O22 ZIN A   1      19.906   1.610  18.550  0.00  0.00    -0.265 OA
BRANCH  22  24
ATOM     24  O23 ZIN A   1      18.032   2.721  18.180  0.00  0.00    -0.320 OA
BRANCH  24  25
ATOM     25  C24 ZIN A   1      18.711   3.737  17.396  0.00  0.00     0.206 C 
BRANCH  25  26
ATOM     26  C25 ZIN A   1      17.759   4.909  17.146  0.00  0.00     0.261 C 
BRANCH  26  27
ATOM     27  N26 ZIN A   1      17.132   4.758  15.825  0.00  0.00    -0.065 N 
ATOM     28  H27 ZIN A   1      16.413   4.053  15.874  0.00  0.00     0.280 HD
ATOM     29  C32 ZIN A   1      16.539   6.038  15.417  0.00  0.00     0.261 C 
ATOM     30  C31 ZIN A   1      15.887   5.879  14.041  0.00  0.00     0.195 C 
ATOM     31  O30 ZIN A   1      16.869   5.431  13.102  0.00  0.00    -0.388 OA
ATOM     32  C29 ZIN A   1      17.493   4.198  13.470  0.00  0.00     0.195 C 
ATOM     33  C28 ZIN A   1      18.149   4.354  14.844  0.00  0.00     0.261 C 
ENDBRANCH  26  27
ENDBRANCH  25  26
ENDBRANCH  24  25
ENDBRANCH  22  24
ENDBRANCH  21  22
ENDBRANCH  20  21
ENDBRANCH   2  20
TORSDOF 11
ENDMDL
MODEL 3
REMARK VINA RESULT:      -7.5      1.874      4.346
REMARK  11 active torsions:
REMARK  status: ('A' for Active; 'I' for Inactive)
REMARK    1  A    between atoms: O2_2  and  C3_3 
REMARK    2  A    between atoms: C12_12  and  O13_13 
REMARK    3  A    between atoms: C14_14  and  C15_15 
REMARK    4  A    between atoms: C15_15  and  C16_16 
REMARK    5  A    between atoms: C17_17  and  C19_19 
REMARK    6  A    between atoms: C19_19  and  C20_20 
REMARK    7  A    between atoms: C20_20  and  C21_21 
REMARK    8  A    between atoms: C21_21  and  O23_23 
REMARK    9  A    between atoms: O23_23  and  C24_24 
REMARK   10  A    between atoms: C24_24  and  C25_25 
REMARK   11  A    between atoms: C25_25  and  N26_26 
ROOT
ATOM      1  C16 ZIN A   1      18.991  -1.407  12.718  0.00  0.00    -0.020 C 
ATOM      2  C17 ZIN A   1      18.830  -2.535  12.073  0.00  0.00    -0.087 C 
ATOM      3  C18 ZIN A   1      17.463  -3.163  11.984  0.00  0.00     0.043 C 
ENDROOT
BRANCH   1   4
ATOM      4  C15 ZIN A   1      17.792  -0.663  13.249  0.00  0.00     0.072 C 
BRANCH   4   5
ATOM      5  C14 ZIN A   1      18.236   0.322  14.299  0.00  0.00     0.013 A 
ATOM      6  C3  ZIN A   1      18.363   1.665  13.977  0.00  0.00     0.084 A 
ATOM      7  C4  ZIN A   1      18.772   2.582  14.943  0.00  0.00    -0.018 A 
ATOM      8  C5  ZIN A   1      18.903   4.041  14.590  0.00  0.00     0.052 C 
ATOM      9  C6  ZIN A   1      19.057   2.157  16.216  0.00  0.00    -0.006 A 
ATOM     10  C11 ZIN A   1      19.513   2.867  17.466  0.00  0.00     0.219 A 
ATOM     11  C7  ZIN A   1      18.938   0.803  16.555  0.00  0.00     0.082 A 
ATOM     12  O10 ZIN A   1      19.636   1.845  18.494  0.00  0.00    -0.313 OA
ATOM     13  C8  ZIN A   1      19.304   0.653  17.968  0.00  0.00     0.297 A 
ATOM     14  O9  ZIN A   1      19.308  -0.399  18.577  0.00  0.00    -0.259 OA
ATOM     15  C12 ZIN A   1      18.525  -0.118  15.579  0.00  0.00     0.091 A 
BRANCH   6  16
ATOM     16  O2  ZIN A   1      18.081   2.089  12.719  0.00  0.00    -0.355 OA
ATOM     17  C1  ZIN A   1      19.182   2.217  11.817  0.00  0.00     0.210 C 
ENDBRANCH   6  16
BRANCH  15  18
ATOM     18  O13 ZIN A   1      18.406  -1.433  15.891  0.00  0.00    -0.359 OA
ATOM     19  H41 ZIN A   1      19.171  -1.798  16.355  0.00  0.00     0.217 HD
ENDBRANCH  15  18
ENDBRANCH   4   5
ENDBRANCH   1   4
BRANCH   2  20
ATOM     20  C19 ZIN A   1      20.011  -3.206  11.421  0.00  0.00     0.043 C 
BRANCH  20  21
ATOM     21  C20 ZIN A   1      19.677  -4.675  11.149  0.00  0.00     0.115 C 
BRANCH  21  22
ATOM     22  C21 ZIN A   1      19.587  -4.903   9.663  0.00  0.00     0.259 C 
ATOM     23  O22 ZIN A   1      20.479  -5.478   9.084  0.00  0.00    -0.265 OA
BRANCH  22  24
ATOM     24  O23 ZIN A   1      18.516  -4.467   8.981  0.00  0.00    -0.320 OA
BRANCH  24  25
ATOM     25  C24 ZIN A   1      18.746  -3.447   7.974  0.00  0.00     0.206 C 
BRANCH  25  26
ATOM     26  C25 ZIN A   1      18.064  -2.146   8.403  0.00  0.00     0.261 C 
BRANCH  26  27
ATOM     27  N26 ZIN A   1      18.788  -1.002   7.832  0.00  0.00    -0.065 N 
ATOM     28  H27 ZIN A   1      19.769  -1.223   7.768  0.00  0.00     0.280 HD
ATOM     29  C32 ZIN A   1      18.262  -0.710   6.492  0.00  0.00     0.261 C 
ATOM     30  C31 ZIN A   1      19.018   0.482   5.899  0.00  0.00     0.195 C 
ATOM     31  O30 ZIN A   1      18.884   1.607   6.773  0.00  0.00    -0.388 OA
ATOM     32  C29 ZIN A   1      19.361   1.363   8.098  0.00  0.00     0.195 C 
ATOM     33  C28 ZIN A   1      18.606   0.173   8.696  0.00  0.00     0.261 C 
ENDBRANCH  26  27
ENDBRANCH  25  26
ENDBRANCH  24  25
ENDBRANCH  22  24
ENDBRANCH  21  22
ENDBRANCH  20  21
ENDBRANCH   2  20
TORSDOF 11
ENDMDL
MODEL 4
REMARK VINA RESULT:      -7.5      1.739      4.953
REMARK  11 active torsions:
REMARK  status: ('A' for Active; 'I' for Inactive)
REMARK    1  A    between atoms: O2_2  and  C3_3 
REMARK    2  A    between atoms: C12_12  and  O13_13 
REMARK    3  A    between atoms: C14_14  and  C15_15 
REMARK    4  A    between atoms: C15_15  and  C16_16 
REMARK    5  A    between atoms: C17_17  and  C19_19 
REMARK    6  A    between atoms: C19_19  and  C20_20 
REMARK    7  A    between atoms: C20_20  and  C21_21 
REMARK    8  A    between atoms: C21_21  and  O23_23 
REMARK    9  A    between atoms: O23_23  and  C24_24 
REMARK   10  A    between atoms: C24_24  and  C25_25 
REMARK   11  A    between atoms: C25_25  and  N26_26 
ROOT
ATOM      1  C16 ZIN A   1      18.215  -2.227  12.419  0.00  0.00    -0.020 C 
ATOM      2  C17 ZIN A   1      18.431  -3.411  11.906  0.00  0.00    -0.087 C 
ATOM      3  C18 ZIN A   1      19.834  -3.835  11.553  0.00  0.00     0.043 C 
ENDROOT
BRANCH   1   4
ATOM      4  C15 ZIN A   1      19.377  -1.341  12.790  0.00  0.00     0.072 C 
BRANCH   4   5
ATOM      5  C14 ZIN A   1      19.055   0.087  12.433  0.00  0.00     0.013 A 
ATOM      6  C3  ZIN A   1      18.736   0.994  13.433  0.00  0.00     0.084 A 
ATOM      7  C4  ZIN A   1      18.437   2.316  13.111  0.00  0.00    -0.018 A 
ATOM      8  C5  ZIN A   1      18.097   3.299  14.202  0.00  0.00     0.052 C 
ATOM      9  C6  ZIN A   1      18.452   2.724  11.801  0.00  0.00    -0.006 A 
ATOM     10  C11 ZIN A   1      18.185   4.046  11.126  0.00  0.00     0.219 A 
ATOM     11  C7  ZIN A   1      18.768   1.819  10.780  0.00  0.00     0.082 A 
ATOM     12  O10 ZIN A   1      18.367   3.820   9.701  0.00  0.00    -0.313 OA
ATOM     13  C8  ZIN A   1      18.704   2.534   9.501  0.00  0.00     0.297 A 
ATOM     14  O9  ZIN A   1      18.922   2.035   8.414  0.00  0.00    -0.259 OA
ATOM     15  C12 ZIN A   1      19.068   0.487  11.108  0.00  0.00     0.091 A 
BRANCH   6  16
ATOM     16  O2  ZIN A   1      18.721   0.594  14.730  0.00  0.00    -0.355 OA
ATOM     17  C1  ZIN A   1      17.473   0.135  15.252  0.00  0.00     0.210 C 
ENDBRANCH   6  16
BRANCH  15  18
ATOM     18  O13 ZIN A   1      19.374  -0.403  10.131  0.00  0.00    -0.359 OA
ATOM     19  H41 ZIN A   1      19.814  -0.009   9.365  0.00  0.00     0.217 HD
ENDBRANCH  15  18
ENDBRANCH   4   5
ENDBRANCH   1   4
BRANCH   2  20
ATOM     20  C19 ZIN A   1      17.278  -4.352  11.666  0.00  0.00     0.043 C 
BRANCH  20  21
ATOM     21  C20 ZIN A   1      17.722  -5.475  10.726  0.00  0.00     0.115 C 
BRANCH  21  22
ATOM     22  C21 ZIN A   1      16.921  -5.410   9.452  0.00  0.00     0.259 C 
ATOM     23  O22 ZIN A   1      15.715  -5.355   9.498  0.00  0.00    -0.265 OA
BRANCH  22  24
ATOM     24  O23 ZIN A   1      17.547  -5.411   8.264  0.00  0.00    -0.320 OA
BRANCH  24  25
ATOM     25  C24 ZIN A   1      18.653  -4.485   8.100  0.00  0.00     0.206 C 
BRANCH  25  26
ATOM     26  C25 ZIN A   1      18.120  -3.050   8.101  0.00  0.00     0.261 C 
BRANCH  26  27
ATOM     27  N26 ZIN A   1      18.228  -2.487   6.748  0.00  0.00    -0.065 N 
ATOM     28  H27 ZIN A   1      17.311  -2.230   6.417  0.00  0.00     0.280 HD
ATOM     29  C32 ZIN A   1      19.090  -1.298   6.781  0.00  0.00     0.261 C 
ATOM     30  C31 ZIN A   1      19.200  -0.713   5.370  0.00  0.00     0.195 C 
ATOM     31  O30 ZIN A   1      19.715  -1.712   4.484  0.00  0.00    -0.388 OA
ATOM     32  C29 ZIN A   1      18.922  -2.900   4.437  0.00  0.00     0.195 C 
ATOM     33  C28 ZIN A   1      18.810  -3.490   5.845  0.00  0.00     0.261 C 
ENDBRANCH  26  27
ENDBRANCH  25  26
ENDBRANCH  24  25
ENDBRANCH  22  24
ENDBRANCH  21  22
ENDBRANCH  20  21
ENDBRANCH   2  20
TORSDOF 11
ENDMDL
MODEL 5
REMARK VINA RESULT:      -7.5      2.433      7.836
REMARK  11 active torsions:
REMARK  status: ('A' for Active; 'I' for Inactive)
REMARK    1  A    between atoms: O2_2  and  C3_3 
REMARK    2  A    between atoms: C12_12  and  O13_13 
REMARK    3  A    between atoms: C14_14  and  C15_15 
REMARK    4  A    between atoms: C15_15  and  C16_16 
REMARK    5  A    between atoms: C17_17  and  C19_19 
REMARK    6  A    between atoms: C19_19  and  C20_20 
REMARK    7  A    between atoms: C20_20  and  C21_21 
REMARK    8  A    between atoms: C21_21  and  O23_23 
REMARK    9  A    between atoms: O23_23  and  C24_24 
REMARK   10  A    between atoms: C24_24  and  C25_25 
REMARK   11  A    between atoms: C25_25  and  N26_26 
ROOT
ATOM      1  C16 ZIN A   1      18.841   1.436  10.458  0.00  0.00    -0.020 C 
ATOM      2  C17 ZIN A   1      19.007   2.714  10.690  0.00  0.00    -0.087 C 
ATOM      3  C18 ZIN A   1      18.127   3.725  10.001  0.00  0.00     0.043 C 
ENDROOT
BRANCH   1   4
ATOM      4  C15 ZIN A   1      17.683   0.966   9.616  0.00  0.00     0.072 C 
BRANCH   4   5
ATOM      5  C14 ZIN A   1      18.087  -0.267   8.849  0.00  0.00     0.013 A 
ATOM      6  C3  ZIN A   1      17.947  -1.519   9.430  0.00  0.00     0.084 A 
ATOM      7  C4  ZIN A   1      18.317  -2.663   8.728  0.00  0.00    -0.018 A 
ATOM      8  C5  ZIN A   1      18.158  -4.021   9.361  0.00  0.00     0.052 C 
ATOM      9  C6  ZIN A   1      18.828  -2.555   7.459  0.00  0.00    -0.006 A 
ATOM     10  C11 ZIN A   1      19.315  -3.564   6.450  0.00  0.00     0.219 A 
ATOM     11  C7  ZIN A   1      18.979  -1.298   6.861  0.00  0.00     0.082 A 
ATOM     12  O10 ZIN A   1      19.735  -2.805   5.283  0.00  0.00    -0.313 OA
ATOM     13  C8  ZIN A   1      19.542  -1.496   5.520  0.00  0.00     0.297 A 
ATOM     14  O9  ZIN A   1      19.798  -0.604   4.736  0.00  0.00    -0.259 OA
ATOM     15  C12 ZIN A   1      18.605  -0.146   7.572  0.00  0.00     0.091 A 
BRANCH   6  16
ATOM     16  O2  ZIN A   1      17.441  -1.630  10.685  0.00  0.00    -0.355 OA
ATOM     17  C1  ZIN A   1      18.376  -1.838  11.745  0.00  0.00     0.210 C 
ENDBRANCH   6  16
BRANCH  15  18
ATOM     18  O13 ZIN A   1      18.747   1.079   7.007  0.00  0.00    -0.359 OA
ATOM     19  H41 ZIN A   1      18.695   1.075   6.042  0.00  0.00     0.217 HD
ENDBRANCH  15  18
ENDBRANCH   4   5
ENDBRANCH   1   4
BRANCH   2  20
ATOM     20  C19 ZIN A   1      20.078   3.175  11.644  0.00  0.00     0.043 C 
BRANCH  20  21
ATOM     21  C20 ZIN A   1      19.909   4.671  11.918  0.00  0.00     0.115 C 
BRANCH  21  22
ATOM     22  C21 ZIN A   1      19.410   4.871  13.325  0.00  0.00     0.259 C 
ATOM     23  O22 ZIN A   1      20.120   5.395  14.150  0.00  0.00    -0.265 OA
BRANCH  22  24
ATOM     24  O23 ZIN A   1      18.174   4.467  13.663  0.00  0.00    -0.320 OA
BRANCH  24  25
ATOM     25  C24 ZIN A   1      18.033   3.766  14.926  0.00  0.00     0.206 C 
BRANCH  25  26
ATOM     26  C25 ZIN A   1      18.266   2.269  14.707  0.00  0.00     0.261 C 
BRANCH  26  27
ATOM     27  N26 ZIN A   1      17.938   1.537  15.938  0.00  0.00    -0.065 N 
ATOM     28  H27 ZIN A   1      17.159   1.984  16.397  0.00  0.00     0.280 HD
ATOM     29  C32 ZIN A   1      17.581   0.152  15.602  0.00  0.00     0.261 C 
ATOM     30  C31 ZIN A   1      17.240  -0.609  16.886  0.00  0.00     0.195 C 
ATOM     31  O30 ZIN A   1      18.357  -0.555  17.778  0.00  0.00    -0.388 OA
ATOM     32  C29 ZIN A   1      18.758   0.775  18.115  0.00  0.00     0.195 C 
ATOM     33  C28 ZIN A   1      19.103   1.539  16.834  0.00  0.00     0.261 C 
ENDBRANCH  26  27
ENDBRANCH  25  26
ENDBRANCH  24  25
ENDBRANCH  22  24
ENDBRANCH  21  22
ENDBRANCH  20  21
ENDBRANCH   2  20
TORSDOF 11
ENDMDL
MODEL 6
REMARK VINA RESULT:      -7.5      2.611      7.551
REMARK  11 active torsions:
REMARK  status: ('A' for Active; 'I' for Inactive)
REMARK    1  A    between atoms: O2_2  and  C3_3 
REMARK    2  A    between atoms: C12_12  and  O13_13 
REMARK    3  A    between atoms: C14_14  and  C15_15 
REMARK    4  A    between atoms: C15_15  and  C16_16 
REMARK    5  A    between atoms: C17_17  and  C19_19 
REMARK    6  A    between atoms: C19_19  and  C20_20 
REMARK    7  A    between atoms: C20_20  and  C21_21 
REMARK    8  A    between atoms: C21_21  and  O23_23 
REMARK    9  A    between atoms: O23_23  and  C24_24 
REMARK   10  A    between atoms: C24_24  and  C25_25 
REMARK   11  A    between atoms: C25_25  and  N26_26 
ROOT
ATOM      1  C16 ZIN A   1      18.182   0.924  10.358  0.00  0.00    -0.020 C 
ATOM      2  C17 ZIN A   1      18.852   1.934   9.865  0.00  0.00    -0.087 C 
ATOM      3  C18 ZIN A   1      18.897   2.152   8.374  0.00  0.00     0.043 C 
ENDROOT
BRANCH   1   4
ATOM      4  C15 ZIN A   1      17.341   0.061   9.453  0.00  0.00     0.072 C 
BRANCH   4   5
ATOM      5  C14 ZIN A   1      17.887  -1.343   9.446  0.00  0.00     0.013 A 
ATOM      6  C3  ZIN A   1      17.713  -2.159  10.554  0.00  0.00     0.084 A 
ATOM      7  C4  ZIN A   1      18.215  -3.458  10.555  0.00  0.00    -0.018 A 
ATOM      8  C5  ZIN A   1      18.017  -4.342  11.760  0.00  0.00     0.052 C 
ATOM      9  C6  ZIN A   1      18.889  -3.934   9.459  0.00  0.00    -0.006 A 
ATOM     10  C11 ZIN A   1      19.544  -5.255   9.140  0.00  0.00     0.219 A 
ATOM     11  C7  ZIN A   1      19.078  -3.121   8.334  0.00  0.00     0.082 A 
ATOM     12  O10 ZIN A   1      20.093  -5.125   7.800  0.00  0.00    -0.313 OA
ATOM     13  C8  ZIN A   1      19.825  -3.893   7.334  0.00  0.00     0.297 A 
ATOM     14  O9  ZIN A   1      20.154  -3.478   6.241  0.00  0.00    -0.259 OA
ATOM     15  C12 ZIN A   1      18.571  -1.812   8.337  0.00  0.00     0.091 A 
BRANCH   6  16
ATOM     16  O2  ZIN A   1      17.045  -1.691  11.639  0.00  0.00    -0.355 OA
ATOM     17  C1  ZIN A   1      17.830  -1.323  12.775  0.00  0.00     0.210 C 
ENDBRANCH   6  16
BRANCH  15  18
ATOM     18  O13 ZIN A   1      18.746  -1.012   7.256  0.00  0.00    -0.359 OA
ATOM     19  H41 ZIN A   1      18.428  -0.107   7.381  0.00  0.00     0.217 HD
ENDBRANCH  15  18
ENDBRANCH   4   5
ENDBRANCH   1   4
BRANCH   2  20
ATOM     20  C19 ZIN A   1      19.579   2.880  10.786  0.00  0.00     0.043 C 
BRANCH  20  21
ATOM     21  C20 ZIN A   1      18.738   4.142  10.989  0.00  0.00     0.115 C 
BRANCH  21  22
ATOM     22  C21 ZIN A   1      18.101   4.107  12.354  0.00  0.00     0.259 C 
ATOM     23  O22 ZIN A   1      16.961   4.482  12.499  0.00  0.00    -0.265 OA
BRANCH  22  24
ATOM     24  O23 ZIN A   1      18.799   3.658  13.409  0.00  0.00    -0.320 OA
BRANCH  24  25
ATOM     25  C24 ZIN A   1      18.052   3.377  14.622  0.00  0.00     0.206 C 
BRANCH  25  26
ATOM     26  C25 ZIN A   1      18.069   1.871  14.894  0.00  0.00     0.261 C 
BRANCH  26  27
ATOM     27  N26 ZIN A   1      18.231   1.635  16.335  0.00  0.00    -0.065 N 
ATOM     28  H27 ZIN A   1      17.324   1.582  16.771  0.00  0.00     0.280 HD
ATOM     29  C32 ZIN A   1      18.952   0.373  16.545  0.00  0.00     0.261 C 
ATOM     30  C31 ZIN A   1      19.119   0.128  18.047  0.00  0.00     0.195 C 
ATOM     31  O30 ZIN A   1      19.815   1.234  18.630  0.00  0.00    -0.388 OA
ATOM     32  C29 ZIN A   1      19.164   2.491  18.430  0.00  0.00     0.195 C 
ATOM     33  C28 ZIN A   1      18.996   2.740  16.929  0.00  0.00     0.261 C 
ENDBRANCH  26  27
ENDBRANCH  25  26
ENDBRANCH  24  25
ENDBRANCH  22  24
ENDBRANCH  21  22
ENDBRANCH  20  21
ENDBRANCH   2  20
TORSDOF 11
ENDMDL
MODEL 7
REMARK VINA RESULT:      -7.4      2.914      8.454
REMARK  11 active torsions:
REMARK  status: ('A' for Active; 'I' for Inactive)
REMARK    1  A    between atoms: O2_2  and  C3_3 
REMARK    2  A    between atoms: C12_12  and  O13_13 
REMARK    3  A    between atoms: C14_14  and  C15_15 
REMARK    4  A    between atoms: C15_15  and  C16_16 
REMARK    5  A    between atoms: C17_17  and  C19_19 
REMARK    6  A    between atoms: C19_19  and  C20_20 
REMARK    7  A    between atoms: C20_20  and  C21_21 
REMARK    8  A    between atoms: C21_21  and  O23_23 
REMARK    9  A    between atoms: O23_23  and  C24_24 
REMARK   10  A    between atoms: C24_24  and  C25_25 
REMARK   11  A    between atoms: C25_25  and  N26_26 
ROOT
ATOM      1  C16 ZIN A   1      18.645   0.353  14.587  0.00  0.00    -0.020 C 
ATOM      2  C17 ZIN A   1      18.410  -0.335  15.675  0.00  0.00    -0.087 C 
ATOM      3  C18 ZIN A   1      19.267  -1.529  16.011  0.00  0.00     0.043 C 
ENDROOT
BRANCH   1   4
ATOM      4  C15 ZIN A   1      19.855   0.043  13.743  0.00  0.00     0.072 C 
BRANCH   4   5
ATOM      5  C14 ZIN A   1      19.415  -0.334  12.352  0.00  0.00     0.013 A 
ATOM      6  C3  ZIN A   1      18.917   0.639  11.498  0.00  0.00     0.084 A 
ATOM      7  C4  ZIN A   1      18.509   0.298  10.210  0.00  0.00    -0.018 A 
ATOM      8  C5  ZIN A   1      17.974   1.360   9.284  0.00  0.00     0.052 C 
ATOM      9  C6  ZIN A   1      18.593  -1.004   9.785  0.00  0.00    -0.006 A 
ATOM     10  C11 ZIN A   1      18.246  -1.693   8.489  0.00  0.00     0.219 A 
ATOM     11  C7  ZIN A   1      19.089  -1.998  10.637  0.00  0.00     0.082 A 
ATOM     12  O10 ZIN A   1      18.573  -3.098   8.674  0.00  0.00    -0.313 OA
ATOM     13  C8  ZIN A   1      19.060  -3.275   9.915  0.00  0.00     0.297 A 
ATOM     14  O9  ZIN A   1      19.423  -4.340  10.373  0.00  0.00    -0.259 OA
ATOM     15  C12 ZIN A   1      19.499  -1.651  11.935  0.00  0.00     0.091 A 
BRANCH   6  16
ATOM     16  O2  ZIN A   1      18.833   1.927  11.915  0.00  0.00    -0.355 OA
ATOM     17  C1  ZIN A   1      19.946   2.776  11.628  0.00  0.00     0.210 C 
ENDBRANCH   6  16
BRANCH  15  18
ATOM     18  O13 ZIN A   1      19.982  -2.602  12.773  0.00  0.00    -0.359 OA
ATOM     19  H41 ZIN A   1      19.375  -2.840  13.488  0.00  0.00     0.217 HD
ENDBRANCH  15  18
ENDBRANCH   4   5
ENDBRANCH   1   4
BRANCH   2  20
ATOM     20  C19 ZIN A   1      17.283   0.064  16.593  0.00  0.00     0.043 C 
BRANCH  20  21
ATOM     21  C20 ZIN A   1      17.811   0.197  18.023  0.00  0.00     0.115 C 
BRANCH  21  22
ATOM     22  C21 ZIN A   1      18.673   1.428  18.127  0.00  0.00     0.259 C 
ATOM     23  O22 ZIN A   1      19.806   1.340  18.539  0.00  0.00    -0.265 OA
BRANCH  22  24
ATOM     24  O23 ZIN A   1      18.183   2.624  17.762  0.00  0.00    -0.320 OA
BRANCH  24  25
ATOM     25  C24 ZIN A   1      18.940   3.373  16.776  0.00  0.00     0.206 C 
BRANCH  25  26
ATOM     26  C25 ZIN A   1      18.329   4.766  16.615  0.00  0.00     0.261 C 
BRANCH  26  27
ATOM     27  N26 ZIN A   1      17.367   4.755  15.505  0.00  0.00    -0.065 N 
ATOM     28  H27 ZIN A   1      16.827   3.904  15.537  0.00  0.00     0.280 HD
ATOM     29  C32 ZIN A   1      16.470   5.912  15.623  0.00  0.00     0.261 C 
ATOM     30  C31 ZIN A   1      15.469   5.898  14.465  0.00  0.00     0.195 C 
ATOM     31  O30 ZIN A   1      16.182   5.911  13.225  0.00  0.00    -0.388 OA
ATOM     32  C29 ZIN A   1      17.088   4.815  13.073  0.00  0.00     0.195 C 
ATOM     33  C28 ZIN A   1      18.092   4.827  14.228  0.00  0.00     0.261 C 
ENDBRANCH  26  27
ENDBRANCH  25  26
ENDBRANCH  24  25
ENDBRANCH  22  24
ENDBRANCH  21  22
ENDBRANCH  20  21
ENDBRANCH   2  20
TORSDOF 11
ENDMDL
MODEL 8
REMARK VINA RESULT:      -7.3      1.715      4.265
REMARK  11 active torsions:
REMARK  status: ('A' for Active; 'I' for Inactive)
REMARK    1  A    between atoms: O2_2  and  C3_3 
REMARK    2  A    between atoms: C12_12  and  O13_13 
REMARK    3  A    between atoms: C14_14  and  C15_15 
REMARK    4  A    between atoms: C15_15  and  C16_16 
REMARK    5  A    between atoms: C17_17  and  C19_19 
REMARK    6  A    between atoms: C19_19  and  C20_20 
REMARK    7  A    between atoms: C20_20  and  C21_21 
REMARK    8  A    between atoms: C21_21  and  O23_23 
REMARK    9  A    between atoms: O23_23  and  C24_24 
REMARK   10  A    between atoms: C24_24  and  C25_25 
REMARK   11  A    between atoms: C25_25  and  N26_26 
ROOT
ATOM      1  C16 ZIN A   1      18.158  -2.220  11.219  0.00  0.00    -0.020 C 
ATOM      2  C17 ZIN A   1      18.477  -3.451  11.530  0.00  0.00    -0.087 C 
ATOM      3  C18 ZIN A   1      19.917  -3.892  11.478  0.00  0.00     0.043 C 
ENDROOT
BRANCH   1   4
ATOM      4  C15 ZIN A   1      19.239  -1.205  10.947  0.00  0.00     0.072 C 
BRANCH   4   5
ATOM      5  C14 ZIN A   1      18.900   0.089  11.641  0.00  0.00     0.013 A 
ATOM      6  C3  ZIN A   1      18.411   1.159  10.907  0.00  0.00     0.084 A 
ATOM      7  C4  ZIN A   1      18.095   2.358  11.541  0.00  0.00    -0.018 A 
ATOM      8  C5  ZIN A   1      17.559   3.516  10.740  0.00  0.00     0.052 C 
ATOM      9  C6  ZIN A   1      18.273   2.486  12.896  0.00  0.00    -0.006 A 
ATOM     10  C11 ZIN A   1      18.038   3.615  13.868  0.00  0.00     0.219 A 
ATOM     11  C7  ZIN A   1      18.770   1.416  13.650  0.00  0.00     0.082 A 
ATOM     12  O10 ZIN A   1      18.427   3.114  15.177  0.00  0.00    -0.313 OA
ATOM     13  C8  ZIN A   1      18.850   1.845  15.051  0.00  0.00     0.297 A 
ATOM     14  O9  ZIN A   1      19.244   1.151  15.968  0.00  0.00    -0.259 OA
ATOM     15  C12 ZIN A   1      19.088   0.209  13.008  0.00  0.00     0.091 A 
BRANCH   6  16
ATOM     16  O2  ZIN A   1      18.234   1.035   9.567  0.00  0.00    -0.355 OA
ATOM     17  C1  ZIN A   1      19.258   1.570   8.726  0.00  0.00     0.210 C 
ENDBRANCH   6  16
BRANCH  15  18
ATOM     18  O13 ZIN A   1      19.571  -0.837  13.723  0.00  0.00    -0.359 OA
ATOM     19  H41 ZIN A   1      19.894  -0.596  14.602  0.00  0.00     0.217 HD
ENDBRANCH  15  18
ENDBRANCH   4   5
ENDBRANCH   1   4
BRANCH   2  20
ATOM     20  C19 ZIN A   1      17.405  -4.428  11.938  0.00  0.00     0.043 C 
BRANCH  20  21
ATOM     21  C20 ZIN A   1      17.621  -5.757  11.210  0.00  0.00     0.115 C 
BRANCH  21  22
ATOM     22  C21 ZIN A   1      17.067  -5.659   9.813  0.00  0.00     0.259 C 
ATOM     23  O22 ZIN A   1      15.902  -5.385   9.642  0.00  0.00    -0.265 OA
BRANCH  22  24
ATOM     24  O23 ZIN A   1      17.867  -5.876   8.757  0.00  0.00    -0.320 OA
BRANCH  24  25
ATOM     25  C24 ZIN A   1      17.693  -5.006   7.608  0.00  0.00     0.206 C 
BRANCH  25  26
ATOM     26  C25 ZIN A   1      18.255  -3.619   7.930  0.00  0.00     0.261 C 
BRANCH  26  27
ATOM     27  N26 ZIN A   1      18.290  -2.808   6.705  0.00  0.00    -0.065 N 
ATOM     28  H27 ZIN A   1      17.363  -2.466   6.503  0.00  0.00     0.280 HD
ATOM     29  C32 ZIN A   1      19.202  -1.674   6.897  0.00  0.00     0.261 C 
ATOM     30  C31 ZIN A   1      19.238  -0.830   5.620  0.00  0.00     0.195 C 
ATOM     31  O30 ZIN A   1      19.644  -1.652   4.522  0.00  0.00    -0.388 OA
ATOM     32  C29 ZIN A   1      18.799  -2.786   4.311  0.00  0.00     0.195 C 
ATOM     33  C28 ZIN A   1      18.763  -3.634   5.585  0.00  0.00     0.261 C 
ENDBRANCH  26  27
ENDBRANCH  25  26
ENDBRANCH  24  25
ENDBRANCH  22  24
ENDBRANCH  21  22
ENDBRANCH  20  21
ENDBRANCH   2  20
TORSDOF 11
ENDMDL
MODEL 9
REMARK VINA RESULT:      -7.3      2.936      7.287
REMARK  11 active torsions:
REMARK  status: ('A' for Active; 'I' for Inactive)
REMARK    1  A    between atoms: O2_2  and  C3_3 
REMARK    2  A    between atoms: C12_12  and  O13_13 
REMARK    3  A    between atoms: C14_14  and  C15_15 
REMARK    4  A    between atoms: C15_15  and  C16_16 
REMARK    5  A    between atoms: C17_17  and  C19_19 
REMARK    6  A    between atoms: C19_19  and  C20_20 
REMARK    7  A    between atoms: C20_20  and  C21_21 
REMARK    8  A    between atoms: C21_21  and  O23_23 
REMARK    9  A    between atoms: O23_23  and  C24_24 
REMARK   10  A    between atoms: C24_24  and  C25_25 
REMARK   11  A    between atoms: C25_25  and  N26_26 
ROOT
ATOM      1  C16 ZIN A   1      18.460   3.665  11.735  0.00  0.00    -0.020 C 
ATOM      2  C17 ZIN A   1      17.652   4.470  11.093  0.00  0.00    -0.087 C 
ATOM      3  C18 ZIN A   1      17.865   4.739   9.626  0.00  0.00     0.043 C 
ENDROOT
BRANCH   1   4
ATOM      4  C15 ZIN A   1      19.516   2.897  10.982  0.00  0.00     0.072 C 
BRANCH   4   5
ATOM      5  C14 ZIN A   1      19.165   1.432  10.975  0.00  0.00     0.013 A 
ATOM      6  C3  ZIN A   1      18.563   0.871   9.859  0.00  0.00     0.084 A 
ATOM      7  C4  ZIN A   1      18.236  -0.483   9.845  0.00  0.00    -0.018 A 
ATOM      8  C5  ZIN A   1      17.588  -1.090   8.627  0.00  0.00     0.052 C 
ATOM      9  C6  ZIN A   1      18.504  -1.265  10.940  0.00  0.00    -0.006 A 
ATOM     10  C11 ZIN A   1      18.284  -2.726  11.247  0.00  0.00     0.219 A 
ATOM     11  C7  ZIN A   1      19.107  -0.712  12.076  0.00  0.00     0.082 A 
ATOM     12  O10 ZIN A   1      18.791  -2.940  12.593  0.00  0.00    -0.313 OA
ATOM     13  C8  ZIN A   1      19.266  -1.778  13.073  0.00  0.00     0.297 A 
ATOM     14  O9  ZIN A   1      19.756  -1.631  14.175  0.00  0.00    -0.259 OA
ATOM     15  C12 ZIN A   1      19.435   0.653  12.087  0.00  0.00     0.091 A 
BRANCH   6  16
ATOM     16  O2  ZIN A   1      18.298   1.642   8.774  0.00  0.00    -0.355 OA
ATOM     17  C1  ZIN A   1      19.252   1.616   7.711  0.00  0.00     0.210 C 
ENDBRANCH   6  16
BRANCH  15  18
ATOM     18  O13 ZIN A   1      20.019   1.205  13.180  0.00  0.00    -0.359 OA
ATOM     19  H41 ZIN A   1      19.391   1.558  13.825  0.00  0.00     0.217 HD
ENDBRANCH  15  18
ENDBRANCH   4   5
ENDBRANCH   1   4
BRANCH   2  20
ATOM     20  C19 ZIN A   1      16.508   5.128  11.820  0.00  0.00     0.043 C 
BRANCH  20  21
ATOM     21  C20 ZIN A   1      17.046   5.906  13.023  0.00  0.00     0.115 C 
BRANCH  21  22
ATOM     22  C21 ZIN A   1      16.151   5.675  14.212  0.00  0.00     0.259 C 
ATOM     23  O22 ZIN A   1      14.987   5.998  14.165  0.00  0.00    -0.265 OA
BRANCH  22  24
ATOM     24  O23 ZIN A   1      16.646   5.110  15.325  0.00  0.00    -0.320 OA
BRANCH  24  25
ATOM     25  C24 ZIN A   1      18.065   4.806  15.335  0.00  0.00     0.206 C 
BRANCH  25  26
ATOM     26  C25 ZIN A   1      18.264   3.297  15.173  0.00  0.00     0.261 C 
BRANCH  26  27
ATOM     27  N26 ZIN A   1      18.299   2.663  16.498  0.00  0.00    -0.065 N 
ATOM     28  H27 ZIN A   1      17.373   2.671  16.898  0.00  0.00     0.280 HD
ATOM     29  C32 ZIN A   1      18.764   1.276  16.363  0.00  0.00     0.261 C 
ATOM     30  C31 ZIN A   1      18.799   0.617  17.744  0.00  0.00     0.195 C 
ATOM     31  O30 ZIN A   1      19.650   1.376  18.608  0.00  0.00    -0.388 OA
ATOM     32  C29 ZIN A   1      19.251   2.741  18.751  0.00  0.00     0.195 C 
ATOM     33  C28 ZIN A   1      19.217   3.405  17.372  0.00  0.00     0.261 C 
ENDBRANCH  26  27
ENDBRANCH  25  26
ENDBRANCH  24  25
ENDBRANCH  22  24
ENDBRANCH  21  22
ENDBRANCH  20  21
ENDBRANCH   2  20
TORSDOF 11
ENDMDL
