MODEL 1
REMARK VINA RESULT:      -2.8      0.000      0.000
REMARK  0 active torsions:
REMARK  status: ('A' for Active; 'I' for Inactive)
ROOT
ATOM      1  O1  ZIN A   1      19.705  -2.963   5.467  0.00  0.00    -0.586 OA
ATOM      2  S2  ZIN A   1      19.099  -1.609   5.347  0.00  0.00     0.178 S 
ATOM      3  O3  ZIN A   1      18.873  -1.045   6.705  0.00  0.00    -0.586 OA
ATOM      4  O4  ZIN A   1      20.019  -0.720   4.587  0.00  0.00    -0.586 OA
ATOM      5  S5  ZIN A   1      17.524  -1.730   4.478  0.00  0.00     0.079 SA
ENDROOT
TORSDOF 0
ENDMDL
MODEL 2
REMARK VINA RESULT:      -2.8     12.587     13.274
REMARK  0 active torsions:
REMARK  status: ('A' for Active; 'I' for Inactive)
ROOT
ATOM      1  O1  ZIN A   1      19.668   2.455  18.807  0.00  0.00    -0.586 OA
ATOM      2  S2  ZIN A   1      18.976   1.318  18.141  0.00  0.00     0.178 S 
ATOM      3  O3  ZIN A   1      19.735   0.062  18.389  0.00  0.00    -0.586 OA
ATOM      4  O4  ZIN A   1      17.600   1.183  18.692  0.00  0.00    -0.586 OA
ATOM      5  S5  ZIN A   1      18.886   1.625  16.366  0.00  0.00     0.079 SA
ENDROOT
TORSDOF 0
ENDMDL
MODEL 3
REMARK VINA RESULT:      -2.8      0.047      1.887
REMARK  0 active torsions:
REMARK  status: ('A' for Active; 'I' for Inactive)
ROOT
ATOM      1  O1  ZIN A   1      18.858  -1.069   6.672  0.00  0.00    -0.586 OA
ATOM      2  S2  ZIN A   1      19.086  -1.636   5.315  0.00  0.00     0.178 S 
ATOM      3  O3  ZIN A   1      20.021  -0.758   4.561  0.00  0.00    -0.586 OA
ATOM      4  O4  ZIN A   1      19.673  -2.998   5.439  0.00  0.00    -0.586 OA
ATOM      5  S5  ZIN A   1      17.515  -1.736   4.434  0.00  0.00     0.079 SA
ENDROOT
TORSDOF 0
ENDMDL
MODEL 4
REMARK VINA RESULT:      -2.7      1.359      2.009
REMARK  0 active torsions:
REMARK  status: ('A' for Active; 'I' for Inactive)
ROOT
ATOM      1  O1  ZIN A   1      17.820  -2.033   4.896  0.00  0.00    -0.586 OA
ATOM      2  S2  ZIN A   1      19.155  -1.756   5.491  0.00  0.00     0.178 S 
ATOM      3  O3  ZIN A   1      19.873  -3.039   5.718  0.00  0.00    -0.586 OA
ATOM      4  O4  ZIN A   1      19.946  -0.903   4.562  0.00  0.00    -0.586 OA
ATOM      5  S5  ZIN A   1      18.946  -0.898   7.064  0.00  0.00     0.079 SA
ENDROOT
TORSDOF 0
ENDMDL
MODEL 5
REMARK VINA RESULT:      -2.7      1.362      2.295
REMARK  0 active torsions:
REMARK  status: ('A' for Active; 'I' for Inactive)
ROOT
ATOM      1  O1  ZIN A   1      19.957  -0.881   4.560  0.00  0.00    -0.586 OA
ATOM      2  S2  ZIN A   1      19.107  -1.767   5.401  0.00  0.00     0.178 S 
ATOM      3  O3  ZIN A   1      17.830  -2.048   4.691  0.00  0.00    -0.586 OA
ATOM      4  O4  ZIN A   1      19.825  -3.046   5.656  0.00  0.00    -0.586 OA
ATOM      5  S5  ZIN A   1      18.756  -0.952   6.971  0.00  0.00     0.079 SA
ENDROOT
TORSDOF 0
ENDMDL
MODEL 6
REMARK VINA RESULT:      -2.7     12.444     13.024
REMARK  0 active torsions:
REMARK  status: ('A' for Active; 'I' for Inactive)
ROOT
ATOM      1  O1  ZIN A   1      19.373  -0.385  18.288  0.00  0.00    -0.586 OA
ATOM      2  S2  ZIN A   1      18.880   1.003  18.076  0.00  0.00     0.178 S 
ATOM      3  O3  ZIN A   1      17.527   1.146  18.679  0.00  0.00    -0.586 OA
ATOM      4  O4  ZIN A   1      19.815   1.965  18.721  0.00  0.00    -0.586 OA
ATOM      5  S5  ZIN A   1      18.789   1.346  16.308  0.00  0.00     0.079 SA
ENDROOT
TORSDOF 0
ENDMDL
MODEL 7
REMARK VINA RESULT:      -2.7     12.341     12.925
REMARK  0 active torsions:
REMARK  status: ('A' for Active; 'I' for Inactive)
ROOT
ATOM      1  O1  ZIN A   1      17.854   2.212  18.440  0.00  0.00    -0.586 OA
ATOM      2  S2  ZIN A   1      19.086   1.892  17.670  0.00  0.00     0.178 S 
ATOM      3  O3  ZIN A   1      19.861   3.140  17.432  0.00  0.00    -0.586 OA
ATOM      4  O4  ZIN A   1      19.919   0.930  18.443  0.00  0.00    -0.586 OA
ATOM      5  S5  ZIN A   1      18.632   1.157  16.087  0.00  0.00     0.079 SA
ENDROOT
TORSDOF 0
ENDMDL
MODEL 8
REMARK VINA RESULT:      -2.6      7.863      8.726
REMARK  0 active torsions:
REMARK  status: ('A' for Active; 'I' for Inactive)
ROOT
ATOM      1  O1  ZIN A   1      17.183   2.885  10.681  0.00  0.00    -0.586 OA
ATOM      2  S2  ZIN A   1      17.356   4.333  10.979  0.00  0.00     0.178 S 
ATOM      3  O3  ZIN A   1      17.621   5.071   9.715  0.00  0.00    -0.586 OA
ATOM      4  O4  ZIN A   1      16.115   4.860  11.611  0.00  0.00    -0.586 OA
ATOM      5  S5  ZIN A   1      18.746   4.553  12.107  0.00  0.00     0.079 SA
ENDROOT
TORSDOF 0
ENDMDL
MODEL 9
REMARK VINA RESULT:      -2.6     12.261     13.104
REMARK  0 active torsions:
REMARK  status: ('A' for Active; 'I' for Inactive)
ROOT
ATOM      1  O1  ZIN A   1      19.179   1.406  16.505  0.00  0.00    -0.586 OA
ATOM      2  S2  ZIN A   1      19.085   1.227  17.980  0.00  0.00     0.178 S 
ATOM      3  O3  ZIN A   1      19.716  -0.065  18.363  0.00  0.00    -0.586 OA
ATOM      4  O4  ZIN A   1      19.791   2.346  18.661  0.00  0.00    -0.586 OA
ATOM      5  S5  ZIN A   1      17.351   1.219  18.476  0.00  0.00     0.079 SA
ENDROOT
TORSDOF 0
ENDMDL
