MODEL 1
REMARK VINA RESULT:      -6.4      0.000      0.000
REMARK  5 active torsions:
REMARK  status: ('A' for Active; 'I' for Inactive)
REMARK    1  A    between atoms: C2_2  and  O4_3 
REMARK    2  A    between atoms: C2_2  and  C5_4 
REMARK    3  A    between atoms: C5_4  and  O7_5 
REMARK    4  A    between atoms: C5_4  and  C8_6 
REMARK    5  A    between atoms: C18_15  and  N19_16 
ROOT
ATOM      1  C8  <0> d   1      18.023  -1.337   6.245  0.00  0.00     0.131 C 
ATOM      2  C10 <0> d   1      18.087   0.179   6.485  0.00  0.00     0.149 C 
ATOM      3  N11 <0> d   1      19.249   0.463   7.339  0.00  0.00    -0.370 N 
ATOM      4  C12 <0> d   1      19.471  -0.324   8.458  0.00  0.00     0.175 A 
ATOM      5  C13 <0> d   1      18.840  -1.555   8.573  0.00  0.00     0.144 A 
ATOM      6  N14 <0> d   1      17.971  -2.005   7.555  0.00  0.00    -0.373 N 
ATOM      7  C15 <0> d   1      19.079  -2.336   9.709  0.00  0.00     0.290 A 
ATOM      8  O16 <0> d   1      18.540  -3.426   9.842  0.00  0.00    -0.265 OA
ATOM      9  N17 <0> d   1      19.916  -1.860  10.656  0.00  0.00    -0.153 N 
ATOM     10  C18 <0> d   1      20.509  -0.646  10.497  0.00  0.00     0.703 A 
ATOM     11  N20 <0> d   1      20.289   0.094   9.432  0.00  0.00    -0.045 NA
ATOM     12  H28 <0> d   1      19.853   1.191   7.122  0.00  0.00     0.161 HD
ATOM     13  H29 <0> d   1      17.356  -2.737   7.716  0.00  0.00     0.160 HD
ATOM     14  H30 <0> d   1      20.095  -2.386  11.451  0.00  0.00     0.187 HD
ENDROOT
BRANCH   1  15
ATOM     15  C5  <0> d   1      19.268  -1.792   5.480  0.00  0.00     0.170 C 
BRANCH  15  16
ATOM     16  C2  <0> d   1      18.915  -2.991   4.598  0.00  0.00     0.145 C 
ATOM     17  C1  <0> d   1      17.469  -2.859   4.114  0.00  0.00     0.042 C 
BRANCH  16  18
ATOM     18  O4  <0> d   1      19.056  -4.197   5.353  0.00  0.00    -0.393 OA
ATOM     19  H24 <0> d   1      18.316  -4.812   5.254  0.00  0.00     0.210 HD
ENDBRANCH  16  18
ENDBRANCH  15  16
BRANCH  15  20
ATOM     20  O7  <0> d   1      19.741  -0.721   4.661  0.00  0.00    -0.391 OA
ATOM     21  H25 <0> d   1      19.889  -0.968   3.737  0.00  0.00     0.210 HD
ENDBRANCH  15  20
ENDBRANCH   1  15
BRANCH  10  22
ATOM     22  N19 <0> d   1      21.356  -0.182  11.472  0.00  0.00    -0.233 N 
ATOM     23  H31 <0> d   1      21.499   0.772  11.574  0.00  0.00     0.174 HD
ATOM     24  H32 <0> d   1      21.810  -0.807  12.057  0.00  0.00     0.174 HD
ENDBRANCH  10  22
TORSDOF 5
ENDMDL
MODEL 2
REMARK VINA RESULT:      -6.3      6.526      9.726
REMARK  5 active torsions:
REMARK  status: ('A' for Active; 'I' for Inactive)
REMARK    1  A    between atoms: C2_2  and  O4_3 
REMARK    2  A    between atoms: C2_2  and  C5_4 
REMARK    3  A    between atoms: C5_4  and  O7_5 
REMARK    4  A    between atoms: C5_4  and  C8_6 
REMARK    5  A    between atoms: C18_15  and  N19_16 
ROOT
ATOM      1  C8  <0> d   1      18.033   0.733  16.857  0.00  0.00     0.131 C 
ATOM      2  C10 <0> d   1      18.014  -0.739  16.418  0.00  0.00     0.149 C 
ATOM      3  N11 <0> d   1      19.162  -0.972  15.531  0.00  0.00    -0.370 N 
ATOM      4  C12 <0> d   1      19.432  -0.059  14.524  0.00  0.00     0.175 A 
ATOM      5  C13 <0> d   1      18.871   1.210  14.574  0.00  0.00     0.144 A 
ATOM      6  N14 <0> d   1      18.025   1.570  15.646  0.00  0.00    -0.373 N 
ATOM      7  C15 <0> d   1      19.158   2.119  13.551  0.00  0.00     0.290 A 
ATOM      8  O16 <0> d   1      18.681   3.245  13.565  0.00  0.00    -0.265 OA
ATOM      9  N17 <0> d   1      19.972   1.727  12.547  0.00  0.00    -0.153 N 
ATOM     10  C18 <0> d   1      20.495   0.471  12.543  0.00  0.00     0.703 A 
ATOM     11  N20 <0> d   1      20.230  -0.390  13.502  0.00  0.00    -0.045 NA
ATOM     12  H28 <0> d   1      19.723  -1.755  15.649  0.00  0.00     0.161 HD
ATOM     13  H29 <0> d   1      17.452   2.350  15.585  0.00  0.00     0.160 HD
ATOM     14  H30 <0> d   1      20.184   2.342  11.828  0.00  0.00     0.187 HD
ENDROOT
BRANCH   1  15
ATOM     15  C5  <0> d   1      19.298   1.013  17.671  0.00  0.00     0.170 C 
BRANCH  15  16
ATOM     16  C2  <0> d   1      19.060   2.216  18.585  0.00  0.00     0.145 C 
ATOM     17  C1  <0> d   1      17.567   2.327  18.902  0.00  0.00     0.042 C 
BRANCH  16  18
ATOM     18  O4  <0> d   1      19.497   3.408  17.929  0.00  0.00    -0.393 OA
ATOM     19  H24 <0> d   1      20.032   3.249  17.140  0.00  0.00     0.210 HD
ENDBRANCH  16  18
ENDBRANCH  15  16
BRANCH  15  20
ATOM     20  O7  <0> d   1      19.617  -0.132  18.464  0.00  0.00    -0.391 OA
ATOM     21  H25 <0> d   1      19.083  -0.217  19.265  0.00  0.00     0.210 HD
ENDBRANCH  15  20
ENDBRANCH   1  15
BRANCH  10  22
ATOM     22  N19 <0> d   1      21.319   0.092  11.513  0.00  0.00    -0.233 N 
ATOM     23  H31 <0> d   1      22.191  -0.287  11.704  0.00  0.00     0.174 HD
ATOM     24  H32 <0> d   1      21.029   0.205  10.594  0.00  0.00     0.174 HD
ENDBRANCH  10  22
TORSDOF 5
ENDMDL
MODEL 3
REMARK VINA RESULT:      -6.1      2.131      2.648
REMARK  5 active torsions:
REMARK  status: ('A' for Active; 'I' for Inactive)
REMARK    1  A    between atoms: C2_2  and  O4_3 
REMARK    2  A    between atoms: C2_2  and  C5_4 
REMARK    3  A    between atoms: C5_4  and  O7_5 
REMARK    4  A    between atoms: C5_4  and  C8_6 
REMARK    5  A    between atoms: C18_15  and  N19_16 
ROOT
ATOM      1  C8  <0> d   1      18.272  -3.144   8.102  0.00  0.00     0.131 C 
ATOM      2  C10 <0> d   1      18.488  -1.767   7.457  0.00  0.00     0.149 C 
ATOM      3  N11 <0> d   1      19.637  -1.126   8.111  0.00  0.00    -0.370 N 
ATOM      4  C12 <0> d   1      19.726  -1.152   9.494  0.00  0.00     0.175 A 
ATOM      5  C13 <0> d   1      18.963  -2.057  10.218  0.00  0.00     0.144 A 
ATOM      6  N14 <0> d   1      18.094  -2.947   9.550  0.00  0.00    -0.373 N 
ATOM      7  C15 <0> d   1      19.069  -2.071  11.613  0.00  0.00     0.290 A 
ATOM      8  O16 <0> d   1      18.411  -2.855  12.281  0.00  0.00    -0.265 OA
ATOM      9  N17 <0> d   1      19.912  -1.198  12.205  0.00  0.00    -0.153 N 
ATOM     10  C18 <0> d   1      20.638  -0.329  11.451  0.00  0.00     0.703 A 
ATOM     11  N20 <0> d   1      20.544  -0.310  10.139  0.00  0.00    -0.045 NA
ATOM     12  H28 <0> d   1      20.324  -0.690   7.582  0.00  0.00     0.161 HD
ATOM     13  H29 <0> d   1      17.397  -3.417  10.033  0.00  0.00     0.160 HD
ATOM     14  H30 <0> d   1      20.001  -1.191  13.172  0.00  0.00     0.187 HD
ENDROOT
BRANCH   1  15
ATOM     15  C5  <0> d   1      19.491  -4.032   7.846  0.00  0.00     0.170 C 
BRANCH  15  16
ATOM     16  C2  <0> d   1      19.027  -5.450   7.508  0.00  0.00     0.145 C 
ATOM     17  C1  <0> d   1      19.103  -6.324   8.762  0.00  0.00     0.042 C 
BRANCH  16  18
ATOM     18  O4  <0> d   1      19.870  -5.999   6.493  0.00  0.00    -0.393 OA
ATOM     19  H24 <0> d   1      20.782  -6.150   6.778  0.00  0.00     0.210 HD
ENDBRANCH  16  18
ENDBRANCH  15  16
BRANCH  15  20
ATOM     20  O7  <0> d   1      20.243  -3.504   6.752  0.00  0.00    -0.391 OA
ATOM     21  H25 <0> d   1      21.015  -4.034   6.512  0.00  0.00     0.210 HD
ENDBRANCH  15  20
ENDBRANCH   1  15
BRANCH  10  22
ATOM     22  N19 <0> d   1      21.488   0.550  12.073  0.00  0.00    -0.233 N 
ATOM     23  H31 <0> d   1      22.345   0.762  11.671  0.00  0.00     0.174 HD
ATOM     24  H32 <0> d   1      21.232   0.958  12.915  0.00  0.00     0.174 HD
ENDBRANCH  10  22
TORSDOF 5
ENDMDL
MODEL 4
REMARK VINA RESULT:      -6.1      3.108      4.643
REMARK  5 active torsions:
REMARK  status: ('A' for Active; 'I' for Inactive)
REMARK    1  A    between atoms: C2_2  and  O4_3 
REMARK    2  A    between atoms: C2_2  and  C5_4 
REMARK    3  A    between atoms: C5_4  and  O7_5 
REMARK    4  A    between atoms: C5_4  and  C8_6 
REMARK    5  A    between atoms: C18_15  and  N19_16 
ROOT
ATOM      1  C8  <0> d   1      19.127  -3.945  10.241  0.00  0.00     0.131 C 
ATOM      2  C10 <0> d   1      20.105  -3.942  11.425  0.00  0.00     0.149 C 
ATOM      3  N11 <0> d   1      19.974  -2.658  12.130  0.00  0.00    -0.370 N 
ATOM      4  C12 <0> d   1      19.936  -1.486  11.392  0.00  0.00     0.175 A 
ATOM      5  C13 <0> d   1      19.662  -1.534  10.032  0.00  0.00     0.144 A 
ATOM      6  N14 <0> d   1      19.427  -2.775   9.399  0.00  0.00    -0.373 N 
ATOM      7  C15 <0> d   1      19.624  -0.340   9.304  0.00  0.00     0.290 A 
ATOM      8  O16 <0> d   1      19.385  -0.347   8.105  0.00  0.00    -0.265 OA
ATOM      9  N17 <0> d   1      19.858   0.820   9.955  0.00  0.00    -0.153 N 
ATOM     10  C18 <0> d   1      20.123   0.814  11.289  0.00  0.00     0.703 A 
ATOM     11  N20 <0> d   1      20.161  -0.305  11.980  0.00  0.00    -0.045 NA
ATOM     12  H28 <0> d   1      19.916  -2.633  13.098  0.00  0.00     0.161 HD
ATOM     13  H29 <0> d   1      19.461  -2.854   8.434  0.00  0.00     0.160 HD
ATOM     14  H30 <0> d   1      19.836   1.660   9.469  0.00  0.00     0.187 HD
ENDROOT
BRANCH   1  15
ATOM     15  C5  <0> d   1      17.689  -3.856  10.758  0.00  0.00     0.170 C 
BRANCH  15  16
ATOM     16  C2  <0> d   1      16.780  -4.723   9.884  0.00  0.00     0.145 C 
ATOM     17  C1  <0> d   1      17.180  -6.192  10.033  0.00  0.00     0.042 C 
BRANCH  16  18
ATOM     18  O4  <0> d   1      16.914  -4.328   8.517  0.00  0.00    -0.393 OA
ATOM     19  H24 <0> d   1      17.818  -4.101   8.260  0.00  0.00     0.210 HD
ENDBRANCH  16  18
ENDBRANCH  15  16
BRANCH  15  20
ATOM     20  O7  <0> d   1      17.639  -4.323  12.107  0.00  0.00    -0.391 OA
ATOM     21  H25 <0> d   1      17.946  -3.678  12.759  0.00  0.00     0.210 HD
ENDBRANCH  15  20
ENDBRANCH   1  15
BRANCH  10  22
ATOM     22  N19 <0> d   1      20.359   2.005  11.930  0.00  0.00    -0.233 N 
ATOM     23  H31 <0> d   1      20.289   2.057  12.896  0.00  0.00     0.174 HD
ATOM     24  H32 <0> d   1      20.595   2.793  11.417  0.00  0.00     0.174 HD
ENDBRANCH  10  22
TORSDOF 5
ENDMDL
MODEL 5
REMARK VINA RESULT:      -6.0      5.404      7.250
REMARK  5 active torsions:
REMARK  status: ('A' for Active; 'I' for Inactive)
REMARK    1  A    between atoms: C2_2  and  O4_3 
REMARK    2  A    between atoms: C2_2  and  C5_4 
REMARK    3  A    between atoms: C5_4  and  O7_5 
REMARK    4  A    between atoms: C5_4  and  C8_6 
REMARK    5  A    between atoms: C18_15  and  N19_16 
ROOT
ATOM      1  C8  <0> d   1      18.693   1.079  12.534  0.00  0.00     0.131 C 
ATOM      2  C10 <0> d   1      18.681   2.597  12.763  0.00  0.00     0.149 C 
ATOM      3  N11 <0> d   1      19.319   2.874  14.058  0.00  0.00    -0.370 N 
ATOM      4  C12 <0> d   1      18.971   2.106  15.158  0.00  0.00     0.175 A 
ATOM      5  C13 <0> d   1      18.324   0.892  14.977  0.00  0.00     0.144 A 
ATOM      6  N14 <0> d   1      18.017   0.439  13.675  0.00  0.00    -0.373 N 
ATOM      7  C15 <0> d   1      17.983   0.130  16.099  0.00  0.00     0.290 A 
ATOM      8  O16 <0> d   1      17.414  -0.944  15.975  0.00  0.00    -0.265 OA
ATOM      9  N17 <0> d   1      18.296   0.608  17.323  0.00  0.00    -0.153 N 
ATOM     10  C18 <0> d   1      18.929   1.805  17.448  0.00  0.00     0.703 A 
ATOM     11  N20 <0> d   1      19.253   2.528  16.397  0.00  0.00    -0.045 NA
ATOM     12  H28 <0> d   1      19.975   3.584  14.141  0.00  0.00     0.161 HD
ATOM     13  H29 <0> d   1      17.377  -0.276  13.536  0.00  0.00     0.160 HD
ATOM     14  H30 <0> d   1      18.069   0.095  18.115  0.00  0.00     0.187 HD
ENDROOT
BRANCH   1  15
ATOM     15  C5  <0> d   1      20.137   0.581  12.442  0.00  0.00     0.170 C 
BRANCH  15  16
ATOM     16  C2  <0> d   1      20.249  -0.457  11.323  0.00  0.00     0.145 C 
ATOM     17  C1  <0> d   1      19.699  -1.797  11.815  0.00  0.00     0.042 C 
BRANCH  16  18
ATOM     18  O4  <0> d   1      21.620  -0.612  10.951  0.00  0.00    -0.393 OA
ATOM     19  H24 <0> d   1      21.838  -1.490  10.610  0.00  0.00     0.210 HD
ENDBRANCH  16  18
ENDBRANCH  15  16
BRANCH  15  20
ATOM     20  O7  <0> d   1      21.003   1.682  12.159  0.00  0.00    -0.391 OA
ATOM     21  H25 <0> d   1      21.755   1.456  11.596  0.00  0.00     0.210 HD
ENDBRANCH  15  20
ENDBRANCH   1  15
BRANCH  10  22
ATOM     22  N19 <0> d   1      19.237   2.272  18.702  0.00  0.00    -0.233 N 
ATOM     23  H31 <0> d   1      18.559   2.719  19.232  0.00  0.00     0.174 HD
ATOM     24  H32 <0> d   1      20.133   2.157  19.055  0.00  0.00     0.174 HD
ENDBRANCH  10  22
TORSDOF 5
ENDMDL
MODEL 6
REMARK VINA RESULT:      -5.9      4.893      6.938
REMARK  5 active torsions:
REMARK  status: ('A' for Active; 'I' for Inactive)
REMARK    1  A    between atoms: C2_2  and  O4_3 
REMARK    2  A    between atoms: C2_2  and  C5_4 
REMARK    3  A    between atoms: C5_4  and  O7_5 
REMARK    4  A    between atoms: C5_4  and  C8_6 
REMARK    5  A    between atoms: C18_15  and  N19_16 
ROOT
ATOM      1  C8  <0> d   1      19.812   1.549  11.743  0.00  0.00     0.131 C 
ATOM      2  C10 <0> d   1      20.805   0.503  12.270  0.00  0.00     0.149 C 
ATOM      3  N11 <0> d   1      20.158  -0.241  13.359  0.00  0.00    -0.370 N 
ATOM      4  C12 <0> d   1      19.463   0.459  14.333  0.00  0.00     0.175 A 
ATOM      5  C13 <0> d   1      19.080   1.772  14.099  0.00  0.00     0.144 A 
ATOM      6  N14 <0> d   1      19.399   2.396  12.873  0.00  0.00    -0.373 N 
ATOM      7  C15 <0> d   1      18.377   2.461  15.093  0.00  0.00     0.290 A 
ATOM      8  O16 <0> d   1      18.024   3.619  14.919  0.00  0.00    -0.265 OA
ATOM      9  N17 <0> d   1      18.098   1.821  16.249  0.00  0.00    -0.153 N 
ATOM     10  C18 <0> d   1      18.497   0.533  16.430  0.00  0.00     0.703 A 
ATOM     11  N20 <0> d   1      19.158  -0.122  15.500  0.00  0.00    -0.045 NA
ATOM     12  H28 <0> d   1      20.215  -1.209  13.396  0.00  0.00     0.161 HD
ATOM     13  H29 <0> d   1      19.347   3.360  12.779  0.00  0.00     0.160 HD
ATOM     14  H30 <0> d   1      17.611   2.280  16.951  0.00  0.00     0.187 HD
ENDROOT
BRANCH   1  15
ATOM     15  C5  <0> d   1      18.589   0.848  11.147  0.00  0.00     0.170 C 
BRANCH  15  16
ATOM     16  C2  <0> d   1      17.880   1.796  10.178  0.00  0.00     0.145 C 
ATOM     17  C1  <0> d   1      18.912   2.437   9.247  0.00  0.00     0.042 C 
BRANCH  16  18
ATOM     18  O4  <0> d   1      17.205   2.816  10.916  0.00  0.00    -0.393 OA
ATOM     19  H24 <0> d   1      17.675   3.661  10.940  0.00  0.00     0.210 HD
ENDBRANCH  16  18
ENDBRANCH  15  16
BRANCH  15  20
ATOM     20  O7  <0> d   1      19.008  -0.325  10.446  0.00  0.00    -0.391 OA
ATOM     21  H25 <0> d   1      18.294  -0.951  10.265  0.00  0.00     0.210 HD
ENDBRANCH  15  20
ENDBRANCH   1  15
BRANCH  10  22
ATOM     22  N19 <0> d   1      18.204  -0.099  17.613  0.00  0.00    -0.233 N 
ATOM     23  H31 <0> d   1      18.917  -0.334  18.226  0.00  0.00     0.174 HD
ATOM     24  H32 <0> d   1      17.283  -0.311  17.834  0.00  0.00     0.174 HD
ENDBRANCH  10  22
TORSDOF 5
ENDMDL
MODEL 7
REMARK VINA RESULT:      -5.8      2.767      4.250
REMARK  5 active torsions:
REMARK  status: ('A' for Active; 'I' for Inactive)
REMARK    1  A    between atoms: C2_2  and  O4_3 
REMARK    2  A    between atoms: C2_2  and  C5_4 
REMARK    3  A    between atoms: C5_4  and  O7_5 
REMARK    4  A    between atoms: C5_4  and  C8_6 
REMARK    5  A    between atoms: C18_15  and  N19_16 
ROOT
ATOM      1  C8  <0> d   1      19.485  -0.957   8.779  0.00  0.00     0.131 C 
ATOM      2  C10 <0> d   1      18.988  -2.372   9.110  0.00  0.00     0.149 C 
ATOM      3  N11 <0> d   1      18.296  -2.327  10.405  0.00  0.00    -0.370 N 
ATOM      4  C12 <0> d   1      18.883  -1.645  11.459  0.00  0.00     0.175 A 
ATOM      5  C13 <0> d   1      19.899  -0.733  11.212  0.00  0.00     0.144 A 
ATOM      6  N14 <0> d   1      20.338  -0.502   9.889  0.00  0.00    -0.373 N 
ATOM      7  C15 <0> d   1      20.477  -0.052  12.288  0.00  0.00     0.290 A 
ATOM      8  O16 <0> d   1      21.373   0.759  12.105  0.00  0.00    -0.265 OA
ATOM      9  N17 <0> d   1      20.023  -0.310  13.534  0.00  0.00    -0.153 N 
ATOM     10  C18 <0> d   1      19.025  -1.214  13.725  0.00  0.00     0.703 A 
ATOM     11  N20 <0> d   1      18.477  -1.859  12.717  0.00  0.00    -0.045 NA
ATOM     12  H28 <0> d   1      17.439  -2.769  10.521  0.00  0.00     0.161 HD
ATOM     13  H29 <0> d   1      21.180  -0.054   9.717  0.00  0.00     0.160 HD
ATOM     14  H30 <0> d   1      20.410   0.152  14.294  0.00  0.00     0.187 HD
ENDROOT
BRANCH   1  15
ATOM     15  C5  <0> d   1      18.291  -0.012   8.622  0.00  0.00     0.170 C 
BRANCH  15  16
ATOM     16  C2  <0> d   1      18.708   1.200   7.787  0.00  0.00     0.145 C 
ATOM     17  C1  <0> d   1      19.016   0.752   6.356  0.00  0.00     0.042 C 
BRANCH  16  18
ATOM     18  O4  <0> d   1      19.872   1.798   8.360  0.00  0.00    -0.393 OA
ATOM     19  H24 <0> d   1      20.254   1.293   9.091  0.00  0.00     0.210 HD
ENDBRANCH  16  18
ENDBRANCH  15  16
BRANCH  15  20
ATOM     20  O7  <0> d   1      17.224  -0.700   7.966  0.00  0.00    -0.391 OA
ATOM     21  H25 <0> d   1      16.817  -0.199   7.246  0.00  0.00     0.210 HD
ENDBRANCH  15  20
ENDBRANCH   1  15
BRANCH  10  22
ATOM     22  N19 <0> d   1      18.580  -1.462  14.999  0.00  0.00    -0.233 N 
ATOM     23  H31 <0> d   1      18.836  -2.281  15.451  0.00  0.00     0.174 HD
ATOM     24  H32 <0> d   1      18.009  -0.818  15.446  0.00  0.00     0.174 HD
ENDBRANCH  10  22
TORSDOF 5
ENDMDL
MODEL 8
REMARK VINA RESULT:      -5.8      4.655      7.223
REMARK  5 active torsions:
REMARK  status: ('A' for Active; 'I' for Inactive)
REMARK    1  A    between atoms: C2_2  and  O4_3 
REMARK    2  A    between atoms: C2_2  and  C5_4 
REMARK    3  A    between atoms: C5_4  and  O7_5 
REMARK    4  A    between atoms: C5_4  and  C8_6 
REMARK    5  A    between atoms: C18_15  and  N19_16 
ROOT
ATOM      1  C8  <0> d   1      17.800  -0.635  13.550  0.00  0.00     0.131 C 
ATOM      2  C10 <0> d   1      18.064  -1.786  12.569  0.00  0.00     0.149 C 
ATOM      3  N11 <0> d   1      19.006  -1.314  11.545  0.00  0.00    -0.370 N 
ATOM      4  C12 <0> d   1      18.800  -0.074  10.960  0.00  0.00     0.175 A 
ATOM      5  C13 <0> d   1      17.957   0.844  11.569  0.00  0.00     0.144 A 
ATOM      6  N14 <0> d   1      17.306   0.517  12.779  0.00  0.00    -0.373 N 
ATOM      7  C15 <0> d   1      17.763   2.092  10.966  0.00  0.00     0.290 A 
ATOM      8  O16 <0> d   1      17.028   2.924  11.476  0.00  0.00    -0.265 OA
ATOM      9  N17 <0> d   1      18.406   2.355   9.808  0.00  0.00    -0.153 N 
ATOM     10  C18 <0> d   1      19.222   1.420   9.250  0.00  0.00     0.703 A 
ATOM     11  N20 <0> d   1      19.409   0.245   9.811  0.00  0.00    -0.045 NA
ATOM     12  H28 <0> d   1      19.762  -1.863  11.282  0.00  0.00     0.161 HD
ATOM     13  H29 <0> d   1      16.553   1.040  13.094  0.00  0.00     0.160 HD
ATOM     14  H30 <0> d   1      18.286   3.215   9.373  0.00  0.00     0.187 HD
ENDROOT
BRANCH   1  15
ATOM     15  C5  <0> d   1      19.098  -0.259  14.269  0.00  0.00     0.170 C 
BRANCH  15  16
ATOM     16  C2  <0> d   1      18.792   0.085  15.728  0.00  0.00     0.145 C 
ATOM     17  C1  <0> d   1      18.770  -1.199  16.560  0.00  0.00     0.042 C 
BRANCH  16  18
ATOM     18  O4  <0> d   1      17.519   0.728  15.809  0.00  0.00    -0.393 OA
ATOM     19  H24 <0> d   1      17.508   1.510  16.377  0.00  0.00     0.210 HD
ENDBRANCH  16  18
ENDBRANCH  15  16
BRANCH  15  20
ATOM     20  O7  <0> d   1      20.005  -1.362  14.219  0.00  0.00    -0.391 OA
ATOM     21  H25 <0> d   1      20.632  -1.390  14.955  0.00  0.00     0.210 HD
ENDBRANCH  15  20
ENDBRANCH   1  15
BRANCH  10  22
ATOM     22  N19 <0> d   1      19.865   1.709   8.073  0.00  0.00    -0.233 N 
ATOM     23  H31 <0> d   1      19.948   2.629   7.779  0.00  0.00     0.174 HD
ATOM     24  H32 <0> d   1      20.235   0.992   7.534  0.00  0.00     0.174 HD
ENDBRANCH  10  22
TORSDOF 5
ENDMDL
MODEL 9
REMARK VINA RESULT:      -5.8      4.280      6.100
REMARK  5 active torsions:
REMARK  status: ('A' for Active; 'I' for Inactive)
REMARK    1  A    between atoms: C2_2  and  O4_3 
REMARK    2  A    between atoms: C2_2  and  C5_4 
REMARK    3  A    between atoms: C5_4  and  O7_5 
REMARK    4  A    between atoms: C5_4  and  C8_6 
REMARK    5  A    between atoms: C18_15  and  N19_16 
ROOT
ATOM      1  C8  <0> d   1      20.125  -0.317  12.063  0.00  0.00     0.131 C 
ATOM      2  C10 <0> d   1      20.031   0.519  13.348  0.00  0.00     0.149 C 
ATOM      3  N11 <0> d   1      18.843   1.379  13.254  0.00  0.00    -0.370 N 
ATOM      4  C12 <0> d   1      18.605   2.072  12.078  0.00  0.00     0.175 A 
ATOM      5  C13 <0> d   1      19.252   1.694  10.910  0.00  0.00     0.144 A 
ATOM      6  N14 <0> d   1      20.153   0.607  10.918  0.00  0.00    -0.373 N 
ATOM      7  C15 <0> d   1      18.996   2.404   9.732  0.00  0.00     0.290 A 
ATOM      8  O16 <0> d   1      19.548   2.097   8.685  0.00  0.00    -0.265 OA
ATOM      9  N17 <0> d   1      18.127   3.437   9.777  0.00  0.00    -0.153 N 
ATOM     10  C18 <0> d   1      17.520   3.770  10.947  0.00  0.00     0.703 A 
ATOM     11  N20 <0> d   1      17.755   3.106  12.059  0.00  0.00    -0.045 NA
ATOM     12  H28 <0> d   1      18.234   1.459  14.005  0.00  0.00     0.161 HD
ATOM     13  H29 <0> d   1      20.776   0.473  10.187  0.00  0.00     0.160 HD
ATOM     14  H30 <0> d   1      17.936   3.943   8.971  0.00  0.00     0.187 HD
ENDROOT
BRANCH   1  15
ATOM     15  C5  <0> d   1      18.908  -1.238  11.955  0.00  0.00     0.170 C 
BRANCH  15  16
ATOM     16  C2  <0> d   1      19.281  -2.485  11.150  0.00  0.00     0.145 C 
ATOM     17  C1  <0> d   1      18.634  -3.716  11.788  0.00  0.00     0.042 C 
BRANCH  16  18
ATOM     18  O4  <0> d   1      20.702  -2.642  11.146  0.00  0.00    -0.393 OA
ATOM     19  H24 <0> d   1      20.998  -3.534  10.920  0.00  0.00     0.210 HD
ENDBRANCH  16  18
ENDBRANCH  15  16
BRANCH  15  20
ATOM     20  O7  <0> d   1      18.486  -1.625  13.264  0.00  0.00    -0.391 OA
ATOM     21  H25 <0> d   1      18.291  -2.568  13.353  0.00  0.00     0.210 HD
ENDBRANCH  15  20
ENDBRANCH   1  15
BRANCH  10  22
ATOM     22  N19 <0> d   1      16.641   4.823  10.970  0.00  0.00    -0.233 N 
ATOM     23  H31 <0> d   1      16.793   5.594  10.401  0.00  0.00     0.174 HD
ATOM     24  H32 <0> d   1      15.869   4.798  11.557  0.00  0.00     0.174 HD
ENDBRANCH  10  22
TORSDOF 5
ENDMDL
