MODEL 1
REMARK VINA RESULT:      -5.0      0.000      0.000
REMARK  1 active torsions:
REMARK  status: ('A' for Active; 'I' for Inactive)
REMARK    1  A    between atoms: N1_1  and  C2_2 
ROOT
ATOM      1  C2  <0> d   1      20.650   0.296  11.575  0.00  0.00     0.701 A 
ATOM      2  N3  <0> d   1      20.547   0.333  12.885  0.00  0.00    -0.045 NA
ATOM      3  C4  <0> d   1      19.719   1.192  13.490  0.00  0.00     0.179 A 
ATOM      4  C5  <0> d   1      18.946   2.068  12.720  0.00  0.00     0.143 A 
ATOM      5  N6  <0> d   1      18.208   2.814  13.579  0.00  0.00    -0.237 NA
ATOM      6  C7  <0> d   1      18.476   2.456  14.801  0.00  0.00     0.209 A 
ATOM      7  N8  <0> d   1      19.405   1.456  14.796  0.00  0.00    -0.333 N 
ATOM      8  C9  <0> d   1      19.065   2.018  11.313  0.00  0.00     0.149 A 
ATOM      9  S10 <0> d   1      18.147   3.065  10.317  0.00  0.00    -0.057 SA
ATOM     10  N11 <0> d   1      19.927   1.128  10.773  0.00  0.00    -0.178 N 
ATOM     11  H15 <0> d   1      19.775   1.014  15.576  0.00  0.00     0.168 HD
ATOM     12  H16 <0> d   1      20.027   1.076   9.809  0.00  0.00     0.185 HD
ENDROOT
BRANCH   1  13
ATOM     13  N1  <0> d   1      21.512  -0.602  10.999  0.00  0.00    -0.233 N 
ATOM     14  H12 <0> d   1      22.148  -1.086  11.550  0.00  0.00     0.174 HD
ATOM     15  H13 <0> d   1      21.484  -0.758  10.042  0.00  0.00     0.174 HD
ENDBRANCH   1  13
TORSDOF 1
ENDMDL
MODEL 2
REMARK VINA RESULT:      -4.9      2.115      4.070
REMARK  1 active torsions:
REMARK  status: ('A' for Active; 'I' for Inactive)
REMARK    1  A    between atoms: N1_1  and  C2_2 
ROOT
ATOM      1  C2  <0> d   1      20.596   0.487  11.732  0.00  0.00     0.701 A 
ATOM      2  N3  <0> d   1      20.625  -0.507  10.872  0.00  0.00    -0.045 NA
ATOM      3  C4  <0> d   1      19.983  -0.427   9.701  0.00  0.00     0.179 A 
ATOM      4  C5  <0> d   1      19.267   0.732   9.380  0.00  0.00     0.143 A 
ATOM      5  N6  <0> d   1      18.724   0.543   8.153  0.00  0.00    -0.237 NA
ATOM      6  C7  <0> d   1      19.056  -0.635   7.711  0.00  0.00     0.209 A 
ATOM      7  N8  <0> d   1      19.835  -1.272   8.634  0.00  0.00    -0.333 N 
ATOM      8  C9  <0> d   1      19.244   1.793  10.314  0.00  0.00     0.149 A 
ATOM      9  S10 <0> d   1      18.385   3.237   9.980  0.00  0.00    -0.057 SA
ATOM     10  N11 <0> d   1      19.911   1.638  11.478  0.00  0.00    -0.178 N 
ATOM     11  H15 <0> d   1      20.213  -2.161   8.549  0.00  0.00     0.168 HD
ATOM     12  H16 <0> d   1      19.909   2.353  12.135  0.00  0.00     0.185 HD
ENDROOT
BRANCH   1  13
ATOM     13  N1  <0> d   1      21.270   0.360  12.920  0.00  0.00    -0.233 N 
ATOM     14  H12 <0> d   1      21.585  -0.512  13.209  0.00  0.00     0.174 HD
ATOM     15  H13 <0> d   1      21.437   1.141  13.470  0.00  0.00     0.174 HD
ENDBRANCH   1  13
TORSDOF 1
ENDMDL
MODEL 3
REMARK VINA RESULT:      -4.9      3.274      4.728
REMARK  1 active torsions:
REMARK  status: ('A' for Active; 'I' for Inactive)
REMARK    1  A    between atoms: N1_1  and  C2_2 
ROOT
ATOM      1  C2  <0> d   1      20.582  -0.373  10.907  0.00  0.00     0.701 A 
ATOM      2  N3  <0> d   1      20.101  -1.564  11.183  0.00  0.00    -0.045 NA
ATOM      3  C4  <0> d   1      19.244  -2.173  10.354  0.00  0.00     0.179 A 
ATOM      4  C5  <0> d   1      18.850  -1.534   9.173  0.00  0.00     0.143 A 
ATOM      5  N6  <0> d   1      17.990  -2.365   8.533  0.00  0.00    -0.237 NA
ATOM      6  C7  <0> d   1      17.837  -3.450   9.235  0.00  0.00     0.209 A 
ATOM      7  N8  <0> d   1      18.593  -3.377  10.370  0.00  0.00    -0.333 N 
ATOM      8  C9  <0> d   1      19.374  -0.252   8.889  0.00  0.00     0.149 A 
ATOM      9  S10 <0> d   1      18.930   0.580   7.460  0.00  0.00    -0.057 SA
ATOM     10  N11 <0> d   1      20.230   0.301   9.776  0.00  0.00    -0.178 N 
ATOM     11  H15 <0> d   1      18.656  -4.055  11.060  0.00  0.00     0.168 HD
ATOM     12  H16 <0> d   1      20.603   1.180   9.602  0.00  0.00     0.185 HD
ENDROOT
BRANCH   1  13
ATOM     13  N1  <0> d   1      21.458   0.212  11.787  0.00  0.00    -0.233 N 
ATOM     14  H12 <0> d   1      21.918   1.031  11.541  0.00  0.00     0.174 HD
ATOM     15  H13 <0> d   1      21.615  -0.190  12.655  0.00  0.00     0.174 HD
ENDBRANCH   1  13
TORSDOF 1
ENDMDL
MODEL 4
REMARK VINA RESULT:      -4.8      3.736      5.474
REMARK  1 active torsions:
REMARK  status: ('A' for Active; 'I' for Inactive)
REMARK    1  A    between atoms: N1_1  and  C2_2 
ROOT
ATOM      1  C2  <0> d   1      20.630  -0.534  11.022  0.00  0.00     0.701 A 
ATOM      2  N3  <0> d   1      20.341  -0.166   9.794  0.00  0.00    -0.045 NA
ATOM      3  C4  <0> d   1      19.565  -0.923   9.009  0.00  0.00     0.179 A 
ATOM      4  C5  <0> d   1      19.050  -2.128   9.499  0.00  0.00     0.143 A 
ATOM      5  N6  <0> d   1      18.309  -2.682   8.508  0.00  0.00    -0.237 NA
ATOM      6  C7  <0> d   1      18.338  -1.906   7.464  0.00  0.00     0.209 A 
ATOM      7  N8  <0> d   1      19.103  -0.806   7.726  0.00  0.00    -0.333 N 
ATOM      8  C9  <0> d   1      19.369  -2.513  10.822  0.00  0.00     0.149 A 
ATOM      9  S10 <0> d   1      18.770  -3.976  11.478  0.00  0.00    -0.057 SA
ATOM     10  N11 <0> d   1      20.163  -1.700  11.552  0.00  0.00    -0.178 N 
ATOM     11  H15 <0> d   1      19.284  -0.075   7.115  0.00  0.00     0.168 HD
ATOM     12  H16 <0> d   1      20.396  -1.943  12.463  0.00  0.00     0.185 HD
ENDROOT
BRANCH   1  13
ATOM     13  N1  <0> d   1      21.430   0.275  11.790  0.00  0.00    -0.233 N 
ATOM     14  H12 <0> d   1      21.632   1.177  11.495  0.00  0.00     0.174 HD
ATOM     15  H13 <0> d   1      21.788  -0.052  12.629  0.00  0.00     0.174 HD
ENDBRANCH   1  13
TORSDOF 1
ENDMDL
MODEL 5
REMARK VINA RESULT:      -4.8      2.182      2.675
REMARK  1 active torsions:
REMARK  status: ('A' for Active; 'I' for Inactive)
REMARK    1  A    between atoms: N1_1  and  C2_2 
ROOT
ATOM      1  C2  <0> d   1      20.639   0.121  11.963  0.00  0.00     0.701 A 
ATOM      2  N3  <0> d   1      20.216   1.351  11.780  0.00  0.00    -0.045 NA
ATOM      3  C4  <0> d   1      19.390   1.937  12.656  0.00  0.00     0.179 A 
ATOM      4  C5  <0> d   1      18.967   1.231  13.787  0.00  0.00     0.143 A 
ATOM      5  N6  <0> d   1      18.150   2.052  14.491  0.00  0.00    -0.237 NA
ATOM      6  C7  <0> d   1      18.049   3.193  13.873  0.00  0.00     0.209 A 
ATOM      7  N8  <0> d   1      18.799   3.168  12.733  0.00  0.00    -0.333 N 
ATOM      8  C9  <0> d   1      19.429  -0.092  13.972  0.00  0.00     0.149 A 
ATOM      9  S10 <0> d   1      18.947  -1.007  15.337  0.00  0.00    -0.057 SA
ATOM     10  N11 <0> d   1      20.257  -0.618  13.043  0.00  0.00    -0.178 N 
ATOM     11  H15 <0> d   1      18.894   3.893  12.094  0.00  0.00     0.168 HD
ATOM     12  H16 <0> d   1      20.587  -1.525  13.149  0.00  0.00     0.185 HD
ENDROOT
BRANCH   1  13
ATOM     13  N1  <0> d   1      21.485  -0.438  11.039  0.00  0.00    -0.233 N 
ATOM     14  H12 <0> d   1      21.198  -1.206  10.520  0.00  0.00     0.174 HD
ATOM     15  H13 <0> d   1      22.368  -0.062  10.899  0.00  0.00     0.174 HD
ENDBRANCH   1  13
TORSDOF 1
ENDMDL
MODEL 6
REMARK VINA RESULT:      -4.7      6.016      7.559
REMARK  1 active torsions:
REMARK  status: ('A' for Active; 'I' for Inactive)
REMARK    1  A    between atoms: N1_1  and  C2_2 
ROOT
ATOM      1  C2  <0> d   1      19.835  -3.488   6.990  0.00  0.00     0.701 A 
ATOM      2  N3  <0> d   1      19.627  -3.213   5.721  0.00  0.00    -0.045 NA
ATOM      3  C4  <0> d   1      19.201  -2.004   5.336  0.00  0.00     0.179 A 
ATOM      4  C5  <0> d   1      18.972  -1.012   6.296  0.00  0.00     0.143 A 
ATOM      5  N6  <0> d   1      18.554   0.096   5.637  0.00  0.00    -0.237 NA
ATOM      6  C7  <0> d   1      18.513  -0.151   4.360  0.00  0.00     0.209 A 
ATOM      7  N8  <0> d   1      18.904  -1.438   4.126  0.00  0.00    -0.333 N 
ATOM      8  C9  <0> d   1      19.201  -1.320   7.656  0.00  0.00     0.149 A 
ATOM      9  S10 <0> d   1      18.939  -0.148   8.877  0.00  0.00    -0.057 SA
ATOM     10  N11 <0> d   1      19.625  -2.564   7.970  0.00  0.00    -0.178 N 
ATOM     11  H15 <0> d   1      18.962  -1.871   3.260  0.00  0.00     0.168 HD
ATOM     12  H16 <0> d   1      19.788  -2.799   8.897  0.00  0.00     0.185 HD
ENDROOT
BRANCH   1  13
ATOM     13  N1  <0> d   1      20.272  -4.741   7.337  0.00  0.00    -0.233 N 
ATOM     14  H12 <0> d   1      19.630  -5.435   7.557  0.00  0.00     0.174 HD
ATOM     15  H13 <0> d   1      21.222  -4.936   7.357  0.00  0.00     0.174 HD
ENDBRANCH   1  13
TORSDOF 1
ENDMDL
MODEL 7
REMARK VINA RESULT:      -4.6      4.199      5.456
REMARK  1 active torsions:
REMARK  status: ('A' for Active; 'I' for Inactive)
REMARK    1  A    between atoms: N1_1  and  C2_2 
ROOT
ATOM      1  C2  <0> d   1      18.311  -1.909   7.455  0.00  0.00     0.701 A 
ATOM      2  N3  <0> d   1      19.256  -1.056   7.782  0.00  0.00    -0.045 NA
ATOM      3  C4  <0> d   1      19.708  -0.973   9.038  0.00  0.00     0.179 A 
ATOM      4  C5  <0> d   1      19.169  -1.805  10.026  0.00  0.00     0.143 A 
ATOM      5  N6  <0> d   1      19.802  -1.513  11.188  0.00  0.00    -0.237 NA
ATOM      6  C7  <0> d   1      20.677  -0.573  10.978  0.00  0.00     0.209 A 
ATOM      7  N8  <0> d   1      20.655  -0.207   9.663  0.00  0.00    -0.333 N 
ATOM      8  C9  <0> d   1      18.153  -2.718   9.661  0.00  0.00     0.149 A 
ATOM      9  S10 <0> d   1      17.455  -3.763  10.823  0.00  0.00    -0.057 SA
ATOM     10  N11 <0> d   1      17.744  -2.742   8.374  0.00  0.00    -0.178 N 
ATOM     11  H15 <0> d   1      21.209   0.473   9.248  0.00  0.00     0.168 HD
ATOM     12  H16 <0> d   1      17.048  -3.360   8.100  0.00  0.00     0.185 HD
ENDROOT
BRANCH   1  13
ATOM     13  N1  <0> d   1      17.879  -1.960   6.154  0.00  0.00    -0.233 N 
ATOM     14  H12 <0> d   1      18.524  -1.961   5.428  0.00  0.00     0.174 HD
ATOM     15  H13 <0> d   1      16.930  -2.000   5.958  0.00  0.00     0.174 HD
ENDBRANCH   1  13
TORSDOF 1
ENDMDL
MODEL 8
REMARK VINA RESULT:      -4.6      2.561      3.103
REMARK  1 active torsions:
REMARK  status: ('A' for Active; 'I' for Inactive)
REMARK    1  A    between atoms: N1_1  and  C2_2 
ROOT
ATOM      1  C2  <0> d   1      20.315  -0.736  10.574  0.00  0.00     0.701 A 
ATOM      2  N3  <0> d   1      20.095   0.286  11.370  0.00  0.00    -0.045 NA
ATOM      3  C4  <0> d   1      19.513   1.404  10.918  0.00  0.00     0.179 A 
ATOM      4  C5  <0> d   1      19.131   1.490   9.574  0.00  0.00     0.143 A 
ATOM      5  N6  <0> d   1      18.575   2.713   9.392  0.00  0.00    -0.237 NA
ATOM      6  C7  <0> d   1      18.593   3.366  10.518  0.00  0.00     0.209 A 
ATOM      7  N8  <0> d   1      19.164   2.597  11.490  0.00  0.00    -0.333 N 
ATOM      8  C9  <0> d   1      19.374   0.384   8.728  0.00  0.00     0.149 A 
ATOM      9  S10 <0> d   1      18.930   0.429   7.075  0.00  0.00    -0.057 SA
ATOM     10  N11 <0> d   1      19.970  -0.708   9.256  0.00  0.00    -0.178 N 
ATOM     11  H15 <0> d   1      19.297   2.850  12.416  0.00  0.00     0.168 HD
ATOM     12  H16 <0> d   1      20.148  -1.479   8.694  0.00  0.00     0.185 HD
ENDROOT
BRANCH   1  13
ATOM     13  N1  <0> d   1      20.914  -1.860  11.083  0.00  0.00    -0.233 N 
ATOM     14  H12 <0> d   1      21.862  -1.853  11.294  0.00  0.00     0.174 HD
ATOM     15  H13 <0> d   1      20.390  -2.661  11.238  0.00  0.00     0.174 HD
ENDBRANCH   1  13
TORSDOF 1
ENDMDL
MODEL 9
REMARK VINA RESULT:      -4.5      2.723      4.205
REMARK  1 active torsions:
REMARK  status: ('A' for Active; 'I' for Inactive)
REMARK    1  A    between atoms: N1_1  and  C2_2 
ROOT
ATOM      1  C2  <0> d   1      20.340   1.300  12.138  0.00  0.00     0.701 A 
ATOM      2  N3  <0> d   1      20.414   0.388  11.194  0.00  0.00    -0.045 NA
ATOM      3  C4  <0> d   1      20.033  -0.875  11.421  0.00  0.00     0.179 A 
ATOM      4  C5  <0> d   1      19.546  -1.236  12.682  0.00  0.00     0.143 A 
ATOM      5  N6  <0> d   1      19.238  -2.555  12.632  0.00  0.00    -0.237 NA
ATOM      6  C7  <0> d   1      19.501  -3.015  11.443  0.00  0.00     0.209 A 
ATOM      7  N8  <0> d   1      19.995  -2.012  10.660  0.00  0.00    -0.333 N 
ATOM      8  C9  <0> d   1      19.471  -0.245  13.688  0.00  0.00     0.149 A 
ATOM      9  S10 <0> d   1      18.885  -0.625  15.251  0.00  0.00    -0.057 SA
ATOM     10  N11 <0> d   1      19.879   1.007  13.387  0.00  0.00    -0.178 N 
ATOM     11  H15 <0> d   1      20.268  -2.092   9.732  0.00  0.00     0.168 HD
ATOM     12  H16 <0> d   1      19.838   1.704  14.061  0.00  0.00     0.185 HD
ENDROOT
BRANCH   1  13
ATOM     13  N1  <0> d   1      20.742   2.581  11.858  0.00  0.00    -0.233 N 
ATOM     14  H12 <0> d   1      20.591   3.289  12.505  0.00  0.00     0.174 HD
ATOM     15  H13 <0> d   1      21.181   2.780  11.017  0.00  0.00     0.174 HD
ENDBRANCH   1  13
TORSDOF 1
ENDMDL
