MODEL 1
REMARK VINA RESULT:      -7.8      0.000      0.000
REMARK  3 active torsions:
REMARK  status: ('A' for Active; 'I' for Inactive)
REMARK       I    between atoms: N6_5  and  C7_6 
REMARK    1  A    between atoms: C7_6  and  C9_8 
REMARK    2  A    between atoms: C13_12  and  N15_13 
REMARK    3  A    between atoms: N15_13  and  C17_15 
ROOT
ATOM      1  C9  <0> d   1      18.241   0.952  16.565  0.00  0.00     0.226 C 
ATOM      2  C10 <0> d   1      19.028   1.419  17.719  0.00  0.00     0.068 C 
ATOM      3  N11 <0> d   1      19.636   1.778  18.609  0.00  0.00    -0.197 NA
ENDROOT
BRANCH   1   4
ATOM      4  C7  <0> d   1      19.016   1.198  15.296  0.00  0.00     0.232 C 
ATOM      5  N6  <0> d   1      19.476   0.156  14.575  0.00  0.00    -0.349 N 
ATOM      6  C5  <0> d   1      19.230  -1.224  15.013  0.00  0.00     0.126 C 
ATOM      7  C12 <0> d   1      20.234   0.380  13.335  0.00  0.00     0.151 C 
ATOM      8  C4  <0> d   1      18.580  -1.998  13.863  0.00  0.00     0.026 C 
ATOM      9  C2  <0> d   1      19.458  -1.882  12.614  0.00  0.00     0.007 C 
ATOM     10  C1  <0> d   1      18.829  -2.683  11.472  0.00  0.00     0.012 C 
ATOM     11  C13 <0> d   1      19.571  -0.412  12.204  0.00  0.00     0.107 C 
ATOM     12  O8  <0> d   1      19.225   2.333  14.923  0.00  0.00    -0.272 OA
BRANCH  11  13
ATOM     13  N15 <0> d   1      18.234   0.129  11.944  0.00  0.00    -0.363 N 
ATOM     14  C16 <0> d   1      17.047  -0.658  12.288  0.00  0.00     0.152 C 
BRANCH  13  15
ATOM     15  C17 <0> d   1      18.093   1.381  11.377  0.00  0.00     0.141 A 
ATOM     16  N25 <0> d   1      17.550   2.384  12.062  0.00  0.00    -0.224 NA
ATOM     17  C24 <0> d   1      17.417   3.582  11.525  0.00  0.00     0.237 A 
ATOM     18  N23 <0> d   1      17.797   3.857  10.295  0.00  0.00    -0.223 NA
ATOM     19  C22 <0> d   1      18.347   2.919   9.528  0.00  0.00     0.142 A 
ATOM     20  C18 <0> d   1      18.513   1.627  10.060  0.00  0.00     0.057 A 
ATOM     21  N21 <0> d   1      18.829   2.892   8.248  0.00  0.00    -0.350 N 
ATOM     22  C19 <0> d   1      19.130   0.826   9.004  0.00  0.00     0.036 A 
ATOM     23  C20 <0> d   1      19.295   1.639   7.948  0.00  0.00     0.091 A 
ATOM     24  H42 <0> d   1      18.841   3.650   7.643  0.00  0.00     0.166 HD
ENDBRANCH  13  15
ENDBRANCH  11  13
ENDBRANCH   1   4
TORSDOF 3
ENDMDL
MODEL 2
REMARK VINA RESULT:      -7.5      3.351      6.896
REMARK  3 active torsions:
REMARK  status: ('A' for Active; 'I' for Inactive)
REMARK       I    between atoms: N6_5  and  C7_6 
REMARK    1  A    between atoms: C7_6  and  C9_8 
REMARK    2  A    between atoms: C13_12  and  N15_13 
REMARK    3  A    between atoms: N15_13  and  C17_15 
ROOT
ATOM      1  C9  <0> d   1      19.571  -2.980   6.750  0.00  0.00     0.226 C 
ATOM      2  C10 <0> d   1      19.539  -2.127   5.550  0.00  0.00     0.068 C 
ATOM      3  N11 <0> d   1      19.514  -1.469   4.625  0.00  0.00    -0.197 NA
ENDROOT
BRANCH   1   4
ATOM      4  C7  <0> d   1      18.860  -2.282   7.881  0.00  0.00     0.232 C 
ATOM      5  N6  <0> d   1      18.025  -2.974   8.681  0.00  0.00    -0.349 N 
ATOM      6  C5  <0> d   1      17.797  -4.408   8.462  0.00  0.00     0.126 C 
ATOM      7  C12 <0> d   1      17.325  -2.307   9.788  0.00  0.00     0.151 C 
ATOM      8  C4  <0> d   1      18.068  -5.156   9.772  0.00  0.00     0.026 C 
ATOM      9  C2  <0> d   1      17.217  -4.547  10.889  0.00  0.00     0.007 C 
ATOM     10  C1  <0> d   1      17.461  -5.314  12.191  0.00  0.00     0.012 C 
ATOM     11  C13 <0> d   1      17.603  -3.078  11.082  0.00  0.00     0.107 C 
ATOM     12  O8  <0> d   1      19.041  -1.098   8.073  0.00  0.00    -0.272 OA
BRANCH  11  13
ATOM     13  N15 <0> d   1      19.027  -2.985  11.412  0.00  0.00    -0.363 N 
ATOM     14  C16 <0> d   1      19.872  -4.181  11.354  0.00  0.00     0.152 C 
BRANCH  13  15
ATOM     15  C17 <0> d   1      19.574  -1.769  11.776  0.00  0.00     0.141 A 
ATOM     16  N25 <0> d   1      20.377  -1.106  10.948  0.00  0.00    -0.224 NA
ATOM     17  C24 <0> d   1      20.898   0.058  11.291  0.00  0.00     0.237 A 
ATOM     18  N23 <0> d   1      20.670   0.624  12.457  0.00  0.00    -0.223 NA
ATOM     19  C22 <0> d   1      19.884   0.036  13.356  0.00  0.00     0.142 A 
ATOM     20  C18 <0> d   1      19.303  -1.205  13.032  0.00  0.00     0.057 A 
ATOM     21  N21 <0> d   1      19.467   0.359  14.618  0.00  0.00    -0.350 N 
ATOM     22  C19 <0> d   1      18.508  -1.598  14.194  0.00  0.00     0.036 A 
ATOM     23  C20 <0> d   1      18.645  -0.623  15.107  0.00  0.00     0.091 A 
ATOM     24  H42 <0> d   1      19.715   1.166  15.095  0.00  0.00     0.166 HD
ENDBRANCH  13  15
ENDBRANCH  11  13
ENDBRANCH   1   4
TORSDOF 3
ENDMDL
MODEL 3
REMARK VINA RESULT:      -7.5      2.495      5.010
REMARK  3 active torsions:
REMARK  status: ('A' for Active; 'I' for Inactive)
REMARK       I    between atoms: N6_5  and  C7_6 
REMARK    1  A    between atoms: C7_6  and  C9_8 
REMARK    2  A    between atoms: C13_12  and  N15_13 
REMARK    3  A    between atoms: N15_13  and  C17_15 
ROOT
ATOM      1  C9  <0> d   1      17.378   3.821  11.713  0.00  0.00     0.226 C 
ATOM      2  C10 <0> d   1      17.357   4.921  10.734  0.00  0.00     0.068 C 
ATOM      3  N11 <0> d   1      17.341   5.770   9.979  0.00  0.00    -0.197 NA
ENDROOT
BRANCH   1   4
ATOM      4  C7  <0> d   1      18.428   2.815  11.316  0.00  0.00     0.232 C 
ATOM      5  N6  <0> d   1      19.102   2.136  12.264  0.00  0.00    -0.349 N 
ATOM      6  C5  <0> d   1      18.826   2.364  13.688  0.00  0.00     0.126 C 
ATOM      7  C12 <0> d   1      20.129   1.151  11.892  0.00  0.00     0.151 C 
ATOM      8  C4  <0> d   1      18.518   1.019  14.353  0.00  0.00     0.026 C 
ATOM      9  C2  <0> d   1      19.669   0.046  14.084  0.00  0.00     0.007 C 
ATOM     10  C1  <0> d   1      19.380  -1.288  14.776  0.00  0.00     0.012 C 
ATOM     11  C13 <0> d   1      19.805  -0.180  12.576  0.00  0.00     0.107 C 
ATOM     12  O8  <0> d   1      18.664   2.617  10.142  0.00  0.00    -0.272 OA
BRANCH  11  13
ATOM     13  N15 <0> d   1      18.548  -0.712  12.045  0.00  0.00    -0.363 N 
ATOM     14  C16 <0> d   1      17.315  -0.594  12.828  0.00  0.00     0.152 C 
BRANCH  13  15
ATOM     15  C17 <0> d   1      18.524  -1.324  10.806  0.00  0.00     0.141 A 
ATOM     16  N25 <0> d   1      17.997  -0.708   9.751  0.00  0.00    -0.224 NA
ATOM     17  C24 <0> d   1      17.977  -1.287   8.565  0.00  0.00     0.237 A 
ATOM     18  N23 <0> d   1      18.459  -2.494   8.354  0.00  0.00    -0.223 NA
ATOM     19  C22 <0> d   1      19.002  -3.192   9.348  0.00  0.00     0.142 A 
ATOM     20  C18 <0> d   1      19.050  -2.613  10.630  0.00  0.00     0.057 A 
ATOM     21  N21 <0> d   1      19.571  -4.433   9.446  0.00  0.00    -0.350 N 
ATOM     22  C19 <0> d   1      19.689  -3.599  11.500  0.00  0.00     0.036 A 
ATOM     23  C20 <0> d   1      19.978  -4.663  10.734  0.00  0.00     0.091 A 
ATOM     24  H42 <0> d   1      19.672  -5.057   8.710  0.00  0.00     0.166 HD
ENDBRANCH  13  15
ENDBRANCH  11  13
ENDBRANCH   1   4
TORSDOF 3
ENDMDL
MODEL 4
REMARK VINA RESULT:      -7.5      2.548      5.098
REMARK  3 active torsions:
REMARK  status: ('A' for Active; 'I' for Inactive)
REMARK       I    between atoms: N6_5  and  C7_6 
REMARK    1  A    between atoms: C7_6  and  C9_8 
REMARK    2  A    between atoms: C13_12  and  N15_13 
REMARK    3  A    between atoms: N15_13  and  C17_15 
ROOT
ATOM      1  C9  <0> d   1      17.395  -3.830  10.944  0.00  0.00     0.226 C 
ATOM      2  C10 <0> d   1      17.376  -5.004  11.833  0.00  0.00     0.068 C 
ATOM      3  N11 <0> d   1      17.362  -5.910  12.518  0.00  0.00    -0.197 NA
ENDROOT
BRANCH   1   4
ATOM      4  C7  <0> d   1      18.408  -2.835  11.448  0.00  0.00     0.232 C 
ATOM      5  N6  <0> d   1      19.096  -2.073  10.574  0.00  0.00    -0.349 N 
ATOM      6  C5  <0> d   1      18.870  -2.202   9.129  0.00  0.00     0.126 C 
ATOM      7  C12 <0> d   1      20.087  -1.098  11.051  0.00  0.00     0.151 C 
ATOM      8  C4  <0> d   1      18.552  -0.818   8.554  0.00  0.00     0.026 C 
ATOM      9  C2  <0> d   1      19.671   0.156   8.931  0.00  0.00     0.007 C 
ATOM     10  C1  <0> d   1      19.373   1.532   8.329  0.00  0.00     0.012 C 
ATOM     11  C13 <0> d   1      19.755   0.273  10.455  0.00  0.00     0.107 C 
ATOM     12  O8  <0> d   1      18.603  -2.718  12.639  0.00  0.00    -0.272 OA
BRANCH  11  13
ATOM     13  N15 <0> d   1      18.469   0.738  10.982  0.00  0.00    -0.363 N 
ATOM     14  C16 <0> d   1      17.262   0.640  10.157  0.00  0.00     0.152 C 
BRANCH  13  15
ATOM     15  C17 <0> d   1      18.395   1.268  12.256  0.00  0.00     0.141 A 
ATOM     16  N25 <0> d   1      17.831   0.583  13.248  0.00  0.00    -0.224 NA
ATOM     17  C24 <0> d   1      17.762   1.083  14.468  0.00  0.00     0.237 A 
ATOM     18  N23 <0> d   1      18.229   2.275  14.776  0.00  0.00    -0.223 NA
ATOM     19  C22 <0> d   1      18.807   3.038  13.851  0.00  0.00     0.142 A 
ATOM     20  C18 <0> d   1      18.907   2.544  12.537  0.00  0.00     0.057 A 
ATOM     21  N21 <0> d   1      19.373   4.284  13.857  0.00  0.00    -0.350 N 
ATOM     22  C19 <0> d   1      19.574   3.586  11.759  0.00  0.00     0.036 A 
ATOM     23  C20 <0> d   1      19.828   4.599  12.603  0.00  0.00     0.091 A 
ATOM     24  H42 <0> d   1      19.443   4.858  14.635  0.00  0.00     0.166 HD
ENDBRANCH  13  15
ENDBRANCH  11  13
ENDBRANCH   1   4
TORSDOF 3
ENDMDL
MODEL 5
REMARK VINA RESULT:      -7.5      1.687      5.842
REMARK  3 active torsions:
REMARK  status: ('A' for Active; 'I' for Inactive)
REMARK       I    between atoms: N6_5  and  C7_6 
REMARK    1  A    between atoms: C7_6  and  C9_8 
REMARK    2  A    between atoms: C13_12  and  N15_13 
REMARK    3  A    between atoms: N15_13  and  C17_15 
ROOT
ATOM      1  C9  <0> d   1      18.196   3.251   9.936  0.00  0.00     0.226 C 
ATOM      2  C10 <0> d   1      17.733   4.649   9.952  0.00  0.00     0.068 C 
ATOM      3  N11 <0> d   1      17.375   5.727   9.964  0.00  0.00    -0.197 NA
ENDROOT
BRANCH   1   4
ATOM      4  C7  <0> d   1      17.609   2.515  11.113  0.00  0.00     0.232 C 
ATOM      5  N6  <0> d   1      17.589   1.167  11.121  0.00  0.00    -0.349 N 
ATOM      6  C5  <0> d   1      18.133   0.403   9.991  0.00  0.00     0.126 C 
ATOM      7  C12 <0> d   1      17.020   0.435  12.262  0.00  0.00     0.151 C 
ATOM      8  C4  <0> d   1      19.159  -0.602  10.524  0.00  0.00     0.026 C 
ATOM      9  C2  <0> d   1      18.508  -1.463  11.609  0.00  0.00     0.007 C 
ATOM     10  C1  <0> d   1      19.520  -2.491  12.120  0.00  0.00     0.012 C 
ATOM     11  C13 <0> d   1      18.059  -0.570  12.769  0.00  0.00     0.107 C 
ATOM     12  O8  <0> d   1      17.158   3.134  12.053  0.00  0.00    -0.272 OA
BRANCH  11  13
ATOM     13  N15 <0> d   1      19.215   0.151  13.308  0.00  0.00    -0.363 N 
ATOM     14  C16 <0> d   1      20.469   0.194  12.552  0.00  0.00     0.152 C 
BRANCH  13  15
ATOM     15  C17 <0> d   1      19.123   0.790  14.530  0.00  0.00     0.141 A 
ATOM     16  N25 <0> d   1      19.045   2.116  14.602  0.00  0.00    -0.224 NA
ATOM     17  C24 <0> d   1      18.952   2.731  15.767  0.00  0.00     0.237 A 
ATOM     18  N23 <0> d   1      18.941   2.085  16.913  0.00  0.00    -0.223 NA
ATOM     19  C22 <0> d   1      19.019   0.756  16.946  0.00  0.00     0.142 A 
ATOM     20  C18 <0> d   1      19.115   0.058  15.728  0.00  0.00     0.057 A 
ATOM     21  N21 <0> d   1      19.032  -0.177  17.947  0.00  0.00    -0.350 N 
ATOM     22  C19 <0> d   1      19.186  -1.360  16.074  0.00  0.00     0.036 A 
ATOM     23  C20 <0> d   1      19.130  -1.436  17.414  0.00  0.00     0.091 A 
ATOM     24  H42 <0> d   1      18.977   0.025  18.894  0.00  0.00     0.166 HD
ENDBRANCH  13  15
ENDBRANCH  11  13
ENDBRANCH   1   4
TORSDOF 3
ENDMDL
MODEL 6
REMARK VINA RESULT:      -7.4      3.229      5.047
REMARK  3 active torsions:
REMARK  status: ('A' for Active; 'I' for Inactive)
REMARK       I    between atoms: N6_5  and  C7_6 
REMARK    1  A    between atoms: C7_6  and  C9_8 
REMARK    2  A    between atoms: C13_12  and  N15_13 
REMARK    3  A    between atoms: N15_13  and  C17_15 
ROOT
ATOM      1  C9  <0> d   1      19.333  -1.283  13.553  0.00  0.00     0.226 C 
ATOM      2  C10 <0> d   1      18.577  -1.276  14.816  0.00  0.00     0.068 C 
ATOM      3  N11 <0> d   1      17.994  -1.270  15.791  0.00  0.00    -0.197 NA
ENDROOT
BRANCH   1   4
ATOM      4  C7  <0> d   1      18.372  -1.347  12.394  0.00  0.00     0.232 C 
ATOM      5  N6  <0> d   1      18.071  -0.227  11.706  0.00  0.00    -0.349 N 
ATOM      6  C5  <0> d   1      18.670   1.061  12.075  0.00  0.00     0.126 C 
ATOM      7  C12 <0> d   1      17.135  -0.274  10.573  0.00  0.00     0.151 C 
ATOM      8  C4  <0> d   1      19.330   1.672  10.834  0.00  0.00     0.026 C 
ATOM      9  C2  <0> d   1      18.301   1.757   9.704  0.00  0.00     0.007 C 
ATOM     10  C1  <0> d   1      18.947   2.398   8.473  0.00  0.00     0.012 C 
ATOM     11  C13 <0> d   1      17.813   0.350   9.349  0.00  0.00     0.107 C 
ATOM     12  O8  <0> d   1      17.871  -2.406  12.078  0.00  0.00    -0.272 OA
BRANCH  11  13
ATOM     13  N15 <0> d   1      18.952  -0.476   8.945  0.00  0.00    -0.363 N 
ATOM     14  C16 <0> d   1      20.269  -0.253   9.549  0.00  0.00     0.152 C 
BRANCH  13  15
ATOM     15  C17 <0> d   1      18.786  -1.466   7.995  0.00  0.00     0.141 A 
ATOM     16  N25 <0> d   1      18.562  -2.727   8.355  0.00  0.00    -0.224 NA
ATOM     17  C24 <0> d   1      18.398  -3.675   7.451  0.00  0.00     0.237 A 
ATOM     18  N23 <0> d   1      18.455  -3.441   6.157  0.00  0.00    -0.223 NA
ATOM     19  C22 <0> d   1      18.680  -2.213   5.698  0.00  0.00     0.142 A 
ATOM     20  C18 <0> d   1      18.856  -1.169   6.625  0.00  0.00     0.057 A 
ATOM     21  N21 <0> d   1      18.794  -1.665   4.449  0.00  0.00    -0.350 N 
ATOM     22  C19 <0> d   1      19.084   0.042   5.839  0.00  0.00     0.036 A 
ATOM     23  C20 <0> d   1      19.033  -0.319   4.546  0.00  0.00     0.091 A 
ATOM     24  H42 <0> d   1      18.715  -2.158   3.617  0.00  0.00     0.166 HD
ENDBRANCH  13  15
ENDBRANCH  11  13
ENDBRANCH   1   4
TORSDOF 3
ENDMDL
MODEL 7
REMARK VINA RESULT:      -7.4      1.688      5.732
REMARK  3 active torsions:
REMARK  status: ('A' for Active; 'I' for Inactive)
REMARK       I    between atoms: N6_5  and  C7_6 
REMARK    1  A    between atoms: C7_6  and  C9_8 
REMARK    2  A    between atoms: C13_12  and  N15_13 
REMARK    3  A    between atoms: N15_13  and  C17_15 
ROOT
ATOM      1  C9  <0> d   1      18.431   3.142   9.923  0.00  0.00     0.226 C 
ATOM      2  C10 <0> d   1      17.815   4.479   9.962  0.00  0.00     0.068 C 
ATOM      3  N11 <0> d   1      17.340   5.510   9.991  0.00  0.00    -0.197 NA
ENDROOT
BRANCH   1   4
ATOM      4  C7  <0> d   1      17.738   2.242  10.914  0.00  0.00     0.232 C 
ATOM      5  N6  <0> d   1      17.791   0.904  10.760  0.00  0.00    -0.349 N 
ATOM      6  C5  <0> d   1      18.520   0.309   9.632  0.00  0.00     0.126 C 
ATOM      7  C12 <0> d   1      17.121   0.013  11.718  0.00  0.00     0.151 C 
ATOM      8  C4  <0> d   1      19.522  -0.714  10.177  0.00  0.00     0.026 C 
ATOM      9  C2  <0> d   1      18.785  -1.728  11.054  0.00  0.00     0.007 C 
ATOM     10  C1  <0> d   1      19.778  -2.771  11.573  0.00  0.00     0.012 C 
ATOM     11  C13 <0> d   1      18.139  -1.005  12.239  0.00  0.00     0.107 C 
ATOM     12  O8  <0> d   1      17.134   2.721  11.850  0.00  0.00    -0.272 OA
BRANCH  11  13
ATOM     13  N15 <0> d   1      19.173  -0.313  13.012  0.00  0.00    -0.363 N 
ATOM     14  C16 <0> d   1      20.284   0.348  12.322  0.00  0.00     0.152 C 
BRANCH  13  15
ATOM     15  C17 <0> d   1      19.101  -0.282  14.392  0.00  0.00     0.141 A 
ATOM     16  N25 <0> d   1      19.142  -1.406  15.103  0.00  0.00    -0.224 NA
ATOM     17  C24 <0> d   1      19.079  -1.381  16.421  0.00  0.00     0.237 A 
ATOM     18  N23 <0> d   1      18.961  -0.263  17.107  0.00  0.00    -0.223 NA
ATOM     19  C22 <0> d   1      18.906   0.913  16.486  0.00  0.00     0.142 A 
ATOM     20  C18 <0> d   1      18.976   0.935  15.080  0.00  0.00     0.057 A 
ATOM     21  N21 <0> d   1      18.789   2.210  16.903  0.00  0.00    -0.350 N 
ATOM     22  C19 <0> d   1      18.891   2.341  14.689  0.00  0.00     0.036 A 
ATOM     23  C20 <0> d   1      18.782   3.053  15.823  0.00  0.00     0.091 A 
ATOM     24  H42 <0> d   1      18.722   2.491  17.829  0.00  0.00     0.166 HD
ENDBRANCH  13  15
ENDBRANCH  11  13
ENDBRANCH   1   4
TORSDOF 3
ENDMDL
MODEL 8
REMARK VINA RESULT:      -7.3      2.275      4.705
REMARK  3 active torsions:
REMARK  status: ('A' for Active; 'I' for Inactive)
REMARK       I    between atoms: N6_5  and  C7_6 
REMARK    1  A    between atoms: C7_6  and  C9_8 
REMARK    2  A    between atoms: C13_12  and  N15_13 
REMARK    3  A    between atoms: N15_13  and  C17_15 
ROOT
ATOM      1  C9  <0> d   1      19.890  -3.324  11.469  0.00  0.00     0.226 C 
ATOM      2  C10 <0> d   1      19.732  -4.422  10.501  0.00  0.00     0.068 C 
ATOM      3  N11 <0> d   1      19.610  -5.269   9.754  0.00  0.00    -0.197 NA
ENDROOT
BRANCH   1   4
ATOM      4  C7  <0> d   1      18.821  -2.288  11.233  0.00  0.00     0.232 C 
ATOM      5  N6  <0> d   1      18.207  -1.703  12.280  0.00  0.00    -0.349 N 
ATOM      6  C5  <0> d   1      18.568  -2.064  13.657  0.00  0.00     0.126 C 
ATOM      7  C12 <0> d   1      17.163  -0.690  12.064  0.00  0.00     0.151 C 
ATOM      8  C4  <0> d   1      18.919  -0.787  14.426  0.00  0.00     0.026 C 
ATOM      9  C2  <0> d   1      17.757   0.204  14.320  0.00  0.00     0.007 C 
ATOM     10  C1  <0> d   1      18.091   1.468  15.115  0.00  0.00     0.012 C 
ATOM     11  C13 <0> d   1      17.531   0.571  12.851  0.00  0.00     0.107 C 
ATOM     12  O8  <0> d   1      18.515  -1.980  10.100  0.00  0.00    -0.272 OA
BRANCH  11  13
ATOM     13  N15 <0> d   1      18.755   1.154  12.297  0.00  0.00    -0.363 N 
ATOM     14  C16 <0> d   1      20.026   1.002  13.011  0.00  0.00     0.152 C 
BRANCH  13  15
ATOM     15  C17 <0> d   1      18.713   1.847  11.102  0.00  0.00     0.141 A 
ATOM     16  N25 <0> d   1      19.253   1.338   9.998  0.00  0.00    -0.224 NA
ATOM     17  C24 <0> d   1      19.210   1.994   8.854  0.00  0.00     0.237 A 
ATOM     18  N23 <0> d   1      18.650   3.179   8.734  0.00  0.00    -0.223 NA
ATOM     19  C22 <0> d   1      18.087   3.774   9.783  0.00  0.00     0.142 A 
ATOM     20  C18 <0> d   1      18.104   3.109  11.023  0.00  0.00     0.057 A 
ATOM     21  N21 <0> d   1      17.444   4.967   9.974  0.00  0.00    -0.350 N 
ATOM     22  C19 <0> d   1      17.425   3.992  11.969  0.00  0.00     0.036 A 
ATOM     23  C20 <0> d   1      17.053   5.085  11.282  0.00  0.00     0.091 A 
ATOM     24  H42 <0> d   1      17.288   5.630   9.284  0.00  0.00     0.166 HD
ENDBRANCH  13  15
ENDBRANCH  11  13
ENDBRANCH   1   4
TORSDOF 3
ENDMDL
MODEL 9
REMARK VINA RESULT:      -7.3      2.406      3.951
REMARK  3 active torsions:
REMARK  status: ('A' for Active; 'I' for Inactive)
REMARK       I    between atoms: N6_5  and  C7_6 
REMARK    1  A    between atoms: C7_6  and  C9_8 
REMARK    2  A    between atoms: C13_12  and  N15_13 
REMARK    3  A    between atoms: N15_13  and  C17_15 
ROOT
ATOM      1  C9  <0> d   1      18.554   3.426  12.961  0.00  0.00     0.226 C 
ATOM      2  C10 <0> d   1      17.483   4.000  12.130  0.00  0.00     0.068 C 
ATOM      3  N11 <0> d   1      16.657   4.443  11.489  0.00  0.00    -0.197 NA
ENDROOT
BRANCH   1   4
ATOM      4  C7  <0> d   1      19.414   2.521  12.117  0.00  0.00     0.232 C 
ATOM      5  N6  <0> d   1      19.600   1.236  12.480  0.00  0.00    -0.349 N 
ATOM      6  C5  <0> d   1      18.971   0.704  13.696  0.00  0.00     0.126 C 
ATOM      7  C12 <0> d   1      20.436   0.342  11.666  0.00  0.00     0.151 C 
ATOM      8  C4  <0> d   1      18.178  -0.555  13.331  0.00  0.00     0.026 C 
ATOM      9  C2  <0> d   1      19.101  -1.545  12.615  0.00  0.00     0.007 C 
ATOM     10  C1  <0> d   1      18.321  -2.818  12.279  0.00  0.00     0.012 C 
ATOM     11  C13 <0> d   1      19.626  -0.912  11.324  0.00  0.00     0.107 C 
ATOM     12  O8  <0> d   1      19.938   2.949  11.110  0.00  0.00    -0.272 OA
BRANCH  11  13
ATOM     13  N15 <0> d   1      18.498  -0.547  10.463  0.00  0.00    -0.363 N 
ATOM     14  C16 <0> d   1      17.149  -0.449  11.027  0.00  0.00     0.152 C 
BRANCH  13  15
ATOM     15  C17 <0> d   1      18.705  -0.295   9.120  0.00  0.00     0.141 A 
ATOM     16  N25 <0> d   1      18.695   0.950   8.650  0.00  0.00    -0.224 NA
ATOM     17  C24 <0> d   1      18.898   1.196   7.369  0.00  0.00     0.237 A 
ATOM     18  N23 <0> d   1      19.109   0.243   6.487  0.00  0.00    -0.223 NA
ATOM     19  C22 <0> d   1      19.133  -1.035   6.858  0.00  0.00     0.142 A 
ATOM     20  C18 <0> d   1      18.926  -1.345   8.216  0.00  0.00     0.057 A 
ATOM     21  N21 <0> d   1      19.321  -2.219   6.200  0.00  0.00    -0.350 N 
ATOM     22  C19 <0> d   1      19.005  -2.800   8.319  0.00  0.00     0.036 A 
ATOM     23  C20 <0> d   1      19.244  -3.265   7.082  0.00  0.00     0.091 A 
ATOM     24  H42 <0> d   1      19.487  -2.305   5.248  0.00  0.00     0.166 HD
ENDBRANCH  13  15
ENDBRANCH  11  13
ENDBRANCH   1   4
TORSDOF 3
ENDMDL
