MODEL 1
REMARK VINA RESULT:      -6.5      0.000      0.000
REMARK  3 active torsions:
REMARK  status: ('A' for Active; 'I' for Inactive)
REMARK    1  A    between atoms: N4_4  and  N5_5 
REMARK    2  A    between atoms: C6_6  and  C7_7 
REMARK    3  A    between atoms: C10_10  and  N11_11 
ROOT
ATOM      1  N5  ZIN A   1      18.374   1.432  12.748  0.00  0.00    -0.177 NA
ATOM      2  C6  ZIN A   1      19.271   0.592  13.280  0.00  0.00     0.176 C 
ENDROOT
BRANCH   2   3
ATOM      3  C7  ZIN A   1      19.109   0.138  14.574  0.00  0.00     0.097 A 
ATOM      4  O14 ZIN A   1      19.234   0.869  15.706  0.00  0.00    -0.287 OA
ATOM      5  C10 ZIN A   1      19.003   0.089  16.766  0.00  0.00     0.215 A 
ATOM      6  C9  ZIN A   1      18.720  -1.215  16.351  0.00  0.00     0.065 A 
ATOM      7  C8  ZIN A   1      18.774  -1.238  14.989  0.00  0.00     0.043 A 
BRANCH   5   8
ATOM      8  N11 ZIN A   1      19.045   0.542  18.182  0.00  0.00    -0.090 N 
ATOM      9  O12 ZIN A   1      18.134   0.122  19.035  0.00  0.00    -0.530 OA
ATOM     10  O13 ZIN A   1      19.993   1.364  18.583  0.00  0.00    -0.530 OA
ENDBRANCH   5   8
ENDBRANCH   2   3
BRANCH   1  11
ATOM     11  N4  ZIN A   1      18.471   1.780  11.509  0.00  0.00    -0.209 N 
ATOM     12  C3  ZIN A   1      19.315   1.147  10.481  0.00  0.00     0.261 A 
ATOM     13  C2  ZIN A   1      19.029   1.960   9.235  0.00  0.00     0.267 A 
ATOM     14  O1  ZIN A   1      19.505   1.801   8.131  0.00  0.00    -0.269 OA
ATOM     15  N17 ZIN A   1      18.141   2.901   9.610  0.00  0.00    -0.155 NA
ATOM     16  C15 ZIN A   1      17.823   2.791  10.905  0.00  0.00     0.368 A 
ATOM     17  O16 ZIN A   1      17.039   3.524  11.473  0.00  0.00    -0.243 OA
ENDBRANCH   1  11
TORSDOF 3
ENDMDL
MODEL 2
REMARK VINA RESULT:      -6.5      4.521      7.991
REMARK  3 active torsions:
REMARK  status: ('A' for Active; 'I' for Inactive)
REMARK    1  A    between atoms: N4_4  and  N5_5 
REMARK    2  A    between atoms: C6_6  and  C7_7 
REMARK    3  A    between atoms: C10_10  and  N11_11 
ROOT
ATOM      1  N5  ZIN A   1      18.118   2.336  10.131  0.00  0.00    -0.177 NA
ATOM      2  C6  ZIN A   1      18.983   2.083   9.141  0.00  0.00     0.176 C 
ENDROOT
BRANCH   2   3
ATOM      3  C7  ZIN A   1      18.661   1.167   8.159  0.00  0.00     0.097 A 
ATOM      4  O14 ZIN A   1      19.243   1.051   6.943  0.00  0.00    -0.287 OA
ATOM      5  C10 ZIN A   1      18.668   0.051   6.269  0.00  0.00     0.215 A 
ATOM      6  C9  ZIN A   1      17.657  -0.530   7.040  0.00  0.00     0.065 A 
ATOM      7  C8  ZIN A   1      17.612   0.131   8.231  0.00  0.00     0.043 A 
BRANCH   5   8
ATOM      8  N11 ZIN A   1      19.045  -0.378   4.896  0.00  0.00    -0.090 N 
ATOM      9  O12 ZIN A   1      19.986  -1.285   4.725  0.00  0.00    -0.530 OA
ATOM     10  O13 ZIN A   1      18.440   0.148   3.851  0.00  0.00    -0.530 OA
ENDBRANCH   5   8
ENDBRANCH   2   3
BRANCH   1  11
ATOM     11  N4  ZIN A   1      18.377   3.260  10.993  0.00  0.00    -0.209 N 
ATOM     12  C3  ZIN A   1      19.641   3.454  11.723  0.00  0.00     0.261 A 
ATOM     13  C2  ZIN A   1      19.372   4.672  12.584  0.00  0.00     0.267 A 
ATOM     14  O1  ZIN A   1      20.137   5.204  13.360  0.00  0.00    -0.269 OA
ATOM     15  N17 ZIN A   1      18.105   5.039  12.310  0.00  0.00    -0.155 NA
ATOM     16  C15 ZIN A   1      17.544   4.234  11.400  0.00  0.00     0.368 A 
ATOM     17  O16 ZIN A   1      16.408   4.367  10.990  0.00  0.00    -0.243 OA
ENDBRANCH   1  11
TORSDOF 3
ENDMDL
MODEL 3
REMARK VINA RESULT:      -6.3      1.145      2.018
REMARK  3 active torsions:
REMARK  status: ('A' for Active; 'I' for Inactive)
REMARK    1  A    between atoms: N4_4  and  N5_5 
REMARK    2  A    between atoms: C6_6  and  C7_7 
REMARK    3  A    between atoms: C10_10  and  N11_11 
ROOT
ATOM      1  N5  ZIN A   1      18.917   2.071  12.932  0.00  0.00    -0.177 NA
ATOM      2  C6  ZIN A   1      18.089   1.134  13.411  0.00  0.00     0.176 C 
ENDROOT
BRANCH   2   3
ATOM      3  C7  ZIN A   1      18.379   0.499  14.602  0.00  0.00     0.097 A 
ATOM      4  O14 ZIN A   1      18.557   1.088  15.808  0.00  0.00    -0.287 OA
ATOM      5  C10 ZIN A   1      18.820   0.152  16.725  0.00  0.00     0.215 A 
ATOM      6  C9  ZIN A   1      18.832  -1.113  16.131  0.00  0.00     0.065 A 
ATOM      7  C8  ZIN A   1      18.562  -0.952  14.805  0.00  0.00     0.043 A 
BRANCH   5   8
ATOM      8  N11 ZIN A   1      19.068   0.420  18.167  0.00  0.00    -0.090 N 
ATOM      9  O12 ZIN A   1      19.969   1.311  18.524  0.00  0.00    -0.530 OA
ATOM     10  O13 ZIN A   1      18.388  -0.235  19.085  0.00  0.00    -0.530 OA
ENDBRANCH   5   8
ENDBRANCH   2   3
BRANCH   1  11
ATOM     11  N4  ZIN A   1      18.598   2.732  11.872  0.00  0.00    -0.209 N 
ATOM     12  C3  ZIN A   1      17.849   3.999  11.817  0.00  0.00     0.261 A 
ATOM     13  C2  ZIN A   1      17.772   4.303  10.334  0.00  0.00     0.267 A 
ATOM     14  O1  ZIN A   1      17.240   5.258   9.809  0.00  0.00    -0.269 OA
ATOM     15  N17 ZIN A   1      18.411   3.288   9.720  0.00  0.00    -0.155 NA
ATOM     16  C15 ZIN A   1      18.884   2.398  10.600  0.00  0.00     0.368 A 
ATOM     17  O16 ZIN A   1      19.499   1.399  10.287  0.00  0.00    -0.243 OA
ENDBRANCH   1  11
TORSDOF 3
ENDMDL
MODEL 4
REMARK VINA RESULT:      -6.2      4.640      7.281
REMARK  3 active torsions:
REMARK  status: ('A' for Active; 'I' for Inactive)
REMARK    1  A    between atoms: N4_4  and  N5_5 
REMARK    2  A    between atoms: C6_6  and  C7_7 
REMARK    3  A    between atoms: C10_10  and  N11_11 
ROOT
ATOM      1  N5  ZIN A   1      19.126  -1.183   7.128  0.00  0.00    -0.177 NA
ATOM      2  C6  ZIN A   1      18.083  -0.527   7.651  0.00  0.00     0.176 C 
ENDROOT
BRANCH   2   3
ATOM      3  C7  ZIN A   1      18.292   0.581   8.447  0.00  0.00     0.097 A 
ATOM      4  O14 ZIN A   1      17.558   0.952   9.522  0.00  0.00    -0.287 OA
ATOM      5  C10 ZIN A   1      18.063   2.075  10.039  0.00  0.00     0.215 A 
ATOM      6  C9  ZIN A   1      19.169   2.492   9.294  0.00  0.00     0.065 A 
ATOM      7  C8  ZIN A   1      19.355   1.593   8.287  0.00  0.00     0.043 A 
BRANCH   5   8
ATOM      8  N11 ZIN A   1      17.523   2.781  11.232  0.00  0.00    -0.090 N 
ATOM      9  O12 ZIN A   1      17.825   2.355  12.441  0.00  0.00    -0.530 OA
ATOM     10  O13 ZIN A   1      16.744   3.832  11.079  0.00  0.00    -0.530 OA
ENDBRANCH   5   8
ENDBRANCH   2   3
BRANCH   1  11
ATOM     11  N4  ZIN A   1      18.930  -2.158   6.306  0.00  0.00    -0.209 N 
ATOM     12  C3  ZIN A   1      18.350  -3.473   6.624  0.00  0.00     0.261 A 
ATOM     13  C2  ZIN A   1      18.362  -4.200   5.294  0.00  0.00     0.267 A 
ATOM     14  O1  ZIN A   1      17.975  -5.327   5.072  0.00  0.00    -0.269 OA
ATOM     15  N17 ZIN A   1      18.898  -3.334   4.412  0.00  0.00    -0.155 NA
ATOM     16  C15 ZIN A   1      19.215  -2.171   4.992  0.00  0.00     0.368 A 
ATOM     17  O16 ZIN A   1      19.709  -1.233   4.399  0.00  0.00    -0.243 OA
ENDBRANCH   1  11
TORSDOF 3
ENDMDL
MODEL 5
REMARK VINA RESULT:      -6.2      4.273      5.771
REMARK  3 active torsions:
REMARK  status: ('A' for Active; 'I' for Inactive)
REMARK    1  A    between atoms: N4_4  and  N5_5 
REMARK    2  A    between atoms: C6_6  and  C7_7 
REMARK    3  A    between atoms: C10_10  and  N11_11 
ROOT
ATOM      1  N5  ZIN A   1      18.464   1.039   8.220  0.00  0.00    -0.177 NA
ATOM      2  C6  ZIN A   1      19.408   1.759   8.837  0.00  0.00     0.176 C 
ENDROOT
BRANCH   2   3
ATOM      3  C7  ZIN A   1      19.056   2.667   9.816  0.00  0.00     0.097 A 
ATOM      4  O14 ZIN A   1      19.600   2.773  11.051  0.00  0.00    -0.287 OA
ATOM      5  C10 ZIN A   1      19.004   3.768  11.715  0.00  0.00     0.215 A 
ATOM      6  C9  ZIN A   1      18.018   4.355  10.918  0.00  0.00     0.065 A 
ATOM      7  C8  ZIN A   1      18.009   3.703   9.721  0.00  0.00     0.043 A 
BRANCH   5   8
ATOM      8  N11 ZIN A   1      19.339   4.186  13.102  0.00  0.00    -0.090 N 
ATOM      9  O12 ZIN A   1      20.032   5.287  13.309  0.00  0.00    -0.530 OA
ATOM     10  O13 ZIN A   1      18.943   3.455  14.124  0.00  0.00    -0.530 OA
ENDBRANCH   5   8
ENDBRANCH   2   3
BRANCH   1  11
ATOM     11  N4  ZIN A   1      18.799   0.123   7.376  0.00  0.00    -0.209 N 
ATOM     12  C3  ZIN A   1      19.001   0.292   5.927  0.00  0.00     0.261 A 
ATOM     13  C2  ZIN A   1      19.377  -1.098   5.454  0.00  0.00     0.267 A 
ATOM     14  O1  ZIN A   1      19.636  -1.441   4.320  0.00  0.00    -0.269 OA
ATOM     15  N17 ZIN A   1      19.358  -1.874   6.555  0.00  0.00    -0.155 NA
ATOM     16  C15 ZIN A   1      19.032  -1.174   7.648  0.00  0.00     0.368 A 
ATOM     17  O16 ZIN A   1      18.953  -1.655   8.760  0.00  0.00    -0.243 OA
ENDBRANCH   1  11
TORSDOF 3
ENDMDL
MODEL 6
REMARK VINA RESULT:      -6.2      1.606      2.094
REMARK  3 active torsions:
REMARK  status: ('A' for Active; 'I' for Inactive)
REMARK    1  A    between atoms: N4_4  and  N5_5 
REMARK    2  A    between atoms: C6_6  and  C7_7 
REMARK    3  A    between atoms: C10_10  and  N11_11 
ROOT
ATOM      1  N5  ZIN A   1      18.738   0.059  12.277  0.00  0.00    -0.177 NA
ATOM      2  C6  ZIN A   1      19.634   0.352  13.228  0.00  0.00     0.176 C 
ENDROOT
BRANCH   2   3
ATOM      3  C7  ZIN A   1      19.352   0.077  14.551  0.00  0.00     0.097 A 
ATOM      4  O14 ZIN A   1      19.266   0.974  15.560  0.00  0.00    -0.287 OA
ATOM      5  C10 ZIN A   1      18.974   0.337  16.698  0.00  0.00     0.215 A 
ATOM      6  C9  ZIN A   1      18.867  -1.037  16.465  0.00  0.00     0.065 A 
ATOM      7  C8  ZIN A   1      19.094  -1.253  15.139  0.00  0.00     0.043 A 
BRANCH   5   8
ATOM      8  N11 ZIN A   1      18.796   0.994  18.020  0.00  0.00    -0.090 N 
ATOM      9  O12 ZIN A   1      17.607   1.018  18.588  0.00  0.00    -0.530 OA
ATOM     10  O13 ZIN A   1      19.825   1.553  18.623  0.00  0.00    -0.530 OA
ENDBRANCH   5   8
ENDBRANCH   2   3
BRANCH   1  11
ATOM     11  N4  ZIN A   1      19.039   0.226  11.034  0.00  0.00    -0.209 N 
ATOM     12  C3  ZIN A   1      18.877   1.460  10.247  0.00  0.00     0.261 A 
ATOM     13  C2  ZIN A   1      19.386   1.075   8.872  0.00  0.00     0.267 A 
ATOM     14  O1  ZIN A   1      19.444   1.782   7.888  0.00  0.00    -0.269 OA
ATOM     15  N17 ZIN A   1      19.756  -0.217   8.969  0.00  0.00    -0.155 NA
ATOM     16  C15 ZIN A   1      19.560  -0.695  10.203  0.00  0.00     0.368 A 
ATOM     17  O16 ZIN A   1      19.821  -1.833  10.536  0.00  0.00    -0.243 OA
ENDBRANCH   1  11
TORSDOF 3
ENDMDL
MODEL 7
REMARK VINA RESULT:      -6.1      3.302      3.975
REMARK  3 active torsions:
REMARK  status: ('A' for Active; 'I' for Inactive)
REMARK    1  A    between atoms: N4_4  and  N5_5 
REMARK    2  A    between atoms: C6_6  and  C7_7 
REMARK    3  A    between atoms: C10_10  and  N11_11 
ROOT
ATOM      1  N5  ZIN A   1      19.055  -2.116  13.029  0.00  0.00    -0.177 NA
ATOM      2  C6  ZIN A   1      18.198  -1.243  13.573  0.00  0.00     0.176 C 
ENDROOT
BRANCH   2   3
ATOM      3  C7  ZIN A   1      18.399  -0.789  14.862  0.00  0.00     0.097 A 
ATOM      4  O14 ZIN A   1      18.876   0.425  15.224  0.00  0.00    -0.287 OA
ATOM      5  C10 ZIN A   1      18.929   0.501  16.557  0.00  0.00     0.215 A 
ATOM      6  C9  ZIN A   1      18.485  -0.696  17.125  0.00  0.00     0.065 A 
ATOM      7  C8  ZIN A   1      18.142  -1.536  16.109  0.00  0.00     0.043 A 
BRANCH   5   8
ATOM      8  N11 ZIN A   1      19.397   1.687  17.323  0.00  0.00    -0.090 N 
ATOM      9  O12 ZIN A   1      19.586   2.836  16.707  0.00  0.00    -0.530 OA
ATOM     10  O13 ZIN A   1      19.624   1.587  18.617  0.00  0.00    -0.530 OA
ENDBRANCH   5   8
ENDBRANCH   2   3
BRANCH   1  11
ATOM     11  N4  ZIN A   1      18.923  -2.465  11.794  0.00  0.00    -0.209 N 
ATOM     12  C3  ZIN A   1      18.044  -1.839  10.792  0.00  0.00     0.261 A 
ATOM     13  C2  ZIN A   1      18.298  -2.652   9.538  0.00  0.00     0.267 A 
ATOM     14  O1  ZIN A   1      17.788  -2.497   8.449  0.00  0.00    -0.269 OA
ATOM     15  N17 ZIN A   1      19.204  -3.586   9.887  0.00  0.00    -0.155 NA
ATOM     16  C15 ZIN A   1      19.560  -3.473  11.172  0.00  0.00     0.368 A 
ATOM     17  O16 ZIN A   1      20.366  -4.200  11.716  0.00  0.00    -0.243 OA
ENDBRANCH   1  11
TORSDOF 3
ENDMDL
MODEL 8
REMARK VINA RESULT:      -6.1      3.036      8.276
REMARK  3 active torsions:
REMARK  status: ('A' for Active; 'I' for Inactive)
REMARK    1  A    between atoms: N4_4  and  N5_5 
REMARK    2  A    between atoms: C6_6  and  C7_7 
REMARK    3  A    between atoms: C10_10  and  N11_11 
ROOT
ATOM      1  N5  ZIN A   1      18.620  -0.391  10.822  0.00  0.00    -0.177 NA
ATOM      2  C6  ZIN A   1      19.567   0.158  10.050  0.00  0.00     0.176 C 
ENDROOT
BRANCH   2   3
ATOM      3  C7  ZIN A   1      19.342   0.333   8.700  0.00  0.00     0.097 A 
ATOM      4  O14 ZIN A   1      19.262  -0.640   7.762  0.00  0.00    -0.287 OA
ATOM      5  C10 ZIN A   1      19.032  -0.088   6.567  0.00  0.00     0.215 A 
ATOM      6  C9  ZIN A   1      18.962   1.302   6.686  0.00  0.00     0.065 A 
ATOM      7  C8  ZIN A   1      19.149   1.618   7.998  0.00  0.00     0.043 A 
BRANCH   5   8
ATOM      8  N11 ZIN A   1      18.880  -0.844   5.296  0.00  0.00    -0.090 N 
ATOM      9  O12 ZIN A   1      19.938  -1.111   4.558  0.00  0.00    -0.530 OA
ATOM     10  O13 ZIN A   1      17.687  -1.247   4.908  0.00  0.00    -0.530 OA
ENDBRANCH   5   8
ENDBRANCH   2   3
BRANCH   1  11
ATOM     11  N4  ZIN A   1      18.791  -0.466  12.098  0.00  0.00    -0.209 N 
ATOM     12  C3  ZIN A   1      18.935   0.662  13.034  0.00  0.00     0.261 A 
ATOM     13  C2  ZIN A   1      19.107  -0.012  14.381  0.00  0.00     0.267 A 
ATOM     14  O1  ZIN A   1      19.261   0.527  15.456  0.00  0.00    -0.269 OA
ATOM     15  N17 ZIN A   1      19.058  -1.336  14.134  0.00  0.00    -0.155 NA
ATOM     16  C15 ZIN A   1      18.874  -1.589  12.833  0.00  0.00     0.368 A 
ATOM     17  O16 ZIN A   1      18.793  -2.708  12.368  0.00  0.00    -0.243 OA
ENDBRANCH   1  11
TORSDOF 3
ENDMDL
MODEL 9
REMARK VINA RESULT:      -6.1      4.675      6.837
REMARK  3 active torsions:
REMARK  status: ('A' for Active; 'I' for Inactive)
REMARK    1  A    between atoms: N4_4  and  N5_5 
REMARK    2  A    between atoms: C6_6  and  C7_7 
REMARK    3  A    between atoms: C10_10  and  N11_11 
ROOT
ATOM      1  N5  ZIN A   1      18.653  -1.271  10.490  0.00  0.00    -0.177 NA
ATOM      2  C6  ZIN A   1      17.705  -0.374  10.786  0.00  0.00     0.176 C 
ENDROOT
BRANCH   2   3
ATOM      3  C7  ZIN A   1      17.902   0.961  10.496  0.00  0.00     0.097 A 
ATOM      4  O14 ZIN A   1      17.162   2.002  10.944  0.00  0.00    -0.287 OA
ATOM      5  C10 ZIN A   1      17.656   3.143  10.454  0.00  0.00     0.215 A 
ATOM      6  C9  ZIN A   1      18.761   2.877   9.640  0.00  0.00     0.065 A 
ATOM      7  C8  ZIN A   1      18.957   1.529   9.633  0.00  0.00     0.043 A 
BRANCH   5   8
ATOM      8  N11 ZIN A   1      17.107   4.497  10.731  0.00  0.00    -0.090 N 
ATOM      9  O12 ZIN A   1      16.360   4.698  11.798  0.00  0.00    -0.530 OA
ATOM     10  O13 ZIN A   1      17.366   5.493   9.910  0.00  0.00    -0.530 OA
ENDBRANCH   5   8
ENDBRANCH   2   3
BRANCH   1  11
ATOM     11  N4  ZIN A   1      18.431  -2.529  10.671  0.00  0.00    -0.209 N 
ATOM     12  C3  ZIN A   1      17.945  -3.168  11.906  0.00  0.00     0.261 A 
ATOM     13  C2  ZIN A   1      17.873  -4.637  11.542  0.00  0.00     0.267 A 
ATOM     14  O1  ZIN A   1      17.522  -5.552  12.257  0.00  0.00    -0.269 OA
ATOM     15  N17 ZIN A   1      18.286  -4.717  10.262  0.00  0.00    -0.155 NA
ATOM     16  C15 ZIN A   1      18.598  -3.512   9.769  0.00  0.00     0.368 A 
ATOM     17  O16 ZIN A   1      18.991  -3.328   8.635  0.00  0.00    -0.243 OA
ENDBRANCH   1  11
TORSDOF 3
ENDMDL
