MODEL 1
REMARK VINA RESULT:      -8.9      0.000      0.000
REMARK  9 active torsions:
REMARK  status: ('A' for Active; 'I' for Inactive)
REMARK    1  A    between atoms: C2_2  and  C3_3 
REMARK    2  A    between atoms: C2_2  and  C20_20 
REMARK    3  A    between atoms: C4_4  and  C5_5 
REMARK    4  A    between atoms: C8_8  and  O9_9 
REMARK    5  A    between atoms: C15_15  and  O16_16 
REMARK    6  A    between atoms: C23_23  and  O24_24 
REMARK    7  A    between atoms: O24_24  and  C25_25 
REMARK    8  A    between atoms: C25_25  and  C26_26 
REMARK    9  A    between atoms: C26_26  and  N27_27 
ROOT
ATOM      1  C3  <0> d   1      19.091   0.717  11.695  0.00  0.00     0.044 A 
ATOM      2  C4  <0> d   1      18.412   1.442  10.755  0.00  0.00     0.031 A 
ATOM      3  S12 <0> d   1      17.591   2.805  11.487  0.00  0.00    -0.088 SA
ATOM      4  C13 <0> d   1      18.172   2.395  13.096  0.00  0.00     0.019 A 
ATOM      5  C14 <0> d   1      17.946   3.036  14.318  0.00  0.00     0.056 A 
ATOM      6  C15 <0> d   1      18.503   2.541  15.480  0.00  0.00     0.067 A 
ATOM      7  C17 <0> d   1      19.296   1.399  15.439  0.00  0.00     0.037 A 
ATOM      8  C18 <0> d   1      19.527   0.759  14.248  0.00  0.00     0.016 A 
ATOM      9  C19 <0> d   1      18.960   1.247  13.054  0.00  0.00    -0.003 A 
ENDROOT
BRANCH   1  10
ATOM     10  C2  <0> d   1      19.870  -0.480  11.375  0.00  0.00     0.194 C 
ATOM     11  O1  <0> d   1      21.046  -0.378  11.076  0.00  0.00    -0.287 OA
BRANCH  10  12
ATOM     12  C20 <0> d   1      19.228  -1.809  11.409  0.00  0.00     0.015 A 
ATOM     13  C34 <0> d   1      19.996  -2.962  11.226  0.00  0.00     0.018 A 
ATOM     14  C33 <0> d   1      19.397  -4.201  11.264  0.00  0.00     0.037 A 
ATOM     15  C23 <0> d   1      18.026  -4.304  11.473  0.00  0.00     0.068 A 
ATOM     16  C22 <0> d   1      17.257  -3.160  11.648  0.00  0.00     0.037 A 
ATOM     17  C21 <0> d   1      17.851  -1.918  11.618  0.00  0.00     0.018 A 
BRANCH  15  18
ATOM     18  O24 <0> d   1      17.437  -5.527  11.503  0.00  0.00    -0.349 OA
BRANCH  18  19
ATOM     19  C25 <0> d   1      17.407  -6.264  10.280  0.00  0.00     0.206 C 
BRANCH  19  20
ATOM     20  C26 <0> d   1      16.607  -5.485   9.234  0.00  0.00     0.299 C 
BRANCH  20  21
ATOM     21  N27 <0> d   1      17.474  -5.169   8.090  0.00  0.00     0.090 N 
ATOM     22  C32 <0> d   1      17.813  -3.741   8.064  0.00  0.00     0.272 C 
ATOM     23  C31 <0> d   1      18.592  -3.423   6.786  0.00  0.00     0.030 C 
ATOM     24  C30 <0> d   1      19.868  -4.269   6.749  0.00  0.00     0.003 C 
ATOM     25  C29 <0> d   1      19.490  -5.751   6.826  0.00  0.00     0.030 C 
ATOM     26  C28 <0> d   1      18.684  -6.001   8.103  0.00  0.00     0.272 C 
ENDBRANCH  20  21
ENDBRANCH  19  20
ENDBRANCH  18  19
ENDBRANCH  15  18
ENDBRANCH  10  12
ENDBRANCH   1  10
BRANCH   2  27
ATOM     27  C5  <0> d   1      18.375   1.117   9.317  0.00  0.00    -0.018 A 
ATOM     28  C11 <0> d   1      17.431   0.209   8.827  0.00  0.00     0.015 A 
ATOM     29  C10 <0> d   1      17.397  -0.087   7.482  0.00  0.00     0.037 A 
ATOM     30  C8  <0> d   1      18.304   0.508   6.614  0.00  0.00     0.065 A 
ATOM     31  C7  <0> d   1      19.247   1.407   7.097  0.00  0.00     0.037 A 
ATOM     32  C6  <0> d   1      19.286   1.713   8.440  0.00  0.00     0.015 A 
BRANCH  30  33
ATOM     33  O9  <0> d   1      18.269   0.210   5.290  0.00  0.00    -0.361 OA
ATOM     34  H37 <0> d   1      18.903   0.710   4.757  0.00  0.00     0.217 HD
ENDBRANCH  30  33
ENDBRANCH   2  27
BRANCH   6  35
ATOM     35  O16 <0> d   1      18.278   3.171  16.663  0.00  0.00    -0.361 OA
ATOM     36  H41 <0> d   1      19.007   3.093  17.295  0.00  0.00     0.217 HD
ENDBRANCH   6  35
TORSDOF 9
ENDMDL
MODEL 2
REMARK VINA RESULT:      -8.9      2.127      4.907
REMARK  9 active torsions:
REMARK  status: ('A' for Active; 'I' for Inactive)
REMARK    1  A    between atoms: C2_2  and  C3_3 
REMARK    2  A    between atoms: C2_2  and  C20_20 
REMARK    3  A    between atoms: C4_4  and  C5_5 
REMARK    4  A    between atoms: C8_8  and  O9_9 
REMARK    5  A    between atoms: C15_15  and  O16_16 
REMARK    6  A    between atoms: C23_23  and  O24_24 
REMARK    7  A    between atoms: O24_24  and  C25_25 
REMARK    8  A    between atoms: C25_25  and  C26_26 
REMARK    9  A    between atoms: C26_26  and  N27_27 
ROOT
ATOM      1  C3  <0> d   1      17.904  -0.138  12.549  0.00  0.00     0.044 A 
ATOM      2  C4  <0> d   1      18.551  -1.318  12.793  0.00  0.00     0.031 A 
ATOM      3  S12 <0> d   1      19.536  -1.206  14.235  0.00  0.00    -0.088 SA
ATOM      4  C13 <0> d   1      19.071   0.466  14.523  0.00  0.00     0.019 A 
ATOM      5  C14 <0> d   1      19.453   1.337  15.548  0.00  0.00     0.056 A 
ATOM      6  C15 <0> d   1      18.964   2.627  15.586  0.00  0.00     0.067 A 
ATOM      7  C17 <0> d   1      18.085   3.068  14.602  0.00  0.00     0.037 A 
ATOM      8  C18 <0> d   1      17.700   2.225  13.591  0.00  0.00     0.016 A 
ATOM      9  C19 <0> d   1      18.195   0.906  13.532  0.00  0.00    -0.003 A 
ENDROOT
BRANCH   1  10
ATOM     10  C2  <0> d   1      17.009   0.064  11.409  0.00  0.00     0.194 C 
ATOM     11  O1  <0> d   1      15.803   0.019  11.567  0.00  0.00    -0.287 OA
BRANCH  10  12
ATOM     12  C20 <0> d   1      17.569   0.317  10.066  0.00  0.00     0.015 A 
ATOM     13  C34 <0> d   1      17.267  -0.543   9.008  0.00  0.00     0.018 A 
ATOM     14  C33 <0> d   1      17.786  -0.302   7.756  0.00  0.00     0.037 A 
ATOM     15  C23 <0> d   1      18.619   0.791   7.547  0.00  0.00     0.068 A 
ATOM     16  C22 <0> d   1      18.928   1.646   8.598  0.00  0.00     0.037 A 
ATOM     17  C21 <0> d   1      18.408   1.414   9.852  0.00  0.00     0.018 A 
BRANCH  15  18
ATOM     18  O24 <0> d   1      19.134   1.023   6.312  0.00  0.00    -0.349 OA
BRANCH  18  19
ATOM     19  C25 <0> d   1      18.567   0.289   5.224  0.00  0.00     0.206 C 
BRANCH  19  20
ATOM     20  C26 <0> d   1      19.580  -0.743   4.722  0.00  0.00     0.299 C 
BRANCH  20  21
ATOM     21  N27 <0> d   1      18.884  -2.001   4.417  0.00  0.00     0.090 N 
ATOM     22  C32 <0> d   1      19.115  -3.000   5.468  0.00  0.00     0.272 C 
ATOM     23  C31 <0> d   1      18.500  -4.337   5.048  0.00  0.00     0.030 C 
ATOM     24  C30 <0> d   1      16.998  -4.151   4.816  0.00  0.00     0.003 C 
ATOM     25  C29 <0> d   1      16.784  -3.072   3.750  0.00  0.00     0.030 C 
ATOM     26  C28 <0> d   1      17.449  -1.771   4.208  0.00  0.00     0.272 C 
ENDBRANCH  20  21
ENDBRANCH  19  20
ENDBRANCH  18  19
ENDBRANCH  15  18
ENDBRANCH  10  12
ENDBRANCH   1  10
BRANCH   2  27
ATOM     27  C5  <0> d   1      18.435  -2.524  11.951  0.00  0.00    -0.018 A 
ATOM     28  C11 <0> d   1      19.495  -2.905  11.124  0.00  0.00     0.015 A 
ATOM     29  C10 <0> d   1      19.385  -4.035  10.343  0.00  0.00     0.037 A 
ATOM     30  C8  <0> d   1      18.218  -4.789  10.369  0.00  0.00     0.065 A 
ATOM     31  C7  <0> d   1      17.159  -4.410  11.185  0.00  0.00     0.037 A 
ATOM     32  C6  <0> d   1      17.262  -3.284  11.973  0.00  0.00     0.015 A 
BRANCH  30  33
ATOM     33  O9  <0> d   1      18.112  -5.899   9.595  0.00  0.00    -0.361 OA
ATOM     34  H37 <0> d   1      17.500  -5.803   8.852  0.00  0.00     0.217 HD
ENDBRANCH  30  33
ENDBRANCH   2  27
BRANCH   6  35
ATOM     35  O16 <0> d   1      19.342   3.467  16.587  0.00  0.00    -0.361 OA
ATOM     36  H41 <0> d   1      18.657   3.616  17.254  0.00  0.00     0.217 HD
ENDBRANCH   6  35
TORSDOF 9
ENDMDL
MODEL 3
REMARK VINA RESULT:      -8.8      3.481      8.102
REMARK  9 active torsions:
REMARK  status: ('A' for Active; 'I' for Inactive)
REMARK    1  A    between atoms: C2_2  and  C3_3 
REMARK    2  A    between atoms: C2_2  and  C20_20 
REMARK    3  A    between atoms: C4_4  and  C5_5 
REMARK    4  A    between atoms: C8_8  and  O9_9 
REMARK    5  A    between atoms: C15_15  and  O16_16 
REMARK    6  A    between atoms: C23_23  and  O24_24 
REMARK    7  A    between atoms: O24_24  and  C25_25 
REMARK    8  A    between atoms: C25_25  and  C26_26 
REMARK    9  A    between atoms: C26_26  and  N27_27 
ROOT
ATOM      1  C3  <0> d   1      17.917   0.313  10.188  0.00  0.00     0.044 A 
ATOM      2  C4  <0> d   1      18.524   1.527  10.018  0.00  0.00     0.031 A 
ATOM      3  S12 <0> d   1      19.533   1.528   8.587  0.00  0.00    -0.088 SA
ATOM      4  C13 <0> d   1      19.132  -0.141   8.203  0.00  0.00     0.019 A 
ATOM      5  C14 <0> d   1      19.560  -0.942   7.139  0.00  0.00     0.056 A 
ATOM      6  C15 <0> d   1      19.118  -2.244   7.024  0.00  0.00     0.067 A 
ATOM      7  C17 <0> d   1      18.242  -2.768   7.969  0.00  0.00     0.037 A 
ATOM      8  C18 <0> d   1      17.813  -1.995   9.019  0.00  0.00     0.016 A 
ATOM      9  C19 <0> d   1      18.260  -0.665   9.155  0.00  0.00    -0.003 A 
ENDROOT
BRANCH   1  10
ATOM     10  C2  <0> d   1      17.015   0.018  11.302  0.00  0.00     0.194 C 
ATOM     11  O1  <0> d   1      15.812  -0.013  11.118  0.00  0.00    -0.287 OA
BRANCH  10  12
ATOM     12  C20 <0> d   1      17.563  -0.234  12.649  0.00  0.00     0.015 A 
ATOM     13  C34 <0> d   1      17.184   0.576  13.723  0.00  0.00     0.018 A 
ATOM     14  C33 <0> d   1      17.692   0.334  14.979  0.00  0.00     0.037 A 
ATOM     15  C23 <0> d   1      18.591  -0.708  15.178  0.00  0.00     0.068 A 
ATOM     16  C22 <0> d   1      18.975  -1.512  14.112  0.00  0.00     0.037 A 
ATOM     17  C21 <0> d   1      18.467  -1.280  12.854  0.00  0.00     0.018 A 
BRANCH  15  18
ATOM     18  O24 <0> d   1      19.094  -0.939  16.418  0.00  0.00    -0.349 OA
BRANCH  18  19
ATOM     19  C25 <0> d   1      18.478  -0.251  17.508  0.00  0.00     0.206 C 
BRANCH  19  20
ATOM     20  C26 <0> d   1      19.543   0.517  18.294  0.00  0.00     0.299 C 
BRANCH  20  21
ATOM     21  N27 <0> d   1      19.238   1.953  18.255  0.00  0.00     0.090 N 
ATOM     22  C32 <0> d   1      19.499   2.512  16.923  0.00  0.00     0.272 C 
ATOM     23  C31 <0> d   1      19.311   4.030  16.959  0.00  0.00     0.030 C 
ATOM     24  C30 <0> d   1      17.879   4.352  17.395  0.00  0.00     0.003 C 
ATOM     25  C29 <0> d   1      17.617   3.718  18.764  0.00  0.00     0.030 C 
ATOM     26  C28 <0> d   1      17.854   2.209  18.676  0.00  0.00     0.272 C 
ENDBRANCH  20  21
ENDBRANCH  19  20
ENDBRANCH  18  19
ENDBRANCH  15  18
ENDBRANCH  10  12
ENDBRANCH   1  10
BRANCH   2  27
ATOM     27  C5  <0> d   1      18.353   2.680  10.922  0.00  0.00    -0.018 A 
ATOM     28  C11 <0> d   1      19.299   2.935  11.919  0.00  0.00     0.015 A 
ATOM     29  C10 <0> d   1      19.139   4.017  12.757  0.00  0.00     0.037 A 
ATOM     30  C8  <0> d   1      18.034   4.847  12.619  0.00  0.00     0.065 A 
ATOM     31  C7  <0> d   1      17.088   4.594  11.633  0.00  0.00     0.037 A 
ATOM     32  C6  <0> d   1      17.243   3.518  10.787  0.00  0.00     0.015 A 
BRANCH  30  33
ATOM     33  O9  <0> d   1      17.878   5.910  13.450  0.00  0.00    -0.361 OA
ATOM     34  H37 <0> d   1      17.253   5.756  14.172  0.00  0.00     0.217 HD
ENDBRANCH  30  33
ENDBRANCH   2  27
BRANCH   6  35
ATOM     35  O16 <0> d   1      19.539  -3.015   5.986  0.00  0.00    -0.361 OA
ATOM     36  H41 <0> d   1      19.558  -2.553   5.136  0.00  0.00     0.217 HD
ENDBRANCH   6  35
TORSDOF 9
ENDMDL
MODEL 4
REMARK VINA RESULT:      -8.5      3.317      7.803
REMARK  9 active torsions:
REMARK  status: ('A' for Active; 'I' for Inactive)
REMARK    1  A    between atoms: C2_2  and  C3_3 
REMARK    2  A    between atoms: C2_2  and  C20_20 
REMARK    3  A    between atoms: C4_4  and  C5_5 
REMARK    4  A    between atoms: C8_8  and  O9_9 
REMARK    5  A    between atoms: C15_15  and  O16_16 
REMARK    6  A    between atoms: C23_23  and  O24_24 
REMARK    7  A    between atoms: O24_24  and  C25_25 
REMARK    8  A    between atoms: C25_25  and  C26_26 
REMARK    9  A    between atoms: C26_26  and  N27_27 
ROOT
ATOM      1  C3  <0> d   1      19.212  -0.873  10.870  0.00  0.00     0.044 A 
ATOM      2  C4  <0> d   1      18.505  -0.165   9.938  0.00  0.00     0.031 A 
ATOM      3  S12 <0> d   1      17.898  -1.219   8.677  0.00  0.00    -0.088 SA
ATOM      4  C13 <0> d   1      18.608  -2.648   9.418  0.00  0.00     0.019 A 
ATOM      5  C14 <0> d   1      18.576  -3.982   8.999  0.00  0.00     0.056 A 
ATOM      6  C15 <0> d   1      19.209  -4.962   9.737  0.00  0.00     0.067 A 
ATOM      7  C17 <0> d   1      19.882  -4.625  10.906  0.00  0.00     0.037 A 
ATOM      8  C18 <0> d   1      19.923  -3.321  11.331  0.00  0.00     0.016 A 
ATOM      9  C19 <0> d   1      19.288  -2.307  10.585  0.00  0.00    -0.003 A 
ENDROOT
BRANCH   1  10
ATOM     10  C2  <0> d   1      19.837  -0.256  12.040  0.00  0.00     0.194 C 
ATOM     11  O1  <0> d   1      20.870   0.377  11.915  0.00  0.00    -0.287 OA
BRANCH  10  12
ATOM     12  C20 <0> d   1      19.219  -0.405  13.373  0.00  0.00     0.015 A 
ATOM     13  C34 <0> d   1      19.742  -1.322  14.288  0.00  0.00     0.018 A 
ATOM     14  C33 <0> d   1      19.167  -1.455  15.532  0.00  0.00     0.037 A 
ATOM     15  C23 <0> d   1      18.060  -0.685  15.874  0.00  0.00     0.068 A 
ATOM     16  C22 <0> d   1      17.534   0.223  14.963  0.00  0.00     0.037 A 
ATOM     17  C21 <0> d   1      18.107   0.366  13.720  0.00  0.00     0.018 A 
BRANCH  15  18
ATOM     18  O24 <0> d   1      17.493  -0.823  17.099  0.00  0.00    -0.349 OA
BRANCH  18  19
ATOM     19  C25 <0> d   1      17.307   0.368  17.867  0.00  0.00     0.206 C 
BRANCH  19  20
ATOM     20  C26 <0> d   1      18.639   0.781  18.498  0.00  0.00     0.299 C 
BRANCH  20  21
ATOM     21  N27 <0> d   1      18.856   2.218  18.283  0.00  0.00     0.090 N 
ATOM     22  C32 <0> d   1      19.302   2.485  16.910  0.00  0.00     0.272 C 
ATOM     23  C31 <0> d   1      19.658   3.966  16.766  0.00  0.00     0.030 C 
ATOM     24  C30 <0> d   1      18.427   4.815  17.096  0.00  0.00     0.003 C 
ATOM     25  C29 <0> d   1      17.953   4.484  18.514  0.00  0.00     0.030 C 
ATOM     26  C28 <0> d   1      17.648   2.987  18.608  0.00  0.00     0.272 C 
ENDBRANCH  20  21
ENDBRANCH  19  20
ENDBRANCH  18  19
ENDBRANCH  15  18
ENDBRANCH  10  12
ENDBRANCH   1  10
BRANCH   2  27
ATOM     27  C5  <0> d   1      18.286   1.293   9.986  0.00  0.00    -0.018 A 
ATOM     28  C11 <0> d   1      18.893   2.125   9.041  0.00  0.00     0.015 A 
ATOM     29  C10 <0> d   1      18.681   3.485   9.086  0.00  0.00     0.037 A 
ATOM     30  C8  <0> d   1      17.873   4.031  10.076  0.00  0.00     0.065 A 
ATOM     31  C7  <0> d   1      17.272   3.209  11.021  0.00  0.00     0.037 A 
ATOM     32  C6  <0> d   1      17.474   1.847  10.980  0.00  0.00     0.015 A 
BRANCH  30  33
ATOM     33  O9  <0> d   1      17.670   5.373  10.120  0.00  0.00    -0.361 OA
ATOM     34  H37 <0> d   1      17.718   5.749  11.009  0.00  0.00     0.217 HD
ENDBRANCH  30  33
ENDBRANCH   2  27
BRANCH   6  35
ATOM     35  O16 <0> d   1      19.172  -6.256   9.322  0.00  0.00    -0.361 OA
ATOM     36  H41 <0> d   1      18.797  -6.866   9.971  0.00  0.00     0.217 HD
ENDBRANCH   6  35
TORSDOF 9
ENDMDL
MODEL 5
REMARK VINA RESULT:      -8.4      1.871      2.240
REMARK  9 active torsions:
REMARK  status: ('A' for Active; 'I' for Inactive)
REMARK    1  A    between atoms: C2_2  and  C3_3 
REMARK    2  A    between atoms: C2_2  and  C20_20 
REMARK    3  A    between atoms: C4_4  and  C5_5 
REMARK    4  A    between atoms: C8_8  and  O9_9 
REMARK    5  A    between atoms: C15_15  and  O16_16 
REMARK    6  A    between atoms: C23_23  and  O24_24 
REMARK    7  A    between atoms: O24_24  and  C25_25 
REMARK    8  A    between atoms: C25_25  and  C26_26 
REMARK    9  A    between atoms: C26_26  and  N27_27 
ROOT
ATOM      1  C3  <0> d   1      18.821  -0.724  12.108  0.00  0.00     0.044 A 
ATOM      2  C4  <0> d   1      18.230   0.295  11.412  0.00  0.00     0.031 A 
ATOM      3  S12 <0> d   1      17.410   1.401  12.494  0.00  0.00    -0.088 SA
ATOM      4  C13 <0> d   1      17.870   0.476  13.919  0.00  0.00     0.019 A 
ATOM      5  C14 <0> d   1      17.587   0.713  15.268  0.00  0.00     0.056 A 
ATOM      6  C15 <0> d   1      18.050  -0.151  16.240  0.00  0.00     0.067 A 
ATOM      7  C17 <0> d   1      18.804  -1.263  15.881  0.00  0.00     0.037 A 
ATOM      8  C18 <0> d   1      19.090  -1.509  14.562  0.00  0.00     0.016 A 
ATOM      9  C19 <0> d   1      18.620  -0.641  13.556  0.00  0.00    -0.003 A 
ENDROOT
BRANCH   1  10
ATOM     10  C2  <0> d   1      19.578  -1.799  11.466  0.00  0.00     0.194 C 
ATOM     11  O1  <0> d   1      20.766  -1.657  11.243  0.00  0.00    -0.287 OA
BRANCH  10  12
ATOM     12  C20 <0> d   1      18.898  -3.053  11.083  0.00  0.00     0.015 A 
ATOM     13  C34 <0> d   1      19.576  -4.014  10.328  0.00  0.00     0.018 A 
ATOM     14  C33 <0> d   1      18.942  -5.184   9.977  0.00  0.00     0.037 A 
ATOM     15  C23 <0> d   1      17.625  -5.407  10.365  0.00  0.00     0.068 A 
ATOM     16  C22 <0> d   1      16.947  -4.451  11.111  0.00  0.00     0.037 A 
ATOM     17  C21 <0> d   1      17.575  -3.281  11.471  0.00  0.00     0.018 A 
BRANCH  15  18
ATOM     18  O24 <0> d   1      17.002  -6.560  10.013  0.00  0.00    -0.349 OA
BRANCH  18  19
ATOM     19  C25 <0> d   1      17.145  -6.987   8.656  0.00  0.00     0.206 C 
BRANCH  19  20
ATOM     20  C26 <0> d   1      15.888  -6.611   7.868  0.00  0.00     0.299 C 
BRANCH  20  21
ATOM     21  N27 <0> d   1      16.261  -5.759   6.731  0.00  0.00     0.090 N 
ATOM     22  C32 <0> d   1      17.717  -5.729   6.549  0.00  0.00     0.272 C 
ATOM     23  C31 <0> d   1      18.076  -4.722   5.454  0.00  0.00     0.030 C 
ATOM     24  C30 <0> d   1      17.389  -5.131   4.148  0.00  0.00     0.003 C 
ATOM     25  C29 <0> d   1      15.877  -5.201   4.376  0.00  0.00     0.030 C 
ATOM     26  C28 <0> d   1      15.582  -6.194   5.503  0.00  0.00     0.272 C 
ENDBRANCH  20  21
ENDBRANCH  19  20
ENDBRANCH  18  19
ENDBRANCH  15  18
ENDBRANCH  10  12
ENDBRANCH   1  10
BRANCH   2  27
ATOM     27  C5  <0> d   1      18.276   0.441   9.945  0.00  0.00    -0.018 A 
ATOM     28  C11 <0> d   1      19.209   1.299   9.355  0.00  0.00     0.015 A 
ATOM     29  C10 <0> d   1      19.252   1.428   7.984  0.00  0.00     0.037 A 
ATOM     30  C8  <0> d   1      18.364   0.715   7.189  0.00  0.00     0.065 A 
ATOM     31  C7  <0> d   1      17.432  -0.135   7.771  0.00  0.00     0.037 A 
ATOM     32  C6  <0> d   1      17.384  -0.275   9.141  0.00  0.00     0.015 A 
BRANCH  30  33
ATOM     33  O9  <0> d   1      18.408   0.849   5.839  0.00  0.00    -0.361 OA
ATOM     34  H37 <0> d   1      19.265   1.142   5.500  0.00  0.00     0.217 HD
ENDBRANCH  30  33
ENDBRANCH   2  27
BRANCH   6  35
ATOM     35  O16 <0> d   1      17.770   0.087  17.549  0.00  0.00    -0.361 OA
ATOM     36  H41 <0> d   1      17.929   1.000  17.825  0.00  0.00     0.217 HD
ENDBRANCH   6  35
TORSDOF 9
ENDMDL
MODEL 6
REMARK VINA RESULT:      -8.4      2.473      3.343
REMARK  9 active torsions:
REMARK  status: ('A' for Active; 'I' for Inactive)
REMARK    1  A    between atoms: C2_2  and  C3_3 
REMARK    2  A    between atoms: C2_2  and  C20_20 
REMARK    3  A    between atoms: C4_4  and  C5_5 
REMARK    4  A    between atoms: C8_8  and  O9_9 
REMARK    5  A    between atoms: C15_15  and  O16_16 
REMARK    6  A    between atoms: C23_23  and  O24_24 
REMARK    7  A    between atoms: O24_24  and  C25_25 
REMARK    8  A    between atoms: C25_25  and  C26_26 
REMARK    9  A    between atoms: C26_26  and  N27_27 
ROOT
ATOM      1  C3  <0> d   1      17.948   0.813  13.563  0.00  0.00     0.044 A 
ATOM      2  C4  <0> d   1      18.319   2.119  13.399  0.00  0.00     0.031 A 
ATOM      3  S12 <0> d   1      18.996   2.769  14.878  0.00  0.00    -0.088 SA
ATOM      4  C13 <0> d   1      18.778   1.251  15.741  0.00  0.00     0.019 A 
ATOM      5  C14 <0> d   1      19.089   0.923  17.064  0.00  0.00     0.056 A 
ATOM      6  C15 <0> d   1      18.831  -0.344  17.548  0.00  0.00     0.067 A 
ATOM      7  C17 <0> d   1      18.259  -1.302  16.718  0.00  0.00     0.037 A 
ATOM      8  C18 <0> d   1      17.948  -0.995  15.418  0.00  0.00     0.016 A 
ATOM      9  C19 <0> d   1      18.199   0.295  14.910  0.00  0.00    -0.003 A 
ENDROOT
BRANCH   1  10
ATOM     10  C2  <0> d   1      17.351   0.010  12.496  0.00  0.00     0.194 C 
ATOM     11  O1  <0> d   1      16.267   0.319  12.036  0.00  0.00    -0.287 OA
BRANCH  10  12
ATOM     12  C20 <0> d   1      18.062  -1.177  11.980  0.00  0.00     0.015 A 
ATOM     13  C34 <0> d   1      17.399  -2.403  11.886  0.00  0.00     0.018 A 
ATOM     14  C33 <0> d   1      18.062  -3.508  11.399  0.00  0.00     0.037 A 
ATOM     15  C23 <0> d   1      19.394  -3.405  11.012  0.00  0.00     0.068 A 
ATOM     16  C22 <0> d   1      20.058  -2.189  11.110  0.00  0.00     0.037 A 
ATOM     17  C21 <0> d   1      19.400  -1.079  11.590  0.00  0.00     0.018 A 
BRANCH  15  18
ATOM     18  O24 <0> d   1      20.046  -4.498  10.538  0.00  0.00    -0.349 OA
BRANCH  18  19
ATOM     19  C25 <0> d   1      19.385  -5.262   9.529  0.00  0.00     0.206 C 
BRANCH  19  20
ATOM     20  C26 <0> d   1      20.389  -5.650   8.442  0.00  0.00     0.299 C 
BRANCH  20  21
ATOM     21  N27 <0> d   1      19.853  -5.277   7.125  0.00  0.00     0.090 N 
ATOM     22  C32 <0> d   1      18.614  -6.008   6.834  0.00  0.00     0.272 C 
ATOM     23  C31 <0> d   1      18.166  -5.705   5.402  0.00  0.00     0.030 C 
ATOM     24  C30 <0> d   1      17.938  -4.198   5.252  0.00  0.00     0.003 C 
ATOM     25  C29 <0> d   1      19.230  -3.457   5.608  0.00  0.00     0.030 C 
ATOM     26  C28 <0> d   1      19.648  -3.826   7.034  0.00  0.00     0.272 C 
ENDBRANCH  20  21
ENDBRANCH  19  20
ENDBRANCH  18  19
ENDBRANCH  15  18
ENDBRANCH  10  12
ENDBRANCH   1  10
BRANCH   2  27
ATOM     27  C5  <0> d   1      18.168   2.880  12.145  0.00  0.00    -0.018 A 
ATOM     28  C11 <0> d   1      17.324   3.993  12.098  0.00  0.00     0.015 A 
ATOM     29  C10 <0> d   1      17.190   4.704  10.925  0.00  0.00     0.037 A 
ATOM     30  C8  <0> d   1      17.883   4.309   9.788  0.00  0.00     0.065 A 
ATOM     31  C7  <0> d   1      18.718   3.199   9.828  0.00  0.00     0.037 A 
ATOM     32  C6  <0> d   1      18.863   2.485  10.998  0.00  0.00     0.015 A 
BRANCH  30  33
ATOM     33  O9  <0> d   1      17.744   5.010   8.633  0.00  0.00    -0.361 OA
ATOM     34  H37 <0> d   1      16.831   5.081   8.324  0.00  0.00     0.217 HD
ENDBRANCH  30  33
ENDBRANCH   2  27
BRANCH   6  35
ATOM     35  O16 <0> d   1      19.137  -0.654  18.836  0.00  0.00    -0.361 OA
ATOM     36  H41 <0> d   1      19.172   0.111  19.427  0.00  0.00     0.217 HD
ENDBRANCH   6  35
TORSDOF 9
ENDMDL
MODEL 7
REMARK VINA RESULT:      -8.3      2.307      3.024
REMARK  9 active torsions:
REMARK  status: ('A' for Active; 'I' for Inactive)
REMARK    1  A    between atoms: C2_2  and  C3_3 
REMARK    2  A    between atoms: C2_2  and  C20_20 
REMARK    3  A    between atoms: C4_4  and  C5_5 
REMARK    4  A    between atoms: C8_8  and  O9_9 
REMARK    5  A    between atoms: C15_15  and  O16_16 
REMARK    6  A    between atoms: C23_23  and  O24_24 
REMARK    7  A    between atoms: O24_24  and  C25_25 
REMARK    8  A    between atoms: C25_25  and  C26_26 
REMARK    9  A    between atoms: C26_26  and  N27_27 
ROOT
ATOM      1  C3  <0> d   1      18.866  -0.703  12.125  0.00  0.00     0.044 A 
ATOM      2  C4  <0> d   1      18.284   0.322  11.431  0.00  0.00     0.031 A 
ATOM      3  S12 <0> d   1      17.479   1.437  12.515  0.00  0.00    -0.088 SA
ATOM      4  C13 <0> d   1      17.933   0.508  13.939  0.00  0.00     0.019 A 
ATOM      5  C14 <0> d   1      17.657   0.747  15.288  0.00  0.00     0.056 A 
ATOM      6  C15 <0> d   1      18.113  -0.121  16.259  0.00  0.00     0.067 A 
ATOM      7  C17 <0> d   1      18.854  -1.241  15.898  0.00  0.00     0.037 A 
ATOM      8  C18 <0> d   1      19.134  -1.490  14.578  0.00  0.00     0.016 A 
ATOM      9  C19 <0> d   1      18.670  -0.617  13.573  0.00  0.00    -0.003 A 
ENDROOT
BRANCH   1  10
ATOM     10  C2  <0> d   1      19.610  -1.785  11.481  0.00  0.00     0.194 C 
ATOM     11  O1  <0> d   1      20.790  -1.642  11.220  0.00  0.00    -0.287 OA
BRANCH  10  12
ATOM     12  C20 <0> d   1      18.927  -3.050  11.142  0.00  0.00     0.015 A 
ATOM     13  C34 <0> d   1      17.631  -3.292  11.605  0.00  0.00     0.018 A 
ATOM     14  C33 <0> d   1      16.994  -4.469  11.282  0.00  0.00     0.037 A 
ATOM     15  C23 <0> d   1      17.644  -5.422  10.505  0.00  0.00     0.068 A 
ATOM     16  C22 <0> d   1      18.935  -5.188  10.048  0.00  0.00     0.037 A 
ATOM     17  C21 <0> d   1      19.576  -4.010  10.361  0.00  0.00     0.018 A 
BRANCH  15  18
ATOM     18  O24 <0> d   1      17.015  -6.584  10.194  0.00  0.00    -0.349 OA
BRANCH  18  19
ATOM     19  C25 <0> d   1      16.696  -6.802   8.818  0.00  0.00     0.206 C 
BRANCH  19  20
ATOM     20  C26 <0> d   1      15.485  -5.949   8.434  0.00  0.00     0.299 C 
BRANCH  20  21
ATOM     21  N27 <0> d   1      14.590  -6.731   7.570  0.00  0.00     0.090 N 
ATOM     22  C32 <0> d   1      14.564  -6.187   6.207  0.00  0.00     0.272 C 
ATOM     23  C31 <0> d   1      13.516  -6.933   5.378  0.00  0.00     0.030 C 
ATOM     24  C30 <0> d   1      13.866  -8.424   5.346  0.00  0.00     0.003 C 
ATOM     25  C29 <0> d   1      13.933  -8.955   6.780  0.00  0.00     0.030 C 
ATOM     26  C28 <0> d   1      14.969  -8.150   7.569  0.00  0.00     0.272 C 
ENDBRANCH  20  21
ENDBRANCH  19  20
ENDBRANCH  18  19
ENDBRANCH  15  18
ENDBRANCH  10  12
ENDBRANCH   1  10
BRANCH   2  27
ATOM     27  C5  <0> d   1      18.327   0.468   9.963  0.00  0.00    -0.018 A 
ATOM     28  C11 <0> d   1      19.265   1.319   9.371  0.00  0.00     0.015 A 
ATOM     29  C10 <0> d   1      19.306   1.447   8.000  0.00  0.00     0.037 A 
ATOM     30  C8  <0> d   1      18.411   0.741   7.207  0.00  0.00     0.065 A 
ATOM     31  C7  <0> d   1      17.473  -0.102   7.792  0.00  0.00     0.037 A 
ATOM     32  C6  <0> d   1      17.428  -0.241   9.162  0.00  0.00     0.015 A 
BRANCH  30  33
ATOM     33  O9  <0> d   1      18.451   0.874   5.857  0.00  0.00    -0.361 OA
ATOM     34  H37 <0> d   1      19.324   0.713   5.472  0.00  0.00     0.217 HD
ENDBRANCH  30  33
ENDBRANCH   2  27
BRANCH   6  35
ATOM     35  O16 <0> d   1      17.839   0.120  17.569  0.00  0.00    -0.361 OA
ATOM     36  H41 <0> d   1      16.976  -0.209  17.857  0.00  0.00     0.217 HD
ENDBRANCH   6  35
TORSDOF 9
ENDMDL
MODEL 8
REMARK VINA RESULT:      -7.9      3.307      8.668
REMARK  9 active torsions:
REMARK  status: ('A' for Active; 'I' for Inactive)
REMARK    1  A    between atoms: C2_2  and  C3_3 
REMARK    2  A    between atoms: C2_2  and  C20_20 
REMARK    3  A    between atoms: C4_4  and  C5_5 
REMARK    4  A    between atoms: C8_8  and  O9_9 
REMARK    5  A    between atoms: C15_15  and  O16_16 
REMARK    6  A    between atoms: C23_23  and  O24_24 
REMARK    7  A    between atoms: O24_24  and  C25_25 
REMARK    8  A    between atoms: C25_25  and  C26_26 
REMARK    9  A    between atoms: C26_26  and  N27_27 
ROOT
ATOM      1  C3  <0> d   1      18.221  -4.217   7.413  0.00  0.00     0.044 A 
ATOM      2  C4  <0> d   1      17.814  -4.546   8.677  0.00  0.00     0.031 A 
ATOM      3  S12 <0> d   1      16.572  -5.780   8.634  0.00  0.00    -0.088 SA
ATOM      4  C13 <0> d   1      16.598  -5.861   6.876  0.00  0.00     0.019 A 
ATOM      5  C14 <0> d   1      15.848  -6.658   6.007  0.00  0.00     0.056 A 
ATOM      6  C15 <0> d   1      16.027  -6.563   4.642  0.00  0.00     0.067 A 
ATOM      7  C17 <0> d   1      16.959  -5.669   4.123  0.00  0.00     0.037 A 
ATOM      8  C18 <0> d   1      17.703  -4.880   4.963  0.00  0.00     0.016 A 
ATOM      9  C19 <0> d   1      17.528  -4.961   6.360  0.00  0.00    -0.003 A 
ENDROOT
BRANCH   1  10
ATOM     10  C2  <0> d   1      19.250  -3.214   7.139  0.00  0.00     0.194 C 
ATOM     11  O1  <0> d   1      20.290  -3.540   6.597  0.00  0.00    -0.287 OA
BRANCH  10  12
ATOM     12  C20 <0> d   1      19.029  -1.806   7.526  0.00  0.00     0.015 A 
ATOM     13  C34 <0> d   1      18.065  -1.041   6.864  0.00  0.00     0.018 A 
ATOM     14  C33 <0> d   1      17.856   0.270   7.230  0.00  0.00     0.037 A 
ATOM     15  C23 <0> d   1      18.612   0.836   8.251  0.00  0.00     0.068 A 
ATOM     16  C22 <0> d   1      19.576   0.081   8.907  0.00  0.00     0.037 A 
ATOM     17  C21 <0> d   1      19.786  -1.232   8.551  0.00  0.00     0.018 A 
BRANCH  15  18
ATOM     18  O24 <0> d   1      18.407   2.130   8.605  0.00  0.00    -0.349 OA
BRANCH  18  19
ATOM     19  C25 <0> d   1      18.886   2.536   9.888  0.00  0.00     0.206 C 
BRANCH  19  20
ATOM     20  C26 <0> d   1      17.790   3.313  10.620  0.00  0.00     0.299 C 
BRANCH  20  21
ATOM     21  N27 <0> d   1      17.609   2.751  11.966  0.00  0.00     0.090 N 
ATOM     22  C32 <0> d   1      17.909   1.315  11.984  0.00  0.00     0.272 C 
ATOM     23  C31 <0> d   1      17.570   0.737  13.360  0.00  0.00     0.030 C 
ATOM     24  C30 <0> d   1      18.394   1.462  14.428  0.00  0.00     0.003 C 
ATOM     25  C29 <0> d   1      18.099   2.963  14.357  0.00  0.00     0.030 C 
ATOM     26  C28 <0> d   1      18.421   3.476  12.952  0.00  0.00     0.272 C 
ENDBRANCH  20  21
ENDBRANCH  19  20
ENDBRANCH  18  19
ENDBRANCH  15  18
ENDBRANCH  10  12
ENDBRANCH   1  10
BRANCH   2  27
ATOM     27  C5  <0> d   1      18.348  -3.939   9.911  0.00  0.00    -0.018 A 
ATOM     28  C11 <0> d   1      17.596  -2.987  10.606  0.00  0.00     0.015 A 
ATOM     29  C10 <0> d   1      18.096  -2.428  11.761  0.00  0.00     0.037 A 
ATOM     30  C8  <0> d   1      19.349  -2.800  12.230  0.00  0.00     0.065 A 
ATOM     31  C7  <0> d   1      20.103  -3.741  11.539  0.00  0.00     0.037 A 
ATOM     32  C6  <0> d   1      19.609  -4.311  10.386  0.00  0.00     0.015 A 
BRANCH  30  33
ATOM     33  O9  <0> d   1      19.840  -2.243  13.366  0.00  0.00    -0.361 OA
ATOM     34  H37 <0> d   1      19.448  -1.386  13.585  0.00  0.00     0.217 HD
ENDBRANCH  30  33
ENDBRANCH   2  27
BRANCH   6  35
ATOM     35  O16 <0> d   1      15.292  -7.342   3.804  0.00  0.00    -0.361 OA
ATOM     36  H41 <0> d   1      14.868  -8.095   4.239  0.00  0.00     0.217 HD
ENDBRANCH   6  35
TORSDOF 9
ENDMDL
MODEL 9
REMARK VINA RESULT:      -7.9      1.785      2.462
REMARK  9 active torsions:
REMARK  status: ('A' for Active; 'I' for Inactive)
REMARK    1  A    between atoms: C2_2  and  C3_3 
REMARK    2  A    between atoms: C2_2  and  C20_20 
REMARK    3  A    between atoms: C4_4  and  C5_5 
REMARK    4  A    between atoms: C8_8  and  O9_9 
REMARK    5  A    between atoms: C15_15  and  O16_16 
REMARK    6  A    between atoms: C23_23  and  O24_24 
REMARK    7  A    between atoms: O24_24  and  C25_25 
REMARK    8  A    between atoms: C25_25  and  C26_26 
REMARK    9  A    between atoms: C26_26  and  N27_27 
ROOT
ATOM      1  C3  <0> d   1      19.036   0.616  11.401  0.00  0.00     0.044 A 
ATOM      2  C4  <0> d   1      18.348   1.337  10.465  0.00  0.00     0.031 A 
ATOM      3  S12 <0> d   1      17.529   2.699  11.200  0.00  0.00    -0.088 SA
ATOM      4  C13 <0> d   1      18.124   2.294  12.806  0.00  0.00     0.019 A 
ATOM      5  C14 <0> d   1      17.906   2.936  14.029  0.00  0.00     0.056 A 
ATOM      6  C15 <0> d   1      18.473   2.445  15.187  0.00  0.00     0.067 A 
ATOM      7  C17 <0> d   1      19.269   1.304  15.142  0.00  0.00     0.037 A 
ATOM      8  C18 <0> d   1      19.492   0.663  13.950  0.00  0.00     0.016 A 
ATOM      9  C19 <0> d   1      18.914   1.148  12.759  0.00  0.00    -0.003 A 
ENDROOT
BRANCH   1  10
ATOM     10  C2  <0> d   1      19.816  -0.579  11.076  0.00  0.00     0.194 C 
ATOM     11  O1  <0> d   1      21.017  -0.493  10.902  0.00  0.00    -0.287 OA
BRANCH  10  12
ATOM     12  C20 <0> d   1      19.144  -1.889  10.954  0.00  0.00     0.015 A 
ATOM     13  C34 <0> d   1      18.402  -2.397  12.024  0.00  0.00     0.018 A 
ATOM     14  C33 <0> d   1      17.772  -3.615  11.906  0.00  0.00     0.037 A 
ATOM     15  C23 <0> d   1      17.882  -4.344  10.726  0.00  0.00     0.068 A 
ATOM     16  C22 <0> d   1      18.623  -3.845   9.663  0.00  0.00     0.037 A 
ATOM     17  C21 <0> d   1      19.252  -2.625   9.772  0.00  0.00     0.018 A 
BRANCH  15  18
ATOM     18  O24 <0> d   1      17.264  -5.548  10.616  0.00  0.00    -0.349 OA
BRANCH  18  19
ATOM     19  C25 <0> d   1      17.498  -6.291   9.418  0.00  0.00     0.206 C 
BRANCH  19  20
ATOM     20  C26 <0> d   1      16.178  -6.478   8.667  0.00  0.00     0.299 C 
BRANCH  20  21
ATOM     21  N27 <0> d   1      16.136  -7.824   8.080  0.00  0.00     0.090 N 
ATOM     22  C32 <0> d   1      14.922  -8.012   7.277  0.00  0.00     0.272 C 
ATOM     23  C31 <0> d   1      14.840  -9.465   6.804  0.00  0.00     0.030 C 
ATOM     24  C30 <0> d   1      16.081  -9.795   5.970  0.00  0.00     0.003 C 
ATOM     25  C29 <0> d   1      17.335  -9.545   6.814  0.00  0.00     0.030 C 
ATOM     26  C28 <0> d   1      17.343  -8.090   7.287  0.00  0.00     0.272 C 
ENDBRANCH  20  21
ENDBRANCH  19  20
ENDBRANCH  18  19
ENDBRANCH  15  18
ENDBRANCH  10  12
ENDBRANCH   1  10
BRANCH   2  27
ATOM     27  C5  <0> d   1      18.301   1.011   9.027  0.00  0.00    -0.018 A 
ATOM     28  C11 <0> d   1      19.201   1.611   8.142  0.00  0.00     0.015 A 
ATOM     29  C10 <0> d   1      19.157   1.299   6.801  0.00  0.00     0.037 A 
ATOM     30  C8  <0> d   1      18.213   0.397   6.326  0.00  0.00     0.065 A 
ATOM     31  C7  <0> d   1      17.312  -0.197   7.201  0.00  0.00     0.037 A 
ATOM     32  C6  <0> d   1      17.352   0.104   8.545  0.00  0.00     0.015 A 
BRANCH  30  33
ATOM     33  O9  <0> d   1      18.171   0.096   5.003  0.00  0.00    -0.361 OA
ATOM     34  H37 <0> d   1      17.334  -0.295   4.715  0.00  0.00     0.217 HD
ENDBRANCH  30  33
ENDBRANCH   2  27
BRANCH   6  35
ATOM     35  O16 <0> d   1      18.256   3.076  16.371  0.00  0.00    -0.361 OA
ATOM     36  H41 <0> d   1      18.104   2.476  17.114  0.00  0.00     0.217 HD
ENDBRANCH   6  35
TORSDOF 9
ENDMDL
