MODEL 1
REMARK VINA RESULT:      -8.1      0.000      0.000
REMARK  9 active torsions:
REMARK  status: ('A' for Active; 'I' for Inactive)
REMARK    1  A    between atoms: N9_9  and  C10_10 
REMARK    2  A    between atoms: C10_10  and  C11_11 
REMARK    3  A    between atoms: C11_11  and  O13_12 
REMARK    4  A    between atoms: C11_11  and  C14_13 
REMARK    5  A    between atoms: C14_13  and  O16_14 
REMARK    6  A    between atoms: C14_13  and  C17_15 
REMARK    7  A    between atoms: C17_15  and  O19_16 
REMARK    8  A    between atoms: C17_15  and  C20_17 
REMARK    9  A    between atoms: C20_17  and  O21_18 
ROOT
ATOM      1  C1  <0> d   1      17.694   5.062   9.821  0.00  0.00     0.049 C 
ATOM      2  C2  <0> d   1      18.071   4.249  11.032  0.00  0.00    -0.054 A 
ATOM      3  C3  <0> d   1      17.995   4.811  12.270  0.00  0.00     0.041 A 
ATOM      4  C4  <0> d   1      18.346   4.057  13.408  0.00  0.00     0.085 A 
ATOM      5  C5  <0> d   1      18.773   2.720  13.245  0.00  0.00     0.065 A 
ATOM      6  C6  <0> d   1      18.841   2.171  11.967  0.00  0.00     0.039 A 
ATOM      7  C7  <0> d   1      18.487   2.931  10.874  0.00  0.00    -0.054 A 
ATOM      8  C8  <0> d   1      18.562   2.333   9.493  0.00  0.00     0.049 C 
ATOM      9  N9  <0> d   1      19.121   1.962  14.343  0.00  0.00    -0.325 N 
ATOM     10  C22 <0> d   1      19.043   2.531  15.578  0.00  0.00     0.170 A 
ATOM     11  N23 <0> d   1      19.360   1.874  16.681  0.00  0.00    -0.173 NA
ATOM     12  C24 <0> d   1      19.279   2.445  17.879  0.00  0.00     0.350 A 
ATOM     13  O25 <0> d   1      19.587   1.780  18.852  0.00  0.00    -0.244 OA
ATOM     14  N26 <0> d   1      18.880   3.709  18.083  0.00  0.00    -0.272 N 
ATOM     15  C27 <0> d   1      18.522   4.509  17.052  0.00  0.00     0.282 A 
ATOM     16  O28 <0> d   1      18.159   5.655  17.235  0.00  0.00    -0.265 OA
ATOM     17  C29 <0> d   1      18.592   3.928  15.692  0.00  0.00     0.171 A 
ATOM     18  N30 <0> d   1      18.270   4.613  14.624  0.00  0.00    -0.237 NA
ATOM     19  H47 <0> d   1      18.847   4.057  18.988  0.00  0.00     0.174 HD
ENDROOT
BRANCH   9  20
ATOM     20  C10 <0> d   1      19.567   0.576  14.184  0.00  0.00     0.165 C 
BRANCH  20  21
ATOM     21  C11 <0> d   1      18.352  -0.353  14.172  0.00  0.00     0.167 C 
BRANCH  21  22
ATOM     22  O13 <0> d   1      17.947  -0.626  15.514  0.00  0.00    -0.391 OA
ATOM     23  H41 <0> d   1      17.986  -1.562  15.755  0.00  0.00     0.210 HD
ENDBRANCH  21  22
BRANCH  21  24
ATOM     24  C14 <0> d   1      18.718  -1.664  13.473  0.00  0.00     0.179 C 
BRANCH  24  25
ATOM     25  O16 <0> d   1      20.099  -1.954  13.697  0.00  0.00    -0.390 OA
ATOM     26  H42 <0> d   1      20.298  -2.249  14.597  0.00  0.00     0.210 HD
ENDBRANCH  24  25
BRANCH  24  27
ATOM     27  C17 <0> d   1      18.462  -1.532  11.972  0.00  0.00     0.173 C 
BRANCH  27  28
ATOM     28  O19 <0> d   1      17.175  -2.068  11.658  0.00  0.00    -0.391 OA
ATOM     29  H43 <0> d   1      17.178  -2.693  10.919  0.00  0.00     0.210 HD
ENDBRANCH  27  28
BRANCH  27  30
ATOM     30  C20 <0> d   1      19.537  -2.301  11.200  0.00  0.00     0.198 C 
BRANCH  30  31
ATOM     31  O21 <0> d   1      20.696  -1.479  11.049  0.00  0.00    -0.398 OA
ATOM     32  H46 <0> d   1      20.813  -0.832  11.757  0.00  0.00     0.209 HD
ENDBRANCH  30  31
ENDBRANCH  27  30
ENDBRANCH  24  27
ENDBRANCH  21  24
ENDBRANCH  20  21
ENDBRANCH   9  20
TORSDOF 9
ENDMDL
MODEL 2
REMARK VINA RESULT:      -7.9      4.464      7.799
REMARK  9 active torsions:
REMARK  status: ('A' for Active; 'I' for Inactive)
REMARK    1  A    between atoms: N9_9  and  C10_10 
REMARK    2  A    between atoms: C10_10  and  C11_11 
REMARK    3  A    between atoms: C11_11  and  O13_12 
REMARK    4  A    between atoms: C11_11  and  C14_13 
REMARK    5  A    between atoms: C14_13  and  O16_14 
REMARK    6  A    between atoms: C14_13  and  C17_15 
REMARK    7  A    between atoms: C17_15  and  O19_16 
REMARK    8  A    between atoms: C17_15  and  C20_17 
REMARK    9  A    between atoms: C20_17  and  O21_18 
ROOT
ATOM      1  C1  <0> d   1      19.256  -0.078   4.998  0.00  0.00     0.049 C 
ATOM      2  C2  <0> d   1      18.919  -0.655   6.349  0.00  0.00    -0.054 A 
ATOM      3  C3  <0> d   1      18.763  -2.001   6.486  0.00  0.00     0.041 A 
ATOM      4  C4  <0> d   1      18.448  -2.548   7.746  0.00  0.00     0.085 A 
ATOM      5  C5  <0> d   1      18.300  -1.685   8.855  0.00  0.00     0.065 A 
ATOM      6  C6  <0> d   1      18.466  -0.313   8.686  0.00  0.00     0.039 A 
ATOM      7  C7  <0> d   1      18.778   0.193   7.443  0.00  0.00    -0.054 A 
ATOM      8  C8  <0> d   1      18.958   1.678   7.265  0.00  0.00     0.049 C 
ATOM      9  N9  <0> d   1      17.993  -2.196  10.098  0.00  0.00    -0.325 N 
ATOM     10  C22 <0> d   1      17.837  -3.544  10.227  0.00  0.00     0.170 A 
ATOM     11  N23 <0> d   1      17.540  -4.114  11.383  0.00  0.00    -0.173 NA
ATOM     12  C24 <0> d   1      17.391  -5.431  11.491  0.00  0.00     0.350 A 
ATOM     13  O25 <0> d   1      17.118  -5.887  12.587  0.00  0.00    -0.244 OA
ATOM     14  N26 <0> d   1      17.521  -6.288  10.468  0.00  0.00    -0.272 N 
ATOM     15  C27 <0> d   1      17.823  -5.856   9.222  0.00  0.00     0.282 A 
ATOM     16  O28 <0> d   1      17.943  -6.631   8.293  0.00  0.00    -0.265 OA
ATOM     17  C29 <0> d   1      18.002  -4.398   9.039  0.00  0.00     0.171 A 
ATOM     18  N30 <0> d   1      18.294  -3.872   7.877  0.00  0.00    -0.237 NA
ATOM     19  H47 <0> d   1      17.396  -7.237  10.625  0.00  0.00     0.174 HD
ENDROOT
BRANCH   9  20
ATOM     20  C10 <0> d   1      17.836  -1.310  11.254  0.00  0.00     0.165 C 
BRANCH  20  21
ATOM     21  C11 <0> d   1      19.166  -1.206  12.002  0.00  0.00     0.167 C 
BRANCH  21  22
ATOM     22  O13 <0> d   1      19.206  -2.185  13.041  0.00  0.00    -0.391 OA
ATOM     23  H41 <0> d   1      20.081  -2.304  13.436  0.00  0.00     0.210 HD
ENDBRANCH  21  22
BRANCH  21  24
ATOM     24  C14 <0> d   1      19.300   0.191  12.612  0.00  0.00     0.179 C 
BRANCH  24  25
ATOM     25  O16 <0> d   1      18.024   0.833  12.620  0.00  0.00    -0.390 OA
ATOM     26  H42 <0> d   1      17.483   0.641  11.842  0.00  0.00     0.210 HD
ENDBRANCH  24  25
BRANCH  24  27
ATOM     27  C17 <0> d   1      20.282   1.018  11.780  0.00  0.00     0.173 C 
BRANCH  27  28
ATOM     28  O19 <0> d   1      21.620   0.697  12.163  0.00  0.00    -0.391 OA
ATOM     29  H43 <0> d   1      21.681   0.122  12.938  0.00  0.00     0.210 HD
ENDBRANCH  27  28
BRANCH  27  30
ATOM     30  C20 <0> d   1      20.027   2.508  12.022  0.00  0.00     0.198 C 
BRANCH  30  31
ATOM     31  O21 <0> d   1      21.139   3.266  11.541  0.00  0.00    -0.398 OA
ATOM     32  H46 <0> d   1      20.971   3.723  10.707  0.00  0.00     0.209 HD
ENDBRANCH  30  31
ENDBRANCH  27  30
ENDBRANCH  24  27
ENDBRANCH  21  24
ENDBRANCH  20  21
ENDBRANCH   9  20
TORSDOF 9
ENDMDL
MODEL 3
REMARK VINA RESULT:      -7.8      4.093      6.682
REMARK  9 active torsions:
REMARK  status: ('A' for Active; 'I' for Inactive)
REMARK    1  A    between atoms: N9_9  and  C10_10 
REMARK    2  A    between atoms: C10_10  and  C11_11 
REMARK    3  A    between atoms: C11_11  and  O13_12 
REMARK    4  A    between atoms: C11_11  and  C14_13 
REMARK    5  A    between atoms: C14_13  and  O16_14 
REMARK    6  A    between atoms: C14_13  and  C17_15 
REMARK    7  A    between atoms: C17_15  and  O19_16 
REMARK    8  A    between atoms: C17_15  and  C20_17 
REMARK    9  A    between atoms: C20_17  and  O21_18 
ROOT
ATOM      1  C1  <0> d   1      19.211   1.597  16.010  0.00  0.00     0.049 C 
ATOM      2  C2  <0> d   1      19.044   0.744  14.779  0.00  0.00    -0.054 A 
ATOM      3  C3  <0> d   1      19.226   1.295  13.548  0.00  0.00     0.041 A 
ATOM      4  C4  <0> d   1      19.071   0.503  12.392  0.00  0.00     0.085 A 
ATOM      5  C5  <0> d   1      18.728  -0.861  12.532  0.00  0.00     0.065 A 
ATOM      6  C6  <0> d   1      18.549  -1.398  13.804  0.00  0.00     0.039 A 
ATOM      7  C7  <0> d   1      18.711  -0.601  14.915  0.00  0.00    -0.054 A 
ATOM      8  C8  <0> d   1      18.516  -1.187  16.289  0.00  0.00     0.049 C 
ATOM      9  N9  <0> d   1      18.572  -1.656  11.416  0.00  0.00    -0.325 N 
ATOM     10  C22 <0> d   1      18.755  -1.097  10.187  0.00  0.00     0.170 A 
ATOM     11  N23 <0> d   1      18.622  -1.789   9.069  0.00  0.00    -0.173 NA
ATOM     12  C24 <0> d   1      18.803  -1.228   7.877  0.00  0.00     0.350 A 
ATOM     13  O25 <0> d   1      18.664  -1.926   6.888  0.00  0.00    -0.244 OA
ATOM     14  N26 <0> d   1      19.129   0.061   7.695  0.00  0.00    -0.272 N 
ATOM     15  C27 <0> d   1      19.300   0.897   8.744  0.00  0.00     0.282 A 
ATOM     16  O28 <0> d   1      19.596   2.066   8.583  0.00  0.00    -0.265 OA
ATOM     17  C29 <0> d   1      19.111   0.329  10.098  0.00  0.00     0.171 A 
ATOM     18  N30 <0> d   1      19.250   1.049  11.182  0.00  0.00    -0.237 NA
ATOM     19  H47 <0> d   1      19.244   0.399   6.793  0.00  0.00     0.174 HD
ENDROOT
BRANCH   9  20
ATOM     20  C10 <0> d   1      18.215  -3.070  11.550  0.00  0.00     0.165 C 
BRANCH  20  21
ATOM     21  C11 <0> d   1      19.483  -3.923  11.510  0.00  0.00     0.167 C 
BRANCH  21  22
ATOM     22  O13 <0> d   1      20.614  -3.084  11.267  0.00  0.00    -0.391 OA
ATOM     23  H41 <0> d   1      20.510  -2.180  11.594  0.00  0.00     0.210 HD
ENDBRANCH  21  22
BRANCH  21  24
ATOM     24  C14 <0> d   1      19.367  -4.960  10.390  0.00  0.00     0.179 C 
BRANCH  24  25
ATOM     25  O16 <0> d   1      20.031  -4.476   9.222  0.00  0.00    -0.390 OA
ATOM     26  H42 <0> d   1      20.233  -5.163   8.571  0.00  0.00     0.210 HD
ENDBRANCH  24  25
BRANCH  24  27
ATOM     27  C17 <0> d   1      17.891  -5.205  10.073  0.00  0.00     0.173 C 
BRANCH  27  28
ATOM     28  O19 <0> d   1      17.438  -6.362  10.778  0.00  0.00    -0.391 OA
ATOM     29  H43 <0> d   1      16.786  -6.888  10.294  0.00  0.00     0.210 HD
ENDBRANCH  27  28
BRANCH  27  30
ATOM     30  C20 <0> d   1      17.722  -5.426   8.568  0.00  0.00     0.198 C 
BRANCH  30  31
ATOM     31  O21 <0> d   1      17.186  -4.244   7.969  0.00  0.00    -0.398 OA
ATOM     32  H46 <0> d   1      16.344  -4.381   7.516  0.00  0.00     0.209 HD
ENDBRANCH  30  31
ENDBRANCH  27  30
ENDBRANCH  24  27
ENDBRANCH  21  24
ENDBRANCH  20  21
ENDBRANCH   9  20
TORSDOF 9
ENDMDL
MODEL 4
REMARK VINA RESULT:      -7.8      2.626      6.054
REMARK  9 active torsions:
REMARK  status: ('A' for Active; 'I' for Inactive)
REMARK    1  A    between atoms: N9_9  and  C10_10 
REMARK    2  A    between atoms: C10_10  and  C11_11 
REMARK    3  A    between atoms: C11_11  and  O13_12 
REMARK    4  A    between atoms: C11_11  and  C14_13 
REMARK    5  A    between atoms: C14_13  and  O16_14 
REMARK    6  A    between atoms: C14_13  and  C17_15 
REMARK    7  A    between atoms: C17_15  and  O19_16 
REMARK    8  A    between atoms: C17_15  and  C20_17 
REMARK    9  A    between atoms: C20_17  and  O21_18 
ROOT
ATOM      1  C1  <0> d   1      17.607   5.092  10.266  0.00  0.00     0.049 C 
ATOM      2  C2  <0> d   1      17.776   3.693  10.799  0.00  0.00    -0.054 A 
ATOM      3  C3  <0> d   1      18.144   2.691   9.955  0.00  0.00     0.041 A 
ATOM      4  C4  <0> d   1      18.305   1.379  10.445  0.00  0.00     0.085 A 
ATOM      5  C5  <0> d   1      18.081   1.125  11.817  0.00  0.00     0.065 A 
ATOM      6  C6  <0> d   1      17.706   2.169  12.659  0.00  0.00     0.039 A 
ATOM      7  C7  <0> d   1      17.561   3.441  12.151  0.00  0.00    -0.054 A 
ATOM      8  C8  <0> d   1      17.155   4.568  13.065  0.00  0.00     0.049 C 
ATOM      9  N9  <0> d   1      18.233  -0.150  12.322  0.00  0.00    -0.325 N 
ATOM     10  C22 <0> d   1      18.601  -1.147  11.470  0.00  0.00     0.170 A 
ATOM     11  N23 <0> d   1      18.765  -2.396  11.873  0.00  0.00    -0.173 NA
ATOM     12  C24 <0> d   1      19.124  -3.359  11.028  0.00  0.00     0.350 A 
ATOM     13  O25 <0> d   1      19.257  -4.486  11.469  0.00  0.00    -0.244 OA
ATOM     14  N26 <0> d   1      19.347  -3.165   9.720  0.00  0.00    -0.272 N 
ATOM     15  C27 <0> d   1      19.219  -1.941   9.158  0.00  0.00     0.282 A 
ATOM     16  O28 <0> d   1      19.421  -1.762   7.973  0.00  0.00    -0.265 OA
ATOM     17  C29 <0> d   1      18.821  -0.828  10.050  0.00  0.00     0.171 A 
ATOM     18  N30 <0> d   1      18.667   0.396   9.612  0.00  0.00    -0.237 NA
ATOM     19  H47 <0> d   1      19.606  -3.918   9.166  0.00  0.00     0.174 HD
ENDROOT
BRANCH   9  20
ATOM     20  C10 <0> d   1      18.001  -0.424  13.742  0.00  0.00     0.165 C 
BRANCH  20  21
ATOM     21  C11 <0> d   1      19.312  -0.265  14.514  0.00  0.00     0.167 C 
BRANCH  21  22
ATOM     22  O13 <0> d   1      20.138  -1.409  14.290  0.00  0.00    -0.391 OA
ATOM     23  H41 <0> d   1      20.130  -1.728  13.376  0.00  0.00     0.210 HD
ENDBRANCH  21  22
BRANCH  21  24
ATOM     24  C14 <0> d   1      19.013  -0.137  16.009  0.00  0.00     0.179 C 
BRANCH  24  25
ATOM     25  O16 <0> d   1      17.817  -0.854  16.319  0.00  0.00    -0.390 OA
ATOM     26  H42 <0> d   1      17.141  -0.320  16.758  0.00  0.00     0.210 HD
ENDBRANCH  24  25
BRANCH  24  27
ATOM     27  C17 <0> d   1      18.830   1.339  16.367  0.00  0.00     0.173 C 
BRANCH  27  28
ATOM     28  O19 <0> d   1      19.642   2.142  15.509  0.00  0.00    -0.391 OA
ATOM     29  H43 <0> d   1      20.246   1.635  14.950  0.00  0.00     0.210 HD
ENDBRANCH  27  28
BRANCH  27  30
ATOM     30  C20 <0> d   1      19.247   1.566  17.823  0.00  0.00     0.198 C 
BRANCH  30  31
ATOM     31  O21 <0> d   1      19.942   0.413  18.305  0.00  0.00    -0.398 OA
ATOM     32  H46 <0> d   1      20.824   0.300  17.927  0.00  0.00     0.209 HD
ENDBRANCH  30  31
ENDBRANCH  27  30
ENDBRANCH  24  27
ENDBRANCH  21  24
ENDBRANCH  20  21
ENDBRANCH   9  20
TORSDOF 9
ENDMDL
MODEL 5
REMARK VINA RESULT:      -7.8      2.488      5.122
REMARK  9 active torsions:
REMARK  status: ('A' for Active; 'I' for Inactive)
REMARK    1  A    between atoms: N9_9  and  C10_10 
REMARK    2  A    between atoms: C10_10  and  C11_11 
REMARK    3  A    between atoms: C11_11  and  O13_12 
REMARK    4  A    between atoms: C11_11  and  C14_13 
REMARK    5  A    between atoms: C14_13  and  O16_14 
REMARK    6  A    between atoms: C14_13  and  C17_15 
REMARK    7  A    between atoms: C17_15  and  O19_16 
REMARK    8  A    between atoms: C17_15  and  C20_17 
REMARK    9  A    between atoms: C20_17  and  O21_18 
ROOT
ATOM      1  C1  <0> d   1      19.005   0.275  18.537  0.00  0.00     0.049 C 
ATOM      2  C2  <0> d   1      18.837   0.552  17.065  0.00  0.00    -0.054 A 
ATOM      3  C3  <0> d   1      18.664   1.832  16.635  0.00  0.00     0.041 A 
ATOM      4  C4  <0> d   1      18.507   2.099  15.261  0.00  0.00     0.085 A 
ATOM      5  C5  <0> d   1      18.534   1.024  14.343  0.00  0.00     0.065 A 
ATOM      6  C6  <0> d   1      18.713  -0.275  14.810  0.00  0.00     0.039 A 
ATOM      7  C7  <0> d   1      18.869  -0.504  16.159  0.00  0.00    -0.054 A 
ATOM      8  C8  <0> d   1      19.063  -1.912  16.660  0.00  0.00     0.049 C 
ATOM      9  N9  <0> d   1      18.383   1.259  12.992  0.00  0.00    -0.325 N 
ATOM     10  C22 <0> d   1      18.208   2.543  12.571  0.00  0.00     0.170 A 
ATOM     11  N23 <0> d   1      18.055   2.854  11.295  0.00  0.00    -0.173 NA
ATOM     12  C24 <0> d   1      17.885   4.113  10.900  0.00  0.00     0.350 A 
ATOM     13  O25 <0> d   1      17.749   4.324   9.708  0.00  0.00    -0.244 OA
ATOM     14  N26 <0> d   1      17.852   5.163  11.733  0.00  0.00    -0.272 N 
ATOM     15  C27 <0> d   1      17.996   5.006  13.069  0.00  0.00     0.282 A 
ATOM     16  O28 <0> d   1      17.967   5.956  13.827  0.00  0.00    -0.265 OA
ATOM     17  C29 <0> d   1      18.188   3.625  13.569  0.00  0.00     0.171 A 
ATOM     18  N30 <0> d   1      18.335   3.359  14.842  0.00  0.00    -0.237 NA
ATOM     19  H47 <0> d   1      17.724   6.053  11.370  0.00  0.00     0.174 HD
ENDROOT
BRANCH   9  20
ATOM     20  C10 <0> d   1      18.407   0.153  12.033  0.00  0.00     0.165 C 
BRANCH  20  21
ATOM     21  C11 <0> d   1      19.855  -0.162  11.654  0.00  0.00     0.167 C 
BRANCH  21  22
ATOM     22  O13 <0> d   1      20.627   1.039  11.682  0.00  0.00    -0.391 OA
ATOM     23  H41 <0> d   1      20.221   1.779  11.208  0.00  0.00     0.210 HD
ENDBRANCH  21  22
BRANCH  21  24
ATOM     24  C14 <0> d   1      19.896  -0.763  10.247  0.00  0.00     0.179 C 
BRANCH  24  25
ATOM     25  O16 <0> d   1      21.136  -0.429   9.622  0.00  0.00    -0.390 OA
ATOM     26  H42 <0> d   1      21.150   0.451   9.221  0.00  0.00     0.210 HD
ENDBRANCH  24  25
BRANCH  24  27
ATOM     27  C17 <0> d   1      18.739  -0.201   9.419  0.00  0.00     0.173 C 
BRANCH  27  28
ATOM     28  O19 <0> d   1      18.034  -1.275   8.794  0.00  0.00    -0.391 OA
ATOM     29  H43 <0> d   1      17.237  -1.000   8.321  0.00  0.00     0.210 HD
ENDBRANCH  27  28
BRANCH  27  30
ATOM     30  C20 <0> d   1      19.291   0.740   8.345  0.00  0.00     0.198 C 
BRANCH  30  31
ATOM     31  O21 <0> d   1      19.731   1.955   8.956  0.00  0.00    -0.398 OA
ATOM     32  H46 <0> d   1      19.086   2.347   9.559  0.00  0.00     0.209 HD
ENDBRANCH  30  31
ENDBRANCH  27  30
ENDBRANCH  24  27
ENDBRANCH  21  24
ENDBRANCH  20  21
ENDBRANCH   9  20
TORSDOF 9
ENDMDL
MODEL 6
REMARK VINA RESULT:      -7.8      3.107      5.736
REMARK  9 active torsions:
REMARK  status: ('A' for Active; 'I' for Inactive)
REMARK    1  A    between atoms: N9_9  and  C10_10 
REMARK    2  A    between atoms: C10_10  and  C11_11 
REMARK    3  A    between atoms: C11_11  and  O13_12 
REMARK    4  A    between atoms: C11_11  and  C14_13 
REMARK    5  A    between atoms: C14_13  and  O16_14 
REMARK    6  A    between atoms: C14_13  and  C17_15 
REMARK    7  A    between atoms: C17_15  and  O19_16 
REMARK    8  A    between atoms: C17_15  and  C20_17 
REMARK    9  A    between atoms: C20_17  and  O21_18 
ROOT
ATOM      1  C1  <0> d   1      18.880   0.374  17.904  0.00  0.00     0.049 C 
ATOM      2  C2  <0> d   1      18.805   0.137  16.417  0.00  0.00    -0.054 A 
ATOM      3  C3  <0> d   1      19.130   1.142  15.558  0.00  0.00     0.041 A 
ATOM      4  C4  <0> d   1      19.063   0.928  14.167  0.00  0.00     0.085 A 
ATOM      5  C5  <0> d   1      18.658  -0.337  13.683  0.00  0.00     0.065 A 
ATOM      6  C6  <0> d   1      18.331  -1.346  14.585  0.00  0.00     0.039 A 
ATOM      7  C7  <0> d   1      18.411  -1.109  15.939  0.00  0.00    -0.054 A 
ATOM      8  C8  <0> d   1      18.058  -2.205  16.911  0.00  0.00     0.049 C 
ATOM      9  N9  <0> d   1      18.584  -0.571  12.325  0.00  0.00    -0.325 N 
ATOM     10  C22 <0> d   1      18.910   0.439  11.472  0.00  0.00     0.170 A 
ATOM     11  N23 <0> d   1      18.864   0.298  10.158  0.00  0.00    -0.173 NA
ATOM     12  C24 <0> d   1      19.185   1.295   9.339  0.00  0.00     0.350 A 
ATOM     13  O25 <0> d   1      19.120   1.093   8.139  0.00  0.00    -0.244 OA
ATOM     14  N26 <0> d   1      19.575   2.510   9.752  0.00  0.00    -0.272 N 
ATOM     15  C27 <0> d   1      19.671   2.809  11.067  0.00  0.00     0.282 A 
ATOM     16  O28 <0> d   1      20.025   3.909  11.444  0.00  0.00    -0.265 OA
ATOM     17  C29 <0> d   1      19.327   1.737  12.029  0.00  0.00     0.171 A 
ATOM     18  N30 <0> d   1      19.383   1.918  13.324  0.00  0.00    -0.237 NA
ATOM     19  H47 <0> d   1      19.793   3.188   9.093  0.00  0.00     0.174 HD
ENDROOT
BRANCH   9  20
ATOM     20  C10 <0> d   1      18.163  -1.878  11.814  0.00  0.00     0.165 C 
BRANCH  20  21
ATOM     21  C11 <0> d   1      19.382  -2.793  11.686  0.00  0.00     0.167 C 
BRANCH  21  22
ATOM     22  O13 <0> d   1      20.511  -2.027  11.264  0.00  0.00    -0.391 OA
ATOM     23  H41 <0> d   1      20.330  -1.081  11.166  0.00  0.00     0.210 HD
ENDBRANCH  21  22
BRANCH  21  24
ATOM     24  C14 <0> d   1      19.093  -3.886  10.655  0.00  0.00     0.179 C 
BRANCH  24  25
ATOM     25  O16 <0> d   1      20.318  -4.305  10.050  0.00  0.00    -0.390 OA
ATOM     26  H42 <0> d   1      20.534  -5.235  10.203  0.00  0.00     0.210 HD
ENDBRANCH  24  25
BRANCH  24  27
ATOM     27  C17 <0> d   1      18.153  -3.339   9.581  0.00  0.00     0.173 C 
BRANCH  27  28
ATOM     28  O19 <0> d   1      17.085  -4.264   9.365  0.00  0.00    -0.391 OA
ATOM     29  H43 <0> d   1      17.279  -5.165   9.658  0.00  0.00     0.210 HD
ENDBRANCH  27  28
BRANCH  27  30
ATOM     30  C20 <0> d   1      18.928  -3.143   8.275  0.00  0.00     0.198 C 
BRANCH  30  31
ATOM     31  O21 <0> d   1      19.705  -1.946   8.358  0.00  0.00    -0.398 OA
ATOM     32  H46 <0> d   1      19.185  -1.135   8.283  0.00  0.00     0.209 HD
ENDBRANCH  30  31
ENDBRANCH  27  30
ENDBRANCH  24  27
ENDBRANCH  21  24
ENDBRANCH  20  21
ENDBRANCH   9  20
TORSDOF 9
ENDMDL
MODEL 7
REMARK VINA RESULT:      -7.7      3.978      6.803
REMARK  9 active torsions:
REMARK  status: ('A' for Active; 'I' for Inactive)
REMARK    1  A    between atoms: N9_9  and  C10_10 
REMARK    2  A    between atoms: C10_10  and  C11_11 
REMARK    3  A    between atoms: C11_11  and  O13_12 
REMARK    4  A    between atoms: C11_11  and  C14_13 
REMARK    5  A    between atoms: C14_13  and  O16_14 
REMARK    6  A    between atoms: C14_13  and  C17_15 
REMARK    7  A    between atoms: C17_15  and  O19_16 
REMARK    8  A    between atoms: C17_15  and  C20_17 
REMARK    9  A    between atoms: C20_17  and  O21_18 
ROOT
ATOM      1  C1  <0> d   1      17.848   4.897  11.767  0.00  0.00     0.049 C 
ATOM      2  C2  <0> d   1      18.260   3.527  11.292  0.00  0.00    -0.054 A 
ATOM      3  C3  <0> d   1      18.177   3.220   9.968  0.00  0.00     0.041 A 
ATOM      4  C4  <0> d   1      18.561   1.941   9.517  0.00  0.00     0.085 A 
ATOM      5  C5  <0> d   1      19.031   0.992  10.452  0.00  0.00     0.065 A 
ATOM      6  C6  <0> d   1      19.106   1.334  11.800  0.00  0.00     0.039 A 
ATOM      7  C7  <0> d   1      18.728   2.593  12.211  0.00  0.00    -0.054 A 
ATOM      8  C8  <0> d   1      18.811   2.958  13.671  0.00  0.00     0.049 C 
ATOM      9  N9  <0> d   1      19.414  -0.266  10.035  0.00  0.00    -0.325 N 
ATOM     10  C22 <0> d   1      19.327  -0.566   8.709  0.00  0.00     0.170 A 
ATOM     11  N23 <0> d   1      19.672  -1.748   8.228  0.00  0.00    -0.173 NA
ATOM     12  C24 <0> d   1      19.580  -2.025   6.930  0.00  0.00     0.350 A 
ATOM     13  O25 <0> d   1      19.915  -3.135   6.557  0.00  0.00    -0.244 OA
ATOM     14  N26 <0> d   1      19.140  -1.158   6.006  0.00  0.00    -0.272 N 
ATOM     15  C27 <0> d   1      18.751   0.093   6.345  0.00  0.00     0.282 A 
ATOM     16  O28 <0> d   1      18.353   0.881   5.509  0.00  0.00    -0.265 OA
ATOM     17  C29 <0> d   1      18.831   0.460   7.777  0.00  0.00     0.171 A 
ATOM     18  N30 <0> d   1      18.478   1.642   8.214  0.00  0.00    -0.237 NA
ATOM     19  H47 <0> d   1      19.101  -1.433   5.077  0.00  0.00     0.174 HD
ENDROOT
BRANCH   9  20
ATOM     20  C10 <0> d   1      19.901  -1.257  10.997  0.00  0.00     0.165 C 
BRANCH  20  21
ATOM     21  C11 <0> d   1      18.790  -2.264  11.300  0.00  0.00     0.167 C 
BRANCH  21  22
ATOM     22  O13 <0> d   1      18.129  -1.895  12.511  0.00  0.00    -0.391 OA
ATOM     23  H41 <0> d   1      17.195  -1.670  12.397  0.00  0.00     0.210 HD
ENDBRANCH  21  22
BRANCH  21  24
ATOM     24  C14 <0> d   1      19.395  -3.661  11.453  0.00  0.00     0.179 C 
BRANCH  24  25
ATOM     25  O16 <0> d   1      20.820  -3.569  11.419  0.00  0.00    -0.390 OA
ATOM     26  H42 <0> d   1      21.254  -4.337  11.020  0.00  0.00     0.210 HD
ENDBRANCH  24  25
BRANCH  24  27
ATOM     27  C17 <0> d   1      18.913  -4.554  10.310  0.00  0.00     0.173 C 
BRANCH  27  28
ATOM     28  O19 <0> d   1      19.847  -4.494   9.231  0.00  0.00    -0.391 OA
ATOM     29  H43 <0> d   1      20.656  -5.002   9.381  0.00  0.00     0.210 HD
ENDBRANCH  27  28
BRANCH  27  30
ATOM     30  C20 <0> d   1      17.544  -4.070   9.826  0.00  0.00     0.198 C 
BRANCH  30  31
ATOM     31  O21 <0> d   1      17.535  -4.014   8.398  0.00  0.00    -0.398 OA
ATOM     32  H46 <0> d   1      17.549  -4.881   7.971  0.00  0.00     0.209 HD
ENDBRANCH  30  31
ENDBRANCH  27  30
ENDBRANCH  24  27
ENDBRANCH  21  24
ENDBRANCH  20  21
ENDBRANCH   9  20
TORSDOF 9
ENDMDL
MODEL 8
REMARK VINA RESULT:      -7.7      2.606      6.245
REMARK  9 active torsions:
REMARK  status: ('A' for Active; 'I' for Inactive)
REMARK    1  A    between atoms: N9_9  and  C10_10 
REMARK    2  A    between atoms: C10_10  and  C11_11 
REMARK    3  A    between atoms: C11_11  and  O13_12 
REMARK    4  A    between atoms: C11_11  and  C14_13 
REMARK    5  A    between atoms: C14_13  and  O16_14 
REMARK    6  A    between atoms: C14_13  and  C17_15 
REMARK    7  A    between atoms: C17_15  and  O19_16 
REMARK    8  A    between atoms: C17_15  and  C20_17 
REMARK    9  A    between atoms: C20_17  and  O21_18 
ROOT
ATOM      1  C1  <0> d   1      17.759  -4.948   9.002  0.00  0.00     0.049 C 
ATOM      2  C2  <0> d   1      17.859  -3.731   9.885  0.00  0.00    -0.054 A 
ATOM      3  C3  <0> d   1      18.139  -2.519   9.332  0.00  0.00     0.041 A 
ATOM      4  C4  <0> d   1      18.233  -1.376  10.152  0.00  0.00     0.085 A 
ATOM      5  C5  <0> d   1      18.033  -1.508  11.545  0.00  0.00     0.065 A 
ATOM      6  C6  <0> d   1      17.748  -2.760  12.083  0.00  0.00     0.039 A 
ATOM      7  C7  <0> d   1      17.657  -3.858  11.256  0.00  0.00    -0.054 A 
ATOM      8  C8  <0> d   1      17.348  -5.211  11.843  0.00  0.00     0.049 C 
ATOM      9  N9  <0> d   1      18.120  -0.405  12.368  0.00  0.00    -0.325 N 
ATOM     10  C22 <0> d   1      18.402   0.805  11.807  0.00  0.00     0.170 A 
ATOM     11  N23 <0> d   1      18.504   1.910  12.525  0.00  0.00    -0.173 NA
ATOM     12  C24 <0> d   1      18.780   3.083  11.962  0.00  0.00     0.350 A 
ATOM     13  O25 <0> d   1      18.859   4.060  12.685  0.00  0.00    -0.244 OA
ATOM     14  N26 <0> d   1      18.977   3.257  10.647  0.00  0.00    -0.272 N 
ATOM     15  C27 <0> d   1      18.905   2.219   9.782  0.00  0.00     0.282 A 
ATOM     16  O28 <0> d   1      19.083   2.374   8.589  0.00  0.00    -0.265 OA
ATOM     17  C29 <0> d   1      18.601   0.887  10.350  0.00  0.00     0.171 A 
ATOM     18  N30 <0> d   1      18.509  -0.185   9.605  0.00  0.00    -0.237 NA
ATOM     19  H47 <0> d   1      19.175   4.145  10.310  0.00  0.00     0.174 HD
ENDROOT
BRANCH   9  20
ATOM     20  C10 <0> d   1      17.917  -0.531  13.813  0.00  0.00     0.165 C 
BRANCH  20  21
ATOM     21  C11 <0> d   1      19.251  -0.342  14.535  0.00  0.00     0.167 C 
BRANCH  21  22
ATOM     22  O13 <0> d   1      20.014  -1.547  14.449  0.00  0.00    -0.391 OA
ATOM     23  H41 <0> d   1      20.571  -1.605  13.660  0.00  0.00     0.210 HD
ENDBRANCH  21  22
BRANCH  21  24
ATOM     24  C14 <0> d   1      18.993  -0.006  16.005  0.00  0.00     0.179 C 
BRANCH  24  25
ATOM     25  O16 <0> d   1      17.832  -0.705  16.457  0.00  0.00    -0.390 OA
ATOM     26  H42 <0> d   1      17.193  -0.899  15.758  0.00  0.00     0.210 HD
ENDBRANCH  24  25
BRANCH  24  27
ATOM     27  C17 <0> d   1      18.772   1.500  16.152  0.00  0.00     0.173 C 
BRANCH  27  28
ATOM     28  O19 <0> d   1      19.607   2.198  15.227  0.00  0.00    -0.391 OA
ATOM     29  H43 <0> d   1      19.573   3.161  15.314  0.00  0.00     0.210 HD
ENDBRANCH  27  28
BRANCH  27  30
ATOM     30  C20 <0> d   1      19.121   1.931  17.579  0.00  0.00     0.198 C 
BRANCH  30  31
ATOM     31  O21 <0> d   1      19.809   0.868  18.243  0.00  0.00    -0.398 OA
ATOM     32  H46 <0> d   1      19.224   0.222  18.660  0.00  0.00     0.209 HD
ENDBRANCH  30  31
ENDBRANCH  27  30
ENDBRANCH  24  27
ENDBRANCH  21  24
ENDBRANCH  20  21
ENDBRANCH   9  20
TORSDOF 9
ENDMDL
MODEL 9
REMARK VINA RESULT:      -7.5      1.998      3.757
REMARK  9 active torsions:
REMARK  status: ('A' for Active; 'I' for Inactive)
REMARK    1  A    between atoms: N9_9  and  C10_10 
REMARK    2  A    between atoms: C10_10  and  C11_11 
REMARK    3  A    between atoms: C11_11  and  O13_12 
REMARK    4  A    between atoms: C11_11  and  C14_13 
REMARK    5  A    between atoms: C14_13  and  O16_14 
REMARK    6  A    between atoms: C14_13  and  C17_15 
REMARK    7  A    between atoms: C17_15  and  O19_16 
REMARK    8  A    between atoms: C17_15  and  C20_17 
REMARK    9  A    between atoms: C20_17  and  O21_18 
ROOT
ATOM      1  C1  <0> d   1      18.880   2.409   8.417  0.00  0.00     0.049 C 
ATOM      2  C2  <0> d   1      18.702   2.374   9.913  0.00  0.00    -0.054 A 
ATOM      3  C3  <0> d   1      19.135   3.421  10.668  0.00  0.00     0.041 A 
ATOM      4  C4  <0> d   1      18.972   3.396  12.067  0.00  0.00     0.085 A 
ATOM      5  C5  <0> d   1      18.355   2.276  12.669  0.00  0.00     0.065 A 
ATOM      6  C6  <0> d   1      17.921   1.219  11.873  0.00  0.00     0.039 A 
ATOM      7  C7  <0> d   1      18.090   1.274  10.507  0.00  0.00    -0.054 A 
ATOM      8  C8  <0> d   1      17.619   0.128   9.649  0.00  0.00     0.049 C 
ATOM      9  N9  <0> d   1      18.183   2.227  14.037  0.00  0.00    -0.325 N 
ATOM     10  C22 <0> d   1      18.620   3.279  14.785  0.00  0.00     0.170 A 
ATOM     11  N23 <0> d   1      18.495   3.310  16.101  0.00  0.00    -0.173 NA
ATOM     12  C24 <0> d   1      18.928   4.344  16.817  0.00  0.00     0.350 A 
ATOM     13  O25 <0> d   1      18.779   4.305  18.025  0.00  0.00    -0.244 OA
ATOM     14  N26 <0> d   1      19.518   5.427  16.290  0.00  0.00    -0.272 N 
ATOM     15  C27 <0> d   1      19.717   5.542  14.957  0.00  0.00     0.282 A 
ATOM     16  O28 <0> d   1      20.252   6.523  14.478  0.00  0.00    -0.265 OA
ATOM     17  C29 <0> d   1      19.256   4.421  14.107  0.00  0.00     0.171 A 
ATOM     18  N30 <0> d   1      19.400   4.427  12.807  0.00  0.00    -0.237 NA
ATOM     19  H47 <0> d   1      19.808   6.143  16.878  0.00  0.00     0.174 HD
ENDROOT
BRANCH   9  20
ATOM     20  C10 <0> d   1      17.546   1.070  14.670  0.00  0.00     0.165 C 
BRANCH  20  21
ATOM     21  C11 <0> d   1      18.605   0.236  15.392  0.00  0.00     0.167 C 
BRANCH  21  22
ATOM     22  O13 <0> d   1      18.999  -0.857  14.560  0.00  0.00    -0.391 OA
ATOM     23  H41 <0> d   1      19.082  -0.629  13.623  0.00  0.00     0.210 HD
ENDBRANCH  21  22
BRANCH  21  24
ATOM     24  C14 <0> d   1      18.026  -0.303  16.702  0.00  0.00     0.179 C 
BRANCH  24  25
ATOM     25  O16 <0> d   1      16.621  -0.049  16.741  0.00  0.00    -0.390 OA
ATOM     26  H42 <0> d   1      16.391   0.890  16.725  0.00  0.00     0.210 HD
ENDBRANCH  24  25
BRANCH  24  27
ATOM     27  C17 <0> d   1      18.704   0.393  17.883  0.00  0.00     0.173 C 
BRANCH  27  28
ATOM     28  O19 <0> d   1      19.624  -0.508  18.503  0.00  0.00    -0.391 OA
ATOM     29  H43 <0> d   1      20.492  -0.121  18.685  0.00  0.00     0.210 HD
ENDBRANCH  27  28
BRANCH  27  30
ATOM     30  C20 <0> d   1      17.644   0.819  18.902  0.00  0.00     0.198 C 
BRANCH  30  31
ATOM     31  O21 <0> d   1      17.017   2.025  18.461  0.00  0.00    -0.398 OA
ATOM     32  H46 <0> d   1      17.537   2.822  18.630  0.00  0.00     0.209 HD
ENDBRANCH  30  31
ENDBRANCH  27  30
ENDBRANCH  24  27
ENDBRANCH  21  24
ENDBRANCH  20  21
ENDBRANCH   9  20
TORSDOF 9
ENDMDL
