MODEL 1
REMARK VINA RESULT:      -8.0      0.000      0.000
REMARK  13 active torsions:
REMARK  status: ('A' for Active; 'I' for Inactive)
REMARK    1  A    between atoms: N2_2  and  C5_5 
REMARK    2  A    between atoms: C5_5  and  C8_7 
REMARK    3  A    between atoms: C12_10  and  N14_11 
REMARK    4  A    between atoms: C18_15  and  O20_16 
REMARK    5  A    between atoms: O20_16  and  C21_17 
REMARK    6  A    between atoms: C23_18  and  N25_19 
REMARK    7  A    between atoms: C30_24  and  N32_25 
REMARK    8  A    between atoms: C36_29  and  O38_30 
REMARK    9  A    between atoms: O38_30  and  C39_31 
REMARK   10  A    between atoms: C43_34  and  O45_36 
REMARK   11  A    between atoms: C46_37  and  N48_38 
REMARK   12  A    between atoms: C52_42  and  O54_43 
REMARK   13  A    between atoms: C55_44  and  O57_45 
ROOT
ATOM      1  C21 ZIN A   1      18.943   2.947  13.308  0.00  0.00     0.186 C 
ATOM      2  C23 ZIN A   1      18.060   4.192  13.410  0.00  0.00     0.217 C 
ATOM      3  C29 ZIN A   1      17.308   4.395  12.094  0.00  0.00     0.071 C 
ATOM      4  C30 ZIN A   1      18.314   4.575  10.955  0.00  0.00     0.217 C 
ATOM      5  C36 ZIN A   1      19.198   3.331  10.852  0.00  0.00     0.186 C 
ATOM      6  C55 ZIN A   1      19.949   3.128  12.169  0.00  0.00     0.180 C 
ENDROOT
BRANCH   1   7
ATOM      7  O20 ZIN A   1      18.127   1.804  13.045  0.00  0.00    -0.349 OA
BRANCH   7   8
ATOM      8  C18 ZIN A   1      17.938   0.952  14.176  0.00  0.00     0.291 C 
ATOM      9  C12 ZIN A   1      18.489  -0.442  13.863  0.00  0.00     0.238 C 
ATOM     10  C11 ZIN A   1      18.339  -1.332  15.100  0.00  0.00     0.040 C 
ATOM     11  C10 ZIN A   1      19.060  -0.674  16.280  0.00  0.00     0.036 C 
ATOM     12  C8  ZIN A   1      18.488   0.729  16.500  0.00  0.00     0.155 C 
ATOM     13  O58 ZIN A   1      18.632   1.494  15.302  0.00  0.00    -0.352 OA
BRANCH   9  14
ATOM     14  N14 ZIN A   1      19.909  -0.340  13.501  0.00  0.00    -0.070 N 
ATOM     15  H15 ZIN A   1      20.445  -0.073  14.313  0.00  0.00     0.274 HD
ATOM     16  H16 ZIN A   1      20.235  -1.233  13.163  0.00  0.00     0.274 HD
ATOM     17  H17 ZIN A   1      20.023   0.355  12.779  0.00  0.00     0.274 HD
ENDBRANCH   9  14
BRANCH  12  18
ATOM     18  C5  ZIN A   1      19.246   1.416  17.638  0.00  0.00     0.210 C 
ATOM     19  C7  ZIN A   1      19.289   2.924  17.386  0.00  0.00     0.042 C 
BRANCH  18  20
ATOM     20  N2  ZIN A   1      18.561   1.151  18.911  0.00  0.00    -0.073 N 
ATOM     21  C1  ZIN A   1      17.222   1.757  18.881  0.00  0.00     0.267 C 
ATOM     22  H3  ZIN A   1      19.093   1.550  19.669  0.00  0.00     0.277 HD
ATOM     23  H4  ZIN A   1      18.476   0.155  19.047  0.00  0.00     0.277 HD
ENDBRANCH  18  20
ENDBRANCH  12  18
ENDBRANCH   7   8
ENDBRANCH   1   7
BRANCH   6  24
ATOM     24  O57 ZIN A   1      20.774   1.964  12.073  0.00  0.00    -0.390 OA
ATOM     25  H81 ZIN A   1      20.471   1.221  12.610  0.00  0.00     0.210 HD
ENDBRANCH   6  24
BRANCH   2  26
ATOM     26  N25 ZIN A   1      17.094   4.018  14.504  0.00  0.00    -0.072 N 
ATOM     27  H26 ZIN A   1      16.810   3.050  14.551  0.00  0.00     0.274 HD
ATOM     28  H27 ZIN A   1      17.523   4.285  15.377  0.00  0.00     0.274 HD
ATOM     29  H28 ZIN A   1      16.286   4.597  14.334  0.00  0.00     0.274 HD
ENDBRANCH   2  26
BRANCH   5  30
ATOM     30  O38 ZIN A   1      18.380   2.187  10.589  0.00  0.00    -0.349 OA
BRANCH  30  31
ATOM     31  C39 ZIN A   1      18.898   1.325   9.574  0.00  0.00     0.291 C 
ATOM     32  C52 ZIN A   1      18.394  -0.101   9.812  0.00  0.00     0.207 C 
ATOM     33  C46 ZIN A   1      18.903  -1.008   8.686  0.00  0.00     0.254 C 
ATOM     34  C43 ZIN A   1      18.437  -0.444   7.341  0.00  0.00     0.106 C 
ATOM     35  C42 ZIN A   1      18.938   0.996   7.199  0.00  0.00     0.210 C 
ATOM     36  C44 ZIN A   1      19.004  -1.298   6.204  0.00  0.00     0.050 C 
ATOM     37  O41 ZIN A   1      18.455   1.777   8.293  0.00  0.00    -0.356 OA
BRANCH  32  38
ATOM     38  O54 ZIN A   1      16.965  -0.109   9.822  0.00  0.00    -0.388 OA
ATOM     39  H80 ZIN A   1      16.578  -0.007  10.702  0.00  0.00     0.210 HD
ENDBRANCH  32  38
BRANCH  33  40
ATOM     40  N48 ZIN A   1      18.364  -2.364   8.864  0.00  0.00    -0.069 N 
ATOM     41  H49 ZIN A   1      17.370  -2.312   9.029  0.00  0.00     0.277 HD
ATOM     42  H50 ZIN A   1      18.540  -2.906   8.031  0.00  0.00     0.277 HD
ATOM     43  C51 ZIN A   1      19.019  -3.003  10.012  0.00  0.00     0.267 C 
ENDBRANCH  33  40
BRANCH  34  44
ATOM     44  O45 ZIN A   1      17.009  -0.460   7.284  0.00  0.00    -0.386 OA
ATOM     45  H76 ZIN A   1      16.647  -0.204   6.424  0.00  0.00     0.210 HD
ENDBRANCH  34  44
ENDBRANCH  30  31
ENDBRANCH   5  30
BRANCH   4  46
ATOM     46  N32 ZIN A   1      17.592   4.769   9.691  0.00  0.00    -0.072 N 
ATOM     47  H33 ZIN A   1      16.602   4.830   9.874  0.00  0.00     0.274 HD
ATOM     48  H34 ZIN A   1      17.905   5.623   9.253  0.00  0.00     0.274 HD
ATOM     49  H35 ZIN A   1      17.773   3.990   9.076  0.00  0.00     0.274 HD
ENDBRANCH   4  46
TORSDOF 13
ENDMDL
MODEL 2
REMARK VINA RESULT:      -7.8      2.192      2.961
REMARK  13 active torsions:
REMARK  status: ('A' for Active; 'I' for Inactive)
REMARK    1  A    between atoms: N2_2  and  C5_5 
REMARK    2  A    between atoms: C5_5  and  C8_7 
REMARK    3  A    between atoms: C12_10  and  N14_11 
REMARK    4  A    between atoms: C18_15  and  O20_16 
REMARK    5  A    between atoms: O20_16  and  C21_17 
REMARK    6  A    between atoms: C23_18  and  N25_19 
REMARK    7  A    between atoms: C30_24  and  N32_25 
REMARK    8  A    between atoms: C36_29  and  O38_30 
REMARK    9  A    between atoms: O38_30  and  C39_31 
REMARK   10  A    between atoms: C43_34  and  O45_36 
REMARK   11  A    between atoms: C46_37  and  N48_38 
REMARK   12  A    between atoms: C52_42  and  O54_43 
REMARK   13  A    between atoms: C55_44  and  O57_45 
ROOT
ATOM      1  C21 ZIN A   1      19.163   1.517  13.258  0.00  0.00     0.186 C 
ATOM      2  C23 ZIN A   1      18.713   2.747  12.468  0.00  0.00     0.217 C 
ATOM      3  C29 ZIN A   1      17.989   2.300  11.196  0.00  0.00     0.071 C 
ATOM      4  C30 ZIN A   1      18.937   1.461  10.338  0.00  0.00     0.217 C 
ATOM      5  C36 ZIN A   1      19.388   0.231  11.127  0.00  0.00     0.186 C 
ATOM      6  C55 ZIN A   1      20.112   0.678  12.399  0.00  0.00     0.180 C 
ENDROOT
BRANCH   1   7
ATOM      7  O20 ZIN A   1      18.022   0.733  13.610  0.00  0.00    -0.349 OA
BRANCH   7   8
ATOM      8  C18 ZIN A   1      17.685   0.788  14.998  0.00  0.00     0.291 C 
ATOM      9  C12 ZIN A   1      17.705  -0.626  15.585  0.00  0.00     0.238 C 
ATOM     10  C11 ZIN A   1      17.403  -0.553  17.085  0.00  0.00     0.040 C 
ATOM     11  C10 ZIN A   1      18.425   0.370  17.756  0.00  0.00     0.036 C 
ATOM     12  C8  ZIN A   1      18.377   1.745  17.085  0.00  0.00     0.155 C 
ATOM     13  O58 ZIN A   1      18.637   1.601  15.687  0.00  0.00    -0.352 OA
BRANCH   9  14
ATOM     14  N14 ZIN A   1      19.031  -1.225  15.380  0.00  0.00    -0.070 N 
ATOM     15  H15 ZIN A   1      19.728  -0.496  15.341  0.00  0.00     0.274 HD
ATOM     16  H16 ZIN A   1      19.240  -1.849  16.145  0.00  0.00     0.274 HD
ATOM     17  H17 ZIN A   1      19.036  -1.741  14.513  0.00  0.00     0.274 HD
ENDBRANCH   9  14
BRANCH  12  18
ATOM     18  C5  ZIN A   1      19.438   2.654  17.710  0.00  0.00     0.210 C 
ATOM     19  C7  ZIN A   1      19.693   3.848  16.789  0.00  0.00     0.042 C 
BRANCH  18  20
ATOM     20  N2  ZIN A   1      18.963   3.134  19.014  0.00  0.00    -0.073 N 
ATOM     21  C1  ZIN A   1      17.759   3.956  18.827  0.00  0.00     0.267 C 
ATOM     22  H3  ZIN A   1      19.683   3.688  19.452  0.00  0.00     0.277 HD
ATOM     23  H4  ZIN A   1      18.742   2.345  19.603  0.00  0.00     0.277 HD
ENDBRANCH  18  20
ENDBRANCH  12  18
ENDBRANCH   7   8
ENDBRANCH   1   7
BRANCH   6  24
ATOM     24  O57 ZIN A   1      20.533  -0.472  13.137  0.00  0.00    -0.390 OA
ATOM     25  H81 ZIN A   1      21.286  -0.311  13.720  0.00  0.00     0.210 HD
ENDBRANCH   6  24
BRANCH   2  26
ATOM     26  N25 ZIN A   1      17.801   3.552  13.293  0.00  0.00    -0.072 N 
ATOM     27  H26 ZIN A   1      16.849   3.388  12.999  0.00  0.00     0.274 HD
ATOM     28  H27 ZIN A   1      17.904   3.289  14.261  0.00  0.00     0.274 HD
ATOM     29  H28 ZIN A   1      18.023   4.529  13.183  0.00  0.00     0.274 HD
ENDBRANCH   2  26
BRANCH   5  30
ATOM     30  O38 ZIN A   1      18.246  -0.553  11.480  0.00  0.00    -0.349 OA
BRANCH  30  31
ATOM     31  C39 ZIN A   1      18.430  -1.959  11.304  0.00  0.00     0.291 C 
ATOM     32  C52 ZIN A   1      17.534  -2.452  10.165  0.00  0.00     0.207 C 
ATOM     33  C46 ZIN A   1      17.782  -3.948   9.942  0.00  0.00     0.254 C 
ATOM     34  C43 ZIN A   1      19.269  -4.170   9.650  0.00  0.00     0.106 C 
ATOM     35  C42 ZIN A   1      20.098  -3.610  10.809  0.00  0.00     0.210 C 
ATOM     36  C44 ZIN A   1      19.543  -5.668   9.502  0.00  0.00     0.050 C 
ATOM     37  O41 ZIN A   1      19.797  -2.224  10.982  0.00  0.00    -0.356 OA
BRANCH  32  38
ATOM     38  O54 ZIN A   1      17.842  -1.734   8.968  0.00  0.00    -0.388 OA
ATOM     39  H80 ZIN A   1      17.116  -1.703   8.331  0.00  0.00     0.210 HD
ENDBRANCH  32  38
BRANCH  33  40
ATOM     40  N48 ZIN A   1      16.982  -4.415   8.801  0.00  0.00    -0.069 N 
ATOM     41  H49 ZIN A   1      16.514  -3.629   8.374  0.00  0.00     0.277 HD
ATOM     42  H50 ZIN A   1      17.588  -4.855   8.124  0.00  0.00     0.277 HD
ATOM     43  C51 ZIN A   1      15.984  -5.385   9.269  0.00  0.00     0.267 C 
ENDBRANCH  33  40
BRANCH  34  44
ATOM     44  O45 ZIN A   1      19.625  -3.497   8.440  0.00  0.00    -0.386 OA
ATOM     45  H76 ZIN A   1      20.573  -3.508   8.249  0.00  0.00     0.210 HD
ENDBRANCH  34  44
ENDBRANCH  30  31
ENDBRANCH   5  30
BRANCH   4  46
ATOM     46  N32 ZIN A   1      18.242   1.032   9.117  0.00  0.00    -0.072 N 
ATOM     47  H33 ZIN A   1      17.298   1.388   9.124  0.00  0.00     0.274 HD
ATOM     48  H34 ZIN A   1      18.730   1.390   8.309  0.00  0.00     0.274 HD
ATOM     49  H35 ZIN A   1      18.221   0.024   9.078  0.00  0.00     0.274 HD
ENDBRANCH   4  46
TORSDOF 13
ENDMDL
MODEL 3
REMARK VINA RESULT:      -7.6      1.959      7.176
REMARK  13 active torsions:
REMARK  status: ('A' for Active; 'I' for Inactive)
REMARK    1  A    between atoms: N2_2  and  C5_5 
REMARK    2  A    between atoms: C5_5  and  C8_7 
REMARK    3  A    between atoms: C12_10  and  N14_11 
REMARK    4  A    between atoms: C18_15  and  O20_16 
REMARK    5  A    between atoms: O20_16  and  C21_17 
REMARK    6  A    between atoms: C23_18  and  N25_19 
REMARK    7  A    between atoms: C30_24  and  N32_25 
REMARK    8  A    between atoms: C36_29  and  O38_30 
REMARK    9  A    between atoms: O38_30  and  C39_31 
REMARK   10  A    between atoms: C43_34  and  O45_36 
REMARK   11  A    between atoms: C46_37  and  N48_38 
REMARK   12  A    between atoms: C52_42  and  O54_43 
REMARK   13  A    between atoms: C55_44  and  O57_45 
ROOT
ATOM      1  C21 ZIN A   1      18.108   0.279   9.892  0.00  0.00     0.186 C 
ATOM      2  C23 ZIN A   1      18.694   1.305   8.921  0.00  0.00     0.217 C 
ATOM      3  C29 ZIN A   1      19.146   2.543   9.698  0.00  0.00     0.071 C 
ATOM      4  C30 ZIN A   1      17.946   3.154  10.424  0.00  0.00     0.217 C 
ATOM      5  C36 ZIN A   1      17.359   2.129  11.395  0.00  0.00     0.186 C 
ATOM      6  C55 ZIN A   1      16.908   0.890  10.617  0.00  0.00     0.180 C 
ENDROOT
BRANCH   1   7
ATOM      7  O20 ZIN A   1      19.102  -0.096  10.847  0.00  0.00    -0.349 OA
BRANCH   7   8
ATOM      8  C18 ZIN A   1      19.598  -1.425  10.680  0.00  0.00     0.291 C 
ATOM      9  C12 ZIN A   1      19.558  -2.158  12.023  0.00  0.00     0.238 C 
ATOM     10  C11 ZIN A   1      20.034  -3.600  11.824  0.00  0.00     0.040 C 
ATOM     11  C10 ZIN A   1      19.153  -4.275  10.768  0.00  0.00     0.036 C 
ATOM     12  C8  ZIN A   1      19.208  -3.460   9.473  0.00  0.00     0.155 C 
ATOM     13  O58 ZIN A   1      18.782  -2.122   9.735  0.00  0.00    -0.352 OA
BRANCH   9  14
ATOM     14  N14 ZIN A   1      18.183  -2.161  12.542  0.00  0.00    -0.070 N 
ATOM     15  H15 ZIN A   1      17.767  -3.067  12.384  0.00  0.00     0.274 HD
ATOM     16  H16 ZIN A   1      18.196  -1.965  13.531  0.00  0.00     0.274 HD
ATOM     17  H17 ZIN A   1      17.643  -1.456  12.065  0.00  0.00     0.274 HD
ENDBRANCH   9  14
BRANCH  12  18
ATOM     18  C5  ZIN A   1      18.284  -4.095   8.432  0.00  0.00     0.210 C 
ATOM     19  C7  ZIN A   1      17.020  -4.613   9.120  0.00  0.00     0.042 C 
BRANCH  18  20
ATOM     20  N2  ZIN A   1      17.917  -3.090   7.426  0.00  0.00    -0.073 N 
ATOM     21  C1  ZIN A   1      18.946  -3.048   6.377  0.00  0.00     0.267 C 
ATOM     22  H3  ZIN A   1      17.848  -2.184   7.864  0.00  0.00     0.277 HD
ATOM     23  H4  ZIN A   1      17.029  -3.333   7.014  0.00  0.00     0.277 HD
ENDBRANCH  18  20
ENDBRANCH  12  18
ENDBRANCH   7   8
ENDBRANCH   1   7
BRANCH   6  24
ATOM     24  O57 ZIN A   1      16.360  -0.069  11.525  0.00  0.00    -0.390 OA
ATOM     25  H81 ZIN A   1      15.474  -0.373  11.288  0.00  0.00     0.210 HD
ENDBRANCH   6  24
BRANCH   2  26
ATOM     26  N25 ZIN A   1      19.847   0.718   8.224  0.00  0.00    -0.072 N 
ATOM     27  H26 ZIN A   1      19.941   1.142   7.313  0.00  0.00     0.274 HD
ATOM     28  H27 ZIN A   1      20.685   0.885   8.761  0.00  0.00     0.274 HD
ATOM     29  H28 ZIN A   1      19.706  -0.275   8.119  0.00  0.00     0.274 HD
ENDBRANCH   2  26
BRANCH   5  30
ATOM     30  O38 ZIN A   1      18.354   1.754  12.351  0.00  0.00    -0.349 OA
BRANCH  30  31
ATOM     31  C39 ZIN A   1      18.025   2.101  13.698  0.00  0.00     0.291 C 
ATOM     32  C52 ZIN A   1      18.711   1.125  14.657  0.00  0.00     0.207 C 
ATOM     33  C46 ZIN A   1      18.403   1.540  16.100  0.00  0.00     0.254 C 
ATOM     34  C43 ZIN A   1      18.862   2.985  16.314  0.00  0.00     0.106 C 
ATOM     35  C42 ZIN A   1      18.171   3.889  15.290  0.00  0.00     0.210 C 
ATOM     36  C44 ZIN A   1      18.490   3.436  17.728  0.00  0.00     0.050 C 
ATOM     37  O41 ZIN A   1      18.473   3.430  13.970  0.00  0.00    -0.356 OA
BRANCH  32  38
ATOM     38  O54 ZIN A   1      20.123   1.157  14.443  0.00  0.00    -0.388 OA
ATOM     39  H80 ZIN A   1      20.528   2.018  14.612  0.00  0.00     0.210 HD
ENDBRANCH  32  38
BRANCH  33  40
ATOM     40  N48 ZIN A   1      19.118   0.655  17.030  0.00  0.00    -0.069 N 
ATOM     41  H49 ZIN A   1      20.074   0.547  16.725  0.00  0.00     0.277 HD
ATOM     42  H50 ZIN A   1      19.103   1.057  17.956  0.00  0.00     0.277 HD
ATOM     43  C51 ZIN A   1      18.462  -0.659  17.057  0.00  0.00     0.267 C 
ENDBRANCH  33  40
BRANCH  34  44
ATOM     44  O45 ZIN A   1      20.279   3.067  16.143  0.00  0.00    -0.386 OA
ATOM     45  H76 ZIN A   1      20.738   2.225  16.262  0.00  0.00     0.210 HD
ENDBRANCH  34  44
ENDBRANCH  30  31
ENDBRANCH   5  30
BRANCH   4  46
ATOM     46  N32 ZIN A   1      18.379   4.343  11.171  0.00  0.00    -0.072 N 
ATOM     47  H33 ZIN A   1      19.387   4.367  11.211  0.00  0.00     0.274 HD
ATOM     48  H34 ZIN A   1      18.042   5.173  10.706  0.00  0.00     0.274 HD
ATOM     49  H35 ZIN A   1      18.006   4.307  12.108  0.00  0.00     0.274 HD
ENDBRANCH   4  46
TORSDOF 13
ENDMDL
MODEL 4
REMARK VINA RESULT:      -7.5      2.345      8.482
REMARK  13 active torsions:
REMARK  status: ('A' for Active; 'I' for Inactive)
REMARK    1  A    between atoms: N2_2  and  C5_5 
REMARK    2  A    between atoms: C5_5  and  C8_7 
REMARK    3  A    between atoms: C12_10  and  N14_11 
REMARK    4  A    between atoms: C18_15  and  O20_16 
REMARK    5  A    between atoms: O20_16  and  C21_17 
REMARK    6  A    between atoms: C23_18  and  N25_19 
REMARK    7  A    between atoms: C30_24  and  N32_25 
REMARK    8  A    between atoms: C36_29  and  O38_30 
REMARK    9  A    between atoms: O38_30  and  C39_31 
REMARK   10  A    between atoms: C43_34  and  O45_36 
REMARK   11  A    between atoms: C46_37  and  N48_38 
REMARK   12  A    between atoms: C52_42  and  O54_43 
REMARK   13  A    between atoms: C55_44  and  O57_45 
ROOT
ATOM      1  C21 ZIN A   1      18.983  -3.026   9.550  0.00  0.00     0.186 C 
ATOM      2  C23 ZIN A   1      18.071  -4.227   9.288  0.00  0.00     0.217 C 
ATOM      3  C29 ZIN A   1      17.234  -4.514  10.535  0.00  0.00     0.071 C 
ATOM      4  C30 ZIN A   1      18.162  -4.825  11.711  0.00  0.00     0.217 C 
ATOM      5  C36 ZIN A   1      19.073  -3.626  11.974  0.00  0.00     0.186 C 
ATOM      6  C55 ZIN A   1      19.910  -3.338  10.726  0.00  0.00     0.180 C 
ENDROOT
BRANCH   1   7
ATOM      7  O20 ZIN A   1      18.186  -1.882   9.862  0.00  0.00    -0.349 OA
BRANCH   7   8
ATOM      8  C18 ZIN A   1      18.053  -0.955   8.784  0.00  0.00     0.291 C 
ATOM      9  C12 ZIN A   1      18.751   0.357   9.149  0.00  0.00     0.238 C 
ATOM     10  C11 ZIN A   1      18.657   1.325   7.966  0.00  0.00     0.040 C 
ATOM     11  C10 ZIN A   1      19.273   0.663   6.729  0.00  0.00     0.036 C 
ATOM     12  C8  ZIN A   1      18.555  -0.661   6.457  0.00  0.00     0.155 C 
ATOM     13  O58 ZIN A   1      18.655  -1.501   7.608  0.00  0.00    -0.352 OA
BRANCH   9  14
ATOM     14  N14 ZIN A   1      20.164   0.094   9.457  0.00  0.00    -0.070 N 
ATOM     15  H15 ZIN A   1      20.225  -0.543  10.237  0.00  0.00     0.274 HD
ATOM     16  H16 ZIN A   1      20.612  -0.316   8.652  0.00  0.00     0.274 HD
ATOM     17  H17 ZIN A   1      20.623   0.961   9.694  0.00  0.00     0.274 HD
ENDBRANCH   9  14
BRANCH  12  18
ATOM     18  C5  ZIN A   1      19.205  -1.357   5.260  0.00  0.00     0.210 C 
ATOM     19  C7  ZIN A   1      19.353  -2.850   5.556  0.00  0.00     0.042 C 
BRANCH  18  20
ATOM     20  N2  ZIN A   1      18.361  -1.174   4.071  0.00  0.00    -0.073 N 
ATOM     21  C1  ZIN A   1      17.222  -2.100   4.131  0.00  0.00     0.267 C 
ATOM     22  H3  ZIN A   1      18.903  -1.362   3.241  0.00  0.00     0.277 HD
ATOM     23  H4  ZIN A   1      18.021  -0.224   4.042  0.00  0.00     0.277 HD
ENDBRANCH  18  20
ENDBRANCH  12  18
ENDBRANCH   7   8
ENDBRANCH   1   7
BRANCH   6  24
ATOM     24  O57 ZIN A   1      20.762  -2.216  10.972  0.00  0.00    -0.390 OA
ATOM     25  H81 ZIN A   1      20.704  -1.868  11.871  0.00  0.00     0.210 HD
ENDBRANCH   6  24
BRANCH   2  26
ATOM     26  N25 ZIN A   1      17.180  -3.927   8.159  0.00  0.00    -0.072 N 
ATOM     27  H26 ZIN A   1      17.631  -4.193   7.295  0.00  0.00     0.274 HD
ATOM     28  H27 ZIN A   1      16.321  -4.446   8.262  0.00  0.00     0.274 HD
ATOM     29  H28 ZIN A   1      16.978  -2.939   8.142  0.00  0.00     0.274 HD
ENDBRANCH   2  26
BRANCH   5  30
ATOM     30  O38 ZIN A   1      18.276  -2.481  12.287  0.00  0.00    -0.349 OA
BRANCH  30  31
ATOM     31  C39 ZIN A   1      18.858  -1.617  13.264  0.00  0.00     0.291 C 
ATOM     32  C52 ZIN A   1      18.710  -0.162  12.811  0.00  0.00     0.207 C 
ATOM     33  C46 ZIN A   1      19.282   0.762  13.891  0.00  0.00     0.254 C 
ATOM     34  C43 ZIN A   1      18.562   0.489  15.215  0.00  0.00     0.106 C 
ATOM     35  C42 ZIN A   1      18.716  -0.991  15.575  0.00  0.00     0.210 C 
ATOM     36  C44 ZIN A   1      19.178   1.351  16.319  0.00  0.00     0.050 C 
ATOM     37  O41 ZIN A   1      18.192  -1.794  14.515  0.00  0.00    -0.356 OA
BRANCH  32  38
ATOM     38  O54 ZIN A   1      17.327   0.139  12.609  0.00  0.00    -0.388 OA
ATOM     39  H80 ZIN A   1      17.110   0.401  11.704  0.00  0.00     0.210 HD
ENDBRANCH  32  38
BRANCH  33  40
ATOM     40  N48 ZIN A   1      19.078   2.164  13.500  0.00  0.00    -0.069 N 
ATOM     41  H49 ZIN A   1      18.089   2.351  13.423  0.00  0.00     0.277 HD
ATOM     42  H50 ZIN A   1      19.481   2.770  14.199  0.00  0.00     0.277 HD
ATOM     43  C51 ZIN A   1      19.725   2.410  12.205  0.00  0.00     0.267 C 
ENDBRANCH  33  40
BRANCH  34  44
ATOM     44  O45 ZIN A   1      17.175   0.806  15.079  0.00  0.00    -0.386 OA
ATOM     45  H76 ZIN A   1      16.581   0.096  15.359  0.00  0.00     0.210 HD
ENDBRANCH  34  44
ENDBRANCH  30  31
ENDBRANCH   5  30
BRANCH   4  46
ATOM     46  N32 ZIN A   1      17.358  -5.101  12.909  0.00  0.00    -0.072 N 
ATOM     47  H33 ZIN A   1      17.079  -6.071  12.912  0.00  0.00     0.274 HD
ATOM     48  H34 ZIN A   1      17.906  -4.906  13.734  0.00  0.00     0.274 HD
ATOM     49  H35 ZIN A   1      16.536  -4.516  12.906  0.00  0.00     0.274 HD
ENDBRANCH   4  46
TORSDOF 13
ENDMDL
MODEL 5
REMARK VINA RESULT:      -7.4      2.407      4.295
REMARK  13 active torsions:
REMARK  status: ('A' for Active; 'I' for Inactive)
REMARK    1  A    between atoms: N2_2  and  C5_5 
REMARK    2  A    between atoms: C5_5  and  C8_7 
REMARK    3  A    between atoms: C12_10  and  N14_11 
REMARK    4  A    between atoms: C18_15  and  O20_16 
REMARK    5  A    between atoms: O20_16  and  C21_17 
REMARK    6  A    between atoms: C23_18  and  N25_19 
REMARK    7  A    between atoms: C30_24  and  N32_25 
REMARK    8  A    between atoms: C36_29  and  O38_30 
REMARK    9  A    between atoms: O38_30  and  C39_31 
REMARK   10  A    between atoms: C43_34  and  O45_36 
REMARK   11  A    between atoms: C46_37  and  N48_38 
REMARK   12  A    between atoms: C52_42  and  O54_43 
REMARK   13  A    between atoms: C55_44  and  O57_45 
ROOT
ATOM      1  C21 ZIN A   1      18.490   4.911  16.847  0.00  0.00     0.186 C 
ATOM      2  C23 ZIN A   1      17.288   5.814  17.129  0.00  0.00     0.217 C 
ATOM      3  C29 ZIN A   1      16.515   6.056  15.831  0.00  0.00     0.071 C 
ATOM      4  C30 ZIN A   1      17.433   6.732  14.811  0.00  0.00     0.217 C 
ATOM      5  C36 ZIN A   1      18.635   5.830  14.528  0.00  0.00     0.186 C 
ATOM      6  C55 ZIN A   1      19.407   5.587  15.827  0.00  0.00     0.180 C 
ENDROOT
BRANCH   1   7
ATOM      7  O20 ZIN A   1      18.035   3.662  16.324  0.00  0.00    -0.349 OA
BRANCH   7   8
ATOM      8  C18 ZIN A   1      18.802   2.536  16.755  0.00  0.00     0.291 C 
ATOM      9  C12 ZIN A   1      18.519   2.261  18.234  0.00  0.00     0.238 C 
ATOM     10  C11 ZIN A   1      19.298   1.018  18.674  0.00  0.00     0.040 C 
ATOM     11  C10 ZIN A   1      18.905  -0.161  17.777  0.00  0.00     0.036 C 
ATOM     12  C8  ZIN A   1      19.173   0.208  16.316  0.00  0.00     0.155 C 
ATOM     13  O58 ZIN A   1      18.442   1.390  15.982  0.00  0.00    -0.352 OA
BRANCH   9  14
ATOM     14  N14 ZIN A   1      17.080   2.032  18.425  0.00  0.00    -0.070 N 
ATOM     15  H15 ZIN A   1      16.939   1.418  19.214  0.00  0.00     0.274 HD
ATOM     16  H16 ZIN A   1      16.619   2.912  18.598  0.00  0.00     0.274 HD
ATOM     17  H17 ZIN A   1      16.695   1.606  17.596  0.00  0.00     0.274 HD
ENDBRANCH   9  14
BRANCH  12  18
ATOM     18  C5  ZIN A   1      18.727  -0.941  15.410  0.00  0.00     0.210 C 
ATOM     19  C7  ZIN A   1      17.952  -1.970  16.235  0.00  0.00     0.042 C 
BRANCH  18  20
ATOM     20  N2  ZIN A   1      17.863  -0.417  14.344  0.00  0.00    -0.073 N 
ATOM     21  C1  ZIN A   1      17.949  -1.292  13.167  0.00  0.00     0.267 C 
ATOM     22  H3  ZIN A   1      18.163   0.513  14.094  0.00  0.00     0.277 HD
ATOM     23  H4  ZIN A   1      16.908  -0.385  14.670  0.00  0.00     0.277 HD
ENDBRANCH  18  20
ENDBRANCH  12  18
ENDBRANCH   7   8
ENDBRANCH   1   7
BRANCH   6  24
ATOM     24  O57 ZIN A   1      20.531   4.743  15.562  0.00  0.00    -0.390 OA
ATOM     25  H81 ZIN A   1      21.200   4.750  16.259  0.00  0.00     0.210 HD
ENDBRANCH   6  24
BRANCH   2  26
ATOM     26  N25 ZIN A   1      16.406   5.164  18.109  0.00  0.00    -0.072 N 
ATOM     27  H26 ZIN A   1      16.796   4.270  18.371  0.00  0.00     0.274 HD
ATOM     28  H27 ZIN A   1      16.326   5.748  18.928  0.00  0.00     0.274 HD
ATOM     29  H28 ZIN A   1      15.494   5.026  17.702  0.00  0.00     0.274 HD
ENDBRANCH   2  26
BRANCH   5  30
ATOM     30  O38 ZIN A   1      18.180   4.580  14.004  0.00  0.00    -0.349 OA
BRANCH  30  31
ATOM     31  C39 ZIN A   1      18.671   4.285  12.696  0.00  0.00     0.291 C 
ATOM     32  C52 ZIN A   1      19.079   2.811  12.625  0.00  0.00     0.207 C 
ATOM     33  C46 ZIN A   1      19.547   2.488  11.202  0.00  0.00     0.254 C 
ATOM     34  C43 ZIN A   1      18.426   2.829  10.217  0.00  0.00     0.106 C 
ATOM     35  C42 ZIN A   1      18.043   4.301  10.381  0.00  0.00     0.210 C 
ATOM     36  C44 ZIN A   1      18.910   2.582   8.786  0.00  0.00     0.050 C 
ATOM     37  O41 ZIN A   1      17.647   4.541  11.733  0.00  0.00    -0.356 OA
BRANCH  32  38
ATOM     38  O54 ZIN A   1      17.959   1.988  12.957  0.00  0.00    -0.388 OA
ATOM     39  H80 ZIN A   1      17.917   1.741  13.891  0.00  0.00     0.210 HD
ENDBRANCH  32  38
BRANCH  33  40
ATOM     40  N48 ZIN A   1      19.871   1.057  11.103  0.00  0.00    -0.069 N 
ATOM     41  H49 ZIN A   1      19.034   0.512  11.249  0.00  0.00     0.277 HD
ATOM     42  H50 ZIN A   1      20.246   0.860  10.187  0.00  0.00     0.277 HD
ATOM     43  C51 ZIN A   1      20.866   0.709  12.125  0.00  0.00     0.267 C 
ENDBRANCH  33  40
BRANCH  34  44
ATOM     44  O45 ZIN A   1      17.288   2.006  10.484  0.00  0.00    -0.386 OA
ATOM     45  H76 ZIN A   1      16.447   2.398  10.210  0.00  0.00     0.210 HD
ENDBRANCH  34  44
ENDBRANCH  30  31
ENDBRANCH   5  30
BRANCH   4  46
ATOM     46  N32 ZIN A   1      16.691   6.965  13.564  0.00  0.00    -0.072 N 
ATOM     47  H33 ZIN A   1      17.302   6.812  12.775  0.00  0.00     0.274 HD
ATOM     48  H34 ZIN A   1      15.911   6.327  13.513  0.00  0.00     0.274 HD
ATOM     49  H35 ZIN A   1      16.351   7.914  13.547  0.00  0.00     0.274 HD
ENDBRANCH   4  46
TORSDOF 13
ENDMDL
MODEL 6
REMARK VINA RESULT:      -7.3      2.413      8.219
REMARK  13 active torsions:
REMARK  status: ('A' for Active; 'I' for Inactive)
REMARK    1  A    between atoms: N2_2  and  C5_5 
REMARK    2  A    between atoms: C5_5  and  C8_7 
REMARK    3  A    between atoms: C12_10  and  N14_11 
REMARK    4  A    between atoms: C18_15  and  O20_16 
REMARK    5  A    between atoms: O20_16  and  C21_17 
REMARK    6  A    between atoms: C23_18  and  N25_19 
REMARK    7  A    between atoms: C30_24  and  N32_25 
REMARK    8  A    between atoms: C36_29  and  O38_30 
REMARK    9  A    between atoms: O38_30  and  C39_31 
REMARK   10  A    between atoms: C43_34  and  O45_36 
REMARK   11  A    between atoms: C46_37  and  N48_38 
REMARK   12  A    between atoms: C52_42  and  O54_43 
REMARK   13  A    between atoms: C55_44  and  O57_45 
ROOT
ATOM      1  C21 ZIN A   1      19.150  -2.048   9.916  0.00  0.00     0.186 C 
ATOM      2  C23 ZIN A   1      18.484  -3.173  10.710  0.00  0.00     0.217 C 
ATOM      3  C29 ZIN A   1      17.934  -2.615  12.024  0.00  0.00     0.071 C 
ATOM      4  C30 ZIN A   1      19.081  -2.021  12.844  0.00  0.00     0.217 C 
ATOM      5  C36 ZIN A   1      19.747  -0.896  12.051  0.00  0.00     0.186 C 
ATOM      6  C55 ZIN A   1      20.296  -1.455  10.737  0.00  0.00     0.180 C 
ENDROOT
BRANCH   1   7
ATOM      7  O20 ZIN A   1      18.188  -1.030   9.635  0.00  0.00    -0.349 OA
BRANCH   7   8
ATOM      8  C18 ZIN A   1      17.820  -0.943   8.257  0.00  0.00     0.291 C 
ATOM      9  C12 ZIN A   1      17.990   0.499   7.773  0.00  0.00     0.238 C 
ATOM     10  C11 ZIN A   1      17.651   0.573   6.281  0.00  0.00     0.040 C 
ATOM     11  C10 ZIN A   1      18.547  -0.406   5.517  0.00  0.00     0.036 C 
ATOM     12  C8  ZIN A   1      18.355  -1.814   6.088  0.00  0.00     0.155 C 
ATOM     13  O58 ZIN A   1      18.658  -1.805   7.485  0.00  0.00    -0.352 OA
BRANCH   9  14
ATOM     14  N14 ZIN A   1      19.380   0.929   7.983  0.00  0.00    -0.070 N 
ATOM     15  H15 ZIN A   1      19.570   0.981   8.973  0.00  0.00     0.274 HD
ATOM     16  H16 ZIN A   1      20.005   0.263   7.555  0.00  0.00     0.274 HD
ATOM     17  H17 ZIN A   1      19.517   1.837   7.566  0.00  0.00     0.274 HD
ENDBRANCH   9  14
BRANCH  12  18
ATOM     18  C5  ZIN A   1      19.292  -2.787   5.370  0.00  0.00     0.210 C 
ATOM     19  C7  ZIN A   1      19.378  -4.092   6.164  0.00  0.00     0.042 C 
BRANCH  18  20
ATOM     20  N2  ZIN A   1      18.770  -3.065   4.025  0.00  0.00    -0.073 N 
ATOM     21  C1  ZIN A   1      17.520  -3.831   4.133  0.00  0.00     0.267 C 
ATOM     22  H3  ZIN A   1      19.448  -3.601   3.505  0.00  0.00     0.277 HD
ATOM     23  H4  ZIN A   1      18.590  -2.195   3.547  0.00  0.00     0.277 HD
ENDBRANCH  18  20
ENDBRANCH  12  18
ENDBRANCH   7   8
ENDBRANCH   1   7
BRANCH   6  24
ATOM     24  O57 ZIN A   1      20.919  -0.403   9.996  0.00  0.00    -0.390 OA
ATOM     25  H81 ZIN A   1      20.932   0.448  10.454  0.00  0.00     0.210 HD
ENDBRANCH   6  24
BRANCH   2  26
ATOM     26  N25 ZIN A   1      17.383  -3.743   9.922  0.00  0.00    -0.072 N 
ATOM     27  H26 ZIN A   1      16.736  -4.213  10.539  0.00  0.00     0.274 HD
ATOM     28  H27 ZIN A   1      16.903  -3.004   9.432  0.00  0.00     0.274 HD
ATOM     29  H28 ZIN A   1      17.753  -4.405   9.257  0.00  0.00     0.274 HD
ENDBRANCH   2  26
BRANCH   5  30
ATOM     30  O38 ZIN A   1      18.785   0.124  11.770  0.00  0.00    -0.349 OA
BRANCH  30  31
ATOM     31  C39 ZIN A   1      19.153   1.418  12.250  0.00  0.00     0.291 C 
ATOM     32  C52 ZIN A   1      18.312   2.483  11.540  0.00  0.00     0.207 C 
ATOM     33  C46 ZIN A   1      18.669   3.862  12.103  0.00  0.00     0.254 C 
ATOM     34  C43 ZIN A   1      18.443   3.858  13.618  0.00  0.00     0.106 C 
ATOM     35  C42 ZIN A   1      19.278   2.740  14.247  0.00  0.00     0.210 C 
ATOM     36  C44 ZIN A   1      18.869   5.206  14.202  0.00  0.00     0.050 C 
ATOM     37  O41 ZIN A   1      18.918   1.489  13.658  0.00  0.00    -0.356 OA
BRANCH  32  38
ATOM     38  O54 ZIN A   1      16.924   2.222  11.760  0.00  0.00    -0.388 OA
ATOM     39  H80 ZIN A   1      16.361   2.425  11.000  0.00  0.00     0.210 HD
ENDBRANCH  32  38
BRANCH  33  40
ATOM     40  N48 ZIN A   1      17.815   4.884  11.482  0.00  0.00    -0.069 N 
ATOM     41  H49 ZIN A   1      16.868   4.780  11.816  0.00  0.00     0.277 HD
ATOM     42  H50 ZIN A   1      18.159   5.802  11.724  0.00  0.00     0.277 HD
ATOM     43  C51 ZIN A   1      17.840   4.721  10.022  0.00  0.00     0.267 C 
ENDBRANCH  33  40
BRANCH  34  44
ATOM     44  O45 ZIN A   1      17.059   3.634  13.894  0.00  0.00    -0.386 OA
ATOM     45  H76 ZIN A   1      16.769   2.725  13.736  0.00  0.00     0.210 HD
ENDBRANCH  34  44
ENDBRANCH  30  31
ENDBRANCH   5  30
BRANCH   4  46
ATOM     46  N32 ZIN A   1      18.553  -1.485  14.106  0.00  0.00    -0.072 N 
ATOM     47  H33 ZIN A   1      19.226  -0.850  14.511  0.00  0.00     0.274 HD
ATOM     48  H34 ZIN A   1      17.691  -0.991  13.927  0.00  0.00     0.274 HD
ATOM     49  H35 ZIN A   1      18.379  -2.243  14.748  0.00  0.00     0.274 HD
ENDBRANCH   4  46
TORSDOF 13
ENDMDL
MODEL 7
REMARK VINA RESULT:      -7.2      2.300      4.830
REMARK  13 active torsions:
REMARK  status: ('A' for Active; 'I' for Inactive)
REMARK    1  A    between atoms: N2_2  and  C5_5 
REMARK    2  A    between atoms: C5_5  and  C8_7 
REMARK    3  A    between atoms: C12_10  and  N14_11 
REMARK    4  A    between atoms: C18_15  and  O20_16 
REMARK    5  A    between atoms: O20_16  and  C21_17 
REMARK    6  A    between atoms: C23_18  and  N25_19 
REMARK    7  A    between atoms: C30_24  and  N32_25 
REMARK    8  A    between atoms: C36_29  and  O38_30 
REMARK    9  A    between atoms: O38_30  and  C39_31 
REMARK   10  A    between atoms: C43_34  and  O45_36 
REMARK   11  A    between atoms: C46_37  and  N48_38 
REMARK   12  A    between atoms: C52_42  and  O54_43 
REMARK   13  A    between atoms: C55_44  and  O57_45 
ROOT
ATOM      1  C21 ZIN A   1      18.084  -0.336  12.890  0.00  0.00     0.186 C 
ATOM      2  C23 ZIN A   1      18.839  -1.328  13.777  0.00  0.00     0.217 C 
ATOM      3  C29 ZIN A   1      19.397  -2.462  12.916  0.00  0.00     0.071 C 
ATOM      4  C30 ZIN A   1      18.245  -3.181  12.213  0.00  0.00     0.217 C 
ATOM      5  C36 ZIN A   1      17.489  -2.191  11.325  0.00  0.00     0.186 C 
ATOM      6  C55 ZIN A   1      16.932  -1.057  12.187  0.00  0.00     0.180 C 
ENDROOT
BRANCH   1   7
ATOM      7  O20 ZIN A   1      18.976   0.203  11.912  0.00  0.00    -0.349 OA
BRANCH   7   8
ATOM      8  C18 ZIN A   1      19.367   1.554  12.165  0.00  0.00     0.291 C 
ATOM      9  C12 ZIN A   1      19.030   2.419  10.948  0.00  0.00     0.238 C 
ATOM     10  C11 ZIN A   1      19.396   3.876  11.249  0.00  0.00     0.040 C 
ATOM     11  C10 ZIN A   1      18.652   4.328  12.509  0.00  0.00     0.036 C 
ATOM     12  C8  ZIN A   1      19.003   3.389  13.665  0.00  0.00     0.155 C 
ATOM     13  O58 ZIN A   1      18.665   2.047  13.308  0.00  0.00    -0.352 OA
BRANCH   9  14
ATOM     14  N14 ZIN A   1      17.592   2.324  10.660  0.00  0.00    -0.070 N 
ATOM     15  H15 ZIN A   1      17.426   1.555  10.028  0.00  0.00     0.274 HD
ATOM     16  H16 ZIN A   1      17.086   2.169  11.519  0.00  0.00     0.274 HD
ATOM     17  H17 ZIN A   1      17.277   3.183  10.234  0.00  0.00     0.274 HD
ENDBRANCH   9  14
BRANCH  12  18
ATOM     18  C5  ZIN A   1      18.216   3.798  14.912  0.00  0.00     0.210 C 
ATOM     19  C7  ZIN A   1      19.102   4.658  15.815  0.00  0.00     0.042 C 
BRANCH  18  20
ATOM     20  N2  ZIN A   1      17.031   4.568  14.511  0.00  0.00    -0.073 N 
ATOM     21  C1  ZIN A   1      16.828   5.680  15.450  0.00  0.00     0.267 C 
ATOM     22  H3  ZIN A   1      16.221   3.968  14.521  0.00  0.00     0.277 HD
ATOM     23  H4  ZIN A   1      17.167   4.935  13.581  0.00  0.00     0.277 HD
ENDBRANCH  18  20
ENDBRANCH  12  18
ENDBRANCH   7   8
ENDBRANCH   1   7
BRANCH   6  24
ATOM     24  O57 ZIN A   1      16.226  -0.131  11.357  0.00  0.00    -0.390 OA
ATOM     25  H81 ZIN A   1      15.307   0.012  11.621  0.00  0.00     0.210 HD
ENDBRANCH   6  24
BRANCH   2  26
ATOM     26  N25 ZIN A   1      19.946  -0.636  14.452  0.00  0.00    -0.072 N 
ATOM     27  H26 ZIN A   1      20.284  -1.206  15.214  0.00  0.00     0.274 HD
ATOM     28  H27 ZIN A   1      20.694  -0.477  13.794  0.00  0.00     0.274 HD
ATOM     29  H28 ZIN A   1      19.620   0.248  14.813  0.00  0.00     0.274 HD
ENDBRANCH   2  26
BRANCH   5  30
ATOM     30  O38 ZIN A   1      18.382  -1.652  10.347  0.00  0.00    -0.349 OA
BRANCH  30  31
ATOM     31  C39 ZIN A   1      18.060  -2.017   9.004  0.00  0.00     0.291 C 
ATOM     32  C52 ZIN A   1      18.836  -1.123   8.033  0.00  0.00     0.207 C 
ATOM     33  C46 ZIN A   1      18.533  -1.560   6.596  0.00  0.00     0.254 C 
ATOM     34  C43 ZIN A   1      18.893  -3.040   6.437  0.00  0.00     0.106 C 
ATOM     35  C42 ZIN A   1      18.115  -3.860   7.470  0.00  0.00     0.210 C 
ATOM     36  C44 ZIN A   1      18.522  -3.508   5.028  0.00  0.00     0.050 C 
ATOM     37  O41 ZIN A   1      18.419  -3.382   8.782  0.00  0.00    -0.356 OA
BRANCH  32  38
ATOM     38  O54 ZIN A   1      20.237  -1.247   8.284  0.00  0.00    -0.388 OA
ATOM     39  H80 ZIN A   1      20.714  -0.405   8.276  0.00  0.00     0.210 HD
ENDBRANCH  32  38
BRANCH  33  40
ATOM     40  N48 ZIN A   1      19.330  -0.757   5.658  0.00  0.00    -0.069 N 
ATOM     41  H49 ZIN A   1      20.306  -0.818   5.908  0.00  0.00     0.277 HD
ATOM     42  H50 ZIN A   1      19.200  -1.108   4.721  0.00  0.00     0.277 HD
ATOM     43  C51 ZIN A   1      18.895   0.644   5.721  0.00  0.00     0.267 C 
ENDBRANCH  33  40
BRANCH  34  44
ATOM     44  O45 ZIN A   1      20.296  -3.217   6.646  0.00  0.00    -0.386 OA
ATOM     45  H76 ZIN A   1      20.751  -2.419   6.950  0.00  0.00     0.210 HD
ENDBRANCH  34  44
ENDBRANCH  30  31
ENDBRANCH   5  30
BRANCH   4  46
ATOM     46  N32 ZIN A   1      18.781  -4.271  11.385  0.00  0.00    -0.072 N 
ATOM     47  H33 ZIN A   1      18.074  -4.578  10.733  0.00  0.00     0.274 HD
ATOM     48  H34 ZIN A   1      19.587  -3.941  10.876  0.00  0.00     0.274 HD
ATOM     49  H35 ZIN A   1      19.049  -5.043  11.977  0.00  0.00     0.274 HD
ENDBRANCH   4  46
TORSDOF 13
ENDMDL
MODEL 8
REMARK VINA RESULT:      -7.2      2.266      3.357
REMARK  13 active torsions:
REMARK  status: ('A' for Active; 'I' for Inactive)
REMARK    1  A    between atoms: N2_2  and  C5_5 
REMARK    2  A    between atoms: C5_5  and  C8_7 
REMARK    3  A    between atoms: C12_10  and  N14_11 
REMARK    4  A    between atoms: C18_15  and  O20_16 
REMARK    5  A    between atoms: O20_16  and  C21_17 
REMARK    6  A    between atoms: C23_18  and  N25_19 
REMARK    7  A    between atoms: C30_24  and  N32_25 
REMARK    8  A    between atoms: C36_29  and  O38_30 
REMARK    9  A    between atoms: O38_30  and  C39_31 
REMARK   10  A    between atoms: C43_34  and  O45_36 
REMARK   11  A    between atoms: C46_37  and  N48_38 
REMARK   12  A    between atoms: C52_42  and  O54_43 
REMARK   13  A    between atoms: C55_44  and  O57_45 
ROOT
ATOM      1  C21 ZIN A   1      19.046   1.397  12.461  0.00  0.00     0.186 C 
ATOM      2  C23 ZIN A   1      18.457   2.533  11.623  0.00  0.00     0.217 C 
ATOM      3  C29 ZIN A   1      17.633   1.947  10.475  0.00  0.00     0.071 C 
ATOM      4  C30 ZIN A   1      18.533   1.077   9.595  0.00  0.00     0.217 C 
ATOM      5  C36 ZIN A   1      19.123  -0.059  10.432  0.00  0.00     0.186 C 
ATOM      6  C55 ZIN A   1      19.946   0.528  11.580  0.00  0.00     0.180 C 
ENDROOT
BRANCH   1   7
ATOM      7  O20 ZIN A   1      17.988   0.600  12.994  0.00  0.00    -0.349 OA
BRANCH   7   8
ATOM      8  C18 ZIN A   1      17.760   0.794  14.391  0.00  0.00     0.291 C 
ATOM      9  C12 ZIN A   1      17.956  -0.532  15.131  0.00  0.00     0.238 C 
ATOM     10  C11 ZIN A   1      17.770  -0.302  16.634  0.00  0.00     0.040 C 
ATOM     11  C10 ZIN A   1      18.754   0.774  17.100  0.00  0.00     0.036 C 
ATOM     12  C8  ZIN A   1      18.528   2.050  16.285  0.00  0.00     0.155 C 
ATOM     13  O58 ZIN A   1      18.686   1.760  14.895  0.00  0.00    -0.352 OA
BRANCH   9  14
ATOM     14  N14 ZIN A   1      19.310  -1.042  14.876  0.00  0.00    -0.070 N 
ATOM     15  H15 ZIN A   1      19.874  -0.927  15.705  0.00  0.00     0.274 HD
ATOM     16  H16 ZIN A   1      19.261  -2.021  14.636  0.00  0.00     0.274 HD
ATOM     17  H17 ZIN A   1      19.724  -0.528  14.113  0.00  0.00     0.274 HD
ENDBRANCH   9  14
BRANCH  12  18
ATOM     18  C5  ZIN A   1      19.548   3.110  16.704  0.00  0.00     0.210 C 
ATOM     19  C7  ZIN A   1      19.493   4.285  15.726  0.00  0.00     0.042 C 
BRANCH  18  20
ATOM     20  N2  ZIN A   1      19.232   3.584  18.058  0.00  0.00    -0.073 N 
ATOM     21  C1  ZIN A   1      17.954   4.309  18.038  0.00  0.00     0.267 C 
ATOM     22  H3  ZIN A   1      19.963   4.202  18.378  0.00  0.00     0.277 HD
ATOM     23  H4  ZIN A   1      19.161   2.795  18.683  0.00  0.00     0.277 HD
ENDBRANCH  18  20
ENDBRANCH  12  18
ENDBRANCH   7   8
ENDBRANCH   1   7
BRANCH   6  24
ATOM     24  O57 ZIN A   1      20.497  -0.534  12.363  0.00  0.00    -0.390 OA
ATOM     25  H81 ZIN A   1      20.737  -0.276  13.263  0.00  0.00     0.210 HD
ENDBRANCH   6  24
BRANCH   2  26
ATOM     26  N25 ZIN A   1      17.593   3.368  12.469  0.00  0.00    -0.072 N 
ATOM     27  H26 ZIN A   1      17.969   4.304  12.514  0.00  0.00     0.274 HD
ATOM     28  H27 ZIN A   1      16.665   3.398  12.074  0.00  0.00     0.274 HD
ATOM     29  H28 ZIN A   1      17.552   2.977  13.397  0.00  0.00     0.274 HD
ENDBRANCH   2  26
BRANCH   5  30
ATOM     30  O38 ZIN A   1      18.063  -0.858  10.966  0.00  0.00    -0.349 OA
BRANCH  30  31
ATOM     31  C39 ZIN A   1      17.824  -2.065  10.241  0.00  0.00     0.291 C 
ATOM     32  C52 ZIN A   1      19.142  -2.573   9.649  0.00  0.00     0.207 C 
ATOM     33  C46 ZIN A   1      18.890  -3.899   8.924  0.00  0.00     0.254 C 
ATOM     34  C43 ZIN A   1      18.273  -4.897   9.909  0.00  0.00     0.106 C 
ATOM     35  C42 ZIN A   1      16.989  -4.300  10.491  0.00  0.00     0.210 C 
ATOM     36  C44 ZIN A   1      17.944  -6.201   9.178  0.00  0.00     0.050 C 
ATOM     37  O41 ZIN A   1      17.289  -3.053  11.123  0.00  0.00    -0.356 OA
BRANCH  32  38
ATOM     38  O54 ZIN A   1      20.092  -2.775  10.697  0.00  0.00    -0.388 OA
ATOM     39  H80 ZIN A   1      19.834  -3.452  11.336  0.00  0.00     0.210 HD
ENDBRANCH  32  38
BRANCH  33  40
ATOM     40  N48 ZIN A   1      20.161  -4.433   8.416  0.00  0.00    -0.069 N 
ATOM     41  H49 ZIN A   1      20.923  -3.862   8.749  0.00  0.00     0.277 HD
ATOM     42  H50 ZIN A   1      20.282  -5.380   8.742  0.00  0.00     0.277 HD
ATOM     43  C51 ZIN A   1      20.145  -4.419   6.947  0.00  0.00     0.267 C 
ENDBRANCH  33  40
BRANCH  34  44
ATOM     44  O45 ZIN A   1      19.198  -5.161  10.965  0.00  0.00    -0.386 OA
ATOM     45  H76 ZIN A   1      19.171  -6.071  11.292  0.00  0.00     0.210 HD
ENDBRANCH  34  44
ENDBRANCH  30  31
ENDBRANCH   5  30
BRANCH   4  46
ATOM     46  N32 ZIN A   1      17.742   0.513   8.493  0.00  0.00    -0.072 N 
ATOM     47  H33 ZIN A   1      17.633   1.206   7.767  0.00  0.00     0.274 HD
ATOM     48  H34 ZIN A   1      18.216  -0.295   8.117  0.00  0.00     0.274 HD
ATOM     49  H35 ZIN A   1      16.833   0.241   8.836  0.00  0.00     0.274 HD
ENDBRANCH   4  46
TORSDOF 13
ENDMDL
MODEL 9
REMARK VINA RESULT:      -6.9      2.214      7.357
REMARK  13 active torsions:
REMARK  status: ('A' for Active; 'I' for Inactive)
REMARK    1  A    between atoms: N2_2  and  C5_5 
REMARK    2  A    between atoms: C5_5  and  C8_7 
REMARK    3  A    between atoms: C12_10  and  N14_11 
REMARK    4  A    between atoms: C18_15  and  O20_16 
REMARK    5  A    between atoms: O20_16  and  C21_17 
REMARK    6  A    between atoms: C23_18  and  N25_19 
REMARK    7  A    between atoms: C30_24  and  N32_25 
REMARK    8  A    between atoms: C36_29  and  O38_30 
REMARK    9  A    between atoms: O38_30  and  C39_31 
REMARK   10  A    between atoms: C43_34  and  O45_36 
REMARK   11  A    between atoms: C46_37  and  N48_38 
REMARK   12  A    between atoms: C52_42  and  O54_43 
REMARK   13  A    between atoms: C55_44  and  O57_45 
ROOT
ATOM      1  C21 ZIN A   1      18.095  -0.100  10.476  0.00  0.00     0.186 C 
ATOM      2  C23 ZIN A   1      18.302   1.033   9.469  0.00  0.00     0.217 C 
ATOM      3  C29 ZIN A   1      19.115   2.153  10.120  0.00  0.00     0.071 C 
ATOM      4  C30 ZIN A   1      18.363   2.685  11.341  0.00  0.00     0.217 C 
ATOM      5  C36 ZIN A   1      18.155   1.553  12.348  0.00  0.00     0.186 C 
ATOM      6  C55 ZIN A   1      17.342   0.433  11.696  0.00  0.00     0.180 C 
ENDROOT
BRANCH   1   7
ATOM      7  O20 ZIN A   1      19.365  -0.611  10.885  0.00  0.00    -0.349 OA
BRANCH   7   8
ATOM      8  C18 ZIN A   1      19.631  -1.940  10.432  0.00  0.00     0.291 C 
ATOM      9  C12 ZIN A   1      19.996  -2.824  11.627  0.00  0.00     0.238 C 
ATOM     10  C11 ZIN A   1      20.220  -4.259  11.142  0.00  0.00     0.040 C 
ATOM     11  C10 ZIN A   1      18.958  -4.746  10.422  0.00  0.00     0.036 C 
ATOM     12  C8  ZIN A   1      18.633  -3.788   9.274  0.00  0.00     0.155 C 
ATOM     13  O58 ZIN A   1      18.467  -2.466   9.790  0.00  0.00    -0.352 OA
BRANCH   9  14
ATOM     14  N14 ZIN A   1      18.901  -2.803  12.608  0.00  0.00    -0.070 N 
ATOM     15  H15 ZIN A   1      18.940  -1.944  13.136  0.00  0.00     0.274 HD
ATOM     16  H16 ZIN A   1      18.017  -2.862  12.126  0.00  0.00     0.274 HD
ATOM     17  H17 ZIN A   1      18.997  -3.587  13.235  0.00  0.00     0.274 HD
ENDBRANCH   9  14
BRANCH  12  18
ATOM     18  C5  ZIN A   1      17.340  -4.234   8.588  0.00  0.00     0.210 C 
ATOM     19  C7  ZIN A   1      17.679  -5.101   7.375  0.00  0.00     0.042 C 
BRANCH  18  20
ATOM     20  N2  ZIN A   1      16.528  -5.010   9.534  0.00  0.00    -0.073 N 
ATOM     21  C1  ZIN A   1      15.501  -5.760   8.798  0.00  0.00     0.267 C 
ATOM     22  H3  ZIN A   1      16.082  -4.384  10.188  0.00  0.00     0.277 HD
ATOM     23  H4  ZIN A   1      17.120  -5.655  10.036  0.00  0.00     0.277 HD
ENDBRANCH  18  20
ENDBRANCH  12  18
ENDBRANCH   7   8
ENDBRANCH   1   7
BRANCH   6  24
ATOM     24  O57 ZIN A   1      17.148  -0.625  12.637  0.00  0.00    -0.390 OA
ATOM     25  H81 ZIN A   1      16.462  -0.447  13.294  0.00  0.00     0.210 HD
ENDBRANCH   6  24
BRANCH   2  26
ATOM     26  N25 ZIN A   1      19.025   0.520   8.297  0.00  0.00    -0.072 N 
ATOM     27  H26 ZIN A   1      19.516   1.279   7.847  0.00  0.00     0.274 HD
ATOM     28  H27 ZIN A   1      19.688  -0.181   8.592  0.00  0.00     0.274 HD
ATOM     29  H28 ZIN A   1      18.369   0.113   7.648  0.00  0.00     0.274 HD
ENDBRANCH   2  26
BRANCH   5  30
ATOM     30  O38 ZIN A   1      19.426   1.042  12.758  0.00  0.00    -0.349 OA
BRANCH  30  31
ATOM     31  C39 ZIN A   1      19.554   0.871  14.171  0.00  0.00     0.291 C 
ATOM     32  C52 ZIN A   1      18.762   1.966  14.891  0.00  0.00     0.207 C 
ATOM     33  C46 ZIN A   1      18.855   1.740  16.403  0.00  0.00     0.254 C 
ATOM     34  C43 ZIN A   1      18.337   0.337  16.732  0.00  0.00     0.106 C 
ATOM     35  C42 ZIN A   1      19.144  -0.695  15.940  0.00  0.00     0.210 C 
ATOM     36  C44 ZIN A   1      18.495   0.071  18.230  0.00  0.00     0.050 C 
ATOM     37  O41 ZIN A   1      19.041  -0.409  14.544  0.00  0.00    -0.356 OA
BRANCH  32  38
ATOM     38  O54 ZIN A   1      17.394   1.914  14.483  0.00  0.00    -0.388 OA
ATOM     39  H80 ZIN A   1      17.077   1.023  14.283  0.00  0.00     0.210 HD
ENDBRANCH  32  38
BRANCH  33  40
ATOM     40  N48 ZIN A   1      18.037   2.742  17.102  0.00  0.00    -0.069 N 
ATOM     41  H49 ZIN A   1      17.290   3.049  16.496  0.00  0.00     0.277 HD
ATOM     42  H50 ZIN A   1      17.646   2.333  17.938  0.00  0.00     0.277 HD
ATOM     43  C51 ZIN A   1      18.876   3.891  17.465  0.00  0.00     0.267 C 
ENDBRANCH  33  40
BRANCH  34  44
ATOM     44  O45 ZIN A   1      16.956   0.240  16.373  0.00  0.00    -0.386 OA
ATOM     45  H76 ZIN A   1      16.563  -0.624  16.554  0.00  0.00     0.210 HD
ENDBRANCH  34  44
ENDBRANCH  30  31
ENDBRANCH   5  30
BRANCH   4  46
ATOM     46  N32 ZIN A   1      19.144   3.761  11.966  0.00  0.00    -0.072 N 
ATOM     47  H33 ZIN A   1      19.108   3.663  12.970  0.00  0.00     0.274 HD
ATOM     48  H34 ZIN A   1      20.103   3.703  11.658  0.00  0.00     0.274 HD
ATOM     49  H35 ZIN A   1      18.758   4.655  11.702  0.00  0.00     0.274 HD
ENDBRANCH   4  46
TORSDOF 13
ENDMDL
