MODEL 1
REMARK VINA RESULT:      -5.3      0.000      0.000
REMARK  0 active torsions:
REMARK  status: ('A' for Active; 'I' for Inactive)
ROOT
ATOM      1  C1  ZIN A   1      16.984   4.944  10.646  0.00  0.00     0.046 C 
ATOM      2  C2  ZIN A   1      17.834   3.677  10.759  0.00  0.00     0.058 C 
ATOM      3  C3  ZIN A   1      18.365   3.291   9.376  0.00  0.00     0.038 C 
ATOM      4  C4  ZIN A   1      19.194   2.008   9.499  0.00  0.00     0.010 C 
ATOM      5  C5  ZIN A   1      19.196   1.559  10.964  0.00  0.00     0.020 C 
ATOM      6  C6  ZIN A   1      19.849   2.654  11.817  0.00  0.00     0.010 C 
ATOM      7  C7  ZIN A   1      19.014   3.933  11.701  0.00  0.00     0.038 C 
ATOM      8  C8  ZIN A   1      17.746   1.373  11.425  0.00  0.00     0.058 C 
ATOM      9  C9  ZIN A   1      17.074   0.294  10.573  0.00  0.00     0.046 C 
ATOM     10  C10 ZIN A   1      17.729   0.947  12.895  0.00  0.00     0.046 C 
ATOM     11  O11 ZIN A   1      17.037   2.611  11.281  0.00  0.00    -0.370 OA
ENDROOT
TORSDOF 0
ENDMDL
MODEL 2
REMARK VINA RESULT:      -5.2      0.934      3.246
REMARK  0 active torsions:
REMARK  status: ('A' for Active; 'I' for Inactive)
ROOT
ATOM      1  C1  ZIN A   1      16.633   0.080  11.464  0.00  0.00     0.046 C 
ATOM      2  C2  ZIN A   1      17.633   1.205  11.190  0.00  0.00     0.058 C 
ATOM      3  C3  ZIN A   1      18.937   0.926  11.944  0.00  0.00     0.038 C 
ATOM      4  C4  ZIN A   1      19.921   2.071  11.682  0.00  0.00     0.010 C 
ATOM      5  C5  ZIN A   1      19.252   3.096  10.759  0.00  0.00     0.020 C 
ATOM      6  C6  ZIN A   1      18.915   2.416   9.426  0.00  0.00     0.010 C 
ATOM      7  C7  ZIN A   1      17.923   1.279   9.688  0.00  0.00     0.038 C 
ATOM      8  C8  ZIN A   1      17.951   3.573  11.413  0.00  0.00     0.058 C 
ATOM      9  C9  ZIN A   1      18.269   4.239  12.753  0.00  0.00     0.046 C 
ATOM     10  C10 ZIN A   1      17.258   4.581  10.493  0.00  0.00     0.046 C 
ATOM     11  O11 ZIN A   1      17.085   2.450  11.627  0.00  0.00    -0.370 OA
ENDROOT
TORSDOF 0
ENDMDL
MODEL 3
REMARK VINA RESULT:      -4.9      2.098      3.057
REMARK  0 active torsions:
REMARK  status: ('A' for Active; 'I' for Inactive)
ROOT
ATOM      1  C1  ZIN A   1      17.572   2.278  11.204  0.00  0.00     0.046 C 
ATOM      2  C2  ZIN A   1      18.281   1.438  10.140  0.00  0.00     0.058 C 
ATOM      3  C3  ZIN A   1      18.801   2.354   9.028  0.00  0.00     0.038 C 
ATOM      4  C4  ZIN A   1      19.487   1.499   7.957  0.00  0.00     0.010 C 
ATOM      5  C5  ZIN A   1      19.406   0.026   8.373  0.00  0.00     0.020 C 
ATOM      6  C6  ZIN A   1      20.151  -0.154   9.702  0.00  0.00     0.010 C 
ATOM      7  C7  ZIN A   1      19.458   0.693  10.775  0.00  0.00     0.038 C 
ATOM      8  C8  ZIN A   1      17.935  -0.349   8.576  0.00  0.00     0.058 C 
ATOM      9  C9  ZIN A   1      17.174  -0.159   7.262  0.00  0.00     0.046 C 
ATOM     10  C10 ZIN A   1      17.837  -1.812   9.015  0.00  0.00     0.046 C 
ATOM     11  O11 ZIN A   1      17.363   0.490   9.589  0.00  0.00    -0.370 OA
ENDROOT
TORSDOF 0
ENDMDL
MODEL 4
REMARK VINA RESULT:      -4.9      4.646      6.099
REMARK  0 active torsions:
REMARK  status: ('A' for Active; 'I' for Inactive)
ROOT
ATOM      1  C1  ZIN A   1      17.349  -1.076  12.005  0.00  0.00     0.046 C 
ATOM      2  C2  ZIN A   1      17.925  -2.355  11.394  0.00  0.00     0.058 C 
ATOM      3  C3  ZIN A   1      18.225  -2.124   9.910  0.00  0.00     0.038 C 
ATOM      4  C4  ZIN A   1      18.777  -3.418   9.304  0.00  0.00     0.010 C 
ATOM      5  C5  ZIN A   1      18.831  -4.491  10.396  0.00  0.00     0.020 C 
ATOM      6  C6  ZIN A   1      19.779  -4.020  11.507  0.00  0.00     0.010 C 
ATOM      7  C7  ZIN A   1      19.219  -2.732  12.119  0.00  0.00     0.038 C 
ATOM      8  C8  ZIN A   1      17.428  -4.667  10.985  0.00  0.00     0.058 C 
ATOM      9  C9  ZIN A   1      16.466  -5.121   9.885  0.00  0.00     0.046 C 
ATOM     10  C10 ZIN A   1      17.468  -5.720  12.095  0.00  0.00     0.046 C 
ATOM     11  O11 ZIN A   1      16.980  -3.418  11.531  0.00  0.00    -0.370 OA
ENDROOT
TORSDOF 0
ENDMDL
MODEL 5
REMARK VINA RESULT:      -4.9      1.895      3.368
REMARK  0 active torsions:
REMARK  status: ('A' for Active; 'I' for Inactive)
ROOT
ATOM      1  C1  ZIN A   1      19.205   1.415   7.737  0.00  0.00     0.046 C 
ATOM      2  C2  ZIN A   1      18.737   1.154   9.170  0.00  0.00     0.058 C 
ATOM      3  C3  ZIN A   1      18.439   2.488   9.862  0.00  0.00     0.038 C 
ATOM      4  C4  ZIN A   1      17.996   2.215  11.303  0.00  0.00     0.010 C 
ATOM      5  C5  ZIN A   1      18.011   0.702  11.547  0.00  0.00     0.020 C 
ATOM      6  C6  ZIN A   1      17.017   0.035  10.588  0.00  0.00     0.010 C 
ATOM      7  C7  ZIN A   1      17.467   0.300   9.148  0.00  0.00     0.038 C 
ATOM      8  C8  ZIN A   1      19.417   0.169  11.250  0.00  0.00     0.058 C 
ATOM      9  C9  ZIN A   1      20.425   0.836  12.188  0.00  0.00     0.046 C 
ATOM     10  C10 ZIN A   1      19.444  -1.346  11.467  0.00  0.00     0.046 C 
ATOM     11  O11 ZIN A   1      19.760   0.461   9.888  0.00  0.00    -0.370 OA
ENDROOT
TORSDOF 0
ENDMDL
MODEL 6
REMARK VINA RESULT:      -4.8      1.393      2.209
REMARK  0 active torsions:
REMARK  status: ('A' for Active; 'I' for Inactive)
ROOT
ATOM      1  C1  ZIN A   1      16.681   5.177  12.943  0.00  0.00     0.046 C 
ATOM      2  C2  ZIN A   1      17.693   4.091  12.574  0.00  0.00     0.058 C 
ATOM      3  C3  ZIN A   1      19.043   4.737  12.248  0.00  0.00     0.038 C 
ATOM      4  C4  ZIN A   1      20.040   3.642  11.856  0.00  0.00     0.010 C 
ATOM      5  C5  ZIN A   1      19.334   2.283  11.923  0.00  0.00     0.020 C 
ATOM      6  C6  ZIN A   1      18.869   2.037  13.364  0.00  0.00     0.010 C 
ATOM      7  C7  ZIN A   1      17.864   3.127  13.751  0.00  0.00     0.038 C 
ATOM      8  C8  ZIN A   1      18.106   2.320  11.007  0.00  0.00     0.058 C 
ATOM      9  C9  ZIN A   1      18.551   2.581   9.567  0.00  0.00     0.046 C 
ATOM     10  C10 ZIN A   1      17.375   0.977  11.080  0.00  0.00     0.046 C 
ATOM     11  O11 ZIN A   1      17.222   3.366  11.435  0.00  0.00    -0.370 OA
ENDROOT
TORSDOF 0
ENDMDL
MODEL 7
REMARK VINA RESULT:      -4.7      3.875      6.023
REMARK  0 active torsions:
REMARK  status: ('A' for Active; 'I' for Inactive)
ROOT
ATOM      1  C1  ZIN A   1      16.627  -5.011  10.909  0.00  0.00     0.046 C 
ATOM      2  C2  ZIN A   1      17.568  -3.804  10.896  0.00  0.00     0.058 C 
ATOM      3  C3  ZIN A   1      18.924  -4.206  11.483  0.00  0.00     0.038 C 
ATOM      4  C4  ZIN A   1      19.848  -2.984  11.488  0.00  0.00     0.010 C 
ATOM      5  C5  ZIN A   1      19.088  -1.787  10.907  0.00  0.00     0.020 C 
ATOM      6  C6  ZIN A   1      18.695  -2.105   9.459  0.00  0.00     0.010 C 
ATOM      7  C7  ZIN A   1      17.762  -3.320   9.457  0.00  0.00     0.038 C 
ATOM      8  C8  ZIN A   1      17.813  -1.566  11.728  0.00  0.00     0.058 C 
ATOM      9  C9  ZIN A   1      18.187  -1.263  13.181  0.00  0.00     0.046 C 
ATOM     10  C10 ZIN A   1      17.029  -0.387  11.147  0.00  0.00     0.046 C 
ATOM     11  O11 ZIN A   1      17.002  -2.748  11.676  0.00  0.00    -0.370 OA
ENDROOT
TORSDOF 0
ENDMDL
MODEL 8
REMARK VINA RESULT:      -4.6      2.936      4.991
REMARK  0 active torsions:
REMARK  status: ('A' for Active; 'I' for Inactive)
ROOT
ATOM      1  C1  ZIN A   1      16.984  -0.157  16.768  0.00  0.00     0.046 C 
ATOM      2  C2  ZIN A   1      17.884  -0.129  15.531  0.00  0.00     0.058 C 
ATOM      3  C3  ZIN A   1      18.817   1.083  15.603  0.00  0.00     0.038 C 
ATOM      4  C4  ZIN A   1      19.696   1.114  14.348  0.00  0.00     0.010 C 
ATOM      5  C5  ZIN A   1      19.328  -0.078  13.458  0.00  0.00     0.020 C 
ATOM      6  C6  ZIN A   1      19.607  -1.376  14.227  0.00  0.00     0.010 C 
ATOM      7  C7  ZIN A   1      18.721  -1.410  15.476  0.00  0.00     0.038 C 
ATOM      8  C8  ZIN A   1      17.832  -0.009  13.134  0.00  0.00     0.058 C 
ATOM      9  C9  ZIN A   1      17.532   1.288  12.380  0.00  0.00     0.046 C 
ATOM     10  C10 ZIN A   1      17.442  -1.206  12.264  0.00  0.00     0.046 C 
ATOM     11  O11 ZIN A   1      17.077  -0.042  14.354  0.00  0.00    -0.370 OA
ENDROOT
TORSDOF 0
ENDMDL
MODEL 9
REMARK VINA RESULT:      -4.6      2.713      4.300
REMARK  0 active torsions:
REMARK  status: ('A' for Active; 'I' for Inactive)
ROOT
ATOM      1  C1  ZIN A   1      16.860  -0.072  11.867  0.00  0.00     0.046 C 
ATOM      2  C2  ZIN A   1      17.846  -0.331  10.725  0.00  0.00     0.058 C 
ATOM      3  C3  ZIN A   1      19.272  -0.047  11.205  0.00  0.00     0.038 C 
ATOM      4  C4  ZIN A   1      20.246  -0.286  10.047  0.00  0.00     0.010 C 
ATOM      5  C5  ZIN A   1      19.449  -0.723   8.813  0.00  0.00     0.020 C 
ATOM      6  C6  ZIN A   1      18.724  -2.037   9.130  0.00  0.00     0.010 C 
ATOM      7  C7  ZIN A   1      17.743  -1.793  10.281  0.00  0.00     0.038 C 
ATOM      8  C8  ZIN A   1      18.405   0.353   8.494  0.00  0.00     0.058 C 
ATOM      9  C9  ZIN A   1      19.111   1.676   8.190  0.00  0.00     0.046 C 
ATOM     10  C10 ZIN A   1      17.583  -0.078   7.276  0.00  0.00     0.046 C 
ATOM     11  O11 ZIN A   1      17.533   0.520   9.621  0.00  0.00    -0.370 OA
ENDROOT
TORSDOF 0
ENDMDL
