MODEL 1
REMARK VINA RESULT:      -8.5      0.000      0.000
REMARK  7 active torsions:
REMARK  status: ('A' for Active; 'I' for Inactive)
REMARK    1  A    between atoms: C2_2  and  N3_3 
REMARK    2  A    between atoms: N3_3  and  C5_5 
REMARK    3  A    between atoms: N3_3  and  C7_7 
REMARK    4  A    between atoms: C7_7  and  C8_8 
REMARK    5  A    between atoms: C8_8  and  N9_9 
REMARK       I    between atoms: N9_9  and  C10_10 
REMARK    6  A    between atoms: C10_10  and  C12_12 
REMARK    7  A    between atoms: C16_16  and  C17_17 
ROOT
ATOM      1  C12 <0> d   1      18.497   4.577  12.881  0.00  0.00     0.062 A 
ATOM      2  C13 <0> d   1      17.216   4.900  12.470  0.00  0.00     0.022 A 
ATOM      3  C14 <0> d   1      16.197   5.654  13.285  0.00  0.00     0.069 C 
ATOM      4  N15 <0> d   1      17.032   4.430  11.225  0.00  0.00    -0.359 N 
ATOM      5  C16 <0> d   1      18.182   3.796  10.803  0.00  0.00     0.040 A 
ATOM      6  C29 <0> d   1      19.113   3.881  11.820  0.00  0.00    -0.018 A 
ATOM      7  C30 <0> d   1      20.514   3.327  11.802  0.00  0.00     0.052 C 
ATOM      8  H49 <0> d   1      16.218   4.523  10.705  0.00  0.00     0.166 HD
ENDROOT
BRANCH   5   9
ATOM      9  C17 <0> d   1      18.375   3.176   9.550  0.00  0.00     0.048 C 
ATOM     10  C18 <0> d   1      18.083   1.836   9.390  0.00  0.00     0.047 A 
ATOM     11  C28 <0> d   1      18.358   0.990   8.208  0.00  0.00     0.009 A 
ATOM     12  C19 <0> d   1      17.426   0.944  10.355  0.00  0.00     0.257 A 
ATOM     13  C22 <0> d   1      17.884  -0.291   8.521  0.00  0.00     0.046 A 
ATOM     14  C27 <0> d   1      18.963   1.236   6.980  0.00  0.00     0.057 A 
ATOM     15  N21 <0> d   1      17.337  -0.277   9.799  0.00  0.00    -0.322 N 
ATOM     16  C23 <0> d   1      18.015  -1.309   7.583  0.00  0.00     0.033 A 
ATOM     17  H51 <0> d   1      16.941  -1.048  10.234  0.00  0.00     0.169 HD
ATOM     18  C24 <0> d   1      18.611  -1.056   6.364  0.00  0.00     0.044 A 
ATOM     19  C25 <0> d   1      19.084   0.211   6.059  0.00  0.00     0.117 A 
ATOM     20  F26 <0> d   1      19.666   0.445   4.862  0.00  0.00    -0.206 F 
ATOM     21  O20 <0> d   1      17.031   1.256  11.464  0.00  0.00    -0.267 OA
ENDBRANCH   5   9
BRANCH   1  22
ATOM     22  C10 <0> d   1      19.106   4.905  14.183  0.00  0.00     0.254 C 
ATOM     23  N9  <0> d   1      18.874   4.119  15.253  0.00  0.00    -0.355 N 
ATOM     24  H45 <0> d   1      18.305   3.338  15.166  0.00  0.00     0.162 HD
ATOM     25  O11 <0> d   1      19.819   5.884  14.291  0.00  0.00    -0.268 OA
BRANCH  23  26
ATOM     26  C8  <0> d   1      19.480   4.444  16.546  0.00  0.00     0.150 C 
BRANCH  26  27
ATOM     27  C7  <0> d   1      19.386   3.230  17.474  0.00  0.00     0.254 C 
BRANCH  27  28
ATOM     28  N3  <0> d   1      17.984   3.009  17.850  0.00  0.00    -0.070 N 
ATOM     29  H4  <0> d   1      17.415   2.967  17.017  0.00  0.00     0.279 HD
BRANCH  28  30
ATOM     30  C2  <0> d   1      17.869   1.745  18.588  0.00  0.00     0.230 C 
ATOM     31  C1  <0> d   1      19.104   0.882  18.316  0.00  0.00     0.034 C 
ENDBRANCH  28  30
BRANCH  28  32
ATOM     32  C5  <0> d   1      17.525   4.116  18.700  0.00  0.00     0.230 C 
ATOM     33  C6  <0> d   1      16.457   3.606  19.670  0.00  0.00     0.034 C 
ENDBRANCH  28  32
ENDBRANCH  27  28
ENDBRANCH  26  27
ENDBRANCH  23  26
ENDBRANCH   1  22
TORSDOF 7
ENDMDL
MODEL 2
REMARK VINA RESULT:      -8.2      3.373      4.340
REMARK  7 active torsions:
REMARK  status: ('A' for Active; 'I' for Inactive)
REMARK    1  A    between atoms: C2_2  and  N3_3 
REMARK    2  A    between atoms: N3_3  and  C5_5 
REMARK    3  A    between atoms: N3_3  and  C7_7 
REMARK    4  A    between atoms: C7_7  and  C8_8 
REMARK    5  A    between atoms: C8_8  and  N9_9 
REMARK       I    between atoms: N9_9  and  C10_10 
REMARK    6  A    between atoms: C10_10  and  C12_12 
REMARK    7  A    between atoms: C16_16  and  C17_17 
ROOT
ATOM      1  C12 <0> d   1      17.987   3.354  12.459  0.00  0.00     0.062 A 
ATOM      2  C13 <0> d   1      17.787   3.317  11.090  0.00  0.00     0.022 A 
ATOM      3  C14 <0> d   1      17.828   4.506  10.165  0.00  0.00     0.069 C 
ATOM      4  N15 <0> d   1      17.552   2.046  10.724  0.00  0.00    -0.359 N 
ATOM      5  C16 <0> d   1      17.594   1.236  11.839  0.00  0.00     0.040 A 
ATOM      6  C29 <0> d   1      17.869   2.031  12.934  0.00  0.00    -0.018 A 
ATOM      7  C30 <0> d   1      18.008   1.574  14.363  0.00  0.00     0.052 C 
ATOM      8  H49 <0> d   1      17.381   1.746   9.817  0.00  0.00     0.166 HD
ENDROOT
BRANCH   5   9
ATOM      9  C17 <0> d   1      17.395  -0.162  11.857  0.00  0.00     0.048 C 
ATOM     10  C18 <0> d   1      18.449  -1.013  11.590  0.00  0.00     0.047 A 
ATOM     11  C28 <0> d   1      18.398  -2.482  11.419  0.00  0.00     0.009 A 
ATOM     12  C19 <0> d   1      19.864  -0.656  11.422  0.00  0.00     0.257 A 
ATOM     13  C22 <0> d   1      19.713  -2.894  11.162  0.00  0.00     0.046 A 
ATOM     14  C27 <0> d   1      17.363  -3.410  11.451  0.00  0.00     0.057 A 
ATOM     15  N21 <0> d   1      20.551  -1.785  11.175  0.00  0.00    -0.322 N 
ATOM     16  C23 <0> d   1      19.970  -4.244  10.953  0.00  0.00     0.033 A 
ATOM     17  H51 <0> d   1      21.509  -1.820  11.026  0.00  0.00     0.169 HD
ATOM     18  C24 <0> d   1      18.937  -5.160  10.992  0.00  0.00     0.044 A 
ATOM     19  C25 <0> d   1      17.637  -4.749  11.241  0.00  0.00     0.117 A 
ATOM     20  F26 <0> d   1      16.637  -5.655  11.276  0.00  0.00    -0.206 F 
ATOM     21  O20 <0> d   1      20.333   0.466  11.493  0.00  0.00    -0.267 OA
ENDBRANCH   5   9
BRANCH   1  22
ATOM     22  C10 <0> d   1      18.273   4.552  13.268  0.00  0.00     0.254 C 
ATOM     23  N9  <0> d   1      19.542   4.842  13.619  0.00  0.00    -0.355 N 
ATOM     24  H45 <0> d   1      20.267   4.261  13.338  0.00  0.00     0.162 HD
ATOM     25  O11 <0> d   1      17.365   5.280  13.620  0.00  0.00    -0.268 OA
BRANCH  23  26
ATOM     26  C8  <0> d   1      19.827   6.033  14.422  0.00  0.00     0.150 C 
BRANCH  26  27
ATOM     27  C7  <0> d   1      20.339   5.610  15.801  0.00  0.00     0.254 C 
BRANCH  27  28
ATOM     28  N3  <0> d   1      19.319   5.910  16.814  0.00  0.00    -0.070 N 
ATOM     29  H4  <0> d   1      19.770   6.201  17.669  0.00  0.00     0.279 HD
BRANCH  28  30
ATOM     30  C2  <0> d   1      18.447   6.986  16.328  0.00  0.00     0.230 C 
ATOM     31  C1  <0> d   1      17.324   7.228  17.338  0.00  0.00     0.034 C 
ENDBRANCH  28  30
BRANCH  28  32
ATOM     32  C5  <0> d   1      18.515   4.706  17.070  0.00  0.00     0.230 C 
ATOM     33  C6  <0> d   1      19.433   3.485  17.139  0.00  0.00     0.034 C 
ENDBRANCH  28  32
ENDBRANCH  27  28
ENDBRANCH  26  27
ENDBRANCH  23  26
ENDBRANCH   1  22
TORSDOF 7
ENDMDL
MODEL 3
REMARK VINA RESULT:      -8.1      3.847      8.405
REMARK  7 active torsions:
REMARK  status: ('A' for Active; 'I' for Inactive)
REMARK    1  A    between atoms: C2_2  and  N3_3 
REMARK    2  A    between atoms: N3_3  and  C5_5 
REMARK    3  A    between atoms: N3_3  and  C7_7 
REMARK    4  A    between atoms: C7_7  and  C8_8 
REMARK    5  A    between atoms: C8_8  and  N9_9 
REMARK       I    between atoms: N9_9  and  C10_10 
REMARK    6  A    between atoms: C10_10  and  C12_12 
REMARK    7  A    between atoms: C16_16  and  C17_17 
ROOT
ATOM      1  C12 <0> d   1      18.964   0.231   9.002  0.00  0.00     0.062 A 
ATOM      2  C13 <0> d   1      19.157   1.344   8.202  0.00  0.00     0.022 A 
ATOM      3  C14 <0> d   1      19.008   1.385   6.704  0.00  0.00     0.069 C 
ATOM      4  N15 <0> d   1      19.497   2.382   8.985  0.00  0.00    -0.359 N 
ATOM      5  C16 <0> d   1      19.533   1.968  10.300  0.00  0.00     0.040 A 
ATOM      6  C29 <0> d   1      19.198   0.629  10.335  0.00  0.00    -0.018 A 
ATOM      7  C30 <0> d   1      19.109  -0.242  11.561  0.00  0.00     0.052 C 
ATOM      8  H49 <0> d   1      19.687   3.281   8.672  0.00  0.00     0.166 HD
ENDROOT
BRANCH   5   9
ATOM      9  C17 <0> d   1      19.851   2.775  11.415  0.00  0.00     0.048 C 
ATOM     10  C18 <0> d   1      18.902   3.626  11.944  0.00  0.00     0.047 A 
ATOM     11  C28 <0> d   1      19.095   4.642  13.002  0.00  0.00     0.009 A 
ATOM     12  C19 <0> d   1      17.481   3.716  11.582  0.00  0.00     0.257 A 
ATOM     13  C22 <0> d   1      17.848   5.254  13.195  0.00  0.00     0.046 A 
ATOM     14  C27 <0> d   1      20.201   5.052  13.739  0.00  0.00     0.057 A 
ATOM     15  N21 <0> d   1      16.919   4.675  12.337  0.00  0.00    -0.322 N 
ATOM     16  C23 <0> d   1      17.729   6.266  14.140  0.00  0.00     0.033 A 
ATOM     17  H51 <0> d   1      15.984   4.930  12.291  0.00  0.00     0.169 HD
ATOM     18  C24 <0> d   1      18.830   6.663  14.872  0.00  0.00     0.044 A 
ATOM     19  C25 <0> d   1      20.064   6.060  14.676  0.00  0.00     0.117 A 
ATOM     20  F26 <0> d   1      21.133   6.459  15.399  0.00  0.00    -0.206 F 
ATOM     21  O20 <0> d   1      16.911   3.039  10.745  0.00  0.00    -0.267 OA
ENDBRANCH   5   9
BRANCH   1  22
ATOM     22  C10 <0> d   1      18.582  -1.117   8.546  0.00  0.00     0.254 C 
ATOM     23  N9  <0> d   1      19.499  -2.104   8.512  0.00  0.00    -0.355 N 
ATOM     24  H45 <0> d   1      20.412  -1.926   8.788  0.00  0.00     0.162 HD
ATOM     25  O11 <0> d   1      17.438  -1.339   8.200  0.00  0.00    -0.268 OA
BRANCH  23  26
ATOM     26  C8  <0> d   1      19.119  -3.444   8.059  0.00  0.00     0.150 C 
BRANCH  26  27
ATOM     27  C7  <0> d   1      18.750  -4.307   9.267  0.00  0.00     0.254 C 
BRANCH  27  28
ATOM     28  N3  <0> d   1      17.324  -4.138   9.572  0.00  0.00    -0.070 N 
ATOM     29  H4  <0> d   1      17.018  -3.228   9.259  0.00  0.00     0.279 HD
BRANCH  28  30
ATOM     30  C2  <0> d   1      16.550  -5.179   8.884  0.00  0.00     0.230 C 
ATOM     31  C1  <0> d   1      16.970  -6.555   9.405  0.00  0.00     0.034 C 
ENDBRANCH  28  30
BRANCH  28  32
ATOM     32  C5  <0> d   1      17.116  -4.252  11.022  0.00  0.00     0.230 C 
ATOM     33  C6  <0> d   1      18.357  -3.742  11.757  0.00  0.00     0.034 C 
ENDBRANCH  28  32
ENDBRANCH  27  28
ENDBRANCH  26  27
ENDBRANCH  23  26
ENDBRANCH   1  22
TORSDOF 7
ENDMDL
MODEL 4
REMARK VINA RESULT:      -8.0      3.769      9.470
REMARK  7 active torsions:
REMARK  status: ('A' for Active; 'I' for Inactive)
REMARK    1  A    between atoms: C2_2  and  N3_3 
REMARK    2  A    between atoms: N3_3  and  C5_5 
REMARK    3  A    between atoms: N3_3  and  C7_7 
REMARK    4  A    between atoms: C7_7  and  C8_8 
REMARK    5  A    between atoms: C8_8  and  N9_9 
REMARK       I    between atoms: N9_9  and  C10_10 
REMARK    6  A    between atoms: C10_10  and  C12_12 
REMARK    7  A    between atoms: C16_16  and  C17_17 
ROOT
ATOM      1  C12 <0> d   1      18.910   0.418   9.339  0.00  0.00     0.062 A 
ATOM      2  C13 <0> d   1      19.178   1.577   8.632  0.00  0.00     0.022 A 
ATOM      3  C14 <0> d   1      19.165   1.713   7.132  0.00  0.00     0.069 C 
ATOM      4  N15 <0> d   1      19.451   2.561   9.506  0.00  0.00    -0.359 N 
ATOM      5  C16 <0> d   1      19.366   2.065  10.790  0.00  0.00     0.040 A 
ATOM      6  C29 <0> d   1      19.024   0.729  10.711  0.00  0.00    -0.018 A 
ATOM      7  C30 <0> d   1      18.821  -0.216  11.866  0.00  0.00     0.052 C 
ATOM      8  H49 <0> d   1      19.672   3.475   9.270  0.00  0.00     0.166 HD
ENDROOT
BRANCH   5   9
ATOM      9  C17 <0> d   1      19.585   2.796  11.978  0.00  0.00     0.048 C 
ATOM     10  C18 <0> d   1      18.688   3.772  12.364  0.00  0.00     0.047 A 
ATOM     11  C28 <0> d   1      18.826   4.730  13.482  0.00  0.00     0.009 A 
ATOM     12  C19 <0> d   1      17.386   4.079  11.755  0.00  0.00     0.257 A 
ATOM     13  C22 <0> d   1      17.667   5.518  13.473  0.00  0.00     0.046 A 
ATOM     14  C27 <0> d   1      19.824   4.958  14.424  0.00  0.00     0.057 A 
ATOM     15  N21 <0> d   1      16.838   5.099  12.438  0.00  0.00    -0.322 N 
ATOM     16  C23 <0> d   1      17.523   6.521  14.425  0.00  0.00     0.033 A 
ATOM     17  H51 <0> d   1      15.975   5.492  12.234  0.00  0.00     0.169 HD
ATOM     18  C24 <0> d   1      18.515   6.737  15.360  0.00  0.00     0.044 A 
ATOM     19  C25 <0> d   1      19.663   5.960  15.364  0.00  0.00     0.117 A 
ATOM     20  F26 <0> d   1      20.626   6.182  16.284  0.00  0.00    -0.206 F 
ATOM     21  O20 <0> d   1      16.890   3.508  10.800  0.00  0.00    -0.267 OA
ENDBRANCH   5   9
BRANCH   1  22
ATOM     22  C10 <0> d   1      18.565  -0.896   8.766  0.00  0.00     0.254 C 
ATOM     23  N9  <0> d   1      19.540  -1.739   8.374  0.00  0.00    -0.355 N 
ATOM     24  H45 <0> d   1      20.471  -1.481   8.471  0.00  0.00     0.162 HD
ATOM     25  O11 <0> d   1      17.399  -1.218   8.646  0.00  0.00    -0.268 OA
BRANCH  23  26
ATOM     26  C8  <0> d   1      19.198  -3.044   7.805  0.00  0.00     0.150 C 
BRANCH  26  27
ATOM     27  C7  <0> d   1      19.340  -2.992   6.283  0.00  0.00     0.254 C 
BRANCH  27  28
ATOM     28  N3  <0> d   1      18.017  -2.808   5.674  0.00  0.00    -0.070 N 
ATOM     29  H4  <0> d   1      17.302  -2.974   6.366  0.00  0.00     0.279 HD
BRANCH  28  30
ATOM     30  C2  <0> d   1      17.898  -1.436   5.165  0.00  0.00     0.230 C 
ATOM     31  C1  <0> d   1      19.258  -0.966   4.645  0.00  0.00     0.034 C 
ENDBRANCH  28  30
BRANCH  28  32
ATOM     32  C5  <0> d   1      17.853  -3.758   4.564  0.00  0.00     0.230 C 
ATOM     33  C6  <0> d   1      16.604  -3.392   3.760  0.00  0.00     0.034 C 
ENDBRANCH  28  32
ENDBRANCH  27  28
ENDBRANCH  26  27
ENDBRANCH  23  26
ENDBRANCH   1  22
TORSDOF 7
ENDMDL
MODEL 5
REMARK VINA RESULT:      -7.9      3.800      8.496
REMARK  7 active torsions:
REMARK  status: ('A' for Active; 'I' for Inactive)
REMARK    1  A    between atoms: C2_2  and  N3_3 
REMARK    2  A    between atoms: N3_3  and  C5_5 
REMARK    3  A    between atoms: N3_3  and  C7_7 
REMARK    4  A    between atoms: C7_7  and  C8_8 
REMARK    5  A    between atoms: C8_8  and  N9_9 
REMARK       I    between atoms: N9_9  and  C10_10 
REMARK    6  A    between atoms: C10_10  and  C12_12 
REMARK    7  A    between atoms: C16_16  and  C17_17 
ROOT
ATOM      1  C12 <0> d   1      18.428   0.679   9.383  0.00  0.00     0.062 A 
ATOM      2  C13 <0> d   1      18.809   1.685   8.512  0.00  0.00     0.022 A 
ATOM      3  C14 <0> d   1      19.495   1.484   7.185  0.00  0.00     0.069 C 
ATOM      4  N15 <0> d   1      18.464   2.869   9.045  0.00  0.00    -0.359 N 
ATOM      5  C16 <0> d   1      17.857   2.660  10.265  0.00  0.00     0.040 A 
ATOM      6  C29 <0> d   1      17.818   1.298  10.494  0.00  0.00    -0.018 A 
ATOM      7  C30 <0> d   1      17.243   0.608  11.703  0.00  0.00     0.052 C 
ATOM      8  H49 <0> d   1      18.619   3.735   8.635  0.00  0.00     0.166 HD
ENDROOT
BRANCH   5   9
ATOM      9  C17 <0> d   1      17.357   3.661  11.126  0.00  0.00     0.048 C 
ATOM     10  C18 <0> d   1      18.186   4.242  12.064  0.00  0.00     0.047 A 
ATOM     11  C28 <0> d   1      17.808   5.188  13.137  0.00  0.00     0.009 A 
ATOM     12  C19 <0> d   1      19.637   4.059  12.210  0.00  0.00     0.257 A 
ATOM     13  C22 <0> d   1      18.987   5.492  13.830  0.00  0.00     0.046 A 
ATOM     14  C27 <0> d   1      16.596   5.745  13.532  0.00  0.00     0.057 A 
ATOM     15  N21 <0> d   1      20.048   4.806  13.249  0.00  0.00    -0.322 N 
ATOM     16  C23 <0> d   1      18.932   6.367  14.909  0.00  0.00     0.033 A 
ATOM     17  H51 <0> d   1      20.968   4.861  13.553  0.00  0.00     0.169 HD
ATOM     18  C24 <0> d   1      17.726   6.920  15.291  0.00  0.00     0.044 A 
ATOM     19  C25 <0> d   1      16.560   6.614  14.608  0.00  0.00     0.117 A 
ATOM     20  F26 <0> d   1      15.387   7.162  14.993  0.00  0.00    -0.206 F 
ATOM     21  O20 <0> d   1      20.343   3.355  11.511  0.00  0.00    -0.267 OA
ENDBRANCH   5   9
BRANCH   1  22
ATOM     22  C10 <0> d   1      18.619  -0.769   9.183  0.00  0.00     0.254 C 
ATOM     23  N9  <0> d   1      17.740  -1.470   8.441  0.00  0.00    -0.355 N 
ATOM     24  H45 <0> d   1      16.981  -1.020   8.037  0.00  0.00     0.162 HD
ATOM     25  O11 <0> d   1      19.571  -1.331   9.690  0.00  0.00    -0.268 OA
BRANCH  23  26
ATOM     26  C8  <0> d   1      17.930  -2.908   8.242  0.00  0.00     0.150 C 
BRANCH  26  27
ATOM     27  C7  <0> d   1      17.399  -3.667   9.459  0.00  0.00     0.254 C 
BRANCH  27  28
ATOM     28  N3  <0> d   1      18.523  -4.266  10.191  0.00  0.00    -0.070 N 
ATOM     29  H4  <0> d   1      19.370  -3.758   9.982  0.00  0.00     0.279 HD
BRANCH  28  30
ATOM     30  C2  <0> d   1      18.257  -4.203  11.634  0.00  0.00     0.230 C 
ATOM     31  C1  <0> d   1      17.456  -5.436  12.059  0.00  0.00     0.034 C 
ENDBRANCH  28  30
BRANCH  28  32
ATOM     32  C5  <0> d   1      18.681  -5.669   9.783  0.00  0.00     0.230 C 
ATOM     33  C6  <0> d   1      20.024  -5.845   9.072  0.00  0.00     0.034 C 
ENDBRANCH  28  32
ENDBRANCH  27  28
ENDBRANCH  26  27
ENDBRANCH  23  26
ENDBRANCH   1  22
TORSDOF 7
ENDMDL
MODEL 6
REMARK VINA RESULT:      -7.8      4.867     11.103
REMARK  7 active torsions:
REMARK  status: ('A' for Active; 'I' for Inactive)
REMARK    1  A    between atoms: C2_2  and  N3_3 
REMARK    2  A    between atoms: N3_3  and  C5_5 
REMARK    3  A    between atoms: N3_3  and  C7_7 
REMARK    4  A    between atoms: C7_7  and  C8_8 
REMARK    5  A    between atoms: C8_8  and  N9_9 
REMARK       I    between atoms: N9_9  and  C10_10 
REMARK    6  A    between atoms: C10_10  and  C12_12 
REMARK    7  A    between atoms: C16_16  and  C17_17 
ROOT
ATOM      1  C12 <0> d   1      18.478  -4.333   8.823  0.00  0.00     0.062 A 
ATOM      2  C13 <0> d   1      19.161  -3.156   8.573  0.00  0.00     0.022 A 
ATOM      3  C14 <0> d   1      19.568  -2.649   7.214  0.00  0.00     0.069 C 
ATOM      4  N15 <0> d   1      19.401  -2.540   9.744  0.00  0.00    -0.359 N 
ATOM      5  C16 <0> d   1      18.882  -3.300  10.772  0.00  0.00     0.040 A 
ATOM      6  C29 <0> d   1      18.296  -4.421  10.220  0.00  0.00    -0.018 A 
ATOM      7  C30 <0> d   1      17.602  -5.531  10.966  0.00  0.00     0.052 C 
ATOM      8  H49 <0> d   1      19.866  -1.695   9.848  0.00  0.00     0.166 HD
ENDROOT
BRANCH   5   9
ATOM      9  C17 <0> d   1      18.936  -2.982  12.146  0.00  0.00     0.048 C 
ATOM     10  C18 <0> d   1      18.347  -1.823  12.611  0.00  0.00     0.047 A 
ATOM     11  C28 <0> d   1      18.429  -1.257  13.976  0.00  0.00     0.009 A 
ATOM     12  C19 <0> d   1      17.498  -0.889  11.859  0.00  0.00     0.257 A 
ATOM     13  C22 <0> d   1      17.674  -0.077  13.959  0.00  0.00     0.046 A 
ATOM     14  C27 <0> d   1      19.081  -1.659  15.136  0.00  0.00     0.057 A 
ATOM     15  N21 <0> d   1      17.137   0.105  12.689  0.00  0.00    -0.322 N 
ATOM     16  C23 <0> d   1      17.575   0.680  15.121  0.00  0.00     0.033 A 
ATOM     17  H51 <0> d   1      16.573   0.852  12.434  0.00  0.00     0.169 HD
ATOM     18  C24 <0> d   1      18.220   0.271  16.271  0.00  0.00     0.044 A 
ATOM     19  C25 <0> d   1      18.972  -0.894  16.283  0.00  0.00     0.117 A 
ATOM     20  F26 <0> d   1      19.598  -1.281  17.415  0.00  0.00    -0.206 F 
ATOM     21  O20 <0> d   1      17.178  -0.996  10.689  0.00  0.00    -0.267 OA
ENDBRANCH   5   9
BRANCH   1  22
ATOM     22  C10 <0> d   1      18.021  -5.309   7.817  0.00  0.00     0.254 C 
ATOM     23  N9  <0> d   1      16.931  -5.046   7.069  0.00  0.00    -0.355 N 
ATOM     24  H45 <0> d   1      16.448  -4.214   7.192  0.00  0.00     0.162 HD
ATOM     25  O11 <0> d   1      18.627  -6.351   7.663  0.00  0.00    -0.268 OA
BRANCH  23  26
ATOM     26  C8  <0> d   1      16.478  -6.016   6.069  0.00  0.00     0.150 C 
BRANCH  26  27
ATOM     27  C7  <0> d   1      17.003  -5.612   4.690  0.00  0.00     0.254 C 
BRANCH  27  28
ATOM     28  N3  <0> d   1      16.542  -4.255   4.369  0.00  0.00    -0.070 N 
ATOM     29  H4  <0> d   1      16.032  -3.878   5.154  0.00  0.00     0.279 HD
BRANCH  28  30
ATOM     30  C2  <0> d   1      17.700  -3.400   4.080  0.00  0.00     0.230 C 
ATOM     31  C1  <0> d   1      17.305  -1.931   4.255  0.00  0.00     0.034 C 
ENDBRANCH  28  30
BRANCH  28  32
ATOM     32  C5  <0> d   1      15.663  -4.303   3.192  0.00  0.00     0.230 C 
ATOM     33  C6  <0> d   1      16.452  -4.817   1.986  0.00  0.00     0.034 C 
ENDBRANCH  28  32
ENDBRANCH  27  28
ENDBRANCH  26  27
ENDBRANCH  23  26
ENDBRANCH   1  22
TORSDOF 7
ENDMDL
MODEL 7
REMARK VINA RESULT:      -7.8      4.122      9.921
REMARK  7 active torsions:
REMARK  status: ('A' for Active; 'I' for Inactive)
REMARK    1  A    between atoms: C2_2  and  N3_3 
REMARK    2  A    between atoms: N3_3  and  C5_5 
REMARK    3  A    between atoms: N3_3  and  C7_7 
REMARK    4  A    between atoms: C7_7  and  C8_8 
REMARK    5  A    between atoms: C8_8  and  N9_9 
REMARK       I    between atoms: N9_9  and  C10_10 
REMARK    6  A    between atoms: C10_10  and  C12_12 
REMARK    7  A    between atoms: C16_16  and  C17_17 
ROOT
ATOM      1  C12 <0> d   1      18.295  -2.555   8.387  0.00  0.00     0.062 A 
ATOM      2  C13 <0> d   1      18.106  -2.879   9.719  0.00  0.00     0.022 A 
ATOM      3  C14 <0> d   1      18.189  -4.265  10.306  0.00  0.00     0.069 C 
ATOM      4  N15 <0> d   1      17.837  -1.754  10.403  0.00  0.00    -0.359 N 
ATOM      5  C16 <0> d   1      17.845  -0.682   9.535  0.00  0.00     0.040 A 
ATOM      6  C29 <0> d   1      18.134  -1.157   8.271  0.00  0.00    -0.018 A 
ATOM      7  C30 <0> d   1      18.248  -0.343   7.009  0.00  0.00     0.052 C 
ATOM      8  H49 <0> d   1      17.664  -1.704  11.356  0.00  0.00     0.166 HD
ENDROOT
BRANCH   5   9
ATOM      9  C17 <0> d   1      17.605   0.666   9.880  0.00  0.00     0.048 C 
ATOM     10  C18 <0> d   1      18.528   1.361  10.635  0.00  0.00     0.047 A 
ATOM     11  C28 <0> d   1      18.382   2.715  11.212  0.00  0.00     0.009 A 
ATOM     12  C19 <0> d   1      19.870   0.916  11.036  0.00  0.00     0.257 A 
ATOM     13  C22 <0> d   1      19.577   2.984  11.895  0.00  0.00     0.046 A 
ATOM     14  C27 <0> d   1      17.353   3.651  11.200  0.00  0.00     0.057 A 
ATOM     15  N21 <0> d   1      20.432   1.896  11.764  0.00  0.00    -0.322 N 
ATOM     16  C23 <0> d   1      19.723   4.203  12.548  0.00  0.00     0.033 A 
ATOM     17  H51 <0> d   1      21.322   1.850  12.148  0.00  0.00     0.169 HD
ATOM     18  C24 <0> d   1      18.699   5.128  12.526  0.00  0.00     0.044 A 
ATOM     19  C25 <0> d   1      17.517   4.858  11.855  0.00  0.00     0.117 A 
ATOM     20  F26 <0> d   1      16.523   5.772  11.842  0.00  0.00    -0.206 F 
ATOM     21  O20 <0> d   1      20.383  -0.152  10.756  0.00  0.00    -0.267 OA
ENDBRANCH   5   9
BRANCH   1  22
ATOM     22  C10 <0> d   1      18.610  -3.493   7.295  0.00  0.00     0.254 C 
ATOM     23  N9  <0> d   1      17.645  -3.878   6.437  0.00  0.00    -0.355 N 
ATOM     24  H45 <0> d   1      16.742  -3.536   6.538  0.00  0.00     0.162 HD
ATOM     25  O11 <0> d   1      19.741  -3.920   7.169  0.00  0.00    -0.268 OA
BRANCH  23  26
ATOM     26  C8  <0> d   1      17.958  -4.810   5.351  0.00  0.00     0.150 C 
BRANCH  26  27
ATOM     27  C7  <0> d   1      17.124  -6.082   5.513  0.00  0.00     0.254 C 
BRANCH  27  28
ATOM     28  N3  <0> d   1      15.760  -5.724   5.922  0.00  0.00    -0.070 N 
ATOM     29  H4  <0> d   1      15.749  -4.773   6.260  0.00  0.00     0.279 HD
BRANCH  28  30
ATOM     30  C2  <0> d   1      14.856  -5.847   4.772  0.00  0.00     0.230 C 
ATOM     31  C1  <0> d   1      13.548  -6.504   5.221  0.00  0.00     0.034 C 
ENDBRANCH  28  30
BRANCH  28  32
ATOM     32  C5  <0> d   1      15.317  -6.629   6.993  0.00  0.00     0.230 C 
ATOM     33  C6  <0> d   1      15.443  -5.921   8.343  0.00  0.00     0.034 C 
ENDBRANCH  28  32
ENDBRANCH  27  28
ENDBRANCH  26  27
ENDBRANCH  23  26
ENDBRANCH   1  22
TORSDOF 7
ENDMDL
MODEL 8
REMARK VINA RESULT:      -7.8      4.154     10.199
REMARK  7 active torsions:
REMARK  status: ('A' for Active; 'I' for Inactive)
REMARK    1  A    between atoms: C2_2  and  N3_3 
REMARK    2  A    between atoms: N3_3  and  C5_5 
REMARK    3  A    between atoms: N3_3  and  C7_7 
REMARK    4  A    between atoms: C7_7  and  C8_8 
REMARK    5  A    between atoms: C8_8  and  N9_9 
REMARK       I    between atoms: N9_9  and  C10_10 
REMARK    6  A    between atoms: C10_10  and  C12_12 
REMARK    7  A    between atoms: C16_16  and  C17_17 
ROOT
ATOM      1  C12 <0> d   1      18.131  -2.773   8.885  0.00  0.00     0.062 A 
ATOM      2  C13 <0> d   1      17.988  -3.019  10.239  0.00  0.00     0.022 A 
ATOM      3  C14 <0> d   1      18.077  -4.370  10.900  0.00  0.00     0.069 C 
ATOM      4  N15 <0> d   1      17.758  -1.853  10.867  0.00  0.00    -0.359 N 
ATOM      5  C16 <0> d   1      17.746  -0.832   9.940  0.00  0.00     0.040 A 
ATOM      6  C29 <0> d   1      17.982  -1.382   8.695  0.00  0.00    -0.018 A 
ATOM      7  C30 <0> d   1      18.058  -0.641   7.386  0.00  0.00     0.052 C 
ATOM      8  H49 <0> d   1      17.622  -1.748  11.822  0.00  0.00     0.166 HD
ENDROOT
BRANCH   5   9
ATOM      9  C17 <0> d   1      17.535   0.537  10.216  0.00  0.00     0.048 C 
ATOM     10  C18 <0> d   1      18.505   1.265  10.876  0.00  0.00     0.047 A 
ATOM     11  C28 <0> d   1      18.401   2.653  11.378  0.00  0.00     0.009 A 
ATOM     12  C19 <0> d   1      19.864   0.832  11.226  0.00  0.00     0.257 A 
ATOM     13  C22 <0> d   1      19.634   2.950  11.975  0.00  0.00     0.046 A 
ATOM     14  C27 <0> d   1      17.380   3.597  11.367  0.00  0.00     0.057 A 
ATOM     15  N21 <0> d   1      20.474   1.847  11.862  0.00  0.00    -0.322 N 
ATOM     16  C23 <0> d   1      19.826   4.204  12.545  0.00  0.00     0.033 A 
ATOM     17  H51 <0> d   1      21.383   1.815  12.198  0.00  0.00     0.169 HD
ATOM     18  C24 <0> d   1      18.809   5.137  12.525  0.00  0.00     0.044 A 
ATOM     19  C25 <0> d   1      17.588   4.839  11.938  0.00  0.00     0.117 A 
ATOM     20  F26 <0> d   1      16.602   5.761  11.926  0.00  0.00    -0.206 F 
ATOM     21  O20 <0> d   1      20.353  -0.257  10.983  0.00  0.00    -0.267 OA
ENDBRANCH   5   9
BRANCH   1  22
ATOM     22  C10 <0> d   1      18.393  -3.775   7.837  0.00  0.00     0.254 C 
ATOM     23  N9  <0> d   1      17.379  -4.502   7.328  0.00  0.00    -0.355 N 
ATOM     24  H45 <0> d   1      16.474  -4.364   7.653  0.00  0.00     0.162 HD
ATOM     25  O11 <0> d   1      19.526  -3.947   7.431  0.00  0.00    -0.268 OA
BRANCH  23  26
ATOM     26  C8  <0> d   1      17.639  -5.498   6.287  0.00  0.00     0.150 C 
BRANCH  26  27
ATOM     27  C7  <0> d   1      17.058  -5.012   4.957  0.00  0.00     0.254 C 
BRANCH  27  28
ATOM     28  N3  <0> d   1      18.153  -4.702   4.029  0.00  0.00    -0.070 N 
ATOM     29  H4  <0> d   1      18.962  -5.257   4.266  0.00  0.00     0.279 HD
BRANCH  28  30
ATOM     30  C2  <0> d   1      17.733  -5.010   2.656  0.00  0.00     0.230 C 
ATOM     31  C1  <0> d   1      16.495  -5.910   2.692  0.00  0.00     0.034 C 
ENDBRANCH  28  30
BRANCH  28  32
ATOM     32  C5  <0> d   1      18.491  -3.275   4.129  0.00  0.00     0.230 C 
ATOM     33  C6  <0> d   1      17.205  -2.445   4.129  0.00  0.00     0.034 C 
ENDBRANCH  28  32
ENDBRANCH  27  28
ENDBRANCH  26  27
ENDBRANCH  23  26
ENDBRANCH   1  22
TORSDOF 7
ENDMDL
MODEL 9
REMARK VINA RESULT:      -7.6      1.733      2.317
REMARK  7 active torsions:
REMARK  status: ('A' for Active; 'I' for Inactive)
REMARK    1  A    between atoms: C2_2  and  N3_3 
REMARK    2  A    between atoms: N3_3  and  C5_5 
REMARK    3  A    between atoms: N3_3  and  C7_7 
REMARK    4  A    between atoms: C7_7  and  C8_8 
REMARK    5  A    between atoms: C8_8  and  N9_9 
REMARK       I    between atoms: N9_9  and  C10_10 
REMARK    6  A    between atoms: C10_10  and  C12_12 
REMARK    7  A    between atoms: C16_16  and  C17_17 
ROOT
ATOM      1  C12 <0> d   1      17.809   4.339  13.660  0.00  0.00     0.062 A 
ATOM      2  C13 <0> d   1      18.609   3.259  13.989  0.00  0.00     0.022 A 
ATOM      3  C14 <0> d   1      18.996   2.847  15.386  0.00  0.00     0.069 C 
ATOM      4  N15 <0> d   1      18.981   2.639  12.857  0.00  0.00    -0.359 N 
ATOM      5  C16 <0> d   1      18.435   3.298  11.776  0.00  0.00     0.040 A 
ATOM      6  C29 <0> d   1      17.694   4.361  12.254  0.00  0.00    -0.018 A 
ATOM      7  C30 <0> d   1      16.919   5.357  11.431  0.00  0.00     0.052 C 
ATOM      8  H49 <0> d   1      19.546   1.851  12.809  0.00  0.00     0.166 HD
ENDROOT
BRANCH   5   9
ATOM      9  C17 <0> d   1      18.601   2.945  10.419  0.00  0.00     0.048 C 
ATOM     10  C18 <0> d   1      18.107   1.743   9.953  0.00  0.00     0.047 A 
ATOM     11  C28 <0> d   1      18.313   1.143   8.616  0.00  0.00     0.009 A 
ATOM     12  C19 <0> d   1      17.259   0.786  10.675  0.00  0.00     0.257 A 
ATOM     13  C22 <0> d   1      17.621  -0.076   8.619  0.00  0.00     0.046 A 
ATOM     14  C27 <0> d   1      19.021   1.547   7.489  0.00  0.00     0.057 A 
ATOM     15  N21 <0> d   1      17.008  -0.249   9.855  0.00  0.00    -0.322 N 
ATOM     16  C23 <0> d   1      17.643  -0.869   7.478  0.00  0.00     0.033 A 
ATOM     17  H51 <0> d   1      16.468  -1.019  10.095  0.00  0.00     0.169 HD
ATOM     18  C24 <0> d   1      18.344  -0.459   6.362  0.00  0.00     0.044 A 
ATOM     19  C25 <0> d   1      19.032   0.745   6.363  0.00  0.00     0.117 A 
ATOM     20  F26 <0> d   1      19.714   1.133   5.264  0.00  0.00    -0.206 F 
ATOM     21  O20 <0> d   1      16.853   0.909  11.817  0.00  0.00    -0.267 OA
ENDBRANCH   5   9
BRANCH   1  22
ATOM     22  C10 <0> d   1      17.188   5.287  14.603  0.00  0.00     0.254 C 
ATOM     23  N9  <0> d   1      17.962   6.087  15.363  0.00  0.00    -0.355 N 
ATOM     24  H45 <0> d   1      18.928   6.038  15.289  0.00  0.00     0.162 HD
ATOM     25  O11 <0> d   1      15.977   5.347  14.695  0.00  0.00    -0.268 OA
BRANCH  23  26
ATOM     26  C8  <0> d   1      17.345   7.029  16.300  0.00  0.00     0.150 C 
BRANCH  26  27
ATOM     27  C7  <0> d   1      17.501   6.505  17.729  0.00  0.00     0.254 C 
BRANCH  27  28
ATOM     28  N3  <0> d   1      16.755   5.249  17.874  0.00  0.00    -0.070 N 
ATOM     29  H4  <0> d   1      16.529   4.884  16.960  0.00  0.00     0.279 HD
BRANCH  28  30
ATOM     30  C2  <0> d   1      17.576   4.273  18.601  0.00  0.00     0.230 C 
ATOM     31  C1  <0> d   1      16.668   3.351  19.419  0.00  0.00     0.034 C 
ENDBRANCH  28  30
BRANCH  28  32
ATOM     32  C5  <0> d   1      15.515   5.499  18.621  0.00  0.00     0.230 C 
ATOM     33  C6  <0> d   1      15.647   6.807  19.405  0.00  0.00     0.034 C 
ENDBRANCH  28  32
ENDBRANCH  27  28
ENDBRANCH  26  27
ENDBRANCH  23  26
ENDBRANCH   1  22
TORSDOF 7
ENDMDL
