MODEL 1
REMARK VINA RESULT:      -7.1      0.000      0.000
REMARK  6 active torsions:
REMARK  status: ('A' for Active; 'I' for Inactive)
REMARK    1  A    between atoms: N2_2  and  S3_3 
REMARK    2  A    between atoms: S3_3  and  C6_6 
REMARK    3  A    between atoms: C6_6  and  C7_7 
REMARK    4  A    between atoms: C13_13  and  C14_14 
REMARK    5  A    between atoms: C14_14  and  C15_15 
REMARK    6  A    between atoms: C15_15  and  N16_16 
ROOT
ATOM      1  C7  ZIN A   1      18.052   0.112   6.954  0.00  0.00    -0.042 A 
ATOM      2  C8  ZIN A   1      18.921   1.168   6.717  0.00  0.00     0.010 A 
ATOM      3  C9  ZIN A   1      19.281   2.023   7.735  0.00  0.00     0.031 A 
ATOM      4  C10 ZIN A   1      18.770   1.829   9.014  0.00  0.00     0.043 A 
ATOM      5  N11 ZIN A   1      18.934   2.492  10.210  0.00  0.00    -0.365 N 
ATOM      6  C12 ZIN A   1      18.192   1.880  11.184  0.00  0.00     0.096 A 
ATOM      7  C13 ZIN A   1      17.539   0.827  10.670  0.00  0.00    -0.029 A 
ATOM      8  C20 ZIN A   1      17.890   0.758   9.249  0.00  0.00    -0.001 A 
ATOM      9  C21 ZIN A   1      17.534  -0.094   8.202  0.00  0.00     0.022 A 
ATOM     10  H30 ZIN A   1      19.491   3.274  10.342  0.00  0.00     0.165 HD
ENDROOT
BRANCH   1  11
ATOM     11  C6  ZIN A   1      17.671  -0.811   5.826  0.00  0.00     0.201 C 
BRANCH  11  12
ATOM     12  S3  ZIN A   1      19.150  -1.671   5.221  0.00  0.00     0.230 S 
ATOM     13  O4  ZIN A   1      19.676  -2.526   6.227  0.00  0.00    -0.206 OA
ATOM     14  O5  ZIN A   1      19.991  -0.774   4.509  0.00  0.00    -0.206 OA
BRANCH  12  15
ATOM     15  N2  ZIN A   1      18.581  -2.706   4.061  0.00  0.00    -0.324 N 
ATOM     16  C1  ZIN A   1      17.150  -3.014   3.991  0.00  0.00     0.159 C 
ATOM     17  H25 ZIN A   1      19.195  -3.109   3.428  0.00  0.00     0.171 HD
ENDBRANCH  12  15
ENDBRANCH  11  12
ENDBRANCH   1  11
BRANCH   7  18
ATOM     18  C14 ZIN A   1      16.619  -0.108  11.412  0.00  0.00     0.068 C 
BRANCH  18  19
ATOM     19  C15 ZIN A   1      17.436  -0.965  12.382  0.00  0.00     0.238 C 
BRANCH  19  20
ATOM     20  N16 ZIN A   1      18.294  -1.882  11.619  0.00  0.00    -0.079 N 
ATOM     21  H17 ZIN A   1      18.701  -1.390  10.838  0.00  0.00     0.278 HD
ATOM     22  C18 ZIN A   1      19.362  -2.390  12.490  0.00  0.00     0.269 C 
ATOM     23  C19 ZIN A   1      17.489  -3.007  11.125  0.00  0.00     0.269 C 
ENDBRANCH  19  20
ENDBRANCH  18  19
ENDBRANCH   7  18
TORSDOF 6
ENDMDL
MODEL 2
REMARK VINA RESULT:      -6.6      6.427      9.197
REMARK  6 active torsions:
REMARK  status: ('A' for Active; 'I' for Inactive)
REMARK    1  A    between atoms: N2_2  and  S3_3 
REMARK    2  A    between atoms: S3_3  and  C6_6 
REMARK    3  A    between atoms: C6_6  and  C7_7 
REMARK    4  A    between atoms: C13_13  and  C14_14 
REMARK    5  A    between atoms: C14_14  and  C15_15 
REMARK    6  A    between atoms: C15_15  and  N16_16 
ROOT
ATOM      1  C7  ZIN A   1      18.526   0.475  15.606  0.00  0.00    -0.042 A 
ATOM      2  C8  ZIN A   1      18.884  -0.866  15.597  0.00  0.00     0.010 A 
ATOM      3  C9  ZIN A   1      19.471  -1.428  14.485  0.00  0.00     0.031 A 
ATOM      4  C10 ZIN A   1      19.710  -0.647  13.360  0.00  0.00     0.043 A 
ATOM      5  N11 ZIN A   1      20.265  -0.906  12.127  0.00  0.00    -0.365 N 
ATOM      6  C12 ZIN A   1      20.263   0.233  11.368  0.00  0.00     0.096 A 
ATOM      7  C13 ZIN A   1      19.721   1.245  12.063  0.00  0.00    -0.029 A 
ATOM      8  C20 ZIN A   1      19.344   0.711  13.374  0.00  0.00    -0.001 A 
ATOM      9  C21 ZIN A   1      18.745   1.260  14.509  0.00  0.00     0.022 A 
ATOM     10  H30 ZIN A   1      20.607  -1.767  11.839  0.00  0.00     0.165 HD
ENDROOT
BRANCH   1  11
ATOM     11  C6  ZIN A   1      17.883   1.069  16.833  0.00  0.00     0.201 C 
BRANCH  11  12
ATOM     12  S3  ZIN A   1      19.159   1.827  17.877  0.00  0.00     0.230 S 
ATOM     13  O4  ZIN A   1      19.753   2.934  17.214  0.00  0.00    -0.206 OA
ATOM     14  O5  ZIN A   1      19.958   0.826  18.493  0.00  0.00    -0.206 OA
BRANCH  12  15
ATOM     15  N2  ZIN A   1      18.316   2.506  19.131  0.00  0.00    -0.324 N 
ATOM     16  C1  ZIN A   1      18.003   3.937  19.114  0.00  0.00     0.159 C 
ATOM     17  H25 ZIN A   1      18.031   1.955  19.877  0.00  0.00     0.171 HD
ENDBRANCH  12  15
ENDBRANCH  11  12
ENDBRANCH   1  11
BRANCH   7  18
ATOM     18  C14 ZIN A   1      19.535   2.662  11.585  0.00  0.00     0.068 C 
BRANCH  18  19
ATOM     19  C15 ZIN A   1      18.113   2.837  11.047  0.00  0.00     0.238 C 
BRANCH  19  20
ATOM     20  N16 ZIN A   1      17.430   3.894  11.806  0.00  0.00    -0.079 N 
ATOM     21  H17 ZIN A   1      16.705   3.484  12.375  0.00  0.00     0.278 HD
ATOM     22  C18 ZIN A   1      18.399   4.583  12.667  0.00  0.00     0.269 C 
ATOM     23  C19 ZIN A   1      16.832   4.857  10.872  0.00  0.00     0.269 C 
ENDBRANCH  19  20
ENDBRANCH  18  19
ENDBRANCH   7  18
TORSDOF 6
ENDMDL
MODEL 3
REMARK VINA RESULT:      -6.4      3.424      5.508
REMARK  6 active torsions:
REMARK  status: ('A' for Active; 'I' for Inactive)
REMARK    1  A    between atoms: N2_2  and  S3_3 
REMARK    2  A    between atoms: S3_3  and  C6_6 
REMARK    3  A    between atoms: C6_6  and  C7_7 
REMARK    4  A    between atoms: C13_13  and  C14_14 
REMARK    5  A    between atoms: C14_14  and  C15_15 
REMARK    6  A    between atoms: C15_15  and  N16_16 
ROOT
ATOM      1  C7  ZIN A   1      19.286   1.625   9.361  0.00  0.00    -0.042 A 
ATOM      2  C8  ZIN A   1      19.131   2.042   8.047  0.00  0.00     0.010 A 
ATOM      3  C9  ZIN A   1      18.927   1.125   7.039  0.00  0.00     0.031 A 
ATOM      4  C10 ZIN A   1      18.874  -0.232   7.339  0.00  0.00     0.043 A 
ATOM      5  N11 ZIN A   1      18.688  -1.364   6.578  0.00  0.00    -0.365 N 
ATOM      6  C12 ZIN A   1      18.723  -2.473   7.380  0.00  0.00     0.096 A 
ATOM      7  C13 ZIN A   1      18.927  -2.110   8.655  0.00  0.00    -0.029 A 
ATOM      8  C20 ZIN A   1      19.032  -0.649   8.673  0.00  0.00    -0.001 A 
ATOM      9  C21 ZIN A   1      19.243   0.297   9.679  0.00  0.00     0.022 A 
ATOM     10  H30 ZIN A   1      18.553  -1.374   5.618  0.00  0.00     0.165 HD
ENDROOT
BRANCH   1  11
ATOM     11  C6  ZIN A   1      19.509   2.646  10.448  0.00  0.00     0.201 C 
BRANCH  11  12
ATOM     12  S3  ZIN A   1      17.921   3.384  10.921  0.00  0.00     0.230 S 
ATOM     13  O4  ZIN A   1      16.984   2.373  11.268  0.00  0.00    -0.206 OA
ATOM     14  O5  ZIN A   1      17.571   4.430  10.024  0.00  0.00    -0.206 OA
BRANCH  12  15
ATOM     15  N2  ZIN A   1      18.235   4.159  12.350  0.00  0.00    -0.324 N 
ATOM     16  C1  ZIN A   1      19.589   4.636  12.644  0.00  0.00     0.159 C 
ATOM     17  H25 ZIN A   1      17.522   4.297  12.993  0.00  0.00     0.171 HD
ENDBRANCH  12  15
ENDBRANCH  11  12
ENDBRANCH   1  11
BRANCH   7  18
ATOM     18  C14 ZIN A   1      19.029  -3.030   9.845  0.00  0.00     0.068 C 
BRANCH  18  19
ATOM     19  C15 ZIN A   1      17.716  -2.997  10.630  0.00  0.00     0.238 C 
BRANCH  19  20
ATOM     20  N16 ZIN A   1      17.987  -2.608  12.021  0.00  0.00    -0.079 N 
ATOM     21  H17 ZIN A   1      17.557  -3.274  12.645  0.00  0.00     0.278 HD
ATOM     22  C18 ZIN A   1      19.438  -2.588  12.249  0.00  0.00     0.269 C 
ATOM     23  C19 ZIN A   1      17.432  -1.272  12.271  0.00  0.00     0.269 C 
ENDBRANCH  19  20
ENDBRANCH  18  19
ENDBRANCH   7  18
TORSDOF 6
ENDMDL
MODEL 4
REMARK VINA RESULT:      -6.3      2.783      5.707
REMARK  6 active torsions:
REMARK  status: ('A' for Active; 'I' for Inactive)
REMARK    1  A    between atoms: N2_2  and  S3_3 
REMARK    2  A    between atoms: S3_3  and  C6_6 
REMARK    3  A    between atoms: C6_6  and  C7_7 
REMARK    4  A    between atoms: C13_13  and  C14_14 
REMARK    5  A    between atoms: C14_14  and  C15_15 
REMARK    6  A    between atoms: C15_15  and  N16_16 
ROOT
ATOM      1  C7  ZIN A   1      17.710   0.311   8.997  0.00  0.00    -0.042 A 
ATOM      2  C8  ZIN A   1      18.564   1.404   8.964  0.00  0.00     0.010 A 
ATOM      3  C9  ZIN A   1      19.235   1.736   7.808  0.00  0.00     0.031 A 
ATOM      4  C10 ZIN A   1      19.057   0.970   6.661  0.00  0.00     0.043 A 
ATOM      5  N11 ZIN A   1      19.570   1.040   5.385  0.00  0.00    -0.365 N 
ATOM      6  C12 ZIN A   1      19.061   0.024   4.623  0.00  0.00     0.096 A 
ATOM      7  C13 ZIN A   1      18.222  -0.723   5.357  0.00  0.00    -0.029 A 
ATOM      8  C20 ZIN A   1      18.191  -0.138   6.700  0.00  0.00    -0.001 A 
ATOM      9  C21 ZIN A   1      17.524  -0.460   7.883  0.00  0.00     0.022 A 
ATOM     10  H30 ZIN A   1      20.198   1.711   5.073  0.00  0.00     0.165 HD
ENDROOT
BRANCH   1  11
ATOM     11  C6  ZIN A   1      16.986  -0.035  10.273  0.00  0.00     0.201 C 
BRANCH  11  12
ATOM     12  S3  ZIN A   1      17.919  -1.302  11.175  0.00  0.00     0.230 S 
ATOM     13  O4  ZIN A   1      19.222  -1.446  10.627  0.00  0.00    -0.206 OA
ATOM     14  O5  ZIN A   1      17.101  -2.436  11.429  0.00  0.00    -0.206 OA
BRANCH  12  15
ATOM     15  N2  ZIN A   1      18.175  -0.640  12.671  0.00  0.00    -0.324 N 
ATOM     16  C1  ZIN A   1      18.718  -1.464  13.754  0.00  0.00     0.159 C 
ATOM     17  H25 ZIN A   1      17.966   0.294  12.830  0.00  0.00     0.171 HD
ENDBRANCH  12  15
ENDBRANCH  11  12
ENDBRANCH   1  11
BRANCH   7  18
ATOM     18  C14 ZIN A   1      17.457  -1.935   4.889  0.00  0.00     0.068 C 
BRANCH  18  19
ATOM     19  C15 ZIN A   1      18.302  -3.190   5.113  0.00  0.00     0.238 C 
BRANCH  19  20
ATOM     20  N16 ZIN A   1      17.878  -3.851   6.355  0.00  0.00    -0.079 N 
ATOM     21  H17 ZIN A   1      17.088  -3.359   6.744  0.00  0.00     0.278 HD
ATOM     22  C18 ZIN A   1      17.497  -5.239   6.065  0.00  0.00     0.269 C 
ATOM     23  C19 ZIN A   1      18.987  -3.838   7.318  0.00  0.00     0.269 C 
ENDBRANCH  19  20
ENDBRANCH  18  19
ENDBRANCH   7  18
TORSDOF 6
ENDMDL
MODEL 5
REMARK VINA RESULT:      -6.3      5.024      7.514
REMARK  6 active torsions:
REMARK  status: ('A' for Active; 'I' for Inactive)
REMARK    1  A    between atoms: N2_2  and  S3_3 
REMARK    2  A    between atoms: S3_3  and  C6_6 
REMARK    3  A    between atoms: C6_6  and  C7_7 
REMARK    4  A    between atoms: C13_13  and  C14_14 
REMARK    5  A    between atoms: C14_14  and  C15_15 
REMARK    6  A    between atoms: C15_15  and  N16_16 
ROOT
ATOM      1  C7  ZIN A   1      18.967  -0.291  13.989  0.00  0.00    -0.042 A 
ATOM      2  C8  ZIN A   1      18.662  -1.430  14.720  0.00  0.00     0.010 A 
ATOM      3  C9  ZIN A   1      18.559  -1.376  16.093  0.00  0.00     0.031 A 
ATOM      4  C10 ZIN A   1      18.762  -0.170  16.755  0.00  0.00     0.043 A 
ATOM      5  N11 ZIN A   1      18.730   0.200  18.080  0.00  0.00    -0.365 N 
ATOM      6  C12 ZIN A   1      19.006   1.536  18.196  0.00  0.00     0.096 A 
ATOM      7  C13 ZIN A   1      19.222   2.066  16.982  0.00  0.00    -0.029 A 
ATOM      8  C20 ZIN A   1      19.071   0.982  16.009  0.00  0.00    -0.001 A 
ATOM      9  C21 ZIN A   1      19.176   0.904  14.619  0.00  0.00     0.022 A 
ATOM     10  H30 ZIN A   1      18.540  -0.396  18.821  0.00  0.00     0.165 HD
ENDROOT
BRANCH   1  11
ATOM     11  C6  ZIN A   1      19.076  -0.372  12.488  0.00  0.00     0.201 C 
BRANCH  11  12
ATOM     12  S3  ZIN A   1      17.417  -0.523  11.768  0.00  0.00     0.230 S 
ATOM     13  O4  ZIN A   1      16.558   0.486  12.280  0.00  0.00    -0.206 OA
ATOM     14  O5  ZIN A   1      17.011  -1.884  11.735  0.00  0.00    -0.206 OA
BRANCH  12  15
ATOM     15  N2  ZIN A   1      17.620  -0.118  10.175  0.00  0.00    -0.324 N 
ATOM     16  C1  ZIN A   1      17.911   1.269   9.803  0.00  0.00     0.159 C 
ATOM     17  H25 ZIN A   1      17.545  -0.799   9.489  0.00  0.00     0.171 HD
ENDBRANCH  12  15
ENDBRANCH  11  12
ENDBRANCH   1  11
BRANCH   7  18
ATOM     18  C14 ZIN A   1      19.554   3.504  16.678  0.00  0.00     0.068 C 
BRANCH  18  19
ATOM     19  C15 ZIN A   1      18.275   4.343  16.715  0.00  0.00     0.238 C 
BRANCH  19  20
ATOM     20  N16 ZIN A   1      17.701   4.419  15.364  0.00  0.00    -0.079 N 
ATOM     21  H17 ZIN A   1      17.217   3.559  15.156  0.00  0.00     0.278 HD
ATOM     22  C18 ZIN A   1      16.757   5.542  15.296  0.00  0.00     0.269 C 
ATOM     23  C19 ZIN A   1      18.778   4.625  14.387  0.00  0.00     0.269 C 
ENDBRANCH  19  20
ENDBRANCH  18  19
ENDBRANCH   7  18
TORSDOF 6
ENDMDL
MODEL 6
REMARK VINA RESULT:      -6.2      3.394      5.644
REMARK  6 active torsions:
REMARK  status: ('A' for Active; 'I' for Inactive)
REMARK    1  A    between atoms: N2_2  and  S3_3 
REMARK    2  A    between atoms: S3_3  and  C6_6 
REMARK    3  A    between atoms: C6_6  and  C7_7 
REMARK    4  A    between atoms: C13_13  and  C14_14 
REMARK    5  A    between atoms: C14_14  and  C15_15 
REMARK    6  A    between atoms: C15_15  and  N16_16 
ROOT
ATOM      1  C7  ZIN A   1      19.167   0.556   8.798  0.00  0.00    -0.042 A 
ATOM      2  C8  ZIN A   1      18.937   1.591   7.903  0.00  0.00     0.010 A 
ATOM      3  C9  ZIN A   1      18.846   1.343   6.551  0.00  0.00     0.031 A 
ATOM      4  C10 ZIN A   1      18.984   0.044   6.076  0.00  0.00     0.043 A 
ATOM      5  N11 ZIN A   1      18.945  -0.514   4.817  0.00  0.00    -0.365 N 
ATOM      6  C12 ZIN A   1      19.144  -1.866   4.903  0.00  0.00     0.096 A 
ATOM      7  C13 ZIN A   1      19.315  -2.224   6.184  0.00  0.00    -0.029 A 
ATOM      8  C20 ZIN A   1      19.218  -1.002   6.987  0.00  0.00    -0.001 A 
ATOM      9  C21 ZIN A   1      19.311  -0.728   8.353  0.00  0.00     0.022 A 
ATOM     10  H30 ZIN A   1      18.799  -0.023   3.994  0.00  0.00     0.165 HD
ENDROOT
BRANCH   1  11
ATOM     11  C6  ZIN A   1      19.263   0.850  10.273  0.00  0.00     0.201 C 
BRANCH  11  12
ATOM     12  S3  ZIN A   1      17.615   1.240  10.922  0.00  0.00     0.230 S 
ATOM     13  O4  ZIN A   1      16.672   0.258  10.514  0.00  0.00    -0.206 OA
ATOM     14  O5  ZIN A   1      17.338   2.627  10.776  0.00  0.00    -0.206 OA
BRANCH  12  15
ATOM     15  N2  ZIN A   1      17.752   1.021  12.557  0.00  0.00    -0.324 N 
ATOM     16  C1  ZIN A   1      19.073   0.840  13.165  0.00  0.00     0.159 C 
ATOM     17  H25 ZIN A   1      16.957   1.011  13.113  0.00  0.00     0.171 HD
ENDBRANCH  12  15
ENDBRANCH  11  12
ENDBRANCH   1  11
BRANCH   7  18
ATOM     18  C14 ZIN A   1      19.560  -3.618   6.701  0.00  0.00     0.068 C 
BRANCH  18  19
ATOM     19  C15 ZIN A   1      18.251  -4.201   7.238  0.00  0.00     0.238 C 
BRANCH  19  20
ATOM     20  N16 ZIN A   1      18.266  -4.166   8.707  0.00  0.00    -0.079 N 
ATOM     21  H17 ZIN A   1      18.387  -3.214   9.019  0.00  0.00     0.278 HD
ATOM     22  C18 ZIN A   1      16.997  -4.694   9.223  0.00  0.00     0.269 C 
ATOM     23  C19 ZIN A   1      19.377  -4.989   9.203  0.00  0.00     0.269 C 
ENDBRANCH  19  20
ENDBRANCH  18  19
ENDBRANCH   7  18
TORSDOF 6
ENDMDL
MODEL 7
REMARK VINA RESULT:      -6.2      3.008      6.320
REMARK  6 active torsions:
REMARK  status: ('A' for Active; 'I' for Inactive)
REMARK    1  A    between atoms: N2_2  and  S3_3 
REMARK    2  A    between atoms: S3_3  and  C6_6 
REMARK    3  A    between atoms: C6_6  and  C7_7 
REMARK    4  A    between atoms: C13_13  and  C14_14 
REMARK    5  A    between atoms: C14_14  and  C15_15 
REMARK    6  A    between atoms: C15_15  and  N16_16 
ROOT
ATOM      1  C7  ZIN A   1      18.693  -0.094   9.200  0.00  0.00    -0.042 A 
ATOM      2  C8  ZIN A   1      18.811   1.237   8.825  0.00  0.00     0.010 A 
ATOM      3  C9  ZIN A   1      19.044   1.577   7.510  0.00  0.00     0.031 A 
ATOM      4  C10 ZIN A   1      19.161   0.580   6.548  0.00  0.00     0.043 A 
ATOM      5  N11 ZIN A   1      19.386   0.596   5.190  0.00  0.00    -0.365 N 
ATOM      6  C12 ZIN A   1      19.412  -0.685   4.709  0.00  0.00     0.096 A 
ATOM      7  C13 ZIN A   1      19.210  -1.555   5.711  0.00  0.00    -0.029 A 
ATOM      8  C20 ZIN A   1      19.041  -0.767   6.934  0.00  0.00    -0.001 A 
ATOM      9  C21 ZIN A   1      18.810  -1.091   8.272  0.00  0.00     0.022 A 
ATOM     10  H30 ZIN A   1      19.509   1.395   4.655  0.00  0.00     0.165 HD
ENDROOT
BRANCH   1  11
ATOM     11  C6  ZIN A   1      18.439  -0.444  10.644  0.00  0.00     0.201 C 
BRANCH  11  12
ATOM     12  S3  ZIN A   1      19.964  -0.216  11.600  0.00  0.00     0.230 S 
ATOM     13  O4  ZIN A   1      19.921   1.007  12.323  0.00  0.00    -0.206 OA
ATOM     14  O5  ZIN A   1      21.098  -0.566  10.818  0.00  0.00    -0.206 OA
BRANCH  12  15
ATOM     15  N2  ZIN A   1      19.897  -1.386  12.770  0.00  0.00    -0.324 N 
ATOM     16  C1  ZIN A   1      19.124  -1.156  13.993  0.00  0.00     0.159 C 
ATOM     17  H25 ZIN A   1      20.371  -2.223  12.645  0.00  0.00     0.171 HD
ENDBRANCH  12  15
ENDBRANCH  11  12
ENDBRANCH   1  11
BRANCH   7  18
ATOM     18  C14 ZIN A   1      19.165  -3.057   5.598  0.00  0.00     0.068 C 
BRANCH  18  19
ATOM     19  C15 ZIN A   1      18.469  -3.451   4.294  0.00  0.00     0.238 C 
BRANCH  19  20
ATOM     20  N16 ZIN A   1      17.069  -3.800   4.572  0.00  0.00    -0.079 N 
ATOM     21  H17 ZIN A   1      16.679  -3.133   5.221  0.00  0.00     0.278 HD
ATOM     22  C18 ZIN A   1      16.300  -3.774   3.321  0.00  0.00     0.269 C 
ATOM     23  C19 ZIN A   1      17.008  -5.146   5.157  0.00  0.00     0.269 C 
ENDBRANCH  19  20
ENDBRANCH  18  19
ENDBRANCH   7  18
TORSDOF 6
ENDMDL
MODEL 8
REMARK VINA RESULT:      -6.2      3.477      5.576
REMARK  6 active torsions:
REMARK  status: ('A' for Active; 'I' for Inactive)
REMARK    1  A    between atoms: N2_2  and  S3_3 
REMARK    2  A    between atoms: S3_3  and  C6_6 
REMARK    3  A    between atoms: C6_6  and  C7_7 
REMARK    4  A    between atoms: C13_13  and  C14_14 
REMARK    5  A    between atoms: C14_14  and  C15_15 
REMARK    6  A    between atoms: C15_15  and  N16_16 
ROOT
ATOM      1  C7  ZIN A   1      18.355   1.350   9.922  0.00  0.00    -0.042 A 
ATOM      2  C8  ZIN A   1      18.840   2.087   8.851  0.00  0.00     0.010 A 
ATOM      3  C9  ZIN A   1      19.113   1.478   7.646  0.00  0.00     0.031 A 
ATOM      4  C10 ZIN A   1      18.901   0.112   7.498  0.00  0.00     0.043 A 
ATOM      5  N11 ZIN A   1      19.072  -0.766   6.451  0.00  0.00    -0.365 N 
ATOM      6  C12 ZIN A   1      18.709  -2.027   6.838  0.00  0.00     0.096 A 
ATOM      7  C13 ZIN A   1      18.300  -2.014   8.116  0.00  0.00    -0.029 A 
ATOM      8  C20 ZIN A   1      18.410  -0.632   8.587  0.00  0.00    -0.001 A 
ATOM      9  C21 ZIN A   1      18.145   0.004   9.801  0.00  0.00     0.022 A 
ATOM     10  H30 ZIN A   1      19.401  -0.526   5.570  0.00  0.00     0.165 HD
ENDROOT
BRANCH   1  11
ATOM     11  C6  ZIN A   1      18.064   2.036  11.231  0.00  0.00     0.201 C 
BRANCH  11  12
ATOM     12  S3  ZIN A   1      19.620   2.360  12.105  0.00  0.00     0.230 S 
ATOM     13  O4  ZIN A   1      20.095   3.666  11.810  0.00  0.00    -0.206 OA
ATOM     14  O5  ZIN A   1      20.480   1.232  12.024  0.00  0.00    -0.206 OA
BRANCH  12  15
ATOM     15  N2  ZIN A   1      19.190   2.432  13.703  0.00  0.00    -0.324 N 
ATOM     16  C1  ZIN A   1      17.973   1.761  14.165  0.00  0.00     0.159 C 
ATOM     17  H25 ZIN A   1      19.745   2.919  14.332  0.00  0.00     0.171 HD
ENDBRANCH  12  15
ENDBRANCH  11  12
ENDBRANCH   1  11
BRANCH   7  18
ATOM     18  C14 ZIN A   1      17.818  -3.197   8.916  0.00  0.00     0.068 C 
BRANCH  18  19
ATOM     19  C15 ZIN A   1      19.011  -3.880   9.588  0.00  0.00     0.238 C 
BRANCH  19  20
ATOM     20  N16 ZIN A   1      18.830  -3.856  11.046  0.00  0.00    -0.079 N 
ATOM     21  H17 ZIN A   1      19.043  -4.767  11.426  0.00  0.00     0.278 HD
ATOM     22  C18 ZIN A   1      19.731  -2.857  11.635  0.00  0.00     0.269 C 
ATOM     23  C19 ZIN A   1      17.438  -3.507  11.360  0.00  0.00     0.269 C 
ENDBRANCH  19  20
ENDBRANCH  18  19
ENDBRANCH   7  18
TORSDOF 6
ENDMDL
MODEL 9
REMARK VINA RESULT:      -6.0      3.796      6.091
REMARK  6 active torsions:
REMARK  status: ('A' for Active; 'I' for Inactive)
REMARK    1  A    between atoms: N2_2  and  S3_3 
REMARK    2  A    between atoms: S3_3  and  C6_6 
REMARK    3  A    between atoms: C6_6  and  C7_7 
REMARK    4  A    between atoms: C13_13  and  C14_14 
REMARK    5  A    between atoms: C14_14  and  C15_15 
REMARK    6  A    between atoms: C15_15  and  N16_16 
ROOT
ATOM      1  C7  ZIN A   1      19.235   0.836   9.883  0.00  0.00    -0.042 A 
ATOM      2  C8  ZIN A   1      19.071   1.993   9.134  0.00  0.00     0.010 A 
ATOM      3  C9  ZIN A   1      18.954   1.930   7.762  0.00  0.00     0.031 A 
ATOM      4  C10 ZIN A   1      19.001   0.698   7.120  0.00  0.00     0.043 A 
ATOM      5  N11 ZIN A   1      18.916   0.313   5.800  0.00  0.00    -0.365 N 
ATOM      6  C12 ZIN A   1      19.022  -1.048   5.706  0.00  0.00     0.096 A 
ATOM      7  C13 ZIN A   1      19.176  -1.581   6.928  0.00  0.00    -0.029 A 
ATOM      8  C20 ZIN A   1      19.168  -0.472   7.884  0.00  0.00    -0.001 A 
ATOM      9  C21 ZIN A   1      19.289  -0.386   9.272  0.00  0.00     0.022 A 
ATOM     10  H30 ZIN A   1      18.798   0.916   5.051  0.00  0.00     0.165 HD
ENDROOT
BRANCH   1  11
ATOM     11  C6  ZIN A   1      19.360   0.927  11.382  0.00  0.00     0.201 C 
BRANCH  11  12
ATOM     12  S3  ZIN A   1      17.746   1.337  12.101  0.00  0.00     0.230 S 
ATOM     13  O4  ZIN A   1      16.710   0.622  11.442  0.00  0.00    -0.206 OA
ATOM     14  O5  ZIN A   1      17.643   2.737  12.326  0.00  0.00    -0.206 OA
BRANCH  12  15
ATOM     15  N2  ZIN A   1      17.792   0.682  13.621  0.00  0.00    -0.324 N 
ATOM     16  C1  ZIN A   1      18.466  -0.600  13.846  0.00  0.00     0.159 C 
ATOM     17  H25 ZIN A   1      17.373   1.146  14.362  0.00  0.00     0.171 HD
ENDBRANCH  12  15
ENDBRANCH  11  12
ENDBRANCH   1  11
BRANCH   7  18
ATOM     18  C14 ZIN A   1      19.328  -3.045   7.255  0.00  0.00     0.068 C 
BRANCH  18  19
ATOM     19  C15 ZIN A   1      19.175  -3.872   5.977  0.00  0.00     0.238 C 
BRANCH  19  20
ATOM     20  N16 ZIN A   1      19.582  -5.260   6.240  0.00  0.00    -0.079 N 
ATOM     21  H17 ZIN A   1      20.272  -5.542   5.561  0.00  0.00     0.278 HD
ATOM     22  C18 ZIN A   1      20.155  -5.354   7.589  0.00  0.00     0.269 C 
ATOM     23  C19 ZIN A   1      18.410  -6.139   6.143  0.00  0.00     0.269 C 
ENDBRANCH  19  20
ENDBRANCH  18  19
ENDBRANCH   7  18
TORSDOF 6
ENDMDL
