MODEL 1
REMARK VINA RESULT:      -8.3      0.000      0.000
REMARK  5 active torsions:
REMARK  status: ('A' for Active; 'I' for Inactive)
REMARK    1  A    between atoms: N4_4  and  N5_5 
REMARK    2  A    between atoms: N5_5  and  C6_6 
REMARK    3  A    between atoms: C6_6  and  C7_7 
REMARK    4  A    between atoms: C10_10  and  C11_11 
REMARK    5  A    between atoms: C14_14  and  N15_15 
ROOT
ATOM      1  C7  ZIN A   1      18.874   3.387  11.558  0.00  0.00     0.095 A 
ATOM      2  C8  ZIN A   1      17.751   2.564  12.031  0.00  0.00     0.041 A 
ATOM      3  C9  ZIN A   1      17.474   1.687  11.034  0.00  0.00     0.041 A 
ATOM      4  C10 ZIN A   1      18.381   1.943   9.975  0.00  0.00     0.086 A 
ATOM      5  O20 ZIN A   1      19.192   2.958  10.317  0.00  0.00    -0.308 OA
ENDROOT
BRANCH   1   6
ATOM      6  C6  ZIN A   1      19.489   4.418  12.255  0.00  0.00     0.176 C 
BRANCH   6   7
ATOM      7  N5  ZIN A   1      18.874   4.981  13.289  0.00  0.00    -0.178 NA
BRANCH   7   8
ATOM      8  N4  ZIN A   1      19.304   4.774  14.487  0.00  0.00    -0.211 N 
ATOM      9  C3  ZIN A   1      19.009   3.610  15.338  0.00  0.00     0.259 A 
ATOM     10  C2  ZIN A   1      19.770   3.901  16.617  0.00  0.00     0.245 A 
ATOM     11  O1  ZIN A   1      19.821   3.211  17.612  0.00  0.00    -0.271 OA
ATOM     12  N23 ZIN A   1      20.374   5.089  16.418  0.00  0.00    -0.276 N 
ATOM     13  C21 ZIN A   1      20.109   5.580  15.202  0.00  0.00     0.345 A 
ATOM     14  H33 ZIN A   1      20.936   5.532  17.074  0.00  0.00     0.173 HD
ATOM     15  O22 ZIN A   1      20.544   6.637  14.791  0.00  0.00    -0.245 OA
ENDBRANCH   7   8
ENDBRANCH   6   7
ENDBRANCH   1   6
BRANCH   4  16
ATOM     16  C11 ZIN A   1      18.424   1.240   8.746  0.00  0.00    -0.002 A 
ATOM     17  C19 ZIN A   1      19.166   1.748   7.663  0.00  0.00     0.017 A 
ATOM     18  C18 ZIN A   1      19.204   1.057   6.480  0.00  0.00     0.037 A 
ATOM     19  C14 ZIN A   1      18.506  -0.134   6.344  0.00  0.00     0.102 A 
ATOM     20  C13 ZIN A   1      17.767  -0.642   7.402  0.00  0.00     0.037 A 
ATOM     21  C12 ZIN A   1      17.718   0.030   8.596  0.00  0.00     0.017 A 
BRANCH  19  22
ATOM     22  N15 ZIN A   1      18.550  -0.868   5.059  0.00  0.00    -0.116 N 
ATOM     23  O16 ZIN A   1      17.434  -1.294   4.505  0.00  0.00    -0.532 OA
ATOM     24  O17 ZIN A   1      19.705  -1.096   4.470  0.00  0.00    -0.532 OA
ENDBRANCH  19  22
ENDBRANCH   4  16
TORSDOF 5
ENDMDL
MODEL 2
REMARK VINA RESULT:      -8.2      2.258      2.974
REMARK  5 active torsions:
REMARK  status: ('A' for Active; 'I' for Inactive)
REMARK    1  A    between atoms: N4_4  and  N5_5 
REMARK    2  A    between atoms: N5_5  and  C6_6 
REMARK    3  A    between atoms: C6_6  and  C7_7 
REMARK    4  A    between atoms: C10_10  and  C11_11 
REMARK    5  A    between atoms: C14_14  and  N15_15 
ROOT
ATOM      1  C7  ZIN A   1      18.643   2.558  12.034  0.00  0.00     0.095 A 
ATOM      2  C8  ZIN A   1      18.170   3.756  11.324  0.00  0.00     0.041 A 
ATOM      3  C9  ZIN A   1      18.055   3.404  10.018  0.00  0.00     0.041 A 
ATOM      4  C10 ZIN A   1      18.439   2.044   9.907  0.00  0.00     0.086 A 
ATOM      5  O20 ZIN A   1      18.785   1.577  11.117  0.00  0.00    -0.308 OA
ENDROOT
BRANCH   1   6
ATOM      6  C6  ZIN A   1      18.901   2.457  13.394  0.00  0.00     0.176 C 
BRANCH   6   7
ATOM      7  N5  ZIN A   1      18.041   1.832  14.190  0.00  0.00    -0.178 NA
BRANCH   7   8
ATOM      8  N4  ZIN A   1      18.424   1.400  15.343  0.00  0.00    -0.211 N 
ATOM      9  C3  ZIN A   1      19.038   2.195  16.420  0.00  0.00     0.259 A 
ATOM     10  C2  ZIN A   1      19.277   1.179  17.520  0.00  0.00     0.245 A 
ATOM     11  O1  ZIN A   1      19.770   1.382  18.609  0.00  0.00    -0.271 OA
ATOM     12  N23 ZIN A   1      18.831   0.004  17.035  0.00  0.00    -0.276 N 
ATOM     13  C21 ZIN A   1      18.342   0.136  15.796  0.00  0.00     0.345 A 
ATOM     14  H33 ZIN A   1      18.856  -0.833  17.524  0.00  0.00     0.173 HD
ATOM     15  O22 ZIN A   1      17.880  -0.783  15.151  0.00  0.00    -0.245 OA
ENDBRANCH   7   8
ENDBRANCH   6   7
ENDBRANCH   1   6
BRANCH   4  16
ATOM     16  C11 ZIN A   1      18.459   1.296   8.703  0.00  0.00    -0.002 A 
ATOM     17  C19 ZIN A   1      17.771   0.069   8.619  0.00  0.00     0.017 A 
ATOM     18  C18 ZIN A   1      17.793  -0.643   7.449  0.00  0.00     0.037 A 
ATOM     19  C14 ZIN A   1      18.497  -0.167   6.354  0.00  0.00     0.102 A 
ATOM     20  C13 ZIN A   1      19.182   1.037   6.426  0.00  0.00     0.037 A 
ATOM     21  C12 ZIN A   1      19.171   1.770   7.584  0.00  0.00     0.017 A 
BRANCH  19  22
ATOM     22  N15 ZIN A   1      18.517  -0.949   5.097  0.00  0.00    -0.116 N 
ATOM     23  O16 ZIN A   1      17.394  -1.421   4.596  0.00  0.00    -0.532 OA
ATOM     24  O17 ZIN A   1      19.658  -1.174   4.479  0.00  0.00    -0.532 OA
ENDBRANCH  19  22
ENDBRANCH   4  16
TORSDOF 5
ENDMDL
MODEL 3
REMARK VINA RESULT:      -8.2      0.977      2.232
REMARK  5 active torsions:
REMARK  status: ('A' for Active; 'I' for Inactive)
REMARK    1  A    between atoms: N4_4  and  N5_5 
REMARK    2  A    between atoms: N5_5  and  C6_6 
REMARK    3  A    between atoms: C6_6  and  C7_7 
REMARK    4  A    between atoms: C10_10  and  C11_11 
REMARK    5  A    between atoms: C14_14  and  N15_15 
ROOT
ATOM      1  C7  ZIN A   1      18.138   2.469  12.477  0.00  0.00     0.095 A 
ATOM      2  C8  ZIN A   1      17.716   3.698  11.787  0.00  0.00     0.041 A 
ATOM      3  C9  ZIN A   1      17.712   3.408  10.461  0.00  0.00     0.041 A 
ATOM      4  C10 ZIN A   1      18.113   2.057  10.318  0.00  0.00     0.086 A 
ATOM      5  O20 ZIN A   1      18.361   1.533  11.529  0.00  0.00    -0.308 OA
ENDROOT
BRANCH   1   6
ATOM      6  C6  ZIN A   1      18.284   2.305  13.847  0.00  0.00     0.176 C 
BRANCH   6   7
ATOM      7  N5  ZIN A   1      18.076   3.330  14.666  0.00  0.00    -0.178 NA
BRANCH   7   8
ATOM      8  N4  ZIN A   1      19.073   4.033  15.085  0.00  0.00    -0.211 N 
ATOM      9  C3  ZIN A   1      19.595   5.269  14.477  0.00  0.00     0.259 A 
ATOM     10  C2  ZIN A   1      20.752   5.649  15.379  0.00  0.00     0.245 A 
ATOM     11  O1  ZIN A   1      21.486   6.607  15.265  0.00  0.00    -0.271 OA
ATOM     12  N23 ZIN A   1      20.800   4.696  16.331  0.00  0.00    -0.276 N 
ATOM     13  C21 ZIN A   1      19.839   3.781  16.161  0.00  0.00     0.345 A 
ATOM     14  H33 ZIN A   1      21.448   4.678  17.053  0.00  0.00     0.173 HD
ATOM     15  O22 ZIN A   1      19.677   2.827  16.895  0.00  0.00    -0.245 OA
ENDBRANCH   7   8
ENDBRANCH   6   7
ENDBRANCH   1   6
BRANCH   4  16
ATOM     16  C11 ZIN A   1      18.236   1.367   9.086  0.00  0.00    -0.002 A 
ATOM     17  C19 ZIN A   1      17.529   0.167   8.871  0.00  0.00     0.017 A 
ATOM     18  C18 ZIN A   1      17.652  -0.489   7.674  0.00  0.00     0.037 A 
ATOM     19  C14 ZIN A   1      18.477   0.017   6.681  0.00  0.00     0.102 A 
ATOM     20  C13 ZIN A   1      19.183   1.194   6.883  0.00  0.00     0.037 A 
ATOM     21  C12 ZIN A   1      19.072   1.871   8.071  0.00  0.00     0.017 A 
BRANCH  19  22
ATOM     22  N15 ZIN A   1      18.607  -0.704   5.395  0.00  0.00    -0.116 N 
ATOM     23  O16 ZIN A   1      19.793  -0.864   4.845  0.00  0.00    -0.532 OA
ATOM     24  O17 ZIN A   1      17.536  -1.186   4.800  0.00  0.00    -0.532 OA
ENDBRANCH  19  22
ENDBRANCH   4  16
TORSDOF 5
ENDMDL
MODEL 4
REMARK VINA RESULT:      -8.0      4.379     10.390
REMARK  5 active torsions:
REMARK  status: ('A' for Active; 'I' for Inactive)
REMARK    1  A    between atoms: N4_4  and  N5_5 
REMARK    2  A    between atoms: N5_5  and  C6_6 
REMARK    3  A    between atoms: C6_6  and  C7_7 
REMARK    4  A    between atoms: C10_10  and  C11_11 
REMARK    5  A    between atoms: C14_14  and  N15_15 
ROOT
ATOM      1  C7  ZIN A   1      18.890  -3.139  11.589  0.00  0.00     0.095 A 
ATOM      2  C8  ZIN A   1      17.721  -2.366  11.143  0.00  0.00     0.041 A 
ATOM      3  C9  ZIN A   1      17.446  -1.483  12.137  0.00  0.00     0.041 A 
ATOM      4  C10 ZIN A   1      18.397  -1.689  13.167  0.00  0.00     0.086 A 
ATOM      5  O20 ZIN A   1      19.234  -2.678  12.812  0.00  0.00    -0.308 OA
ENDROOT
BRANCH   1   6
ATOM      6  C6  ZIN A   1      19.520  -4.157  10.887  0.00  0.00     0.176 C 
BRANCH   6   7
ATOM      7  N5  ZIN A   1      18.926  -4.702   9.831  0.00  0.00    -0.178 NA
BRANCH   7   8
ATOM      8  N4  ZIN A   1      19.387  -4.482   8.647  0.00  0.00    -0.211 N 
ATOM      9  C3  ZIN A   1      18.998  -3.388   7.740  0.00  0.00     0.259 A 
ATOM     10  C2  ZIN A   1      19.851  -3.625   6.509  0.00  0.00     0.245 A 
ATOM     11  O1  ZIN A   1      19.868  -2.965   5.492  0.00  0.00    -0.271 OA
ATOM     12  N23 ZIN A   1      20.580  -4.726   6.778  0.00  0.00    -0.276 N 
ATOM     13  C21 ZIN A   1      20.316  -5.207   7.999  0.00  0.00     0.345 A 
ATOM     14  H33 ZIN A   1      21.222  -5.118   6.166  0.00  0.00     0.173 HD
ATOM     15  O22 ZIN A   1      20.852  -6.190   8.467  0.00  0.00    -0.245 OA
ENDBRANCH   7   8
ENDBRANCH   6   7
ENDBRANCH   1   6
BRANCH   4  16
ATOM     16  C11 ZIN A   1      18.455  -0.965  14.384  0.00  0.00    -0.002 A 
ATOM     17  C19 ZIN A   1      18.893  -1.595  15.564  0.00  0.00     0.017 A 
ATOM     18  C18 ZIN A   1      18.950  -0.883  16.734  0.00  0.00     0.037 A 
ATOM     19  C14 ZIN A   1      18.567   0.449  16.761  0.00  0.00     0.102 A 
ATOM     20  C13 ZIN A   1      18.129   1.079  15.606  0.00  0.00     0.037 A 
ATOM     21  C12 ZIN A   1      18.068   0.389  14.423  0.00  0.00     0.017 A 
BRANCH  19  22
ATOM     22  N15 ZIN A   1      18.627   1.205  18.033  0.00  0.00    -0.116 N 
ATOM     23  O16 ZIN A   1      19.788   1.425  18.614  0.00  0.00    -0.532 OA
ATOM     24  O17 ZIN A   1      17.520   1.657  18.583  0.00  0.00    -0.532 OA
ENDBRANCH  19  22
ENDBRANCH   4  16
TORSDOF 5
ENDMDL
MODEL 5
REMARK VINA RESULT:      -7.9      3.438      9.503
REMARK  5 active torsions:
REMARK  status: ('A' for Active; 'I' for Inactive)
REMARK    1  A    between atoms: N4_4  and  N5_5 
REMARK    2  A    between atoms: N5_5  and  C6_6 
REMARK    3  A    between atoms: C6_6  and  C7_7 
REMARK    4  A    between atoms: C10_10  and  C11_11 
REMARK    5  A    between atoms: C14_14  and  N15_15 
ROOT
ATOM      1  C7  ZIN A   1      19.005  -1.066  10.671  0.00  0.00     0.095 A 
ATOM      2  C8  ZIN A   1      17.960  -2.040  11.020  0.00  0.00     0.041 A 
ATOM      3  C9  ZIN A   1      17.757  -1.919  12.356  0.00  0.00     0.041 A 
ATOM      4  C10 ZIN A   1      18.635  -0.914  12.832  0.00  0.00     0.086 A 
ATOM      5  O20 ZIN A   1      19.362  -0.434  11.810  0.00  0.00    -0.308 OA
ENDROOT
BRANCH   1   6
ATOM      6  C6  ZIN A   1      19.531  -0.843   9.406  0.00  0.00     0.176 C 
BRANCH   6   7
ATOM      7  N5  ZIN A   1      18.886  -0.063   8.545  0.00  0.00    -0.178 NA
BRANCH   7   8
ATOM      8  N4  ZIN A   1      19.055  -0.223   7.277  0.00  0.00    -0.211 N 
ATOM      9  C3  ZIN A   1      19.267  -1.499   6.572  0.00  0.00     0.259 A 
ATOM     10  C2  ZIN A   1      19.402  -1.085   5.120  0.00  0.00     0.245 A 
ATOM     11  O1  ZIN A   1      19.590  -1.810   4.166  0.00  0.00    -0.271 OA
ATOM     12  N23 ZIN A   1      19.276   0.256   5.110  0.00  0.00    -0.276 N 
ATOM     13  C21 ZIN A   1      19.074   0.742   6.340  0.00  0.00     0.345 A 
ATOM     14  H33 ZIN A   1      19.320   0.803   4.310  0.00  0.00     0.173 HD
ATOM     15  O22 ZIN A   1      18.927   1.922   6.585  0.00  0.00    -0.245 OA
ENDBRANCH   7   8
ENDBRANCH   6   7
ENDBRANCH   1   6
BRANCH   4  16
ATOM     16  C11 ZIN A   1      18.733  -0.484  14.179  0.00  0.00    -0.002 A 
ATOM     17  C19 ZIN A   1      19.065   0.852  14.475  0.00  0.00     0.017 A 
ATOM     18  C18 ZIN A   1      19.152   1.258  15.782  0.00  0.00     0.037 A 
ATOM     19  C14 ZIN A   1      18.926   0.355  16.810  0.00  0.00     0.102 A 
ATOM     20  C13 ZIN A   1      18.604  -0.965  16.531  0.00  0.00     0.037 A 
ATOM     21  C12 ZIN A   1      18.507  -1.392  15.232  0.00  0.00     0.017 A 
BRANCH  19  22
ATOM     22  N15 ZIN A   1      19.030   0.804  18.217  0.00  0.00    -0.116 N 
ATOM     23  O16 ZIN A   1      19.832   1.800  18.534  0.00  0.00    -0.532 OA
ATOM     24  O17 ZIN A   1      18.320   0.208  19.152  0.00  0.00    -0.532 OA
ENDBRANCH  19  22
ENDBRANCH   4  16
TORSDOF 5
ENDMDL
MODEL 6
REMARK VINA RESULT:      -7.5      2.610      8.972
REMARK  5 active torsions:
REMARK  status: ('A' for Active; 'I' for Inactive)
REMARK    1  A    between atoms: N4_4  and  N5_5 
REMARK    2  A    between atoms: N5_5  and  C6_6 
REMARK    3  A    between atoms: C6_6  and  C7_7 
REMARK    4  A    between atoms: C10_10  and  C11_11 
REMARK    5  A    between atoms: C14_14  and  N15_15 
ROOT
ATOM      1  C7  ZIN A   1      18.751   2.542  10.112  0.00  0.00     0.095 A 
ATOM      2  C8  ZIN A   1      17.913   3.683  10.509  0.00  0.00     0.041 A 
ATOM      3  C9  ZIN A   1      17.847   3.654  11.864  0.00  0.00     0.041 A 
ATOM      4  C10 ZIN A   1      18.608   2.543  12.306  0.00  0.00     0.086 A 
ATOM      5  O20 ZIN A   1      19.126   1.905  11.243  0.00  0.00    -0.308 OA
ENDROOT
BRANCH   1   6
ATOM      6  C6  ZIN A   1      19.090   2.182   8.815  0.00  0.00     0.176 C 
BRANCH   6   7
ATOM      7  N5  ZIN A   1      19.529   0.955   8.558  0.00  0.00    -0.178 NA
BRANCH   7   8
ATOM      8  N4  ZIN A   1      18.891   0.202   7.728  0.00  0.00    -0.211 N 
ATOM      9  C3  ZIN A   1      18.791   0.387   6.270  0.00  0.00     0.259 A 
ATOM     10  C2  ZIN A   1      17.932  -0.778   5.821  0.00  0.00     0.245 A 
ATOM     11  O1  ZIN A   1      17.582  -1.036   4.689  0.00  0.00    -0.271 OA
ATOM     12  N23 ZIN A   1      17.633  -1.464   6.941  0.00  0.00    -0.276 N 
ATOM     13  C21 ZIN A   1      18.185  -0.904   8.024  0.00  0.00     0.345 A 
ATOM     14  H33 ZIN A   1      17.089  -2.267   6.961  0.00  0.00     0.173 HD
ATOM     15  O22 ZIN A   1      18.061  -1.344   9.150  0.00  0.00    -0.245 OA
ENDBRANCH   7   8
ENDBRANCH   6   7
ENDBRANCH   1   6
BRANCH   4  16
ATOM     16  C11 ZIN A   1      18.792   2.163  13.659  0.00  0.00    -0.002 A 
ATOM     17  C19 ZIN A   1      19.003   0.811  13.993  0.00  0.00     0.017 A 
ATOM     18  C18 ZIN A   1      19.185   0.456  15.304  0.00  0.00     0.037 A 
ATOM     19  C14 ZIN A   1      19.151   1.419  16.301  0.00  0.00     0.102 A 
ATOM     20  C13 ZIN A   1      18.938   2.752  15.984  0.00  0.00     0.037 A 
ATOM     21  C12 ZIN A   1      18.759   3.133  14.679  0.00  0.00     0.017 A 
BRANCH  19  22
ATOM     22  N15 ZIN A   1      19.342   1.021  17.714  0.00  0.00    -0.116 N 
ATOM     23  O16 ZIN A   1      19.777   1.901  18.593  0.00  0.00    -0.532 OA
ATOM     24  O17 ZIN A   1      19.079  -0.212  18.093  0.00  0.00    -0.532 OA
ENDBRANCH  19  22
ENDBRANCH   4  16
TORSDOF 5
ENDMDL
MODEL 7
REMARK VINA RESULT:      -7.4      2.993      3.591
REMARK  5 active torsions:
REMARK  status: ('A' for Active; 'I' for Inactive)
REMARK    1  A    between atoms: N4_4  and  N5_5 
REMARK    2  A    between atoms: N5_5  and  C6_6 
REMARK    3  A    between atoms: C6_6  and  C7_7 
REMARK    4  A    between atoms: C10_10  and  C11_11 
REMARK    5  A    between atoms: C14_14  and  N15_15 
ROOT
ATOM      1  C7  ZIN A   1      18.751   0.295  12.797  0.00  0.00     0.095 A 
ATOM      2  C8  ZIN A   1      17.317   0.022  12.617  0.00  0.00     0.041 A 
ATOM      3  C9  ZIN A   1      17.138  -0.221  11.294  0.00  0.00     0.041 A 
ATOM      4  C10 ZIN A   1      18.402  -0.106  10.664  0.00  0.00     0.086 A 
ATOM      5  O20 ZIN A   1      19.333   0.205  11.582  0.00  0.00    -0.308 OA
ENDROOT
BRANCH   1   6
ATOM      6  C6  ZIN A   1      19.387   0.596  13.994  0.00  0.00     0.176 C 
BRANCH   6   7
ATOM      7  N5  ZIN A   1      19.095  -0.090  15.093  0.00  0.00    -0.178 NA
BRANCH   7   8
ATOM      8  N4  ZIN A   1      18.622   0.519  16.127  0.00  0.00    -0.211 N 
ATOM      9  C3  ZIN A   1      19.114   1.781  16.706  0.00  0.00     0.259 A 
ATOM     10  C2  ZIN A   1      18.193   2.013  17.888  0.00  0.00     0.245 A 
ATOM     11  O1  ZIN A   1      18.223   2.940  18.668  0.00  0.00    -0.271 OA
ATOM     12  N23 ZIN A   1      17.339   0.971  17.895  0.00  0.00    -0.276 N 
ATOM     13  C21 ZIN A   1      17.584   0.125  16.887  0.00  0.00     0.345 A 
ATOM     14  H33 ZIN A   1      16.630   0.850  18.546  0.00  0.00     0.173 HD
ATOM     15  O22 ZIN A   1      16.944  -0.887  16.683  0.00  0.00    -0.245 OA
ENDBRANCH   7   8
ENDBRANCH   6   7
ENDBRANCH   1   6
BRANCH   4  16
ATOM     16  C11 ZIN A   1      18.645  -0.286   9.280  0.00  0.00    -0.002 A 
ATOM     17  C19 ZIN A   1      19.086  -1.533   8.794  0.00  0.00     0.017 A 
ATOM     18  C18 ZIN A   1      19.313  -1.698   7.452  0.00  0.00     0.037 A 
ATOM     19  C14 ZIN A   1      19.121  -0.640   6.576  0.00  0.00     0.102 A 
ATOM     20  C13 ZIN A   1      18.693   0.593   7.043  0.00  0.00     0.037 A 
ATOM     21  C12 ZIN A   1      18.454   0.780   8.380  0.00  0.00     0.017 A 
BRANCH  19  22
ATOM     22  N15 ZIN A   1      19.376  -0.829   5.130  0.00  0.00    -0.116 N 
ATOM     23  O16 ZIN A   1      19.676  -2.025   4.664  0.00  0.00    -0.532 OA
ATOM     24  O17 ZIN A   1      19.303   0.197   4.308  0.00  0.00    -0.532 OA
ENDBRANCH  19  22
ENDBRANCH   4  16
TORSDOF 5
ENDMDL
MODEL 8
REMARK VINA RESULT:      -7.1      2.220      2.637
REMARK  5 active torsions:
REMARK  status: ('A' for Active; 'I' for Inactive)
REMARK    1  A    between atoms: N4_4  and  N5_5 
REMARK    2  A    between atoms: N5_5  and  C6_6 
REMARK    3  A    between atoms: C6_6  and  C7_7 
REMARK    4  A    between atoms: C10_10  and  C11_11 
REMARK    5  A    between atoms: C14_14  and  N15_15 
ROOT
ATOM      1  C7  ZIN A   1      18.604  -0.172  12.673  0.00  0.00     0.095 A 
ATOM      2  C8  ZIN A   1      17.602  -1.247  12.732  0.00  0.00     0.041 A 
ATOM      3  C9  ZIN A   1      17.380  -1.632  11.450  0.00  0.00     0.041 A 
ATOM      4  C10 ZIN A   1      18.204  -0.835  10.616  0.00  0.00     0.086 A 
ATOM      5  O20 ZIN A   1      18.911   0.021  11.372  0.00  0.00    -0.308 OA
ENDROOT
BRANCH   1   6
ATOM      6  C6  ZIN A   1      19.132   0.520  13.754  0.00  0.00     0.176 C 
BRANCH   6   7
ATOM      7  N5  ZIN A   1      18.581   1.665  14.143  0.00  0.00    -0.178 NA
BRANCH   7   8
ATOM      8  N4  ZIN A   1      18.886   2.171  15.290  0.00  0.00    -0.211 N 
ATOM      9  C3  ZIN A   1      19.049   1.441  16.558  0.00  0.00     0.259 A 
ATOM     10  C2  ZIN A   1      19.400   2.530  17.553  0.00  0.00     0.245 A 
ATOM     11  O1  ZIN A   1      19.626   2.395  18.737  0.00  0.00    -0.271 OA
ATOM     12  N23 ZIN A   1      19.405   3.678  16.849  0.00  0.00    -0.276 N 
ATOM     13  C21 ZIN A   1      19.116   3.469  15.560  0.00  0.00     0.345 A 
ATOM     14  H33 ZIN A   1      19.600   4.550  17.229  0.00  0.00     0.173 HD
ATOM     15  O22 ZIN A   1      19.064   4.351  14.727  0.00  0.00    -0.245 OA
ENDBRANCH   7   8
ENDBRANCH   6   7
ENDBRANCH   1   6
BRANCH   4  16
ATOM     16  C11 ZIN A   1      18.268  -0.925   9.203  0.00  0.00    -0.002 A 
ATOM     17  C19 ZIN A   1      17.425  -0.130   8.402  0.00  0.00     0.017 A 
ATOM     18  C18 ZIN A   1      17.500  -0.222   7.037  0.00  0.00     0.037 A 
ATOM     19  C14 ZIN A   1      18.393  -1.101   6.443  0.00  0.00     0.102 A 
ATOM     20  C13 ZIN A   1      19.224  -1.893   7.221  0.00  0.00     0.037 A 
ATOM     21  C12 ZIN A   1      19.171  -1.815   8.589  0.00  0.00     0.017 A 
BRANCH  19  22
ATOM     22  N15 ZIN A   1      18.460  -1.195   4.967  0.00  0.00    -0.116 N 
ATOM     23  O16 ZIN A   1      19.627  -1.169   4.358  0.00  0.00    -0.532 OA
ATOM     24  O17 ZIN A   1      17.352  -1.304   4.263  0.00  0.00    -0.532 OA
ENDBRANCH  19  22
ENDBRANCH   4  16
TORSDOF 5
ENDMDL
MODEL 9
REMARK VINA RESULT:      -7.1      3.484      9.801
REMARK  5 active torsions:
REMARK  status: ('A' for Active; 'I' for Inactive)
REMARK    1  A    between atoms: N4_4  and  N5_5 
REMARK    2  A    between atoms: N5_5  and  C6_6 
REMARK    3  A    between atoms: C6_6  and  C7_7 
REMARK    4  A    between atoms: C10_10  and  C11_11 
REMARK    5  A    between atoms: C14_14  and  N15_15 
ROOT
ATOM      1  C7  ZIN A   1      18.925  -0.856  10.679  0.00  0.00     0.095 A 
ATOM      2  C8  ZIN A   1      17.780  -1.723  10.997  0.00  0.00     0.041 A 
ATOM      3  C9  ZIN A   1      17.543  -1.570  12.324  0.00  0.00     0.041 A 
ATOM      4  C10 ZIN A   1      18.496  -0.648  12.825  0.00  0.00     0.086 A 
ATOM      5  O20 ZIN A   1      19.300  -0.249  11.826  0.00  0.00    -0.308 OA
ENDROOT
BRANCH   1   6
ATOM      6  C6  ZIN A   1      19.514  -0.695   9.433  0.00  0.00     0.176 C 
BRANCH   6   7
ATOM      7  N5  ZIN A   1      18.801  -0.895   8.329  0.00  0.00    -0.178 NA
BRANCH   7   8
ATOM      8  N4  ZIN A   1      19.066  -1.898   7.563  0.00  0.00    -0.211 N 
ATOM      9  C3  ZIN A   1      19.124  -3.316   7.957  0.00  0.00     0.259 A 
ATOM     10  C2  ZIN A   1      19.473  -4.030   6.667  0.00  0.00     0.245 A 
ATOM     11  O1  ZIN A   1      19.627  -5.223   6.508  0.00  0.00    -0.271 OA
ATOM     12  N23 ZIN A   1      19.582  -3.065   5.733  0.00  0.00    -0.276 N 
ATOM     13  C21 ZIN A   1      19.344  -1.852   6.248  0.00  0.00     0.345 A 
ATOM     14  H33 ZIN A   1      19.799  -3.228   4.802  0.00  0.00     0.173 HD
ATOM     15  O22 ZIN A   1      19.380  -0.825   5.601  0.00  0.00    -0.245 OA
ENDBRANCH   7   8
ENDBRANCH   6   7
ENDBRANCH   1   6
BRANCH   4  16
ATOM     16  C11 ZIN A   1      18.587  -0.217  14.172  0.00  0.00    -0.002 A 
ATOM     17  C19 ZIN A   1      18.128  -1.046  15.215  0.00  0.00     0.017 A 
ATOM     18  C18 ZIN A   1      18.226  -0.620  16.514  0.00  0.00     0.037 A 
ATOM     19  C14 ZIN A   1      18.765   0.624  16.803  0.00  0.00     0.102 A 
ATOM     20  C13 ZIN A   1      19.216   1.450  15.785  0.00  0.00     0.037 A 
ATOM     21  C12 ZIN A   1      19.133   1.045  14.478  0.00  0.00     0.017 A 
BRANCH  19  22
ATOM     22  N15 ZIN A   1      18.861   1.074  18.211  0.00  0.00    -0.116 N 
ATOM     23  O16 ZIN A   1      17.981   0.656  19.097  0.00  0.00    -0.532 OA
ATOM     24  O17 ZIN A   1      19.825   1.892  18.576  0.00  0.00    -0.532 OA
ENDBRANCH  19  22
ENDBRANCH   4  16
TORSDOF 5
ENDMDL
