MODEL 1
REMARK VINA RESULT:      -7.5      0.000      0.000
REMARK  5 active torsions:
REMARK  status: ('A' for Active; 'I' for Inactive)
REMARK    1  A    between atoms: N2_2  and  C5_5 
REMARK    2  A    between atoms: C5_5  and  C6_6 
REMARK    3  A    between atoms: C6_6  and  C7_7 
REMARK    4  A    between atoms: C7_7  and  C8_8 
REMARK    5  A    between atoms: C8_8  and  C9_9 
ROOT
ATOM      1  C8  <0> d   1      18.475   2.345  10.874  0.00  0.00     0.116 C 
ATOM      2  O16 <0> d   1      19.770   2.963  10.980  0.00  0.00    -0.366 OA
ATOM      3  C17 <0> d   1      20.587   2.000  11.671  0.00  0.00     0.209 C 
ATOM      4  C18 <0> d   1      19.643   1.206  12.544  0.00  0.00    -0.023 A 
ATOM      5  C19 <0> d   1      19.849   0.390  13.634  0.00  0.00     0.032 A 
ATOM      6  C20 <0> d   1      18.758  -0.227  14.254  0.00  0.00     0.045 A 
ATOM      7  C21 <0> d   1      18.964  -1.076  15.389  0.00  0.00     0.099 C 
ATOM      8  N22 <0> d   1      19.126  -1.750  16.289  0.00  0.00    -0.191 NA
ATOM      9  C23 <0> d   1      17.470  -0.012  13.763  0.00  0.00     0.023 A 
ATOM     10  C24 <0> d   1      17.279   0.808  12.670  0.00  0.00     0.012 A 
ATOM     11  C25 <0> d   1      18.359   1.415  12.061  0.00  0.00    -0.011 A 
ENDROOT
BRANCH   1  12
ATOM     12  C7  <0> d   1      17.377   3.409  10.931  0.00  0.00     0.050 C 
BRANCH  12  13
ATOM     13  C6  <0> d   1      17.985   4.746  11.364  0.00  0.00     0.031 C 
BRANCH  13  14
ATOM     14  C5  <0> d   1      17.681   4.988  12.844  0.00  0.00     0.234 C 
BRANCH  14  15
ATOM     15  N2  <0> d   1      18.806   4.512  13.659  0.00  0.00    -0.079 N 
ATOM     16  C1  <0> d   1      19.624   5.658  14.080  0.00  0.00     0.269 C 
ATOM     17  H3  <0> d   1      19.372   3.878  13.115  0.00  0.00     0.278 HD
ATOM     18  C4  <0> d   1      18.291   3.816  14.845  0.00  0.00     0.269 C 
ENDBRANCH  14  15
ENDBRANCH  13  14
ENDBRANCH  12  13
ENDBRANCH   1  12
BRANCH   1  19
ATOM     19  C9  <0> d   1      18.374   1.563   9.591  0.00  0.00    -0.019 A 
ATOM     20  C15 <0> d   1      19.098   1.960   8.482  0.00  0.00     0.013 A 
ATOM     21  C14 <0> d   1      19.011   1.240   7.305  0.00  0.00     0.043 A 
ATOM     22  C12 <0> d   1      18.189   0.128   7.234  0.00  0.00     0.116 A 
ATOM     23  C11 <0> d   1      17.460  -0.264   8.343  0.00  0.00     0.043 A 
ATOM     24  F13 <0> d   1      18.098  -0.572   6.082  0.00  0.00    -0.206 F 
ATOM     25  C10 <0> d   1      17.553   0.453   9.520  0.00  0.00     0.013 A 
ENDBRANCH   1  19
TORSDOF 5
ENDMDL
MODEL 2
REMARK VINA RESULT:      -7.5      3.879      5.957
REMARK  5 active torsions:
REMARK  status: ('A' for Active; 'I' for Inactive)
REMARK    1  A    between atoms: N2_2  and  C5_5 
REMARK    2  A    between atoms: C5_5  and  C6_6 
REMARK    3  A    between atoms: C6_6  and  C7_7 
REMARK    4  A    between atoms: C7_7  and  C8_8 
REMARK    5  A    between atoms: C8_8  and  C9_9 
ROOT
ATOM      1  C8  <0> d   1      19.009  -0.118  12.909  0.00  0.00     0.116 C 
ATOM      2  O16 <0> d   1      17.833   0.552  12.421  0.00  0.00    -0.366 OA
ATOM      3  C17 <0> d   1      16.860  -0.492  12.237  0.00  0.00     0.209 C 
ATOM      4  C18 <0> d   1      17.648  -1.746  11.937  0.00  0.00    -0.023 A 
ATOM      5  C19 <0> d   1      17.296  -2.954  11.377  0.00  0.00     0.032 A 
ATOM      6  C20 <0> d   1      18.261  -3.953  11.221  0.00  0.00     0.045 A 
ATOM      7  C21 <0> d   1      17.904  -5.212  10.640  0.00  0.00     0.099 C 
ATOM      8  N22 <0> d   1      17.621  -6.211  10.178  0.00  0.00    -0.191 NA
ATOM      9  C23 <0> d   1      19.574  -3.718  11.633  0.00  0.00     0.023 A 
ATOM     10  C24 <0> d   1      19.912  -2.502  12.192  0.00  0.00     0.012 A 
ATOM     11  C25 <0> d   1      18.954  -1.519  12.344  0.00  0.00    -0.011 A 
ENDROOT
BRANCH   1  12
ATOM     12  C7  <0> d   1      20.267   0.599  12.415  0.00  0.00     0.050 C 
BRANCH  12  13
ATOM     13  C6  <0> d   1      19.911   1.487  11.220  0.00  0.00     0.031 C 
BRANCH  13  14
ATOM     14  C5  <0> d   1      19.984   2.957  11.637  0.00  0.00     0.234 C 
BRANCH  14  15
ATOM     15  N2  <0> d   1      18.641   3.430  11.999  0.00  0.00    -0.079 N 
ATOM     16  C1  <0> d   1      18.754   4.646  12.816  0.00  0.00     0.269 C 
ATOM     17  H3  <0> d   1      18.162   2.715  12.526  0.00  0.00     0.278 HD
ATOM     18  C4  <0> d   1      17.883   3.730  10.777  0.00  0.00     0.269 C 
ENDBRANCH  14  15
ENDBRANCH  13  14
ENDBRANCH  12  13
ENDBRANCH   1  12
BRANCH   1  19
ATOM     19  C9  <0> d   1      18.996  -0.163  14.414  0.00  0.00    -0.019 A 
ATOM     20  C15 <0> d   1      18.985  -1.381  15.069  0.00  0.00     0.013 A 
ATOM     21  C14 <0> d   1      18.977  -1.424  16.450  0.00  0.00     0.043 A 
ATOM     22  C12 <0> d   1      18.970  -0.246  17.179  0.00  0.00     0.116 A 
ATOM     23  C11 <0> d   1      18.976   0.972  16.522  0.00  0.00     0.043 A 
ATOM     24  F13 <0> d   1      18.957  -0.287  18.530  0.00  0.00    -0.206 F 
ATOM     25  C10 <0> d   1      18.988   1.013  15.141  0.00  0.00     0.013 A 
ENDBRANCH   1  19
TORSDOF 5
ENDMDL
MODEL 3
REMARK VINA RESULT:      -7.4      3.685      6.519
REMARK  5 active torsions:
REMARK  status: ('A' for Active; 'I' for Inactive)
REMARK    1  A    between atoms: N2_2  and  C5_5 
REMARK    2  A    between atoms: C5_5  and  C6_6 
REMARK    3  A    between atoms: C6_6  and  C7_7 
REMARK    4  A    between atoms: C7_7  and  C8_8 
REMARK    5  A    between atoms: C8_8  and  C9_9 
ROOT
ATOM      1  C8  <0> d   1      18.127   0.205  11.107  0.00  0.00     0.116 C 
ATOM      2  O16 <0> d   1      19.395  -0.229  11.632  0.00  0.00    -0.366 OA
ATOM      3  C17 <0> d   1      20.330  -0.030  10.556  0.00  0.00     0.209 C 
ATOM      4  C18 <0> d   1      19.532  -0.171   9.281  0.00  0.00    -0.023 A 
ATOM      5  C19 <0> d   1      19.900  -0.395   7.973  0.00  0.00     0.032 A 
ATOM      6  C20 <0> d   1      18.919  -0.479   6.981  0.00  0.00     0.045 A 
ATOM      7  C21 <0> d   1      19.293  -0.713   5.619  0.00  0.00     0.099 C 
ATOM      8  N22 <0> d   1      19.589  -0.898   4.538  0.00  0.00    -0.191 NA
ATOM      9  C23 <0> d   1      17.573  -0.335   7.324  0.00  0.00     0.023 A 
ATOM     10  C24 <0> d   1      17.219  -0.111   8.639  0.00  0.00     0.012 A 
ATOM     11  C25 <0> d   1      18.193  -0.028   9.615  0.00  0.00    -0.011 A 
ENDROOT
BRANCH   1  12
ATOM     12  C7  <0> d   1      16.994  -0.621  11.719  0.00  0.00     0.050 C 
BRANCH  12  13
ATOM     13  C6  <0> d   1      17.572  -1.885  12.360  0.00  0.00     0.031 C 
BRANCH  13  14
ATOM     14  C5  <0> d   1      17.430  -3.059  11.390  0.00  0.00     0.234 C 
BRANCH  14  15
ATOM     15  N2  <0> d   1      18.718  -3.308  10.730  0.00  0.00    -0.079 N 
ATOM     16  C1  <0> d   1      19.447  -4.354  11.459  0.00  0.00     0.269 C 
ATOM     17  H3  <0> d   1      19.263  -2.459  10.724  0.00  0.00     0.278 HD
ATOM     18  C4  <0> d   1      18.482  -3.748   9.348  0.00  0.00     0.269 C 
ENDBRANCH  14  15
ENDBRANCH  13  14
ENDBRANCH  12  13
ENDBRANCH   1  12
BRANCH   1  19
ATOM     19  C9  <0> d   1      17.917   1.668  11.396  0.00  0.00    -0.019 A 
ATOM     20  C15 <0> d   1      17.931   2.124  12.701  0.00  0.00     0.013 A 
ATOM     21  C14 <0> d   1      17.744   3.467  12.967  0.00  0.00     0.043 A 
ATOM     22  C12 <0> d   1      17.532   4.355  11.925  0.00  0.00     0.116 A 
ATOM     23  C11 <0> d   1      17.513   3.897  10.619  0.00  0.00     0.043 A 
ATOM     24  F13 <0> d   1      17.343   5.668  12.184  0.00  0.00    -0.206 F 
ATOM     25  C10 <0> d   1      17.706   2.554  10.355  0.00  0.00     0.013 A 
ENDBRANCH   1  19
TORSDOF 5
ENDMDL
MODEL 4
REMARK VINA RESULT:      -7.1      3.640      5.521
REMARK  5 active torsions:
REMARK  status: ('A' for Active; 'I' for Inactive)
REMARK    1  A    between atoms: N2_2  and  C5_5 
REMARK    2  A    between atoms: C5_5  and  C6_6 
REMARK    3  A    between atoms: C6_6  and  C7_7 
REMARK    4  A    between atoms: C7_7  and  C8_8 
REMARK    5  A    between atoms: C8_8  and  C9_9 
ROOT
ATOM      1  C8  <0> d   1      18.446  -1.026  10.173  0.00  0.00     0.116 C 
ATOM      2  O16 <0> d   1      19.790  -0.820   9.702  0.00  0.00    -0.366 OA
ATOM      3  C17 <0> d   1      20.588  -0.701  10.893  0.00  0.00     0.209 C 
ATOM      4  C18 <0> d   1      19.669  -0.142  11.955  0.00  0.00    -0.023 A 
ATOM      5  C19 <0> d   1      19.909   0.469  13.165  0.00  0.00     0.032 A 
ATOM      6  C20 <0> d   1      18.835   0.891  13.953  0.00  0.00     0.045 A 
ATOM      7  C21 <0> d   1      19.076   1.528  15.213  0.00  0.00     0.099 C 
ATOM      8  N22 <0> d   1      19.266   2.034  16.212  0.00  0.00    -0.191 NA
ATOM      9  C23 <0> d   1      17.527   0.690  13.507  0.00  0.00     0.023 A 
ATOM     10  C24 <0> d   1      17.302   0.076  12.292  0.00  0.00     0.012 A 
ATOM     11  C25 <0> d   1      18.367  -0.339  11.518  0.00  0.00    -0.011 A 
ENDROOT
BRANCH   1  12
ATOM     12  C7  <0> d   1      17.445  -0.398   9.202  0.00  0.00     0.050 C 
BRANCH  12  13
ATOM     13  C6  <0> d   1      18.192   0.487   8.201  0.00  0.00     0.031 C 
BRANCH  13  14
ATOM     14  C5  <0> d   1      17.891   0.014   6.778  0.00  0.00     0.234 C 
BRANCH  14  15
ATOM     15  N2  <0> d   1      19.134  -0.437   6.139  0.00  0.00    -0.079 N 
ATOM     16  C1  <0> d   1      19.182  -1.906   6.144  0.00  0.00     0.269 C 
ATOM     17  H3  <0> d   1      19.926  -0.074   6.648  0.00  0.00     0.278 HD
ATOM     18  C4  <0> d   1      19.177   0.049   4.753  0.00  0.00     0.269 C 
ENDBRANCH  14  15
ENDBRANCH  13  14
ENDBRANCH  12  13
ENDBRANCH   1  12
BRANCH   1  19
ATOM     19  C9  <0> d   1      18.168  -2.499  10.325  0.00  0.00    -0.019 A 
ATOM     20  C15 <0> d   1      17.407  -2.952  11.387  0.00  0.00     0.013 A 
ATOM     21  C14 <0> d   1      17.146  -4.302  11.525  0.00  0.00     0.043 A 
ATOM     22  C12 <0> d   1      17.657  -5.203  10.604  0.00  0.00     0.116 A 
ATOM     23  C11 <0> d   1      18.423  -4.748   9.545  0.00  0.00     0.043 A 
ATOM     24  F13 <0> d   1      17.408  -6.524  10.741  0.00  0.00    -0.206 F 
ATOM     25  C10 <0> d   1      18.678  -3.397   9.406  0.00  0.00     0.013 A 
ENDBRANCH   1  19
TORSDOF 5
ENDMDL
MODEL 5
REMARK VINA RESULT:      -7.1      2.889      5.235
REMARK  5 active torsions:
REMARK  status: ('A' for Active; 'I' for Inactive)
REMARK    1  A    between atoms: N2_2  and  C5_5 
REMARK    2  A    between atoms: C5_5  and  C6_6 
REMARK    3  A    between atoms: C6_6  and  C7_7 
REMARK    4  A    between atoms: C7_7  and  C8_8 
REMARK    5  A    between atoms: C8_8  and  C9_9 
ROOT
ATOM      1  C8  <0> d   1      18.413   1.151  10.531  0.00  0.00     0.116 C 
ATOM      2  O16 <0> d   1      17.288   0.354  10.120  0.00  0.00    -0.366 OA
ATOM      3  C17 <0> d   1      16.662  -0.066  11.346  0.00  0.00     0.209 C 
ATOM      4  C18 <0> d   1      17.765  -0.121  12.378  0.00  0.00    -0.023 A 
ATOM      5  C19 <0> d   1      17.858  -0.733  13.607  0.00  0.00     0.032 A 
ATOM      6  C20 <0> d   1      19.030  -0.607  14.358  0.00  0.00     0.045 A 
ATOM      7  C21 <0> d   1      19.136  -1.241  15.637  0.00  0.00     0.099 C 
ATOM      8  N22 <0> d   1      19.220  -1.743  16.653  0.00  0.00    -0.191 NA
ATOM      9  C23 <0> d   1      20.098   0.138  13.854  0.00  0.00     0.023 A 
ATOM     10  C24 <0> d   1      19.990   0.746  12.620  0.00  0.00     0.012 A 
ATOM     11  C25 <0> d   1      18.830   0.618  11.883  0.00  0.00    -0.011 A 
ENDROOT
BRANCH   1  12
ATOM     12  C7  <0> d   1      19.560   1.000   9.530  0.00  0.00     0.050 C 
BRANCH  12  13
ATOM     13  C6  <0> d   1      19.153   0.013   8.434  0.00  0.00     0.031 C 
BRANCH  13  14
ATOM     14  C5  <0> d   1      18.985   0.761   7.110  0.00  0.00     0.234 C 
BRANCH  14  15
ATOM     15  N2  <0> d   1      18.498  -0.167   6.081  0.00  0.00    -0.079 N 
ATOM     16  C1  <0> d   1      19.315  -0.026   4.869  0.00  0.00     0.269 C 
ATOM     17  H3  <0> d   1      17.535   0.045   5.864  0.00  0.00     0.278 HD
ATOM     18  C4  <0> d   1      18.595  -1.545   6.580  0.00  0.00     0.269 C 
ENDBRANCH  14  15
ENDBRANCH  13  14
ENDBRANCH  12  13
ENDBRANCH   1  12
BRANCH   1  19
ATOM     19  C9  <0> d   1      18.011   2.599  10.645  0.00  0.00    -0.019 A 
ATOM     20  C15 <0> d   1      17.452   3.070  11.818  0.00  0.00     0.013 A 
ATOM     21  C14 <0> d   1      17.087   4.399  11.926  0.00  0.00     0.043 A 
ATOM     22  C12 <0> d   1      17.273   5.256  10.854  0.00  0.00     0.116 A 
ATOM     23  C11 <0> d   1      17.828   4.781   9.678  0.00  0.00     0.043 A 
ATOM     24  F13 <0> d   1      16.911   6.554  10.956  0.00  0.00    -0.206 F 
ATOM     25  C10 <0> d   1      18.196   3.454   9.574  0.00  0.00     0.013 A 
ENDBRANCH   1  19
TORSDOF 5
ENDMDL
MODEL 6
REMARK VINA RESULT:      -7.1      3.664      6.881
REMARK  5 active torsions:
REMARK  status: ('A' for Active; 'I' for Inactive)
REMARK    1  A    between atoms: N2_2  and  C5_5 
REMARK    2  A    between atoms: C5_5  and  C6_6 
REMARK    3  A    between atoms: C6_6  and  C7_7 
REMARK    4  A    between atoms: C7_7  and  C8_8 
REMARK    5  A    between atoms: C8_8  and  C9_9 
ROOT
ATOM      1  C8  <0> d   1      18.984  -0.756  12.597  0.00  0.00     0.116 C 
ATOM      2  O16 <0> d   1      20.403  -0.781  12.361  0.00  0.00    -0.366 OA
ATOM      3  C17 <0> d   1      20.784   0.602  12.239  0.00  0.00     0.209 C 
ATOM      4  C18 <0> d   1      19.567   1.323  11.707  0.00  0.00    -0.023 A 
ATOM      5  C19 <0> d   1      19.402   2.549  11.103  0.00  0.00     0.032 A 
ATOM      6  C20 <0> d   1      18.126   2.961  10.709  0.00  0.00     0.045 A 
ATOM      7  C21 <0> d   1      17.946   4.234  10.079  0.00  0.00     0.099 C 
ATOM      8  N22 <0> d   1      17.802   5.245   9.579  0.00  0.00    -0.191 NA
ATOM      9  C23 <0> d   1      17.029   2.126  10.929  0.00  0.00     0.023 A 
ATOM     10  C24 <0> d   1      17.210   0.900  11.536  0.00  0.00     0.012 A 
ATOM     11  C25 <0> d   1      18.472   0.498  11.924  0.00  0.00    -0.011 A 
ENDROOT
BRANCH   1  12
ATOM     12  C7  <0> d   1      18.325  -1.991  11.978  0.00  0.00     0.050 C 
BRANCH  12  13
ATOM     13  C6  <0> d   1      18.864  -2.199  10.560  0.00  0.00     0.031 C 
BRANCH  13  14
ATOM     14  C5  <0> d   1      17.888  -3.071   9.768  0.00  0.00     0.234 C 
BRANCH  14  15
ATOM     15  N2  <0> d   1      17.752  -2.539   8.405  0.00  0.00    -0.079 N 
ATOM     16  C1  <0> d   1      17.899  -1.078   8.434  0.00  0.00     0.269 C 
ATOM     17  H3  <0> d   1      16.843  -2.779   8.039  0.00  0.00     0.278 HD
ATOM     18  C4  <0> d   1      18.795  -3.119   7.548  0.00  0.00     0.269 C 
ENDBRANCH  14  15
ENDBRANCH  13  14
ENDBRANCH  12  13
ENDBRANCH   1  12
BRANCH   1  19
ATOM     19  C9  <0> d   1      18.702  -0.704  14.076  0.00  0.00    -0.019 A 
ATOM     20  C15 <0> d   1      17.747   0.166  14.567  0.00  0.00     0.013 A 
ATOM     21  C14 <0> d   1      17.484   0.212  15.923  0.00  0.00     0.043 A 
ATOM     22  C12 <0> d   1      18.186  -0.608  16.791  0.00  0.00     0.116 A 
ATOM     23  C11 <0> d   1      19.146  -1.475  16.299  0.00  0.00     0.043 A 
ATOM     24  F13 <0> d   1      17.934  -0.560  18.118  0.00  0.00    -0.206 F 
ATOM     25  C10 <0> d   1      19.404  -1.522  14.942  0.00  0.00     0.013 A 
ENDBRANCH   1  19
TORSDOF 5
ENDMDL
MODEL 7
REMARK VINA RESULT:      -7.0      2.738      5.358
REMARK  5 active torsions:
REMARK  status: ('A' for Active; 'I' for Inactive)
REMARK    1  A    between atoms: N2_2  and  C5_5 
REMARK    2  A    between atoms: C5_5  and  C6_6 
REMARK    3  A    between atoms: C6_6  and  C7_7 
REMARK    4  A    between atoms: C7_7  and  C8_8 
REMARK    5  A    between atoms: C8_8  and  C9_9 
ROOT
ATOM      1  C8  <0> d   1      18.984  -0.256  10.241  0.00  0.00     0.116 C 
ATOM      2  O16 <0> d   1      17.762  -0.899  10.645  0.00  0.00    -0.366 OA
ATOM      3  C17 <0> d   1      16.842   0.178  10.900  0.00  0.00     0.209 C 
ATOM      4  C18 <0> d   1      17.688   1.357  11.323  0.00  0.00    -0.023 A 
ATOM      5  C19 <0> d   1      17.388   2.530  11.978  0.00  0.00     0.032 A 
ATOM      6  C20 <0> d   1      18.401   3.457  12.239  0.00  0.00     0.045 A 
ATOM      7  C21 <0> d   1      18.097   4.679  12.920  0.00  0.00     0.099 C 
ATOM      8  N22 <0> d   1      17.856   5.649  13.461  0.00  0.00    -0.191 NA
ATOM      9  C23 <0> d   1      19.709   3.186  11.834  0.00  0.00     0.023 A 
ATOM     10  C24 <0> d   1      19.995   2.005  11.179  0.00  0.00     0.012 A 
ATOM     11  C25 <0> d   1      18.990   1.093  10.923  0.00  0.00    -0.011 A 
ENDROOT
BRANCH   1  12
ATOM     12  C7  <0> d   1      20.190  -1.081  10.696  0.00  0.00     0.050 C 
BRANCH  12  13
ATOM     13  C6  <0> d   1      19.781  -1.976  11.869  0.00  0.00     0.031 C 
BRANCH  13  14
ATOM     14  C5  <0> d   1      20.018  -3.441  11.499  0.00  0.00     0.234 C 
BRANCH  14  15
ATOM     15  N2  <0> d   1      18.965  -3.890  10.579  0.00  0.00    -0.079 N 
ATOM     16  C1  <0> d   1      19.495  -4.947   9.707  0.00  0.00     0.269 C 
ATOM     17  H3  <0> d   1      18.655  -3.113  10.015  0.00  0.00     0.278 HD
ATOM     18  C4  <0> d   1      17.832  -4.416  11.353  0.00  0.00     0.269 C 
ENDBRANCH  14  15
ENDBRANCH  13  14
ENDBRANCH  12  13
ENDBRANCH   1  12
BRANCH   1  19
ATOM     19  C9  <0> d   1      19.010  -0.081   8.745  0.00  0.00    -0.019 A 
ATOM     20  C15 <0> d   1      18.969   1.187   8.196  0.00  0.00     0.013 A 
ATOM     21  C14 <0> d   1      18.998   1.349   6.824  0.00  0.00     0.043 A 
ATOM     22  C12 <0> d   1      19.057   0.239   5.998  0.00  0.00     0.116 A 
ATOM     23  C11 <0> d   1      19.092  -1.031   6.548  0.00  0.00     0.043 A 
ATOM     24  F13 <0> d   1      19.079   0.396   4.656  0.00  0.00    -0.206 F 
ATOM     25  C10 <0> d   1      19.068  -1.190   7.920  0.00  0.00     0.013 A 
ENDBRANCH   1  19
TORSDOF 5
ENDMDL
MODEL 8
REMARK VINA RESULT:      -6.8      2.951      3.819
REMARK  5 active torsions:
REMARK  status: ('A' for Active; 'I' for Inactive)
REMARK    1  A    between atoms: N2_2  and  C5_5 
REMARK    2  A    between atoms: C5_5  and  C6_6 
REMARK    3  A    between atoms: C6_6  and  C7_7 
REMARK    4  A    between atoms: C7_7  and  C8_8 
REMARK    5  A    between atoms: C8_8  and  C9_9 
ROOT
ATOM      1  C8  <0> d   1      18.572  -0.775  10.611  0.00  0.00     0.116 C 
ATOM      2  O16 <0> d   1      19.915  -0.463  10.201  0.00  0.00    -0.366 OA
ATOM      3  C17 <0> d   1      20.697  -0.528  11.408  0.00  0.00     0.209 C 
ATOM      4  C18 <0> d   1      19.753  -0.177  12.534  0.00  0.00    -0.023 A 
ATOM      5  C19 <0> d   1      19.964   0.227  13.833  0.00  0.00     0.032 A 
ATOM      6  C20 <0> d   1      18.871   0.486  14.665  0.00  0.00     0.045 A 
ATOM      7  C21 <0> d   1      19.083   0.908  16.017  0.00  0.00     0.099 C 
ATOM      8  N22 <0> d   1      19.250   1.242  17.090  0.00  0.00    -0.191 NA
ATOM      9  C23 <0> d   1      17.574   0.334  14.172  0.00  0.00     0.023 A 
ATOM     10  C24 <0> d   1      17.378  -0.071  12.868  0.00  0.00     0.012 A 
ATOM     11  C25 <0> d   1      18.461  -0.326  12.051  0.00  0.00    -0.011 A 
ENDROOT
BRANCH   1  12
ATOM     12  C7  <0> d   1      17.566  -0.015   9.744  0.00  0.00     0.050 C 
BRANCH  12  13
ATOM     13  C6  <0> d   1      18.140   1.357   9.382  0.00  0.00     0.031 C 
BRANCH  13  14
ATOM     14  C5  <0> d   1      17.597   2.409  10.350  0.00  0.00     0.234 C 
BRANCH  14  15
ATOM     15  N2  <0> d   1      18.513   3.556  10.392  0.00  0.00    -0.079 N 
ATOM     16  C1  <0> d   1      17.745   4.787  10.620  0.00  0.00     0.269 C 
ATOM     17  H3  <0> d   1      19.007   3.625   9.515  0.00  0.00     0.278 HD
ATOM     18  C4  <0> d   1      19.478   3.372  11.484  0.00  0.00     0.269 C 
ENDBRANCH  14  15
ENDBRANCH  13  14
ENDBRANCH  12  13
ENDBRANCH   1  12
BRANCH   1  19
ATOM     19  C9  <0> d   1      18.328  -2.258  10.509  0.00  0.00    -0.019 A 
ATOM     20  C15 <0> d   1      17.716  -2.931  11.550  0.00  0.00     0.013 A 
ATOM     21  C14 <0> d   1      17.487  -4.291  11.456  0.00  0.00     0.043 A 
ATOM     22  C12 <0> d   1      17.881  -4.981  10.322  0.00  0.00     0.116 A 
ATOM     23  C11 <0> d   1      18.498  -4.307   9.283  0.00  0.00     0.043 A 
ATOM     24  F13 <0> d   1      17.663  -6.312  10.231  0.00  0.00    -0.206 F 
ATOM     25  C10 <0> d   1      18.722  -2.947   9.377  0.00  0.00     0.013 A 
ENDBRANCH   1  19
TORSDOF 5
ENDMDL
MODEL 9
REMARK VINA RESULT:      -6.7      2.866      5.433
REMARK  5 active torsions:
REMARK  status: ('A' for Active; 'I' for Inactive)
REMARK    1  A    between atoms: N2_2  and  C5_5 
REMARK    2  A    between atoms: C5_5  and  C6_6 
REMARK    3  A    between atoms: C6_6  and  C7_7 
REMARK    4  A    between atoms: C7_7  and  C8_8 
REMARK    5  A    between atoms: C8_8  and  C9_9 
ROOT
ATOM      1  C8  <0> d   1      18.947   2.618  10.570  0.00  0.00     0.116 C 
ATOM      2  O16 <0> d   1      20.331   2.851  10.888  0.00  0.00    -0.366 OA
ATOM      3  C17 <0> d   1      20.317   3.445  12.199  0.00  0.00     0.209 C 
ATOM      4  C18 <0> d   1      18.998   4.174  12.310  0.00  0.00    -0.023 A 
ATOM      5  C19 <0> d   1      18.549   5.159  13.161  0.00  0.00     0.032 A 
ATOM      6  C20 <0> d   1      17.249   5.653  13.024  0.00  0.00     0.045 A 
ATOM      7  C21 <0> d   1      16.774   6.678  13.904  0.00  0.00     0.099 C 
ATOM      8  N22 <0> d   1      16.397   7.492  14.602  0.00  0.00    -0.191 NA
ATOM      9  C23 <0> d   1      16.416   5.144  12.026  0.00  0.00     0.023 A 
ATOM     10  C24 <0> d   1      16.880   4.157  11.181  0.00  0.00     0.012 A 
ATOM     11  C25 <0> d   1      18.165   3.672  11.320  0.00  0.00    -0.011 A 
ENDROOT
BRANCH   1  12
ATOM     12  C7  <0> d   1      18.719   2.766   9.064  0.00  0.00     0.050 C 
BRANCH  12  13
ATOM     13  C6  <0> d   1      19.601   1.764   8.315  0.00  0.00     0.031 C 
BRANCH  13  14
ATOM     14  C5  <0> d   1      18.853   1.250   7.083  0.00  0.00     0.234 C 
BRANCH  14  15
ATOM     15  N2  <0> d   1      17.876   0.233   7.494  0.00  0.00    -0.079 N 
ATOM     16  C1  <0> d   1      17.037  -0.132   6.344  0.00  0.00     0.269 C 
ATOM     17  H3  <0> d   1      17.294   0.602   8.231  0.00  0.00     0.278 HD
ATOM     18  C4  <0> d   1      18.584  -0.959   7.980  0.00  0.00     0.269 C 
ENDBRANCH  14  15
ENDBRANCH  13  14
ENDBRANCH  12  13
ENDBRANCH   1  12
BRANCH   1  19
ATOM     19  C9  <0> d   1      18.533   1.242  11.024  0.00  0.00    -0.019 A 
ATOM     20  C15 <0> d   1      19.489   0.335  11.441  0.00  0.00     0.013 A 
ATOM     21  C14 <0> d   1      19.110  -0.925  11.863  0.00  0.00     0.043 A 
ATOM     22  C12 <0> d   1      17.772  -1.282  11.858  0.00  0.00     0.116 A 
ATOM     23  C11 <0> d   1      16.816  -0.375  11.435  0.00  0.00     0.043 A 
ATOM     24  F13 <0> d   1      17.401  -2.517  12.265  0.00  0.00    -0.206 F 
ATOM     25  C10 <0> d   1      17.197   0.886  11.019  0.00  0.00     0.013 A 
ENDBRANCH   1  19
TORSDOF 5
ENDMDL
