MODEL 1
REMARK VINA RESULT:      -5.8      0.000      0.000
REMARK  4 active torsions:
REMARK  status: ('A' for Active; 'I' for Inactive)
REMARK    1  A    between atoms: N2_2  and  C5_5 
REMARK    2  A    between atoms: C5_5  and  C8_7 
REMARK    3  A    between atoms: C8_7  and  O10_8 
REMARK    4  A    between atoms: C8_7  and  C11_9 
ROOT
ATOM      1  C8  <0> d   1      20.237  -0.519  10.896  0.00  0.00     0.181 C 
ENDROOT
BRANCH   1   2
ATOM      2  C5  <0> d   1      19.586  -1.883  11.140  0.00  0.00     0.214 C 
ATOM      3  C7  <0> d   1      18.676  -1.801  12.367  0.00  0.00     0.043 C 
BRANCH   2   4
ATOM      4  N2  <0> d   1      20.630  -2.889  11.369  0.00  0.00    -0.072 N 
ATOM      5  C1  <0> d   1      20.027  -4.229  11.369  0.00  0.00     0.267 C 
ATOM      6  H3  <0> d   1      21.071  -2.718  12.261  0.00  0.00     0.277 HD
ATOM      7  H4  <0> d   1      21.321  -2.831  10.635  0.00  0.00     0.277 HD
ENDBRANCH   2   4
ENDBRANCH   1   2
BRANCH   1   8
ATOM      8  O10 <0> d   1      21.657  -0.672  10.847  0.00  0.00    -0.389 OA
ATOM      9  H23 <0> d   1      21.949  -1.528  10.505  0.00  0.00     0.210 HD
ENDBRANCH   1   8
BRANCH   1  10
ATOM     10  C11 <0> d   1      19.746   0.045   9.588  0.00  0.00    -0.028 A 
ATOM     11  C16 <0> d   1      19.540   1.406   9.455  0.00  0.00     0.010 A 
ATOM     12  C15 <0> d   1      19.094   1.923   8.254  0.00  0.00     0.001 A 
ATOM     13  C14 <0> d   1      18.846   1.080   7.186  0.00  0.00     0.000 A 
ATOM     14  C13 <0> d   1      19.049  -0.281   7.321  0.00  0.00     0.001 A 
ATOM     15  C12 <0> d   1      19.498  -0.799   8.521  0.00  0.00     0.010 A 
ENDBRANCH   1  10
TORSDOF 4
ENDMDL
MODEL 2
REMARK VINA RESULT:      -5.7      0.791      1.065
REMARK  4 active torsions:
REMARK  status: ('A' for Active; 'I' for Inactive)
REMARK    1  A    between atoms: N2_2  and  C5_5 
REMARK    2  A    between atoms: C5_5  and  C8_7 
REMARK    3  A    between atoms: C8_7  and  O10_8 
REMARK    4  A    between atoms: C8_7  and  C11_9 
ROOT
ATOM      1  C8  <0> d   1      20.385  -0.458  11.276  0.00  0.00     0.181 C 
ENDROOT
BRANCH   1   2
ATOM      2  C5  <0> d   1      19.644  -1.791  11.150  0.00  0.00     0.214 C 
ATOM      3  C7  <0> d   1      18.565  -1.879  12.231  0.00  0.00     0.043 C 
BRANCH   2   4
ATOM      4  N2  <0> d   1      20.595  -2.898  11.315  0.00  0.00    -0.072 N 
ATOM      5  C1  <0> d   1      19.873  -4.176  11.258  0.00  0.00     0.267 C 
ATOM      6  H3  <0> d   1      21.059  -2.812  12.207  0.00  0.00     0.277 HD
ATOM      7  H4  <0> d   1      21.280  -2.866  10.574  0.00  0.00     0.277 HD
ENDBRANCH   2   4
ENDBRANCH   1   2
BRANCH   1   8
ATOM      8  O10 <0> d   1      21.770  -0.654  10.980  0.00  0.00    -0.389 OA
ATOM      9  H23 <0> d   1      22.360  -0.475  11.724  0.00  0.00     0.210 HD
ENDBRANCH   1   8
BRANCH   1  10
ATOM     10  C11 <0> d   1      19.799   0.536  10.308  0.00  0.00    -0.028 A 
ATOM     11  C16 <0> d   1      19.328   1.753  10.766  0.00  0.00     0.010 A 
ATOM     12  C15 <0> d   1      18.794   2.667   9.877  0.00  0.00     0.001 A 
ATOM     13  C14 <0> d   1      18.724   2.362   8.530  0.00  0.00     0.000 A 
ATOM     14  C13 <0> d   1      19.192   1.144   8.073  0.00  0.00     0.001 A 
ATOM     15  C12 <0> d   1      19.729   0.231   8.961  0.00  0.00     0.010 A 
ENDBRANCH   1  10
TORSDOF 4
ENDMDL
MODEL 3
REMARK VINA RESULT:      -5.4      3.033      5.790
REMARK  4 active torsions:
REMARK  status: ('A' for Active; 'I' for Inactive)
REMARK    1  A    between atoms: N2_2  and  C5_5 
REMARK    2  A    between atoms: C5_5  and  C8_7 
REMARK    3  A    between atoms: C8_7  and  O10_8 
REMARK    4  A    between atoms: C8_7  and  C11_9 
ROOT
ATOM      1  C8  <0> d   1      20.135   0.537  11.960  0.00  0.00     0.181 C 
ENDROOT
BRANCH   1   2
ATOM      2  C5  <0> d   1      19.595   1.869  11.433  0.00  0.00     0.214 C 
ATOM      3  C7  <0> d   1      19.288   1.740   9.940  0.00  0.00     0.043 C 
BRANCH   2   4
ATOM      4  N2  <0> d   1      20.599   2.920  11.638  0.00  0.00    -0.072 N 
ATOM      5  C1  <0> d   1      19.944   4.129  12.155  0.00  0.00     0.267 C 
ATOM      6  H3  <0> d   1      21.049   3.131  10.760  0.00  0.00     0.277 HD
ATOM      7  H4  <0> d   1      21.289   2.602  12.302  0.00  0.00     0.277 HD
ENDBRANCH   2   4
ENDBRANCH   1   2
BRANCH   1   8
ATOM      8  O10 <0> d   1      21.529   0.670  12.247  0.00  0.00    -0.389 OA
ATOM      9  H23 <0> d   1      21.920  -0.108  12.668  0.00  0.00     0.210 HD
ENDBRANCH   1   8
BRANCH   1  10
ATOM     10  C11 <0> d   1      19.397   0.158  13.217  0.00  0.00    -0.028 A 
ATOM     11  C16 <0> d   1      19.718  -1.011  13.882  0.00  0.00     0.010 A 
ATOM     12  C15 <0> d   1      19.043  -1.357  15.037  0.00  0.00     0.001 A 
ATOM     13  C14 <0> d   1      18.041  -0.539  15.525  0.00  0.00     0.000 A 
ATOM     14  C13 <0> d   1      17.718   0.628  14.857  0.00  0.00     0.001 A 
ATOM     15  C12 <0> d   1      18.395   0.976  13.704  0.00  0.00     0.010 A 
ENDBRANCH   1  10
TORSDOF 4
ENDMDL
MODEL 4
REMARK VINA RESULT:      -5.3      1.621      2.334
REMARK  4 active torsions:
REMARK  status: ('A' for Active; 'I' for Inactive)
REMARK    1  A    between atoms: N2_2  and  C5_5 
REMARK    2  A    between atoms: C5_5  and  C8_7 
REMARK    3  A    between atoms: C8_7  and  O10_8 
REMARK    4  A    between atoms: C8_7  and  C11_9 
ROOT
ATOM      1  C8  <0> d   1      20.100   0.432  11.869  0.00  0.00     0.181 C 
ENDROOT
BRANCH   1   2
ATOM      2  C5  <0> d   1      19.405  -0.864  12.292  0.00  0.00     0.214 C 
ATOM      3  C7  <0> d   1      17.930  -0.580  12.583  0.00  0.00     0.043 C 
BRANCH   2   4
ATOM      4  N2  <0> d   1      20.050  -1.395  13.500  0.00  0.00    -0.072 N 
ATOM      5  C1  <0> d   1      19.254  -1.030  14.680  0.00  0.00     0.267 C 
ATOM      6  H3  <0> d   1      20.976  -1.005  13.584  0.00  0.00     0.277 HD
ATOM      7  H4  <0> d   1      20.112  -2.400  13.434  0.00  0.00     0.277 HD
ENDBRANCH   2   4
ENDBRANCH   1   2
BRANCH   1   8
ATOM      8  O10 <0> d   1      21.517   0.255  11.935  0.00  0.00    -0.389 OA
ATOM      9  H23 <0> d   1      21.838  -0.523  11.459  0.00  0.00     0.210 HD
ENDBRANCH   1   8
BRANCH   1  10
ATOM     10  C11 <0> d   1      19.702   0.779  10.458  0.00  0.00    -0.028 A 
ATOM     11  C16 <0> d   1      19.787  -0.174   9.461  0.00  0.00     0.010 A 
ATOM     12  C15 <0> d   1      19.418   0.144   8.167  0.00  0.00     0.001 A 
ATOM     13  C14 <0> d   1      18.970   1.418   7.869  0.00  0.00     0.000 A 
ATOM     14  C13 <0> d   1      18.889   2.372   8.866  0.00  0.00     0.001 A 
ATOM     15  C12 <0> d   1      19.255   2.053  10.160  0.00  0.00     0.010 A 
ENDBRANCH   1  10
TORSDOF 4
ENDMDL
MODEL 5
REMARK VINA RESULT:      -5.2      3.416      4.550
REMARK  4 active torsions:
REMARK  status: ('A' for Active; 'I' for Inactive)
REMARK    1  A    between atoms: N2_2  and  C5_5 
REMARK    2  A    between atoms: C5_5  and  C8_7 
REMARK    3  A    between atoms: C8_7  and  O10_8 
REMARK    4  A    between atoms: C8_7  and  C11_9 
ROOT
ATOM      1  C8  <0> d   1      19.143   2.561  10.082  0.00  0.00     0.181 C 
ENDROOT
BRANCH   1   2
ATOM      2  C5  <0> d   1      17.932   3.124  10.831  0.00  0.00     0.214 C 
ATOM      3  C7  <0> d   1      17.600   4.515  10.290  0.00  0.00     0.043 C 
BRANCH   2   4
ATOM      4  N2  <0> d   1      18.243   3.216  12.264  0.00  0.00    -0.072 N 
ATOM      5  C1  <0> d   1      18.103   4.610  12.706  0.00  0.00     0.267 C 
ATOM      6  H3  <0> d   1      19.189   2.905  12.423  0.00  0.00     0.277 HD
ATOM      7  H4  <0> d   1      17.605   2.632  12.785  0.00  0.00     0.277 HD
ENDBRANCH   2   4
ENDBRANCH   1   2
BRANCH   1   8
ATOM      8  O10 <0> d   1      19.965   1.826  10.992  0.00  0.00    -0.389 OA
ATOM      9  H23 <0> d   1      19.658   1.853  11.908  0.00  0.00     0.210 HD
ENDBRANCH   1   8
BRANCH   1  10
ATOM     10  C11 <0> d   1      18.671   1.648   8.980  0.00  0.00    -0.028 A 
ATOM     11  C16 <0> d   1      17.733   0.668   9.247  0.00  0.00     0.010 A 
ATOM     12  C15 <0> d   1      17.298  -0.167   8.235  0.00  0.00     0.001 A 
ATOM     13  C14 <0> d   1      17.807  -0.028   6.957  0.00  0.00     0.000 A 
ATOM     14  C13 <0> d   1      18.748   0.949   6.692  0.00  0.00     0.001 A 
ATOM     15  C12 <0> d   1      19.181   1.787   7.703  0.00  0.00     0.010 A 
ENDBRANCH   1  10
TORSDOF 4
ENDMDL
MODEL 6
REMARK VINA RESULT:      -5.1      3.358      4.330
REMARK  4 active torsions:
REMARK  status: ('A' for Active; 'I' for Inactive)
REMARK    1  A    between atoms: N2_2  and  C5_5 
REMARK    2  A    between atoms: C5_5  and  C8_7 
REMARK    3  A    between atoms: C8_7  and  O10_8 
REMARK    4  A    between atoms: C8_7  and  C11_9 
ROOT
ATOM      1  C8  <0> d   1      19.318   3.210  11.185  0.00  0.00     0.181 C 
ENDROOT
BRANCH   1   2
ATOM      2  C5  <0> d   1      18.437   3.242  12.436  0.00  0.00     0.214 C 
ATOM      3  C7  <0> d   1      17.649   4.552  12.472  0.00  0.00     0.043 C 
BRANCH   2   4
ATOM      4  N2  <0> d   1      19.284   3.147  13.633  0.00  0.00    -0.072 N 
ATOM      5  C1  <0> d   1      18.813   2.041  14.478  0.00  0.00     0.267 C 
ATOM      6  H3  <0> d   1      19.233   4.012  14.150  0.00  0.00     0.277 HD
ATOM      7  H4  <0> d   1      20.240   2.975  13.356  0.00  0.00     0.277 HD
ENDBRANCH   2   4
ENDBRANCH   1   2
BRANCH   1   8
ATOM      8  O10 <0> d   1      20.659   2.881  11.555  0.00  0.00    -0.389 OA
ATOM      9  H23 <0> d   1      20.804   2.839  12.510  0.00  0.00     0.210 HD
ENDBRANCH   1   8
BRANCH   1  10
ATOM     10  C11 <0> d   1      18.792   2.173  10.227  0.00  0.00    -0.028 A 
ATOM     11  C16 <0> d   1      19.261   2.130   8.927  0.00  0.00     0.010 A 
ATOM     12  C15 <0> d   1      18.781   1.176   8.050  0.00  0.00     0.001 A 
ATOM     13  C14 <0> d   1      17.826   0.269   8.469  0.00  0.00     0.000 A 
ATOM     14  C13 <0> d   1      17.353   0.315   9.768  0.00  0.00     0.001 A 
ATOM     15  C12 <0> d   1      17.836   1.267  10.646  0.00  0.00     0.010 A 
ENDBRANCH   1  10
TORSDOF 4
ENDMDL
MODEL 7
REMARK VINA RESULT:      -5.1      2.097      4.746
REMARK  4 active torsions:
REMARK  status: ('A' for Active; 'I' for Inactive)
REMARK    1  A    between atoms: N2_2  and  C5_5 
REMARK    2  A    between atoms: C5_5  and  C8_7 
REMARK    3  A    between atoms: C8_7  and  O10_8 
REMARK    4  A    between atoms: C8_7  and  C11_9 
ROOT
ATOM      1  C8  <0> d   1      20.302  -1.051  11.075  0.00  0.00     0.181 C 
ENDROOT
BRANCH   1   2
ATOM      2  C5  <0> d   1      19.413  -0.383  10.024  0.00  0.00     0.214 C 
ATOM      3  C7  <0> d   1      18.888  -1.441   9.052  0.00  0.00     0.043 C 
BRANCH   2   4
ATOM      4  N2  <0> d   1      20.197   0.616   9.284  0.00  0.00    -0.072 N 
ATOM      5  C1  <0> d   1      19.289   1.607   8.690  0.00  0.00     0.267 C 
ATOM      6  H3  <0> d   1      20.721   0.158   8.554  0.00  0.00     0.277 HD
ATOM      7  H4  <0> d   1      20.833   1.079   9.916  0.00  0.00     0.277 HD
ENDBRANCH   2   4
ENDBRANCH   1   2
BRANCH   1   8
ATOM      8  O10 <0> d   1      21.638  -0.559  10.951  0.00  0.00    -0.389 OA
ATOM      9  H23 <0> d   1      21.783   0.297  11.378  0.00  0.00     0.210 HD
ENDBRANCH   1   8
BRANCH   1  10
ATOM     10  C11 <0> d   1      19.776  -0.737  12.451  0.00  0.00    -0.028 A 
ATOM     11  C16 <0> d   1      19.961   0.522  12.992  0.00  0.00     0.010 A 
ATOM     12  C15 <0> d   1      19.474   0.812  14.253  0.00  0.00     0.001 A 
ATOM     13  C14 <0> d   1      18.809  -0.160  14.977  0.00  0.00     0.000 A 
ATOM     14  C13 <0> d   1      18.627  -1.420  14.438  0.00  0.00     0.001 A 
ATOM     15  C12 <0> d   1      19.111  -1.709  13.176  0.00  0.00     0.010 A 
ENDBRANCH   1  10
TORSDOF 4
ENDMDL
MODEL 8
REMARK VINA RESULT:      -5.0      1.883      4.422
REMARK  4 active torsions:
REMARK  status: ('A' for Active; 'I' for Inactive)
REMARK    1  A    between atoms: N2_2  and  C5_5 
REMARK    2  A    between atoms: C5_5  and  C8_7 
REMARK    3  A    between atoms: C8_7  and  O10_8 
REMARK    4  A    between atoms: C8_7  and  C11_9 
ROOT
ATOM      1  C8  <0> d   1      20.319  -0.637  10.291  0.00  0.00     0.181 C 
ENDROOT
BRANCH   1   2
ATOM      2  C5  <0> d   1      19.537   0.655  10.537  0.00  0.00     0.214 C 
ATOM      3  C7  <0> d   1      19.335   1.390   9.211  0.00  0.00     0.043 C 
BRANCH   2   4
ATOM      4  N2  <0> d   1      20.288   1.513  11.464  0.00  0.00    -0.072 N 
ATOM      5  C1  <0> d   1      19.382   2.021  12.503  0.00  0.00     0.267 C 
ATOM      6  H3  <0> d   1      20.686   2.288  10.956  0.00  0.00     0.277 HD
ATOM      7  H4  <0> d   1      21.026   0.977  11.895  0.00  0.00     0.277 HD
ENDBRANCH   2   4
ENDBRANCH   1   2
BRANCH   1   8
ATOM      8  O10 <0> d   1      21.579  -0.565  10.961  0.00  0.00    -0.389 OA
ATOM      9  H23 <0> d   1      21.831  -1.383  11.412  0.00  0.00     0.210 HD
ENDBRANCH   1   8
BRANCH   1  10
ATOM     10  C11 <0> d   1      19.533  -1.809  10.821  0.00  0.00    -0.028 A 
ATOM     11  C16 <0> d   1      18.163  -1.711  10.973  0.00  0.00     0.010 A 
ATOM     12  C15 <0> d   1      17.442  -2.787  11.455  0.00  0.00     0.001 A 
ATOM     13  C14 <0> d   1      18.092  -3.959  11.792  0.00  0.00     0.000 A 
ATOM     14  C13 <0> d   1      19.463  -4.056  11.644  0.00  0.00     0.001 A 
ATOM     15  C12 <0> d   1      20.184  -2.981  11.159  0.00  0.00     0.010 A 
ENDBRANCH   1  10
TORSDOF 4
ENDMDL
MODEL 9
REMARK VINA RESULT:      -4.9      3.191      4.218
REMARK  4 active torsions:
REMARK  status: ('A' for Active; 'I' for Inactive)
REMARK    1  A    between atoms: N2_2  and  C5_5 
REMARK    2  A    between atoms: C5_5  and  C8_7 
REMARK    3  A    between atoms: C8_7  and  O10_8 
REMARK    4  A    between atoms: C8_7  and  C11_9 
ROOT
ATOM      1  C8  <0> d   1      19.435   1.908  12.070  0.00  0.00     0.181 C 
ENDROOT
BRANCH   1   2
ATOM      2  C5  <0> d   1      19.127   0.658  11.242  0.00  0.00     0.214 C 
ATOM      3  C7  <0> d   1      18.620  -0.452  12.163  0.00  0.00     0.043 C 
BRANCH   2   4
ATOM      4  N2  <0> d   1      20.348   0.210  10.560  0.00  0.00    -0.072 N 
ATOM      5  C1  <0> d   1      20.006  -0.288   9.220  0.00  0.00     0.267 C 
ATOM      6  H3  <0> d   1      20.779  -0.529  11.094  0.00  0.00     0.277 HD
ATOM      7  H4  <0> d   1      20.991   0.984  10.476  0.00  0.00     0.277 HD
ENDBRANCH   2   4
ENDBRANCH   1   2
BRANCH   1   8
ATOM      8  O10 <0> d   1      20.806   2.272  11.890  0.00  0.00    -0.389 OA
ATOM      9  H23 <0> d   1      21.010   2.610  11.007  0.00  0.00     0.210 HD
ENDBRANCH   1   8
BRANCH   1  10
ATOM     10  C11 <0> d   1      18.550   3.041  11.618  0.00  0.00    -0.028 A 
ATOM     11  C16 <0> d   1      18.567   3.448  10.297  0.00  0.00     0.010 A 
ATOM     12  C15 <0> d   1      17.753   4.484   9.881  0.00  0.00     0.001 A 
ATOM     13  C14 <0> d   1      16.926   5.120  10.789  0.00  0.00     0.000 A 
ATOM     14  C13 <0> d   1      16.912   4.716  12.111  0.00  0.00     0.001 A 
ATOM     15  C12 <0> d   1      17.724   3.677  12.526  0.00  0.00     0.010 A 
ENDBRANCH   1  10
TORSDOF 4
ENDMDL
