MODEL 1
REMARK VINA RESULT:      -3.8      0.000      0.000
REMARK  1 active torsions:
REMARK  status: ('A' for Active; 'I' for Inactive)
REMARK       I    between atoms: N1_1  and  C2_2 
REMARK       I    between atoms: C2_2  and  N4_4 
REMARK    1  A    between atoms: N4_4  and  O5_5 
ROOT
ATOM      1  N1  RES d   1      20.059   1.270  13.698  0.00  0.00    -0.350 N 
ATOM      2  C2  RES d   1      20.322   0.375  12.725  0.00  0.00     0.337 C 
ATOM      3  O3  RES d   1      19.517  -0.500  12.469  0.00  0.00    -0.245 OA
ATOM      4  N4  RES d   1      21.478   0.449  12.035  0.00  0.00    -0.219 N 
ATOM      5  H6  RES d   1      19.228   1.216  14.194  0.00  0.00     0.160 HD
ATOM      6  H7  RES d   1      20.703   1.965  13.904  0.00  0.00     0.160 HD
ATOM      7  H8  RES d   1      22.119   1.148  12.238  0.00  0.00     0.199 HD
ENDROOT
BRANCH   4   8
ATOM      8  O5  RES d   1      21.754  -0.490  11.012  0.00  0.00    -0.286 OA
ATOM      9  H9  RES d   1      21.122  -0.471  10.280  0.00  0.00     0.244 HD
ENDBRANCH   4   8
TORSDOF 1
ENDMDL
MODEL 2
REMARK VINA RESULT:      -3.8      2.248      2.763
REMARK  1 active torsions:
REMARK  status: ('A' for Active; 'I' for Inactive)
REMARK       I    between atoms: N1_1  and  C2_2 
REMARK       I    between atoms: C2_2  and  N4_4 
REMARK    1  A    between atoms: N4_4  and  O5_5 
ROOT
ATOM      1  N1  RES d   1      20.069  -1.355   9.466  0.00  0.00    -0.350 N 
ATOM      2  C2  RES d   1      20.301  -0.456  10.443  0.00  0.00     0.337 C 
ATOM      3  O3  RES d   1      19.429   0.328  10.767  0.00  0.00    -0.245 OA
ATOM      4  N4  RES d   1      21.498  -0.425  11.062  0.00  0.00    -0.219 N 
ATOM      5  H6  RES d   1      19.208  -1.376   9.021  0.00  0.00     0.160 HD
ATOM      6  H7  RES d   1      20.766  -1.977   9.206  0.00  0.00     0.160 HD
ATOM      7  H8  RES d   1      22.192  -1.051  10.804  0.00  0.00     0.199 HD
ENDROOT
BRANCH   4   8
ATOM      8  O5  RES d   1      21.741   0.519  12.089  0.00  0.00    -0.286 OA
ATOM      9  H9  RES d   1      21.563   0.186  12.979  0.00  0.00     0.244 HD
ENDBRANCH   4   8
TORSDOF 1
ENDMDL
MODEL 3
REMARK VINA RESULT:      -3.3      1.698      2.601
REMARK  1 active torsions:
REMARK  status: ('A' for Active; 'I' for Inactive)
REMARK       I    between atoms: N1_1  and  C2_2 
REMARK       I    between atoms: C2_2  and  N4_4 
REMARK    1  A    between atoms: N4_4  and  O5_5 
ROOT
ATOM      1  N1  RES d   1      21.455  -0.312  11.208  0.00  0.00    -0.350 N 
ATOM      2  C2  RES d   1      20.686   0.470  11.993  0.00  0.00     0.337 C 
ATOM      3  O3  RES d   1      19.938   1.287  11.492  0.00  0.00    -0.245 OA
ATOM      4  N4  RES d   1      20.747   0.345  13.334  0.00  0.00    -0.219 N 
ATOM      5  H6  RES d   1      21.411  -0.222  10.243  0.00  0.00     0.160 HD
ATOM      6  H7  RES d   1      22.054  -0.961  11.609  0.00  0.00     0.160 HD
ATOM      7  H8  RES d   1      21.343  -0.307  13.733  0.00  0.00     0.199 HD
ENDROOT
BRANCH   4   8
ATOM      8  O5  RES d   1      19.939   1.166  14.158  0.00  0.00    -0.286 OA
ATOM      9  H9  RES d   1      19.603   0.720  14.948  0.00  0.00     0.244 HD
ENDBRANCH   4   8
TORSDOF 1
ENDMDL
MODEL 4
REMARK VINA RESULT:      -2.8      5.696      5.999
REMARK  1 active torsions:
REMARK  status: ('A' for Active; 'I' for Inactive)
REMARK       I    between atoms: N1_1  and  C2_2 
REMARK       I    between atoms: C2_2  and  N4_4 
REMARK    1  A    between atoms: N4_4  and  O5_5 
ROOT
ATOM      1  N1  RES d   1      17.762   1.582  17.808  0.00  0.00    -0.350 N 
ATOM      2  C2  RES d   1      18.955   2.204  17.721  0.00  0.00     0.337 C 
ATOM      3  O3  RES d   1      19.802   2.018  18.573  0.00  0.00    -0.245 OA
ATOM      4  N4  RES d   1      19.209   3.033  16.689  0.00  0.00    -0.219 N 
ATOM      5  H6  RES d   1      17.580   0.985  18.550  0.00  0.00     0.160 HD
ATOM      6  H7  RES d   1      17.086   1.733  17.129  0.00  0.00     0.160 HD
ATOM      7  H8  RES d   1      18.534   3.181  16.009  0.00  0.00     0.199 HD
ENDROOT
BRANCH   4   8
ATOM      8  O5  RES d   1      20.462   3.687  16.597  0.00  0.00    -0.286 OA
ATOM      9  H9  RES d   1      20.757   4.089  17.425  0.00  0.00     0.244 HD
ENDBRANCH   4   8
TORSDOF 1
ENDMDL
MODEL 5
REMARK VINA RESULT:      -2.8      6.975      7.189
REMARK  1 active torsions:
REMARK  status: ('A' for Active; 'I' for Inactive)
REMARK       I    between atoms: N1_1  and  C2_2 
REMARK       I    between atoms: C2_2  and  N4_4 
REMARK    1  A    between atoms: N4_4  and  O5_5 
ROOT
ATOM      1  N1  RES d   1      18.172  -2.723   7.168  0.00  0.00    -0.350 N 
ATOM      2  C2  RES d   1      19.099  -2.425   6.235  0.00  0.00     0.337 C 
ATOM      3  O3  RES d   1      20.000  -3.208   6.001  0.00  0.00    -0.245 OA
ATOM      4  N4  RES d   1      19.028  -1.260   5.562  0.00  0.00    -0.219 N 
ATOM      5  H6  RES d   1      18.223  -3.562   7.652  0.00  0.00     0.160 HD
ATOM      6  H7  RES d   1      17.456  -2.097   7.357  0.00  0.00     0.160 HD
ATOM      7  H8  RES d   1      18.309  -0.636   5.749  0.00  0.00     0.199 HD
ENDROOT
BRANCH   4   8
ATOM      8  O5  RES d   1      20.001  -0.947   4.583  0.00  0.00    -0.286 OA
ATOM      9  H9  RES d   1      19.697  -0.320   3.912  0.00  0.00     0.244 HD
ENDBRANCH   4   8
TORSDOF 1
ENDMDL
MODEL 6
REMARK VINA RESULT:      -2.8      5.739      6.387
REMARK  1 active torsions:
REMARK  status: ('A' for Active; 'I' for Inactive)
REMARK       I    between atoms: N1_1  and  C2_2 
REMARK       I    between atoms: C2_2  and  N4_4 
REMARK    1  A    between atoms: N4_4  and  O5_5 
ROOT
ATOM      1  N1  RES d   1      16.895   0.485  17.316  0.00  0.00    -0.350 N 
ATOM      2  C2  RES d   1      18.134   0.940  17.591  0.00  0.00     0.337 C 
ATOM      3  O3  RES d   1      19.053   0.695  16.833  0.00  0.00    -0.245 OA
ATOM      4  N4  RES d   1      18.354   1.665  18.705  0.00  0.00    -0.219 N 
ATOM      5  H6  RES d   1      16.736  -0.037  16.514  0.00  0.00     0.160 HD
ATOM      6  H7  RES d   1      16.162   0.678  17.922  0.00  0.00     0.160 HD
ATOM      7  H8  RES d   1      17.620   1.860  19.309  0.00  0.00     0.199 HD
ENDROOT
BRANCH   4   8
ATOM      8  O5  RES d   1      19.655   2.143  18.994  0.00  0.00    -0.286 OA
ATOM      9  H9  RES d   1      20.290   2.012  18.277  0.00  0.00     0.244 HD
ENDBRANCH   4   8
TORSDOF 1
ENDMDL
MODEL 7
REMARK VINA RESULT:      -2.7      6.475      6.590
REMARK  1 active torsions:
REMARK  status: ('A' for Active; 'I' for Inactive)
REMARK       I    between atoms: N1_1  and  C2_2 
REMARK       I    between atoms: C2_2  and  N4_4 
REMARK    1  A    between atoms: N4_4  and  O5_5 
ROOT
ATOM      1  N1  RES d   1      18.840   4.653  16.235  0.00  0.00    -0.350 N 
ATOM      2  C2  RES d   1      19.926   5.439  16.090  0.00  0.00     0.337 C 
ATOM      3  O3  RES d   1      19.808   6.649  16.112  0.00  0.00    -0.245 OA
ATOM      4  N4  RES d   1      21.142   4.883  15.921  0.00  0.00    -0.219 N 
ATOM      5  H6  RES d   1      17.965   5.053  16.356  0.00  0.00     0.160 HD
ATOM      6  H7  RES d   1      18.934   3.688  16.214  0.00  0.00     0.160 HD
ATOM      7  H8  RES d   1      21.236   3.918  15.904  0.00  0.00     0.199 HD
ENDROOT
BRANCH   4   8
ATOM      8  O5  RES d   1      22.283   5.709  15.769  0.00  0.00    -0.286 OA
ATOM      9  H9  RES d   1      22.166   6.428  15.134  0.00  0.00     0.244 HD
ENDBRANCH   4   8
TORSDOF 1
ENDMDL
MODEL 8
REMARK VINA RESULT:      -2.6      2.754      2.800
REMARK  1 active torsions:
REMARK  status: ('A' for Active; 'I' for Inactive)
REMARK       I    between atoms: N1_1  and  C2_2 
REMARK       I    between atoms: C2_2  and  N4_4 
REMARK    1  A    between atoms: N4_4  and  O5_5 
ROOT
ATOM      1  N1  RES d   1      19.308   0.181  11.570  0.00  0.00    -0.350 N 
ATOM      2  C2  RES d   1      19.652   1.460  11.319  0.00  0.00     0.337 C 
ATOM      3  O3  RES d   1      18.986   2.130  10.554  0.00  0.00    -0.245 OA
ATOM      4  N4  RES d   1      20.736   1.996  11.915  0.00  0.00    -0.219 N 
ATOM      5  H6  RES d   1      18.528  -0.204  11.141  0.00  0.00     0.160 HD
ATOM      6  H7  RES d   1      19.842  -0.354  12.178  0.00  0.00     0.160 HD
ATOM      7  H8  RES d   1      21.267   1.461  12.526  0.00  0.00     0.199 HD
ENDROOT
BRANCH   4   8
ATOM      8  O5  RES d   1      21.098   3.339  11.652  0.00  0.00    -0.286 OA
ATOM      9  H9  RES d   1      21.131   3.560  10.711  0.00  0.00     0.244 HD
ENDBRANCH   4   8
TORSDOF 1
ENDMDL
MODEL 9
REMARK VINA RESULT:      -2.6      6.108      6.313
REMARK  1 active torsions:
REMARK  status: ('A' for Active; 'I' for Inactive)
REMARK       I    between atoms: N1_1  and  C2_2 
REMARK       I    between atoms: C2_2  and  N4_4 
REMARK    1  A    between atoms: N4_4  and  O5_5 
ROOT
ATOM      1  N1  RES d   1      19.731   3.682  17.103  0.00  0.00    -0.350 N 
ATOM      2  C2  RES d   1      19.136   2.602  17.648  0.00  0.00     0.337 C 
ATOM      3  O3  RES d   1      19.629   2.062  18.620  0.00  0.00    -0.245 OA
ATOM      4  N4  RES d   1      17.995   2.121  17.117  0.00  0.00    -0.219 N 
ATOM      5  H6  RES d   1      20.552   4.028  17.486  0.00  0.00     0.160 HD
ATOM      6  H7  RES d   1      19.338   4.110  16.326  0.00  0.00     0.160 HD
ATOM      7  H8  RES d   1      17.601   2.552  16.342  0.00  0.00     0.199 HD
ENDROOT
BRANCH   4   8
ATOM      8  O5  RES d   1      17.369   0.986  17.690  0.00  0.00    -0.286 OA
ATOM      9  H9  RES d   1      17.306   0.228  17.092  0.00  0.00     0.244 HD
ENDBRANCH   4   8
TORSDOF 1
ENDMDL
