MODEL 1
REMARK VINA RESULT:      -8.8      0.000      0.000
REMARK  2 active torsions:
REMARK  status: ('A' for Active; 'I' for Inactive)
REMARK    1  A    between atoms: C2_2  and  O3_3 
REMARK    2  A    between atoms: C22_20  and  O24_21 
ROOT
ATOM      1  C1  ZIN A   1      17.553   4.257  14.051  0.00  0.00     0.046 C 
ATOM      2  C2  ZIN A   1      18.377   4.345  12.765  0.00  0.00     0.062 C 
ATOM      3  C4  ZIN A   1      17.476   4.770  11.579  0.00  0.00     0.038 C 
ATOM      4  C5  ZIN A   1      17.462   3.572  10.590  0.00  0.00     0.009 C 
ATOM      5  C6  ZIN A   1      17.800   2.379  11.491  0.00  0.00     0.004 C 
ATOM      6  C8  ZIN A   1      18.366   1.159  10.786  0.00  0.00     0.034 C 
ATOM      7  C10 ZIN A   1      17.315   0.579   9.835  0.00  0.00     0.013 C 
ATOM      8  C11 ZIN A   1      17.921  -0.607   9.080  0.00  0.00     0.036 C 
ATOM      9  C12 ZIN A   1      18.453  -1.608  10.090  0.00  0.00    -0.065 C 
ATOM     10  C13 ZIN A   1      18.118  -2.888   9.929  0.00  0.00     0.053 C 
ATOM     11  C14 ZIN A   1      18.616  -3.902  10.864  0.00  0.00     0.149 C 
ATOM     12  O15 ZIN A   1      18.064  -4.974  10.998  0.00  0.00    -0.293 OA
ATOM     13  C16 ZIN A   1      19.858  -3.539  11.656  0.00  0.00     0.084 C 
ATOM     14  C17 ZIN A   1      19.624  -2.157  12.265  0.00  0.00     0.025 C 
ATOM     15  C18 ZIN A   1      19.329  -1.116  11.200  0.00  0.00     0.019 C 
ATOM     16  C19 ZIN A   1      20.661  -0.672  10.591  0.00  0.00     0.023 C 
ATOM     17  C20 ZIN A   1      18.713   0.122  11.863  0.00  0.00     0.144 C 
ATOM     18  F21 ZIN A   1      17.533  -0.253  12.514  0.00  0.00    -0.239 F 
ATOM     19  C22 ZIN A   1      19.688   0.669  12.902  0.00  0.00     0.160 C 
ATOM     20  C25 ZIN A   1      19.181   1.982  13.519  0.00  0.00     0.047 C 
ATOM     21  C26 ZIN A   1      18.920   2.971  12.389  0.00  0.00    -0.007 C 
ATOM     22  C27 ZIN A   1      20.175   3.117  11.527  0.00  0.00     0.019 C 
ENDROOT
BRANCH   2  23
ATOM     23  O3  ZIN A   1      19.450   5.274  12.929  0.00  0.00    -0.389 OA
ATOM     24  H31 ZIN A   1      19.757   5.364  13.842  0.00  0.00     0.210 HD
ENDBRANCH   2  23
BRANCH  19  25
ATOM     25  O24 ZIN A   1      20.951   0.906  12.278  0.00  0.00    -0.392 OA
ATOM     26  H48 ZIN A   1      21.544   1.471  12.791  0.00  0.00     0.210 HD
ENDBRANCH  19  25
TORSDOF 2
ENDMDL
MODEL 2
REMARK VINA RESULT:      -8.8      2.834      4.708
REMARK  2 active torsions:
REMARK  status: ('A' for Active; 'I' for Inactive)
REMARK    1  A    between atoms: C2_2  and  O3_3 
REMARK    2  A    between atoms: C22_20  and  O24_21 
ROOT
ATOM      1  C1  ZIN A   1      20.286   0.421  13.977  0.00  0.00     0.046 C 
ATOM      2  C2  ZIN A   1      18.873  -0.113  13.738  0.00  0.00     0.062 C 
ATOM      3  C4  ZIN A   1      18.806  -1.623  14.075  0.00  0.00     0.038 C 
ATOM      4  C5  ZIN A   1      18.491  -2.356  12.742  0.00  0.00     0.009 C 
ATOM      5  C6  ZIN A   1      18.995  -1.369  11.682  0.00  0.00     0.004 C 
ATOM      6  C8  ZIN A   1      18.393  -1.525  10.297  0.00  0.00     0.034 C 
ATOM      7  C10 ZIN A   1      18.789  -2.885   9.711  0.00  0.00     0.013 C 
ATOM      8  C11 ZIN A   1      18.119  -3.057   8.346  0.00  0.00     0.036 C 
ATOM      9  C12 ZIN A   1      18.494  -1.879   7.465  0.00  0.00    -0.065 C 
ATOM     10  C13 ZIN A   1      18.929  -2.140   6.233  0.00  0.00     0.053 C 
ATOM     11  C14 ZIN A   1      19.290  -1.040   5.332  0.00  0.00     0.149 C 
ATOM     12  O15 ZIN A   1      20.025  -1.208   4.381  0.00  0.00    -0.293 OA
ATOM     13  C16 ZIN A   1      18.697   0.318   5.652  0.00  0.00     0.084 C 
ATOM     14  C17 ZIN A   1      18.948   0.589   7.135  0.00  0.00     0.025 C 
ATOM     15  C18 ZIN A   1      18.346  -0.494   8.014  0.00  0.00     0.019 C 
ATOM     16  C19 ZIN A   1      16.852  -0.201   8.168  0.00  0.00     0.023 C 
ATOM     17  C20 ZIN A   1      18.960  -0.402   9.416  0.00  0.00     0.144 C 
ATOM     18  F21 ZIN A   1      20.345  -0.573   9.318  0.00  0.00    -0.239 F 
ATOM     19  C22 ZIN A   1      18.682   0.982   9.994  0.00  0.00     0.160 C 
ATOM     20  C25 ZIN A   1      19.167   1.099  11.448  0.00  0.00     0.047 C 
ATOM     21  C26 ZIN A   1      18.512  -0.012  12.259  0.00  0.00    -0.007 C 
ATOM     22  C27 ZIN A   1      16.993   0.049  12.091  0.00  0.00     0.019 C 
ENDROOT
BRANCH   2  23
ATOM     23  O3  ZIN A   1      17.930   0.614  14.529  0.00  0.00    -0.389 OA
ATOM     24  H31 ZIN A   1      17.579   0.116  15.280  0.00  0.00     0.210 HD
ENDBRANCH   2  23
BRANCH  19  25
ATOM     25  O24 ZIN A   1      17.276   1.232   9.952  0.00  0.00    -0.392 OA
ATOM     26  H48 ZIN A   1      17.020   2.099  10.295  0.00  0.00     0.210 HD
ENDBRANCH  19  25
TORSDOF 2
ENDMDL
MODEL 3
REMARK VINA RESULT:      -8.7      1.978      6.643
REMARK  2 active torsions:
REMARK  status: ('A' for Active; 'I' for Inactive)
REMARK    1  A    between atoms: C2_2  and  O3_3 
REMARK    2  A    between atoms: C22_20  and  O24_21 
ROOT
ATOM      1  C1  ZIN A   1      16.552  -5.383   8.828  0.00  0.00     0.046 C 
ATOM      2  C2  ZIN A   1      17.770  -5.259   9.745  0.00  0.00     0.062 C 
ATOM      3  C4  ZIN A   1      17.385  -5.621  11.200  0.00  0.00     0.038 C 
ATOM      4  C5  ZIN A   1      17.571  -4.325  12.037  0.00  0.00     0.009 C 
ATOM      5  C6  ZIN A   1      17.440  -3.217  10.986  0.00  0.00     0.004 C 
ATOM      6  C8  ZIN A   1      18.067  -1.883  11.352  0.00  0.00     0.034 C 
ATOM      7  C10 ZIN A   1      17.345  -1.288  12.565  0.00  0.00     0.013 C 
ATOM      8  C11 ZIN A   1      18.031   0.020  12.965  0.00  0.00     0.036 C 
ATOM      9  C12 ZIN A   1      18.065   0.943  11.760  0.00  0.00    -0.065 C 
ATOM     10  C13 ZIN A   1      17.660   2.200  11.931  0.00  0.00     0.053 C 
ATOM     11  C14 ZIN A   1      17.686   3.141  10.806  0.00  0.00     0.149 C 
ATOM     12  O15 ZIN A   1      17.001   4.142  10.794  0.00  0.00    -0.293 OA
ATOM     13  C16 ZIN A   1      18.615   2.795   9.658  0.00  0.00     0.084 C 
ATOM     14  C17 ZIN A   1      18.349   1.340   9.277  0.00  0.00     0.025 C 
ATOM     15  C18 ZIN A   1      18.560   0.403  10.454  0.00  0.00     0.019 C 
ATOM     16  C19 ZIN A   1      20.061   0.141  10.587  0.00  0.00     0.023 C 
ATOM     17  C20 ZIN A   1      17.902  -0.947  10.146  0.00  0.00     0.144 C 
ATOM     18  F21 ZIN A   1      16.535  -0.747   9.925  0.00  0.00    -0.239 F 
ATOM     19  C22 ZIN A   1      18.519  -1.525   8.876  0.00  0.00     0.160 C 
ATOM     20  C25 ZIN A   1      17.988  -2.937   8.578  0.00  0.00     0.047 C 
ATOM     21  C26 ZIN A   1      18.246  -3.811   9.800  0.00  0.00    -0.007 C 
ATOM     22  C27 ZIN A   1      19.728  -3.756  10.173  0.00  0.00     0.019 C 
ENDROOT
BRANCH   2  23
ATOM     23  O3  ZIN A   1      18.823  -6.109   9.284  0.00  0.00    -0.389 OA
ATOM     24  H31 ZIN A   1      19.435  -5.680   8.670  0.00  0.00     0.210 HD
ENDBRANCH   2  23
BRANCH  19  25
ATOM     25  O24 ZIN A   1      19.937  -1.586   9.032  0.00  0.00    -0.392 OA
ATOM     26  H48 ZIN A   1      20.227  -1.761   9.938  0.00  0.00     0.210 HD
ENDBRANCH  19  25
TORSDOF 2
ENDMDL
MODEL 4
REMARK VINA RESULT:      -8.5      2.838      5.331
REMARK  2 active torsions:
REMARK  status: ('A' for Active; 'I' for Inactive)
REMARK    1  A    between atoms: C2_2  and  O3_3 
REMARK    2  A    between atoms: C22_20  and  O24_21 
ROOT
ATOM      1  C1  ZIN A   1      20.304  -0.131   8.857  0.00  0.00     0.046 C 
ATOM      2  C2  ZIN A   1      18.920   0.462   9.123  0.00  0.00     0.062 C 
ATOM      3  C4  ZIN A   1      18.938   1.992   8.889  0.00  0.00     0.038 C 
ATOM      4  C5  ZIN A   1      18.651   2.650  10.267  0.00  0.00     0.009 C 
ATOM      5  C6  ZIN A   1      19.091   1.569  11.260  0.00  0.00     0.004 C 
ATOM      6  C8  ZIN A   1      18.486   1.664  12.649  0.00  0.00     0.034 C 
ATOM      7  C10 ZIN A   1      18.949   2.957  13.328  0.00  0.00     0.013 C 
ATOM      8  C11 ZIN A   1      18.278   3.074  14.698  0.00  0.00     0.036 C 
ATOM      9  C12 ZIN A   1      18.580   1.820  15.499  0.00  0.00    -0.065 C 
ATOM     10  C13 ZIN A   1      19.017   1.974  16.748  0.00  0.00     0.053 C 
ATOM     11  C14 ZIN A   1      19.311   0.798  17.575  0.00  0.00     0.149 C 
ATOM     12  O15 ZIN A   1      20.044   0.862  18.539  0.00  0.00    -0.293 OA
ATOM     13  C16 ZIN A   1      18.647  -0.501  17.160  0.00  0.00     0.084 C 
ATOM     14  C17 ZIN A   1      18.897  -0.685  15.664  0.00  0.00     0.025 C 
ATOM     15  C18 ZIN A   1      18.362   0.485  14.857  0.00  0.00     0.019 C 
ATOM     16  C19 ZIN A   1      16.856   0.286  14.676  0.00  0.00     0.023 C 
ATOM     17  C20 ZIN A   1      18.983   0.455  13.455  0.00  0.00     0.144 C 
ATOM     18  F21 ZIN A   1      20.374   0.543  13.573  0.00  0.00    -0.239 F 
ATOM     19  C22 ZIN A   1      18.636  -0.871  12.784  0.00  0.00     0.160 C 
ATOM     20  C25 ZIN A   1      19.127  -0.916  11.328  0.00  0.00     0.047 C 
ATOM     21  C26 ZIN A   1      18.540   0.282  10.590  0.00  0.00    -0.007 C 
ATOM     22  C27 ZIN A   1      17.019   0.293  10.746  0.00  0.00     0.019 C 
ENDROOT
BRANCH   2  23
ATOM     23  O3  ZIN A   1      17.947  -0.158   8.280  0.00  0.00    -0.389 OA
ATOM     24  H31 ZIN A   1      17.963   0.154   7.364  0.00  0.00     0.210 HD
ENDBRANCH   2  23
BRANCH  19  25
ATOM     25  O24 ZIN A   1      17.218  -1.045  12.801  0.00  0.00    -0.392 OA
ATOM     26  H48 ZIN A   1      16.934  -1.932  13.063  0.00  0.00     0.210 HD
ENDBRANCH  19  25
TORSDOF 2
ENDMDL
MODEL 5
REMARK VINA RESULT:      -8.5      2.426      5.193
REMARK  2 active torsions:
REMARK  status: ('A' for Active; 'I' for Inactive)
REMARK    1  A    between atoms: C2_2  and  O3_3 
REMARK    2  A    between atoms: C22_20  and  O24_21 
ROOT
ATOM      1  C1  ZIN A   1      16.865  -0.150   6.921  0.00  0.00     0.046 C 
ATOM      2  C2  ZIN A   1      18.291  -0.569   7.283  0.00  0.00     0.062 C 
ATOM      3  C4  ZIN A   1      18.425  -2.111   7.235  0.00  0.00     0.038 C 
ATOM      4  C5  ZIN A   1      18.730  -2.570   8.687  0.00  0.00     0.009 C 
ATOM      5  C6  ZIN A   1      18.159  -1.427   9.534  0.00  0.00     0.004 C 
ATOM      6  C8  ZIN A   1      18.728  -1.298  10.936  0.00  0.00     0.034 C 
ATOM      7  C10 ZIN A   1      18.369  -2.541  11.756  0.00  0.00     0.013 C 
ATOM      8  C11 ZIN A   1      19.006  -2.429  13.143  0.00  0.00     0.036 C 
ATOM      9  C12 ZIN A   1      18.562  -1.125  13.781  0.00  0.00    -0.065 C 
ATOM     10  C13 ZIN A   1      18.103  -1.172  15.032  0.00  0.00     0.053 C 
ATOM     11  C14 ZIN A   1      17.674   0.058  15.704  0.00  0.00     0.149 C 
ATOM     12  O15 ZIN A   1      16.921   0.038  16.655  0.00  0.00    -0.293 OA
ATOM     13  C16 ZIN A   1      18.224   1.358  15.149  0.00  0.00     0.084 C 
ATOM     14  C17 ZIN A   1      18.004   1.339  13.637  0.00  0.00     0.025 C 
ATOM     15  C18 ZIN A   1      18.672   0.139  12.988  0.00  0.00     0.019 C 
ATOM     16  C19 ZIN A   1      20.157   0.462  12.812  0.00  0.00     0.023 C 
ATOM     17  C20 ZIN A   1      18.094  -0.057  11.581  0.00  0.00     0.144 C 
ATOM     18  F21 ZIN A   1      16.714  -0.266  11.681  0.00  0.00    -0.239 F 
ATOM     19  C22 ZIN A   1      18.335   1.208  10.761  0.00  0.00     0.160 C 
ATOM     20  C25 ZIN A   1      17.886   1.032   9.301  0.00  0.00     0.047 C 
ATOM     21  C26 ZIN A   1      18.606  -0.181   8.724  0.00  0.00    -0.007 C 
ATOM     22  C27 ZIN A   1      20.116  -0.025   8.910  0.00  0.00     0.019 C 
ENDROOT
BRANCH   2  23
ATOM     23  O3  ZIN A   1      19.226   0.039   6.390  0.00  0.00    -0.389 OA
ATOM     24  H31 ZIN A   1      19.639  -0.580   5.772  0.00  0.00     0.210 HD
ENDBRANCH   2  23
BRANCH  19  25
ATOM     25  O24 ZIN A   1      19.728   1.521  10.785  0.00  0.00    -0.392 OA
ATOM     26  H48 ZIN A   1      20.048   1.829  11.644  0.00  0.00     0.210 HD
ENDBRANCH  19  25
TORSDOF 2
ENDMDL
MODEL 6
REMARK VINA RESULT:      -8.4      2.361      3.652
REMARK  2 active torsions:
REMARK  status: ('A' for Active; 'I' for Inactive)
REMARK    1  A    between atoms: C2_2  and  O3_3 
REMARK    2  A    between atoms: C22_20  and  O24_21 
ROOT
ATOM      1  C1  ZIN A   1      17.002   0.240  15.441  0.00  0.00     0.046 C 
ATOM      2  C2  ZIN A   1      18.396   0.742  15.060  0.00  0.00     0.062 C 
ATOM      3  C4  ZIN A   1      18.415   2.290  15.019  0.00  0.00     0.038 C 
ATOM      4  C5  ZIN A   1      18.698   2.684  13.543  0.00  0.00     0.009 C 
ATOM      5  C6  ZIN A   1      18.220   1.455  12.762  0.00  0.00     0.004 C 
ATOM      6  C8  ZIN A   1      18.807   1.287  11.372  0.00  0.00     0.034 C 
ATOM      7  C10 ZIN A   1      18.364   2.450  10.479  0.00  0.00     0.013 C 
ATOM      8  C11 ZIN A   1      19.019   2.305   9.104  0.00  0.00     0.036 C 
ATOM      9  C12 ZIN A   1      18.677   0.937   8.541  0.00  0.00    -0.065 C 
ATOM     10  C13 ZIN A   1      18.226   0.877   7.289  0.00  0.00     0.053 C 
ATOM     11  C14 ZIN A   1      17.895  -0.419   6.688  0.00  0.00     0.149 C 
ATOM     12  O15 ZIN A   1      17.150  -0.510   5.735  0.00  0.00    -0.293 OA
ATOM     13  C16 ZIN A   1      18.534  -1.640   7.320  0.00  0.00     0.084 C 
ATOM     14  C17 ZIN A   1      18.301  -1.549   8.828  0.00  0.00     0.025 C 
ATOM     15  C18 ZIN A   1      18.873  -0.268   9.409  0.00  0.00     0.019 C 
ATOM     16  C19 ZIN A   1      20.377  -0.469   9.608  0.00  0.00     0.023 C 
ATOM     17  C20 ZIN A   1      18.272  -0.033  10.799  0.00  0.00     0.144 C 
ATOM     18  F21 ZIN A   1      16.881   0.067  10.682  0.00  0.00    -0.239 F 
ATOM     19  C22 ZIN A   1      18.598  -1.227  11.693  0.00  0.00     0.160 C 
ATOM     20  C25 ZIN A   1      18.127  -1.000  13.138  0.00  0.00     0.047 C 
ATOM     21  C26 ZIN A   1      18.751   0.295  13.645  0.00  0.00    -0.007 C 
ATOM     22  C27 ZIN A   1      20.270   0.240  13.475  0.00  0.00     0.019 C 
ENDROOT
BRANCH   2  23
ATOM     23  O3  ZIN A   1      19.366   0.258  15.991  0.00  0.00    -0.389 OA
ATOM     24  H31 ZIN A   1      20.279   0.316  15.674  0.00  0.00     0.210 HD
ENDBRANCH   2  23
BRANCH  19  25
ATOM     25  O24 ZIN A   1      20.011  -1.437  11.693  0.00  0.00    -0.392 OA
ATOM     26  H48 ZIN A   1      20.409  -1.440  12.575  0.00  0.00     0.210 HD
ENDBRANCH  19  25
TORSDOF 2
ENDMDL
MODEL 7
REMARK VINA RESULT:      -8.4      1.393      6.246
REMARK  2 active torsions:
REMARK  status: ('A' for Active; 'I' for Inactive)
REMARK    1  A    between atoms: C2_2  and  O3_3 
REMARK    2  A    between atoms: C22_20  and  O24_21 
ROOT
ATOM      1  C1  ZIN A   1      17.602  -3.338  10.283  0.00  0.00     0.046 C 
ATOM      2  C2  ZIN A   1      18.965  -2.853  10.776  0.00  0.00     0.062 C 
ATOM      3  C4  ZIN A   1      19.206  -3.319  12.233  0.00  0.00     0.038 C 
ATOM      4  C5  ZIN A   1      19.281  -2.030  13.098  0.00  0.00     0.009 C 
ATOM      5  C6  ZIN A   1      18.497  -1.011  12.263  0.00  0.00     0.004 C 
ATOM      6  C8  ZIN A   1      18.801   0.449  12.548  0.00  0.00     0.034 C 
ATOM      7  C10 ZIN A   1      18.385   0.792  13.982  0.00  0.00     0.013 C 
ATOM      8  C11 ZIN A   1      18.760   2.246  14.279  0.00  0.00     0.036 C 
ATOM      9  C12 ZIN A   1      18.127   3.139  13.227  0.00  0.00    -0.065 C 
ATOM     10  C13 ZIN A   1      17.459   4.213  13.647  0.00  0.00     0.053 C 
ATOM     11  C14 ZIN A   1      16.840   5.120  12.674  0.00  0.00     0.149 C 
ATOM     12  O15 ZIN A   1      15.935   5.866  12.983  0.00  0.00    -0.293 OA
ATOM     13  C16 ZIN A   1      17.393   5.077  11.263  0.00  0.00     0.084 C 
ATOM     14  C17 ZIN A   1      17.444   3.611  10.836  0.00  0.00     0.025 C 
ATOM     15  C18 ZIN A   1      18.292   2.779  11.783  0.00  0.00     0.019 C 
ATOM     16  C19 ZIN A   1      19.761   2.986  11.408  0.00  0.00     0.023 C 
ATOM     17  C20 ZIN A   1      17.984   1.293  11.560  0.00  0.00     0.144 C 
ATOM     18  F21 ZIN A   1      16.625   1.070  11.804  0.00  0.00    -0.239 F 
ATOM     19  C22 ZIN A   1      18.282   0.934  10.107  0.00  0.00     0.160 C 
ATOM     20  C25 ZIN A   1      18.110  -0.571   9.847  0.00  0.00     0.047 C 
ATOM     21  C26 ZIN A   1      18.997  -1.328  10.828  0.00  0.00    -0.007 C 
ATOM     22  C27 ZIN A   1      20.438  -0.827  10.718  0.00  0.00     0.019 C 
ENDROOT
BRANCH   2  23
ATOM     23  O3  ZIN A   1      20.002  -3.341   9.922  0.00  0.00    -0.389 OA
ATOM     24  H31 ZIN A   1      19.759  -4.131   9.419  0.00  0.00     0.210 HD
ENDBRANCH   2  23
BRANCH  19  25
ATOM     25  O24 ZIN A   1      19.627   1.307   9.801  0.00  0.00    -0.392 OA
ATOM     26  H48 ZIN A   1      20.287   0.651  10.063  0.00  0.00     0.210 HD
ENDBRANCH  19  25
TORSDOF 2
ENDMDL
MODEL 8
REMARK VINA RESULT:      -8.2      1.602      2.477
REMARK  2 active torsions:
REMARK  status: ('A' for Active; 'I' for Inactive)
REMARK    1  A    between atoms: C2_2  and  O3_3 
REMARK    2  A    between atoms: C22_20  and  O24_21 
ROOT
ATOM      1  C1  ZIN A   1      17.615   2.848  12.149  0.00  0.00     0.046 C 
ATOM      2  C2  ZIN A   1      19.018   2.438  11.698  0.00  0.00     0.062 C 
ATOM      3  C4  ZIN A   1      19.255   2.866  10.229  0.00  0.00     0.038 C 
ATOM      4  C5  ZIN A   1      19.435   1.554   9.415  0.00  0.00     0.009 C 
ATOM      5  C6  ZIN A   1      18.705   0.516  10.275  0.00  0.00     0.004 C 
ATOM      6  C8  ZIN A   1      19.112  -0.929  10.051  0.00  0.00     0.034 C 
ATOM      7  C10 ZIN A   1      18.748  -1.353   8.624  0.00  0.00     0.013 C 
ATOM      8  C11 ZIN A   1      19.227  -2.788   8.389  0.00  0.00     0.036 C 
ATOM      9  C12 ZIN A   1      18.635  -3.683   9.463  0.00  0.00    -0.065 C 
ATOM     10  C13 ZIN A   1      18.050  -4.815   9.074  0.00  0.00     0.053 C 
ATOM     11  C14 ZIN A   1      17.474  -5.726  10.069  0.00  0.00     0.149 C 
ATOM     12  O15 ZIN A   1      16.627  -6.542   9.773  0.00  0.00    -0.293 OA
ATOM     13  C16 ZIN A   1      17.995  -5.593  11.487  0.00  0.00     0.084 C 
ATOM     14  C17 ZIN A   1      17.938  -4.112  11.858  0.00  0.00     0.025 C 
ATOM     15  C18 ZIN A   1      18.746  -3.260  10.895  0.00  0.00     0.019 C 
ATOM     16  C19 ZIN A   1      20.218  -3.351  11.304  0.00  0.00     0.023 C 
ATOM     17  C20 ZIN A   1      18.335  -1.791  11.056  0.00  0.00     0.144 C 
ATOM     18  F21 ZIN A   1      16.969  -1.670  10.780  0.00  0.00    -0.239 F 
ATOM     19  C22 ZIN A   1      18.579  -1.359  12.499  0.00  0.00     0.160 C 
ATOM     20  C25 ZIN A   1      18.300   0.139  12.698  0.00  0.00     0.047 C 
ATOM     21  C26 ZIN A   1      19.154   0.919  11.705  0.00  0.00    -0.007 C 
ATOM     22  C27 ZIN A   1      20.622   0.521  11.859  0.00  0.00     0.019 C 
ENDROOT
BRANCH   2  23
ATOM     23  O3  ZIN A   1      20.002   3.027  12.551  0.00  0.00    -0.389 OA
ATOM     24  H31 ZIN A   1      20.547   3.699  12.119  0.00  0.00     0.210 HD
ENDBRANCH   2  23
BRANCH  19  25
ATOM     25  O24 ZIN A   1      19.939  -1.628  12.843  0.00  0.00    -0.392 OA
ATOM     26  H48 ZIN A   1      20.444  -2.062  12.141  0.00  0.00     0.210 HD
ENDBRANCH  19  25
TORSDOF 2
ENDMDL
MODEL 9
REMARK VINA RESULT:      -8.1      3.579      4.947
REMARK  2 active torsions:
REMARK  status: ('A' for Active; 'I' for Inactive)
REMARK    1  A    between atoms: C2_2  and  O3_3 
REMARK    2  A    between atoms: C22_20  and  O24_21 
ROOT
ATOM      1  C1  ZIN A   1      17.376   1.292  11.535  0.00  0.00     0.046 C 
ATOM      2  C2  ZIN A   1      18.787   1.273  10.946  0.00  0.00     0.062 C 
ATOM      3  C4  ZIN A   1      19.083   2.608  10.219  0.00  0.00     0.038 C 
ATOM      4  C5  ZIN A   1      19.270   2.257   8.717  0.00  0.00     0.009 C 
ATOM      5  C6  ZIN A   1      18.494   0.942   8.574  0.00  0.00     0.004 C 
ATOM      6  C8  ZIN A   1      18.887   0.070   7.395  0.00  0.00     0.034 C 
ATOM      7  C10 ZIN A   1      18.567   0.797   6.085  0.00  0.00     0.013 C 
ATOM      8  C11 ZIN A   1      19.031  -0.063   4.908  0.00  0.00     0.036 C 
ATOM      9  C12 ZIN A   1      18.388  -1.434   5.020  0.00  0.00    -0.065 C 
ATOM     10  C13 ZIN A   1      17.799  -1.933   3.933  0.00  0.00     0.053 C 
ATOM     11  C14 ZIN A   1      17.175  -3.259   3.978  0.00  0.00     0.149 C 
ATOM     12  O15 ZIN A   1      16.326  -3.593   3.179  0.00  0.00    -0.293 OA
ATOM     13  C16 ZIN A   1      17.648  -4.191   5.078  0.00  0.00     0.084 C 
ATOM     14  C17 ZIN A   1      17.601  -3.410   6.390  0.00  0.00     0.025 C 
ATOM     15  C18 ZIN A   1      18.456  -2.156   6.329  0.00  0.00     0.019 C 
ATOM     16  C19 ZIN A   1      19.910  -2.563   6.571  0.00  0.00     0.023 C 
ATOM     17  C20 ZIN A   1      18.062  -1.222   7.480  0.00  0.00     0.144 C 
ATOM     18  F21 ZIN A   1      16.708  -0.892   7.354  0.00  0.00    -0.239 F 
ATOM     19  C22 ZIN A   1      18.262  -1.951   8.806  0.00  0.00     0.160 C 
ATOM     20  C25 ZIN A   1      17.999  -1.028  10.007  0.00  0.00     0.047 C 
ATOM     21  C26 ZIN A   1      18.899   0.195   9.873  0.00  0.00    -0.007 C 
ATOM     22  C27 ZIN A   1      20.355  -0.247   9.719  0.00  0.00     0.019 C 
ENDROOT
BRANCH   2  23
ATOM     23  O3  ZIN A   1      19.750   1.047  11.978  0.00  0.00    -0.389 OA
ATOM     24  H31 ZIN A   1      20.330   1.802  12.148  0.00  0.00     0.210 HD
ENDBRANCH   2  23
BRANCH  19  25
ATOM     25  O24 ZIN A   1      19.605  -2.433   8.875  0.00  0.00    -0.392 OA
ATOM     26  H48 ZIN A   1      20.271  -1.735   8.939  0.00  0.00     0.210 HD
ENDBRANCH  19  25
TORSDOF 2
ENDMDL
