MODEL 1
REMARK VINA RESULT:      -5.4      0.000      0.000
REMARK  10 active torsions:
REMARK  status: ('A' for Active; 'I' for Inactive)
REMARK    1  A    between atoms: N2_2  and  C3_3 
REMARK    2  A    between atoms: C3_3  and  N8_8 
REMARK    3  A    between atoms: C4_4  and  N5_5 
REMARK    4  A    between atoms: N8_8  and  C9_9 
REMARK    5  A    between atoms: C9_9  and  C10_10 
REMARK    6  A    between atoms: C10_10  and  S11_11 
REMARK    7  A    between atoms: S11_11  and  C12_12 
REMARK    8  A    between atoms: C12_12  and  C13_13 
REMARK    9  A    between atoms: C16_16  and  C17_17 
REMARK   10  A    between atoms: C17_17  and  N18_18 
ROOT
ATOM      1  C10 ZIN A   1      17.728  -0.704  12.837  0.00  0.00     0.093 C 
ENDROOT
BRANCH   1   2
ATOM      2  C9  ZIN A   1      17.571   0.507  13.760  0.00  0.00     0.131 C 
BRANCH   2   3
ATOM      3  N8  ZIN A   1      18.821   0.725  14.494  0.00  0.00    -0.374 N 
ATOM      4  H28 ZIN A   1      19.658   0.810  14.012  0.00  0.00     0.161 HD
BRANCH   3   5
ATOM      5  C3  ZIN A   1      18.805   0.812  15.881  0.00  0.00     0.118 C 
ATOM      6  C4  ZIN A   1      19.136   1.953  16.479  0.00  0.00     0.215 C 
BRANCH   5   7
ATOM      7  N2  ZIN A   1      18.446  -0.294  16.643  0.00  0.00    -0.380 N 
ATOM      8  C1  ZIN A   1      19.085  -1.589  16.400  0.00  0.00     0.147 C 
ATOM      9  H26 ZIN A   1      17.772  -0.207  17.336  0.00  0.00     0.160 HD
ENDBRANCH   5   7
BRANCH   6  10
ATOM     10  N5  ZIN A   1      19.247   2.011  17.955  0.00  0.00    -0.124 N 
ATOM     11  O6  ZIN A   1      18.670   2.887  18.575  0.00  0.00    -0.532 OA
ATOM     12  O7  ZIN A   1      19.913   1.182  18.549  0.00  0.00    -0.532 OA
ENDBRANCH   6  10
ENDBRANCH   3   5
ENDBRANCH   2   3
ENDBRANCH   1   2
BRANCH   1  13
ATOM     13  S11 ZIN A   1      19.476  -0.907  12.399  0.00  0.00    -0.161 SA
BRANCH  13  14
ATOM     14  C12 ZIN A   1      19.563  -0.198  10.731  0.00  0.00     0.139 C 
BRANCH  14  15
ATOM     15  C13 ZIN A   1      19.320   1.288  10.804  0.00  0.00     0.062 A 
ATOM     16  O22 ZIN A   1      19.776   2.112  11.761  0.00  0.00    -0.317 OA
ATOM     17  C16 ZIN A   1      19.369   3.365  11.504  0.00  0.00     0.079 A 
ATOM     18  C15 ZIN A   1      18.634   3.351  10.377  0.00  0.00     0.037 A 
ATOM     19  C14 ZIN A   1      18.602   2.012   9.926  0.00  0.00     0.036 A 
BRANCH  17  20
ATOM     20  C17 ZIN A   1      19.677   4.581  12.340  0.00  0.00     0.298 C 
BRANCH  20  21
ATOM     21  N18 ZIN A   1      19.336   4.309  13.744  0.00  0.00    -0.073 N 
ATOM     22  H19 ZIN A   1      19.748   3.433  14.026  0.00  0.00     0.279 HD
ATOM     23  C20 ZIN A   1      19.856   5.390  14.592  0.00  0.00     0.269 C 
ATOM     24  C21 ZIN A   1      17.876   4.233  13.887  0.00  0.00     0.269 C 
ENDBRANCH  20  21
ENDBRANCH  17  20
ENDBRANCH  14  15
ENDBRANCH  13  14
ENDBRANCH   1  13
TORSDOF 10
ENDMDL
MODEL 2
REMARK VINA RESULT:      -5.4      1.858      2.485
REMARK  10 active torsions:
REMARK  status: ('A' for Active; 'I' for Inactive)
REMARK    1  A    between atoms: N2_2  and  C3_3 
REMARK    2  A    between atoms: C3_3  and  N8_8 
REMARK    3  A    between atoms: C4_4  and  N5_5 
REMARK    4  A    between atoms: N8_8  and  C9_9 
REMARK    5  A    between atoms: C9_9  and  C10_10 
REMARK    6  A    between atoms: C10_10  and  S11_11 
REMARK    7  A    between atoms: S11_11  and  C12_12 
REMARK    8  A    between atoms: C12_12  and  C13_13 
REMARK    9  A    between atoms: C16_16  and  C17_17 
REMARK   10  A    between atoms: C17_17  and  N18_18 
ROOT
ATOM      1  C10 ZIN A   1      19.535  -2.051  11.469  0.00  0.00     0.093 C 
ENDROOT
BRANCH   1   2
ATOM      2  C9  ZIN A   1      18.899  -2.002  12.860  0.00  0.00     0.131 C 
BRANCH   2   3
ATOM      3  N8  ZIN A   1      19.849  -1.415  13.810  0.00  0.00    -0.374 N 
ATOM      4  H28 ZIN A   1      20.802  -1.496  13.655  0.00  0.00     0.161 HD
BRANCH   3   5
ATOM      5  C3  ZIN A   1      19.381  -0.741  14.931  0.00  0.00     0.118 C 
ATOM      6  C4  ZIN A   1      18.972  -1.426  15.997  0.00  0.00     0.215 C 
BRANCH   5   7
ATOM      7  N2  ZIN A   1      19.340   0.649  14.941  0.00  0.00    -0.380 N 
ATOM      8  C1  ZIN A   1      18.226   1.351  14.300  0.00  0.00     0.147 C 
ATOM      9  H26 ZIN A   1      20.048   1.152  15.371  0.00  0.00     0.160 HD
ENDBRANCH   5   7
BRANCH   6  10
ATOM     10  N5  ZIN A   1      18.354  -0.716  17.140  0.00  0.00    -0.124 N 
ATOM     11  O6  ZIN A   1      17.151  -0.521  17.157  0.00  0.00    -0.532 OA
ATOM     12  O7  ZIN A   1      19.047  -0.330  18.065  0.00  0.00    -0.532 OA
ENDBRANCH   6  10
ENDBRANCH   3   5
ENDBRANCH   2   3
ENDBRANCH   1   2
BRANCH   1  13
ATOM     13  S11 ZIN A   1      19.728  -0.363  10.834  0.00  0.00    -0.161 SA
BRANCH  13  14
ATOM     14  C12 ZIN A   1      18.018   0.146  10.503  0.00  0.00     0.139 C 
BRANCH  14  15
ATOM     15  C13 ZIN A   1      17.945   1.651  10.443  0.00  0.00     0.062 A 
ATOM     16  O22 ZIN A   1      17.196   2.432  11.239  0.00  0.00    -0.317 OA
ATOM     17  C16 ZIN A   1      17.382   3.719  10.903  0.00  0.00     0.079 A 
ATOM     18  C15 ZIN A   1      18.249   3.770   9.877  0.00  0.00     0.037 A 
ATOM     19  C14 ZIN A   1      18.612   2.437   9.580  0.00  0.00     0.036 A 
BRANCH  17  20
ATOM     20  C17 ZIN A   1      16.723   4.905  11.562  0.00  0.00     0.298 C 
BRANCH  20  21
ATOM     21  N18 ZIN A   1      16.903   4.819  13.018  0.00  0.00    -0.073 N 
ATOM     22  H19 ZIN A   1      16.714   3.877  13.325  0.00  0.00     0.279 HD
ATOM     23  C20 ZIN A   1      18.286   5.178  13.362  0.00  0.00     0.269 C 
ATOM     24  C21 ZIN A   1      15.977   5.746  13.680  0.00  0.00     0.269 C 
ENDBRANCH  20  21
ENDBRANCH  17  20
ENDBRANCH  14  15
ENDBRANCH  13  14
ENDBRANCH   1  13
TORSDOF 10
ENDMDL
MODEL 3
REMARK VINA RESULT:      -5.4      4.838      7.437
REMARK  10 active torsions:
REMARK  status: ('A' for Active; 'I' for Inactive)
REMARK    1  A    between atoms: N2_2  and  C3_3 
REMARK    2  A    between atoms: C3_3  and  N8_8 
REMARK    3  A    between atoms: C4_4  and  N5_5 
REMARK    4  A    between atoms: N8_8  and  C9_9 
REMARK    5  A    between atoms: C9_9  and  C10_10 
REMARK    6  A    between atoms: C10_10  and  S11_11 
REMARK    7  A    between atoms: S11_11  and  C12_12 
REMARK    8  A    between atoms: C12_12  and  C13_13 
REMARK    9  A    between atoms: C16_16  and  C17_17 
REMARK   10  A    between atoms: C17_17  and  N18_18 
ROOT
ATOM      1  C10 ZIN A   1      18.594  -2.923  10.691  0.00  0.00     0.093 C 
ENDROOT
BRANCH   1   2
ATOM      2  C9  ZIN A   1      18.266  -3.115   9.209  0.00  0.00     0.131 C 
BRANCH   2   3
ATOM      3  N8  ZIN A   1      19.496  -3.016   8.419  0.00  0.00    -0.374 N 
ATOM      4  H28 ZIN A   1      20.356  -3.179   8.838  0.00  0.00     0.161 HD
BRANCH   3   5
ATOM      5  C3  ZIN A   1      19.431  -2.691   7.070  0.00  0.00     0.118 C 
ATOM      6  C4  ZIN A   1      19.169  -1.440   6.699  0.00  0.00     0.215 C 
BRANCH   5   7
ATOM      7  N2  ZIN A   1      19.639  -3.672   6.107  0.00  0.00    -0.380 N 
ATOM      8  C1  ZIN A   1      18.591  -4.656   5.828  0.00  0.00     0.147 C 
ATOM      9  H26 ZIN A   1      20.478  -3.705   5.620  0.00  0.00     0.160 HD
ENDBRANCH   5   7
BRANCH   6  10
ATOM     10  N5  ZIN A   1      18.971  -1.119   5.267  0.00  0.00    -0.124 N 
ATOM     11  O6  ZIN A   1      17.856  -1.173   4.779  0.00  0.00    -0.532 OA
ATOM     12  O7  ZIN A   1      19.923  -0.798   4.577  0.00  0.00    -0.532 OA
ENDBRANCH   6  10
ENDBRANCH   3   5
ENDBRANCH   2   3
ENDBRANCH   1   2
BRANCH   1  13
ATOM     13  S11 ZIN A   1      18.946  -1.172  11.010  0.00  0.00    -0.161 SA
BRANCH  13  14
ATOM     14  C12 ZIN A   1      17.478  -0.336  10.350  0.00  0.00     0.139 C 
BRANCH  14  15
ATOM     15  C13 ZIN A   1      17.752   1.143  10.235  0.00  0.00     0.062 A 
ATOM     16  O22 ZIN A   1      17.140   2.110  10.937  0.00  0.00    -0.317 OA
ATOM     17  C16 ZIN A   1      17.637   3.305  10.578  0.00  0.00     0.079 A 
ATOM     18  C15 ZIN A   1      18.571   3.110   9.630  0.00  0.00     0.037 A 
ATOM     19  C14 ZIN A   1      18.645   1.716   9.409  0.00  0.00     0.036 A 
BRANCH  17  20
ATOM     20  C17 ZIN A   1      17.215   4.640  11.138  0.00  0.00     0.298 C 
BRANCH  20  21
ATOM     21  N18 ZIN A   1      17.142   4.555  12.603  0.00  0.00    -0.073 N 
ATOM     22  H19 ZIN A   1      16.721   3.677  12.868  0.00  0.00     0.279 HD
ATOM     23  C20 ZIN A   1      18.495   4.639  13.167  0.00  0.00     0.269 C 
ATOM     24  C21 ZIN A   1      16.328   5.664  13.117  0.00  0.00     0.269 C 
ENDBRANCH  20  21
ENDBRANCH  17  20
ENDBRANCH  14  15
ENDBRANCH  13  14
ENDBRANCH   1  13
TORSDOF 10
ENDMDL
MODEL 4
REMARK VINA RESULT:      -5.4      3.175      5.001
REMARK  10 active torsions:
REMARK  status: ('A' for Active; 'I' for Inactive)
REMARK    1  A    between atoms: N2_2  and  C3_3 
REMARK    2  A    between atoms: C3_3  and  N8_8 
REMARK    3  A    between atoms: C4_4  and  N5_5 
REMARK    4  A    between atoms: N8_8  and  C9_9 
REMARK    5  A    between atoms: C9_9  and  C10_10 
REMARK    6  A    between atoms: C10_10  and  S11_11 
REMARK    7  A    between atoms: S11_11  and  C12_12 
REMARK    8  A    between atoms: C12_12  and  C13_13 
REMARK    9  A    between atoms: C16_16  and  C17_17 
REMARK   10  A    between atoms: C17_17  and  N18_18 
ROOT
ATOM      1  C10 ZIN A   1      18.374   4.267  12.823  0.00  0.00     0.093 C 
ENDROOT
BRANCH   1   2
ATOM      2  C9  ZIN A   1      18.079   3.463  14.091  0.00  0.00     0.131 C 
BRANCH   2   3
ATOM      3  N8  ZIN A   1      19.203   2.565  14.373  0.00  0.00    -0.374 N 
ATOM      4  H28 ZIN A   1      20.018   2.631  13.852  0.00  0.00     0.161 HD
BRANCH   3   5
ATOM      5  C3  ZIN A   1      19.100   1.620  15.386  0.00  0.00     0.118 C 
ATOM      6  C4  ZIN A   1      18.970   2.013  16.651  0.00  0.00     0.215 C 
BRANCH   5   7
ATOM      7  N2  ZIN A   1      19.133   0.265  15.079  0.00  0.00    -0.380 N 
ATOM      8  C1  ZIN A   1      17.990  -0.363  14.414  0.00  0.00     0.147 C 
ATOM      9  H26 ZIN A   1      19.914  -0.265  15.306  0.00  0.00     0.160 HD
ENDBRANCH   5   7
BRANCH   6  10
ATOM     10  N5  ZIN A   1      18.991   1.013  17.743  0.00  0.00    -0.124 N 
ATOM     11  O6  ZIN A   1      18.037   0.273  17.910  0.00  0.00    -0.532 OA
ATOM     12  O7  ZIN A   1      19.963   0.928  18.473  0.00  0.00    -0.532 OA
ENDBRANCH   6  10
ENDBRANCH   3   5
ENDBRANCH   2   3
ENDBRANCH   1   2
BRANCH   1  13
ATOM     13  S11 ZIN A   1      19.191   3.197  11.606  0.00  0.00    -0.161 SA
BRANCH  13  14
ATOM     14  C12 ZIN A   1      17.817   2.217  10.940  0.00  0.00     0.139 C 
BRANCH  14  15
ATOM     15  C13 ZIN A   1      18.193   1.686   9.580  0.00  0.00     0.062 A 
ATOM     16  O22 ZIN A   1      17.632   0.632   8.966  0.00  0.00    -0.317 OA
ATOM     17  C16 ZIN A   1      18.213   0.450   7.770  0.00  0.00     0.079 A 
ATOM     18  C15 ZIN A   1      19.165   1.387   7.612  0.00  0.00     0.037 A 
ATOM     19  C14 ZIN A   1      19.152   2.184   8.779  0.00  0.00     0.036 A 
BRANCH  17  20
ATOM     20  C17 ZIN A   1      17.863  -0.628   6.775  0.00  0.00     0.298 C 
BRANCH  20  21
ATOM     21  N18 ZIN A   1      19.096  -1.171   6.188  0.00  0.00    -0.073 N 
ATOM     22  H19 ZIN A   1      19.851  -0.518   6.328  0.00  0.00     0.279 HD
ATOM     23  C20 ZIN A   1      19.426  -2.447   6.837  0.00  0.00     0.269 C 
ATOM     24  C21 ZIN A   1      18.896  -1.391   4.750  0.00  0.00     0.269 C 
ENDBRANCH  20  21
ENDBRANCH  17  20
ENDBRANCH  14  15
ENDBRANCH  13  14
ENDBRANCH   1  13
TORSDOF 10
ENDMDL
MODEL 5
REMARK VINA RESULT:      -5.3      2.401      3.885
REMARK  10 active torsions:
REMARK  status: ('A' for Active; 'I' for Inactive)
REMARK    1  A    between atoms: N2_2  and  C3_3 
REMARK    2  A    between atoms: C3_3  and  N8_8 
REMARK    3  A    between atoms: C4_4  and  N5_5 
REMARK    4  A    between atoms: N8_8  and  C9_9 
REMARK    5  A    between atoms: C9_9  and  C10_10 
REMARK    6  A    between atoms: C10_10  and  S11_11 
REMARK    7  A    between atoms: S11_11  and  C12_12 
REMARK    8  A    between atoms: C12_12  and  C13_13 
REMARK    9  A    between atoms: C16_16  and  C17_17 
REMARK   10  A    between atoms: C17_17  and  N18_18 
ROOT
ATOM      1  C10 ZIN A   1      17.647   4.745  15.041  0.00  0.00     0.093 C 
ENDROOT
BRANCH   1   2
ATOM      2  C9  ZIN A   1      19.095   4.251  15.034  0.00  0.00     0.131 C 
BRANCH   2   3
ATOM      3  N8  ZIN A   1      19.112   2.793  14.889  0.00  0.00    -0.374 N 
ATOM      4  H28 ZIN A   1      19.427   2.392  14.064  0.00  0.00     0.161 HD
BRANCH   3   5
ATOM      5  C3  ZIN A   1      18.679   1.986  15.933  0.00  0.00     0.118 C 
ATOM      6  C4  ZIN A   1      19.250   2.083  17.131  0.00  0.00     0.215 C 
BRANCH   5   7
ATOM      7  N2  ZIN A   1      17.648   1.075  15.727  0.00  0.00    -0.380 N 
ATOM      8  C1  ZIN A   1      17.928  -0.216  15.095  0.00  0.00     0.147 C 
ATOM      9  H26 ZIN A   1      16.744   1.295  16.002  0.00  0.00     0.160 HD
ENDBRANCH   5   7
BRANCH   6  10
ATOM     10  N5  ZIN A   1      18.880   1.136  18.207  0.00  0.00    -0.124 N 
ATOM     11  O6  ZIN A   1      17.866   1.318  18.857  0.00  0.00    -0.532 OA
ATOM     12  O7  ZIN A   1      19.589   0.173  18.442  0.00  0.00    -0.532 OA
ENDBRANCH   6  10
ENDBRANCH   3   5
ENDBRANCH   2   3
ENDBRANCH   1   2
BRANCH   1  13
ATOM     13  S11 ZIN A   1      17.466   6.102  13.850  0.00  0.00    -0.161 SA
BRANCH  13  14
ATOM     14  C12 ZIN A   1      16.252   5.449  12.671  0.00  0.00     0.139 C 
BRANCH  14  15
ATOM     15  C13 ZIN A   1      16.954   4.576  11.661  0.00  0.00     0.062 A 
ATOM     16  O22 ZIN A   1      17.103   3.244  11.744  0.00  0.00    -0.317 OA
ATOM     17  C16 ZIN A   1      17.775   2.802  10.669  0.00  0.00     0.079 A 
ATOM     18  C15 ZIN A   1      18.070   3.856   9.888  0.00  0.00     0.037 A 
ATOM     19  C14 ZIN A   1      17.541   5.000  10.528  0.00  0.00     0.036 A 
BRANCH  17  20
ATOM     20  C17 ZIN A   1      18.141   1.367  10.388  0.00  0.00     0.298 C 
BRANCH  20  21
ATOM     21  N18 ZIN A   1      19.602   1.214  10.443  0.00  0.00    -0.073 N 
ATOM     22  H19 ZIN A   1      20.039   2.002   9.990  0.00  0.00     0.279 HD
ATOM     23  C20 ZIN A   1      20.035   1.153  11.845  0.00  0.00     0.269 C 
ATOM     24  C21 ZIN A   1      19.990  -0.024   9.757  0.00  0.00     0.269 C 
ENDBRANCH  20  21
ENDBRANCH  17  20
ENDBRANCH  14  15
ENDBRANCH  13  14
ENDBRANCH   1  13
TORSDOF 10
ENDMDL
MODEL 6
REMARK VINA RESULT:      -5.3      1.551      2.177
REMARK  10 active torsions:
REMARK  status: ('A' for Active; 'I' for Inactive)
REMARK    1  A    between atoms: N2_2  and  C3_3 
REMARK    2  A    between atoms: C3_3  and  N8_8 
REMARK    3  A    between atoms: C4_4  and  N5_5 
REMARK    4  A    between atoms: N8_8  and  C9_9 
REMARK    5  A    between atoms: C9_9  and  C10_10 
REMARK    6  A    between atoms: C10_10  and  S11_11 
REMARK    7  A    between atoms: S11_11  and  C12_12 
REMARK    8  A    between atoms: C12_12  and  C13_13 
REMARK    9  A    between atoms: C16_16  and  C17_17 
REMARK   10  A    between atoms: C17_17  and  N18_18 
ROOT
ATOM      1  C10 ZIN A   1      18.007  -0.085  13.295  0.00  0.00     0.093 C 
ENDROOT
BRANCH   1   2
ATOM      2  C9  ZIN A   1      19.368   0.322  13.865  0.00  0.00     0.131 C 
BRANCH   2   3
ATOM      3  N8  ZIN A   1      19.311   1.715  14.315  0.00  0.00    -0.374 N 
ATOM      4  H28 ZIN A   1      19.414   2.436  13.675  0.00  0.00     0.161 HD
BRANCH   3   5
ATOM      5  C3  ZIN A   1      19.108   2.003  15.659  0.00  0.00     0.118 C 
ATOM      6  C4  ZIN A   1      19.195   1.035  16.568  0.00  0.00     0.215 C 
BRANCH   5   7
ATOM      7  N2  ZIN A   1      18.814   3.303  16.055  0.00  0.00    -0.380 N 
ATOM      8  C1  ZIN A   1      19.897   4.225  16.403  0.00  0.00     0.147 C 
ATOM      9  H26 ZIN A   1      17.891   3.599  16.101  0.00  0.00     0.160 HD
ENDBRANCH   5   7
BRANCH   6  10
ATOM     10  N5  ZIN A   1      18.852   1.313  17.981  0.00  0.00    -0.124 N 
ATOM     11  O6  ZIN A   1      19.725   1.628  18.770  0.00  0.00    -0.532 OA
ATOM     12  O7  ZIN A   1      17.695   1.227  18.356  0.00  0.00    -0.532 OA
ENDBRANCH   6  10
ENDBRANCH   3   5
ENDBRANCH   2   3
ENDBRANCH   1   2
BRANCH   1  13
ATOM     13  S11 ZIN A   1      18.248  -0.954  11.721  0.00  0.00    -0.161 SA
BRANCH  13  14
ATOM     14  C12 ZIN A   1      17.125  -0.079  10.597  0.00  0.00     0.139 C 
BRANCH  14  15
ATOM     15  C13 ZIN A   1      17.547   1.365  10.491  0.00  0.00     0.062 A 
ATOM     16  O22 ZIN A   1      17.151   2.359  11.301  0.00  0.00    -0.317 OA
ATOM     17  C16 ZIN A   1      17.726   3.509  10.912  0.00  0.00     0.079 A 
ATOM     18  C15 ZIN A   1      18.492   3.258   9.836  0.00  0.00     0.037 A 
ATOM     19  C14 ZIN A   1      18.376   1.876   9.564  0.00  0.00     0.036 A 
BRANCH  17  20
ATOM     20  C17 ZIN A   1      17.539   4.854  11.567  0.00  0.00     0.298 C 
BRANCH  20  21
ATOM     21  N18 ZIN A   1      18.078   4.812  12.934  0.00  0.00    -0.073 N 
ATOM     22  H19 ZIN A   1      17.877   3.913  13.347  0.00  0.00     0.279 HD
ATOM     23  C20 ZIN A   1      19.531   5.019  12.894  0.00  0.00     0.269 C 
ATOM     24  C21 ZIN A   1      17.455   5.871  13.738  0.00  0.00     0.269 C 
ENDBRANCH  20  21
ENDBRANCH  17  20
ENDBRANCH  14  15
ENDBRANCH  13  14
ENDBRANCH   1  13
TORSDOF 10
ENDMDL
MODEL 7
REMARK VINA RESULT:      -5.3      2.549      5.611
REMARK  10 active torsions:
REMARK  status: ('A' for Active; 'I' for Inactive)
REMARK    1  A    between atoms: N2_2  and  C3_3 
REMARK    2  A    between atoms: C3_3  and  N8_8 
REMARK    3  A    between atoms: C4_4  and  N5_5 
REMARK    4  A    between atoms: N8_8  and  C9_9 
REMARK    5  A    between atoms: C9_9  and  C10_10 
REMARK    6  A    between atoms: C10_10  and  S11_11 
REMARK    7  A    between atoms: S11_11  and  C12_12 
REMARK    8  A    between atoms: C12_12  and  C13_13 
REMARK    9  A    between atoms: C16_16  and  C17_17 
REMARK   10  A    between atoms: C17_17  and  N18_18 
ROOT
ATOM      1  C10 ZIN A   1      20.019  -0.334   9.386  0.00  0.00     0.093 C 
ENDROOT
BRANCH   1   2
ATOM      2  C9  ZIN A   1      19.054   0.840   9.568  0.00  0.00     0.131 C 
BRANCH   2   3
ATOM      3  N8  ZIN A   1      19.656   1.832  10.463  0.00  0.00    -0.374 N 
ATOM      4  H28 ZIN A   1      20.551   1.693  10.810  0.00  0.00     0.161 HD
BRANCH   3   5
ATOM      5  C3  ZIN A   1      18.944   2.972  10.815  0.00  0.00     0.118 C 
ATOM      6  C4  ZIN A   1      17.872   3.330  10.113  0.00  0.00     0.215 C 
BRANCH   5   7
ATOM      7  N2  ZIN A   1      19.353   3.741  11.899  0.00  0.00    -0.380 N 
ATOM      8  C1  ZIN A   1      19.031   3.313  13.262  0.00  0.00     0.147 C 
ATOM      9  H26 ZIN A   1      19.851   4.561  11.752  0.00  0.00     0.160 HD
ENDBRANCH   5   7
BRANCH   6  10
ATOM     10  N5  ZIN A   1      17.190   4.612  10.404  0.00  0.00    -0.124 N 
ATOM     11  O6  ZIN A   1      16.256   4.642  11.185  0.00  0.00    -0.532 OA
ATOM     12  O7  ZIN A   1      17.564   5.638   9.862  0.00  0.00    -0.532 OA
ENDBRANCH   6  10
ENDBRANCH   3   5
ENDBRANCH   2   3
ENDBRANCH   1   2
BRANCH   1  13
ATOM     13  S11 ZIN A   1      19.227  -1.860   9.965  0.00  0.00    -0.161 SA
BRANCH  13  14
ATOM     14  C12 ZIN A   1      17.754  -1.251  10.832  0.00  0.00     0.139 C 
BRANCH  14  15
ATOM     15  C13 ZIN A   1      18.060  -1.107  12.301  0.00  0.00     0.062 A 
ATOM     16  O22 ZIN A   1      17.522  -0.197  13.129  0.00  0.00    -0.317 OA
ATOM     17  C16 ZIN A   1      18.023  -0.364  14.364  0.00  0.00     0.079 A 
ATOM     18  C15 ZIN A   1      18.900  -1.383  14.333  0.00  0.00     0.037 A 
ATOM     19  C14 ZIN A   1      18.924  -1.862  13.003  0.00  0.00     0.036 A 
BRANCH  17  20
ATOM     20  C17 ZIN A   1      17.669   0.457  15.577  0.00  0.00     0.298 C 
BRANCH  20  21
ATOM     21  N18 ZIN A   1      18.821   0.507  16.489  0.00  0.00    -0.073 N 
ATOM     22  H19 ZIN A   1      19.608   0.043  16.061  0.00  0.00     0.279 HD
ATOM     23  C20 ZIN A   1      19.168   1.908  16.762  0.00  0.00     0.269 C 
ATOM     24  C21 ZIN A   1      18.478  -0.167  17.748  0.00  0.00     0.269 C 
ENDBRANCH  20  21
ENDBRANCH  17  20
ENDBRANCH  14  15
ENDBRANCH  13  14
ENDBRANCH   1  13
TORSDOF 10
ENDMDL
MODEL 8
REMARK VINA RESULT:      -5.3      2.277      4.472
REMARK  10 active torsions:
REMARK  status: ('A' for Active; 'I' for Inactive)
REMARK    1  A    between atoms: N2_2  and  C3_3 
REMARK    2  A    between atoms: C3_3  and  N8_8 
REMARK    3  A    between atoms: C4_4  and  N5_5 
REMARK    4  A    between atoms: N8_8  and  C9_9 
REMARK    5  A    between atoms: C9_9  and  C10_10 
REMARK    6  A    between atoms: C10_10  and  S11_11 
REMARK    7  A    between atoms: S11_11  and  C12_12 
REMARK    8  A    between atoms: C12_12  and  C13_13 
REMARK    9  A    between atoms: C16_16  and  C17_17 
REMARK   10  A    between atoms: C17_17  and  N18_18 
ROOT
ATOM      1  C10 ZIN A   1      17.971   4.562  13.029  0.00  0.00     0.093 C 
ENDROOT
BRANCH   1   2
ATOM      2  C9  ZIN A   1      18.637   4.253  14.371  0.00  0.00     0.131 C 
BRANCH   2   3
ATOM      3  N8  ZIN A   1      17.922   3.155  15.028  0.00  0.00    -0.374 N 
ATOM      4  H28 ZIN A   1      16.953   3.157  15.060  0.00  0.00     0.161 HD
BRANCH   3   5
ATOM      5  C3  ZIN A   1      18.634   2.110  15.604  0.00  0.00     0.118 C 
ATOM      6  C4  ZIN A   1      18.358   1.721  16.846  0.00  0.00     0.215 C 
BRANCH   5   7
ATOM      7  N2  ZIN A   1      19.637   1.471  14.883  0.00  0.00    -0.380 N 
ATOM      8  C1  ZIN A   1      19.289   0.621  13.742  0.00  0.00     0.147 C 
ATOM      9  H26 ZIN A   1      20.566   1.587  15.136  0.00  0.00     0.160 HD
ENDBRANCH   5   7
BRANCH   6  10
ATOM     10  N5  ZIN A   1      19.200   0.698  17.507  0.00  0.00    -0.124 N 
ATOM     11  O6  ZIN A   1      19.179  -0.455  17.114  0.00  0.00    -0.532 OA
ATOM     12  O7  ZIN A   1      19.915   1.010  18.444  0.00  0.00    -0.532 OA
ENDBRANCH   6  10
ENDBRANCH   3   5
ENDBRANCH   2   3
ENDBRANCH   1   2
BRANCH   1  13
ATOM     13  S11 ZIN A   1      18.979   3.880  11.684  0.00  0.00    -0.161 SA
BRANCH  13  14
ATOM     14  C12 ZIN A   1      17.737   3.361  10.467  0.00  0.00     0.139 C 
BRANCH  14  15
ATOM     15  C13 ZIN A   1      18.197   2.094   9.790  0.00  0.00     0.062 A 
ATOM     16  O22 ZIN A   1      17.718   0.862  10.023  0.00  0.00    -0.317 OA
ATOM     17  C16 ZIN A   1      18.358  -0.022   9.240  0.00  0.00     0.079 A 
ATOM     18  C15 ZIN A   1      19.264   0.643   8.501  0.00  0.00     0.037 A 
ATOM     19  C14 ZIN A   1      19.161   2.007   8.856  0.00  0.00     0.036 A 
BRANCH  17  20
ATOM     20  C17 ZIN A   1      18.107  -1.508   9.200  0.00  0.00     0.298 C 
BRANCH  20  21
ATOM     21  N18 ZIN A   1      18.125  -2.044  10.568  0.00  0.00    -0.073 N 
ATOM     22  H19 ZIN A   1      17.539  -1.474  11.160  0.00  0.00     0.279 HD
ATOM     23  C20 ZIN A   1      17.619  -3.423  10.560  0.00  0.00     0.269 C 
ATOM     24  C21 ZIN A   1      19.501  -2.030  11.081  0.00  0.00     0.269 C 
ENDBRANCH  20  21
ENDBRANCH  17  20
ENDBRANCH  14  15
ENDBRANCH  13  14
ENDBRANCH   1  13
TORSDOF 10
ENDMDL
MODEL 9
REMARK VINA RESULT:      -5.3      5.117      8.745
REMARK  10 active torsions:
REMARK  status: ('A' for Active; 'I' for Inactive)
REMARK    1  A    between atoms: N2_2  and  C3_3 
REMARK    2  A    between atoms: C3_3  and  N8_8 
REMARK    3  A    between atoms: C4_4  and  N5_5 
REMARK    4  A    between atoms: N8_8  and  C9_9 
REMARK    5  A    between atoms: C9_9  and  C10_10 
REMARK    6  A    between atoms: C10_10  and  S11_11 
REMARK    7  A    between atoms: S11_11  and  C12_12 
REMARK    8  A    between atoms: C12_12  and  C13_13 
REMARK    9  A    between atoms: C16_16  and  C17_17 
REMARK   10  A    between atoms: C17_17  and  N18_18 
ROOT
ATOM      1  C10 ZIN A   1      17.590   0.752  10.215  0.00  0.00     0.093 C 
ENDROOT
BRANCH   1   2
ATOM      2  C9  ZIN A   1      17.438  -0.428   9.252  0.00  0.00     0.131 C 
BRANCH   2   3
ATOM      3  N8  ZIN A   1      18.715  -0.672   8.576  0.00  0.00    -0.374 N 
ATOM      4  H28 ZIN A   1      19.542  -0.669   9.084  0.00  0.00     0.161 HD
BRANCH   3   5
ATOM      5  C3  ZIN A   1      18.742  -0.911   7.208  0.00  0.00     0.118 C 
ATOM      6  C4  ZIN A   1      19.193  -2.074   6.744  0.00  0.00     0.215 C 
BRANCH   5   7
ATOM      7  N2  ZIN A   1      18.298   0.064   6.322  0.00  0.00    -0.380 N 
ATOM      8  C1  ZIN A   1      18.907   1.396   6.336  0.00  0.00     0.147 C 
ATOM      9  H26 ZIN A   1      17.585  -0.137   5.696  0.00  0.00     0.160 HD
ENDBRANCH   5   7
BRANCH   6  10
ATOM     10  N5  ZIN A   1      19.345  -2.281   5.285  0.00  0.00    -0.124 N 
ATOM     11  O6  ZIN A   1      19.930  -1.453   4.610  0.00  0.00    -0.532 OA
ATOM     12  O7  ZIN A   1      18.884  -3.280   4.760  0.00  0.00    -0.532 OA
ENDBRANCH   6  10
ENDBRANCH   3   5
ENDBRANCH   2   3
ENDBRANCH   1   2
BRANCH   1  13
ATOM     13  S11 ZIN A   1      19.295   1.368  10.152  0.00  0.00    -0.161 SA
BRANCH  13  14
ATOM     14  C12 ZIN A   1      19.960   0.890  11.771  0.00  0.00     0.139 C 
BRANCH  14  15
ATOM     15  C13 ZIN A   1      19.705  -0.578  12.005  0.00  0.00     0.062 A 
ATOM     16  O22 ZIN A   1      20.130  -1.582  11.221  0.00  0.00    -0.317 OA
ATOM     17  C16 ZIN A   1      19.722  -2.754  11.736  0.00  0.00     0.079 A 
ATOM     18  C15 ZIN A   1      19.020  -2.504  12.856  0.00  0.00     0.037 A 
ATOM     19  C14 ZIN A   1      19.009  -1.102  13.029  0.00  0.00     0.036 A 
BRANCH  17  20
ATOM     20  C17 ZIN A   1      19.998  -4.116  11.154  0.00  0.00     0.298 C 
BRANCH  20  21
ATOM     21  N18 ZIN A   1      19.545  -4.152   9.756  0.00  0.00    -0.073 N 
ATOM     22  H19 ZIN A   1      19.923  -3.360   9.260  0.00  0.00     0.279 HD
ATOM     23  C20 ZIN A   1      20.009  -5.394   9.123  0.00  0.00     0.269 C 
ATOM     24  C21 ZIN A   1      18.078  -4.102   9.717  0.00  0.00     0.269 C 
ENDBRANCH  20  21
ENDBRANCH  17  20
ENDBRANCH  14  15
ENDBRANCH  13  14
ENDBRANCH   1  13
TORSDOF 10
ENDMDL
