MODEL 1
REMARK VINA RESULT:      -8.0      0.000      0.000
REMARK  3 active torsions:
REMARK  status: ('A' for Active; 'I' for Inactive)
REMARK    1  A    between atoms: C2_2  and  C4_3 
REMARK    2  A    between atoms: C2_2  and  C7_6 
REMARK    3  A    between atoms: C10_9  and  C11_10 
ROOT
ATOM      1  C7  <0> d   1      18.349  -0.172   7.191  0.00  0.00    -0.041 A 
ATOM      2  C8  <0> d   1      19.174   0.926   7.019  0.00  0.00     0.009 A 
ATOM      3  C9  <0> d   1      19.252   1.895   7.999  0.00  0.00     0.016 A 
ATOM      4  C10 <0> d   1      18.498   1.767   9.164  0.00  0.00     0.013 A 
ATOM      5  C17 <0> d   1      17.667   0.659   9.332  0.00  0.00     0.128 A 
ATOM      6  F18 <0> d   1      16.933   0.528  10.460  0.00  0.00    -0.205 F 
ATOM      7  C19 <0> d   1      17.593  -0.302   8.342  0.00  0.00     0.051 A 
ENDROOT
BRANCH   4   8
ATOM      8  C11 <0> d   1      18.577   2.806  10.220  0.00  0.00    -0.023 A 
ATOM      9  C16 <0> d   1      17.594   3.789  10.310  0.00  0.00     0.012 A 
ATOM     10  C15 <0> d   1      17.669   4.749  11.299  0.00  0.00     0.001 A 
ATOM     11  C14 <0> d   1      18.726   4.744  12.191  0.00  0.00     0.000 A 
ATOM     12  C13 <0> d   1      19.709   3.775  12.103  0.00  0.00     0.001 A 
ATOM     13  C12 <0> d   1      19.640   2.806  11.122  0.00  0.00     0.012 A 
ENDBRANCH   4   8
BRANCH   1  14
ATOM     14  C2  <0> d   1      18.269  -1.226   6.117  0.00  0.00     0.115 C 
ATOM     15  C1  <0> d   1      19.013  -2.481   6.577  0.00  0.00     0.026 C 
BRANCH  14  16
ATOM     16  C4  <0> d   1      18.901  -0.703   4.852  0.00  0.00     0.181 C 
ATOM     17  O5  <0> d   1      18.250  -0.012   4.087  0.00  0.00    -0.647 OA
ATOM     18  O6  <0> d   1      20.062  -0.971   4.595  0.00  0.00    -0.647 OA
ENDBRANCH  14  16
ENDBRANCH   1  14
TORSDOF 3
ENDMDL
MODEL 2
REMARK VINA RESULT:      -7.6      2.900      6.319
REMARK  3 active torsions:
REMARK  status: ('A' for Active; 'I' for Inactive)
REMARK    1  A    between atoms: C2_2  and  C4_3 
REMARK    2  A    between atoms: C2_2  and  C7_6 
REMARK    3  A    between atoms: C10_9  and  C11_10 
ROOT
ATOM      1  C7  <0> d   1      18.469   2.303   9.681  0.00  0.00    -0.041 A 
ATOM      2  C8  <0> d   1      19.200   2.495   8.523  0.00  0.00     0.009 A 
ATOM      3  C9  <0> d   1      19.184   1.539   7.527  0.00  0.00     0.016 A 
ATOM      4  C10 <0> d   1      18.432   0.378   7.690  0.00  0.00     0.013 A 
ATOM      5  C17 <0> d   1      17.697   0.189   8.862  0.00  0.00     0.128 A 
ATOM      6  F18 <0> d   1      16.964  -0.935   9.027  0.00  0.00    -0.205 F 
ATOM      7  C19 <0> d   1      17.724   1.151   9.853  0.00  0.00     0.051 A 
ENDROOT
BRANCH   4   8
ATOM      8  C11 <0> d   1      18.412  -0.653   6.623  0.00  0.00    -0.023 A 
ATOM      9  C16 <0> d   1      17.626  -0.470   5.488  0.00  0.00     0.012 A 
ATOM     10  C15 <0> d   1      17.617  -1.430   4.496  0.00  0.00     0.001 A 
ATOM     11  C14 <0> d   1      18.377  -2.577   4.633  0.00  0.00     0.000 A 
ATOM     12  C13 <0> d   1      19.155  -2.767   5.761  0.00  0.00     0.001 A 
ATOM     13  C12 <0> d   1      19.177  -1.811   6.756  0.00  0.00     0.012 A 
ENDBRANCH   4   8
BRANCH   1  14
ATOM     14  C2  <0> d   1      18.491   3.351  10.764  0.00  0.00     0.115 C 
ATOM     15  C1  <0> d   1      18.227   2.691  12.119  0.00  0.00     0.026 C 
BRANCH  14  16
ATOM     16  C4  <0> d   1      17.423   4.379  10.490  0.00  0.00     0.181 C 
ATOM     17  O5  <0> d   1      16.385   4.365  11.131  0.00  0.00    -0.647 OA
ATOM     18  O6  <0> d   1      17.596   5.223   9.628  0.00  0.00    -0.647 OA
ENDBRANCH  14  16
ENDBRANCH   1  14
TORSDOF 3
ENDMDL
MODEL 3
REMARK VINA RESULT:      -7.6      3.160      6.406
REMARK  3 active torsions:
REMARK  status: ('A' for Active; 'I' for Inactive)
REMARK    1  A    between atoms: C2_2  and  C4_3 
REMARK    2  A    between atoms: C2_2  and  C7_6 
REMARK    3  A    between atoms: C10_9  and  C11_10 
ROOT
ATOM      1  C7  <0> d   1      18.037   2.257  10.155  0.00  0.00    -0.041 A 
ATOM      2  C8  <0> d   1      18.940   2.640   9.180  0.00  0.00     0.009 A 
ATOM      3  C9  <0> d   1      19.152   1.837   8.076  0.00  0.00     0.016 A 
ATOM      4  C10 <0> d   1      18.454   0.639   7.945  0.00  0.00     0.013 A 
ATOM      5  C17 <0> d   1      17.544   0.256   8.932  0.00  0.00     0.128 A 
ATOM      6  F18 <0> d   1      16.863  -0.905   8.810  0.00  0.00    -0.205 F 
ATOM      7  C19 <0> d   1      17.344   1.065  10.034  0.00  0.00     0.051 A 
ENDROOT
BRANCH   4   8
ATOM      8  C11 <0> d   1      18.678  -0.228   6.762  0.00  0.00    -0.023 A 
ATOM      9  C16 <0> d   1      18.389   0.245   5.483  0.00  0.00     0.012 A 
ATOM     10  C15 <0> d   1      18.605  -0.564   4.385  0.00  0.00     0.001 A 
ATOM     11  C14 <0> d   1      19.098  -1.845   4.554  0.00  0.00     0.000 A 
ATOM     12  C13 <0> d   1      19.382  -2.321   5.821  0.00  0.00     0.001 A 
ATOM     13  C12 <0> d   1      19.175  -1.519   6.925  0.00  0.00     0.012 A 
ENDBRANCH   4   8
BRANCH   1  14
ATOM     14  C2  <0> d   1      17.810   3.138  11.356  0.00  0.00     0.115 C 
ATOM     15  C1  <0> d   1      17.410   4.540  10.893  0.00  0.00     0.026 C 
BRANCH  14  16
ATOM     16  C4  <0> d   1      19.080   3.220  12.165  0.00  0.00     0.181 C 
ATOM     17  O5  <0> d   1      19.508   2.226  12.728  0.00  0.00    -0.647 OA
ATOM     18  O6  <0> d   1      19.677   4.278  12.256  0.00  0.00    -0.647 OA
ENDBRANCH  14  16
ENDBRANCH   1  14
TORSDOF 3
ENDMDL
MODEL 4
REMARK VINA RESULT:      -7.6      3.112      6.600
REMARK  3 active torsions:
REMARK  status: ('A' for Active; 'I' for Inactive)
REMARK    1  A    between atoms: C2_2  and  C4_3 
REMARK    2  A    between atoms: C2_2  and  C7_6 
REMARK    3  A    between atoms: C10_9  and  C11_10 
ROOT
ATOM      1  C7  <0> d   1      18.220   1.819   9.735  0.00  0.00    -0.041 A 
ATOM      2  C8  <0> d   1      17.522   0.629   9.835  0.00  0.00     0.009 A 
ATOM      3  C9  <0> d   1      17.531  -0.271   8.788  0.00  0.00     0.016 A 
ATOM      4  C10 <0> d   1      18.246   0.020   7.628  0.00  0.00     0.013 A 
ATOM      5  C17 <0> d   1      18.949   1.223   7.532  0.00  0.00     0.128 A 
ATOM      6  F18 <0> d   1      19.644   1.512   6.410  0.00  0.00    -0.205 F 
ATOM      7  C19 <0> d   1      18.928   2.118   8.585  0.00  0.00     0.051 A 
ENDROOT
BRANCH   4   8
ATOM      8  C11 <0> d   1      18.259  -0.943   6.500  0.00  0.00    -0.023 A 
ATOM      9  C16 <0> d   1      17.413  -0.754   5.409  0.00  0.00     0.012 A 
ATOM     10  C15 <0> d   1      17.434  -1.650   4.359  0.00  0.00     0.001 A 
ATOM     11  C14 <0> d   1      18.285  -2.740   4.394  0.00  0.00     0.000 A 
ATOM     12  C13 <0> d   1      19.122  -2.936   5.477  0.00  0.00     0.001 A 
ATOM     13  C12 <0> d   1      19.114  -2.043   6.529  0.00  0.00     0.012 A 
ENDBRANCH   4   8
BRANCH   1  14
ATOM     14  C2  <0> d   1      18.205   2.796  10.882  0.00  0.00     0.115 C 
ATOM     15  C1  <0> d   1      17.880   4.196  10.356  0.00  0.00     0.026 C 
BRANCH  14  16
ATOM     16  C4  <0> d   1      19.558   2.811  11.547  0.00  0.00     0.181 C 
ATOM     17  O5  <0> d   1      20.100   1.761  11.849  0.00  0.00    -0.647 OA
ATOM     18  O6  <0> d   1      20.110   3.872  11.782  0.00  0.00    -0.647 OA
ENDBRANCH  14  16
ENDBRANCH   1  14
TORSDOF 3
ENDMDL
MODEL 5
REMARK VINA RESULT:      -7.5      5.956      7.869
REMARK  3 active torsions:
REMARK  status: ('A' for Active; 'I' for Inactive)
REMARK    1  A    between atoms: C2_2  and  C4_3 
REMARK    2  A    between atoms: C2_2  and  C7_6 
REMARK    3  A    between atoms: C10_9  and  C11_10 
ROOT
ATOM      1  C7  <0> d   1      18.505   0.602  15.578  0.00  0.00    -0.041 A 
ATOM      2  C8  <0> d   1      19.063   1.868  15.581  0.00  0.00     0.009 A 
ATOM      3  C9  <0> d   1      18.865   2.715  14.509  0.00  0.00     0.016 A 
ATOM      4  C10 <0> d   1      18.101   2.294  13.422  0.00  0.00     0.013 A 
ATOM      5  C17 <0> d   1      17.542   1.015  13.424  0.00  0.00     0.128 A 
ATOM      6  F18 <0> d   1      16.800   0.600  12.373  0.00  0.00    -0.205 F 
ATOM      7  C19 <0> d   1      17.751   0.174  14.500  0.00  0.00     0.051 A 
ENDROOT
BRANCH   4   8
ATOM      8  C11 <0> d   1      17.886   3.200  12.268  0.00  0.00    -0.023 A 
ATOM      9  C16 <0> d   1      18.411   2.878  11.018  0.00  0.00     0.012 A 
ATOM     10  C15 <0> d   1      18.201   3.722   9.945  0.00  0.00     0.001 A 
ATOM     11  C14 <0> d   1      17.482   4.892  10.113  0.00  0.00     0.000 A 
ATOM     12  C13 <0> d   1      16.964   5.220  11.353  0.00  0.00     0.001 A 
ATOM     13  C12 <0> d   1      17.161   4.380  12.430  0.00  0.00     0.012 A 
ENDBRANCH   4   8
BRANCH   1  14
ATOM     14  C2  <0> d   1      18.726  -0.318  16.751  0.00  0.00     0.115 C 
ATOM     15  C1  <0> d   1      17.544  -1.281  16.874  0.00  0.00     0.026 C 
BRANCH  14  16
ATOM     16  C4  <0> d   1      18.843   0.498  18.014  0.00  0.00     0.181 C 
ATOM     17  O5  <0> d   1      19.943   0.798  18.445  0.00  0.00    -0.647 OA
ATOM     18  O6  <0> d   1      17.838   0.857  18.602  0.00  0.00    -0.647 OA
ENDBRANCH  14  16
ENDBRANCH   1  14
TORSDOF 3
ENDMDL
MODEL 6
REMARK VINA RESULT:      -7.4      5.729      7.636
REMARK  3 active torsions:
REMARK  status: ('A' for Active; 'I' for Inactive)
REMARK    1  A    between atoms: C2_2  and  C4_3 
REMARK    2  A    between atoms: C2_2  and  C7_6 
REMARK    3  A    between atoms: C10_9  and  C11_10 
ROOT
ATOM      1  C7  <0> d   1      18.742  -0.014  14.911  0.00  0.00    -0.041 A 
ATOM      2  C8  <0> d   1      17.584   0.149  14.172  0.00  0.00     0.009 A 
ATOM      3  C9  <0> d   1      17.657   0.472  12.831  0.00  0.00     0.016 A 
ATOM      4  C10 <0> d   1      18.899   0.633  12.222  0.00  0.00     0.013 A 
ATOM      5  C17 <0> d   1      20.065   0.468  12.972  0.00  0.00     0.128 A 
ATOM      6  F18 <0> d   1      21.273   0.623  12.388  0.00  0.00    -0.205 F 
ATOM      7  C19 <0> d   1      19.979   0.150  14.314  0.00  0.00     0.051 A 
ENDROOT
BRANCH   4   8
ATOM      8  C11 <0> d   1      18.984   0.981  10.782  0.00  0.00    -0.023 A 
ATOM      9  C16 <0> d   1      18.806   2.299  10.369  0.00  0.00     0.012 A 
ATOM     10  C15 <0> d   1      18.892   2.618   9.028  0.00  0.00     0.001 A 
ATOM     11  C14 <0> d   1      19.142   1.628   8.095  0.00  0.00     0.000 A 
ATOM     12  C13 <0> d   1      19.313   0.317   8.499  0.00  0.00     0.001 A 
ATOM     13  C12 <0> d   1      19.236  -0.012   9.837  0.00  0.00     0.012 A 
ENDBRANCH   4   8
BRANCH   1  14
ATOM     14  C2  <0> d   1      18.654  -0.367  16.373  0.00  0.00     0.115 C 
ATOM     15  C1  <0> d   1      17.216  -0.760  16.719  0.00  0.00     0.026 C 
BRANCH  14  16
ATOM     16  C4  <0> d   1      19.063   0.824  17.202  0.00  0.00     0.181 C 
ATOM     17  O5  <0> d   1      19.840   0.682  18.131  0.00  0.00    -0.647 OA
ATOM     18  O6  <0> d   1      18.616   1.928  16.944  0.00  0.00    -0.647 OA
ENDBRANCH  14  16
ENDBRANCH   1  14
TORSDOF 3
ENDMDL
MODEL 7
REMARK VINA RESULT:      -7.1      6.054      8.253
REMARK  3 active torsions:
REMARK  status: ('A' for Active; 'I' for Inactive)
REMARK    1  A    between atoms: C2_2  and  C4_3 
REMARK    2  A    between atoms: C2_2  and  C7_6 
REMARK    3  A    between atoms: C10_9  and  C11_10 
ROOT
ATOM      1  C7  <0> d   1      18.391  -0.532  15.454  0.00  0.00    -0.041 A 
ATOM      2  C8  <0> d   1      19.389  -1.349  14.954  0.00  0.00     0.009 A 
ATOM      3  C9  <0> d   1      19.508  -1.545  13.592  0.00  0.00     0.016 A 
ATOM      4  C10 <0> d   1      18.621  -0.918  12.721  0.00  0.00     0.013 A 
ATOM      5  C17 <0> d   1      17.615  -0.094  13.230  0.00  0.00     0.128 A 
ATOM      6  F18 <0> d   1      16.751   0.517  12.390  0.00  0.00    -0.205 F 
ATOM      7  C19 <0> d   1      17.503   0.090  14.595  0.00  0.00     0.051 A 
ENDROOT
BRANCH   4   8
ATOM      8  C11 <0> d   1      18.743  -1.125  11.257  0.00  0.00    -0.023 A 
ATOM      9  C16 <0> d   1      19.622  -0.342  10.510  0.00  0.00     0.012 A 
ATOM     10  C15 <0> d   1      19.736  -0.544   9.149  0.00  0.00     0.001 A 
ATOM     11  C14 <0> d   1      18.972  -1.513   8.525  0.00  0.00     0.000 A 
ATOM     12  C13 <0> d   1      18.094  -2.289   9.260  0.00  0.00     0.001 A 
ATOM     13  C12 <0> d   1      17.976  -2.100  10.622  0.00  0.00     0.012 A 
ENDBRANCH   4   8
BRANCH   1  14
ATOM     14  C2  <0> d   1      18.268  -0.323  16.942  0.00  0.00     0.115 C 
ATOM     15  C1  <0> d   1      16.828   0.065  17.285  0.00  0.00     0.026 C 
BRANCH  14  16
ATOM     16  C4  <0> d   1      19.202   0.778  17.373  0.00  0.00     0.181 C 
ATOM     17  O5  <0> d   1      19.893   0.635  18.368  0.00  0.00    -0.647 OA
ATOM     18  O6  <0> d   1      19.266   1.810  16.729  0.00  0.00    -0.647 OA
ENDBRANCH  14  16
ENDBRANCH   1  14
TORSDOF 3
ENDMDL
MODEL 8
REMARK VINA RESULT:      -7.0      4.009      6.518
REMARK  3 active torsions:
REMARK  status: ('A' for Active; 'I' for Inactive)
REMARK    1  A    between atoms: C2_2  and  C4_3 
REMARK    2  A    between atoms: C2_2  and  C7_6 
REMARK    3  A    between atoms: C10_9  and  C11_10 
ROOT
ATOM      1  C7  <0> d   1      18.912   2.384  11.093  0.00  0.00    -0.041 A 
ATOM      2  C8  <0> d   1      18.763   1.632   9.942  0.00  0.00     0.009 A 
ATOM      3  C9  <0> d   1      18.719   0.254  10.014  0.00  0.00     0.016 A 
ATOM      4  C10 <0> d   1      18.825  -0.380  11.250  0.00  0.00     0.013 A 
ATOM      5  C17 <0> d   1      18.977   0.383  12.409  0.00  0.00     0.128 A 
ATOM      6  F18 <0> d   1      19.080  -0.226  13.611  0.00  0.00    -0.205 F 
ATOM      7  C19 <0> d   1      19.025   1.761  12.323  0.00  0.00     0.051 A 
ENDROOT
BRANCH   4   8
ATOM      8  C11 <0> d   1      18.779  -1.861  11.334  0.00  0.00    -0.023 A 
ATOM      9  C16 <0> d   1      19.959  -2.601  11.305  0.00  0.00     0.012 A 
ATOM     10  C15 <0> d   1      19.911  -3.978  11.390  0.00  0.00     0.001 A 
ATOM     11  C14 <0> d   1      18.692  -4.624  11.492  0.00  0.00     0.000 A 
ATOM     12  C13 <0> d   1      17.517  -3.895  11.515  0.00  0.00     0.001 A 
ATOM     13  C12 <0> d   1      17.554  -2.518  11.437  0.00  0.00     0.012 A 
ENDBRANCH   4   8
BRANCH   1  14
ATOM     14  C2  <0> d   1      18.960   3.888  11.006  0.00  0.00     0.115 C 
ATOM     15  C1  <0> d   1      19.317   4.467  12.376  0.00  0.00     0.026 C 
BRANCH  14  16
ATOM     16  C4  <0> d   1      17.612   4.409  10.576  0.00  0.00     0.181 C 
ATOM     17  O5  <0> d   1      16.614   4.112  11.210  0.00  0.00    -0.647 OA
ATOM     18  O6  <0> d   1      17.521   5.125   9.595  0.00  0.00    -0.647 OA
ENDBRANCH  14  16
ENDBRANCH   1  14
TORSDOF 3
ENDMDL
MODEL 9
REMARK VINA RESULT:      -6.9      4.531      7.542
REMARK  3 active torsions:
REMARK  status: ('A' for Active; 'I' for Inactive)
REMARK    1  A    between atoms: C2_2  and  C4_3 
REMARK    2  A    between atoms: C2_2  and  C7_6 
REMARK    3  A    between atoms: C10_9  and  C11_10 
ROOT
ATOM      1  C7  <0> d   1      18.249   4.271  13.472  0.00  0.00    -0.041 A 
ATOM      2  C8  <0> d   1      18.734   2.977  13.529  0.00  0.00     0.009 A 
ATOM      3  C9  <0> d   1      18.767   2.197  12.390  0.00  0.00     0.016 A 
ATOM      4  C10 <0> d   1      18.311   2.716  11.180  0.00  0.00     0.013 A 
ATOM      5  C17 <0> d   1      17.822   4.022  11.127  0.00  0.00     0.128 A 
ATOM      6  F18 <0> d   1      17.379   4.532   9.957  0.00  0.00    -0.205 F 
ATOM      7  C19 <0> d   1      17.790   4.791  12.275  0.00  0.00     0.051 A 
ENDROOT
BRANCH   4   8
ATOM      8  C11 <0> d   1      18.344   1.882   9.953  0.00  0.00    -0.023 A 
ATOM      9  C16 <0> d   1      17.497   0.783   9.832  0.00  0.00     0.012 A 
ATOM     10  C15 <0> d   1      17.527   0.014   8.685  0.00  0.00     0.001 A 
ATOM     11  C14 <0> d   1      18.404   0.328   7.663  0.00  0.00     0.000 A 
ATOM     12  C13 <0> d   1      19.251   1.415   7.780  0.00  0.00     0.001 A 
ATOM     13  C12 <0> d   1      19.225   2.194   8.920  0.00  0.00     0.012 A 
ENDBRANCH   4   8
BRANCH   1  14
ATOM     14  C2  <0> d   1      18.216   5.116  14.719  0.00  0.00     0.115 C 
ATOM     15  C1  <0> d   1      16.839   5.768  14.857  0.00  0.00     0.026 C 
BRANCH  14  16
ATOM     16  C4  <0> d   1      19.273   6.188  14.628  0.00  0.00     0.181 C 
ATOM     17  O5  <0> d   1      18.983   7.350  14.858  0.00  0.00    -0.647 OA
ATOM     18  O6  <0> d   1      20.415   5.893  14.324  0.00  0.00    -0.647 OA
ENDBRANCH  14  16
ENDBRANCH   1  14
TORSDOF 3
ENDMDL
