MODEL 1
REMARK VINA RESULT:      -8.3      0.000      0.000
REMARK  0 active torsions:
REMARK  status: ('A' for Active; 'I' for Inactive)
REMARK       I    between atoms: N1_1  and  C2_2 
REMARK       I    between atoms: C2_2  and  N4_4 
ROOT
ATOM      1  N1  ZIN A   1      18.881   3.492  11.773  0.00  0.00    -0.351 N 
ATOM      2  C2  ZIN A   1      18.659   2.970  10.551  0.00  0.00     0.325 C 
ATOM      3  O3  ZIN A   1      18.376   3.699   9.620  0.00  0.00    -0.247 OA
ATOM      4  N4  ZIN A   1      18.751   1.638  10.360  0.00  0.00    -0.263 N 
ATOM      5  C5  ZIN A   1      18.517   1.153   9.076  0.00  0.00     0.051 A 
ATOM      6  C6  ZIN A   1      19.171   1.843   8.047  0.00  0.00     0.031 A 
ATOM      7  C7  ZIN A   1      19.024   1.465   6.733  0.00  0.00     0.002 A 
ATOM      8  C8  ZIN A   1      18.216   0.387   6.423  0.00  0.00     0.001 A 
ATOM      9  C9  ZIN A   1      17.572  -0.294   7.431  0.00  0.00     0.010 A 
ATOM     10  C10 ZIN A   1      17.714   0.079   8.769  0.00  0.00    -0.024 A 
ATOM     11  C11 ZIN A   1      16.942  -0.776   9.742  0.00  0.00     0.125 C 
ATOM     12  C12 ZIN A   1      16.878  -0.212  11.124  0.00  0.00     0.166 C 
ATOM     13  O13 ZIN A   1      15.806   0.102  11.596  0.00  0.00    -0.292 OA
ATOM     14  C14 ZIN A   1      18.097  -0.036  11.914  0.00  0.00     0.037 A 
ATOM     15  C15 ZIN A   1      18.307  -0.745  13.100  0.00  0.00     0.017 A 
ATOM     16  C16 ZIN A   1      19.500  -0.589  13.776  0.00  0.00     0.001 A 
ATOM     17  C17 ZIN A   1      20.483   0.254  13.285  0.00  0.00     0.002 A 
ATOM     18  C18 ZIN A   1      20.276   0.977  12.124  0.00  0.00     0.031 A 
ATOM     19  C19 ZIN A   1      19.077   0.855  11.452  0.00  0.00     0.058 A 
ATOM     20  H20 ZIN A   1      18.816   4.450  11.910  0.00  0.00     0.160 HD
ATOM     21  H21 ZIN A   1      19.104   2.909  12.516  0.00  0.00     0.160 HD
ENDROOT
TORSDOF 0
ENDMDL
MODEL 2
REMARK VINA RESULT:      -8.2      3.533      5.832
REMARK  0 active torsions:
REMARK  status: ('A' for Active; 'I' for Inactive)
REMARK       I    between atoms: N1_1  and  C2_2 
REMARK       I    between atoms: C2_2  and  N4_4 
ROOT
ATOM      1  N1  ZIN A   1      20.723  -0.512   9.858  0.00  0.00    -0.351 N 
ATOM      2  C2  ZIN A   1      19.935  -1.576  10.114  0.00  0.00     0.325 C 
ATOM      3  O3  ZIN A   1      20.093  -2.217  11.135  0.00  0.00    -0.247 OA
ATOM      4  N4  ZIN A   1      18.974  -1.930   9.238  0.00  0.00    -0.263 N 
ATOM      5  C5  ZIN A   1      18.186  -3.033   9.555  0.00  0.00     0.051 A 
ATOM      6  C6  ZIN A   1      17.692  -3.058  10.865  0.00  0.00     0.031 A 
ATOM      7  C7  ZIN A   1      16.901  -4.094  11.306  0.00  0.00     0.002 A 
ATOM      8  C8  ZIN A   1      16.591  -5.127  10.441  0.00  0.00     0.001 A 
ATOM      9  C9  ZIN A   1      17.075  -5.106   9.153  0.00  0.00     0.010 A 
ATOM     10  C10 ZIN A   1      17.878  -4.060   8.693  0.00  0.00    -0.024 A 
ATOM     11  C11 ZIN A   1      18.318  -4.194   7.257  0.00  0.00     0.125 C 
ATOM     12  C12 ZIN A   1      19.386  -3.228   6.860  0.00  0.00     0.166 C 
ATOM     13  O13 ZIN A   1      20.475  -3.642   6.523  0.00  0.00    -0.292 OA
ATOM     14  C14 ZIN A   1      19.130  -1.787   6.871  0.00  0.00     0.037 A 
ATOM     15  C15 ZIN A   1      19.157  -1.031   5.696  0.00  0.00     0.017 A 
ATOM     16  C16 ZIN A   1      18.848   0.312   5.752  0.00  0.00     0.001 A 
ATOM     17  C17 ZIN A   1      18.508   0.908   6.956  0.00  0.00     0.002 A 
ATOM     18  C18 ZIN A   1      18.502   0.173   8.128  0.00  0.00     0.031 A 
ATOM     19  C19 ZIN A   1      18.837  -1.165   8.093  0.00  0.00     0.058 A 
ATOM     20  H20 ZIN A   1      21.414  -0.257  10.488  0.00  0.00     0.160 HD
ATOM     21  H21 ZIN A   1      20.598  -0.003   9.041  0.00  0.00     0.160 HD
ENDROOT
TORSDOF 0
ENDMDL
MODEL 3
REMARK VINA RESULT:      -8.1      3.585      5.255
REMARK  0 active torsions:
REMARK  status: ('A' for Active; 'I' for Inactive)
REMARK       I    between atoms: N1_1  and  C2_2 
REMARK       I    between atoms: C2_2  and  N4_4 
ROOT
ATOM      1  N1  ZIN A   1      20.644   0.233  13.314  0.00  0.00    -0.351 N 
ATOM      2  C2  ZIN A   1      19.950   1.324  12.932  0.00  0.00     0.325 C 
ATOM      3  O3  ZIN A   1      20.266   1.922  11.921  0.00  0.00    -0.247 OA
ATOM      4  N4  ZIN A   1      18.906   1.752  13.669  0.00  0.00    -0.263 N 
ATOM      5  C5  ZIN A   1      18.222   2.880  13.225  0.00  0.00     0.051 A 
ATOM      6  C6  ZIN A   1      17.896   2.884  11.863  0.00  0.00     0.031 A 
ATOM      7  C7  ZIN A   1      17.220   3.940  11.298  0.00  0.00     0.002 A 
ATOM      8  C8  ZIN A   1      16.858   5.015  12.088  0.00  0.00     0.001 A 
ATOM      9  C9  ZIN A   1      17.176   5.016  13.427  0.00  0.00     0.010 A 
ATOM     10  C10 ZIN A   1      17.861   3.949  14.013  0.00  0.00    -0.024 A 
ATOM     11  C11 ZIN A   1      18.126   4.111  15.488  0.00  0.00     0.125 C 
ATOM     12  C12 ZIN A   1      19.086   3.110  16.043  0.00  0.00     0.166 C 
ATOM     13  O13 ZIN A   1      20.144   3.483  16.503  0.00  0.00    -0.292 OA
ATOM     14  C14 ZIN A   1      18.760   1.683  16.040  0.00  0.00     0.037 A 
ATOM     15  C15 ZIN A   1      18.602   0.967  17.230  0.00  0.00     0.017 A 
ATOM     16  C16 ZIN A   1      18.234  -0.361  17.173  0.00  0.00     0.001 A 
ATOM     17  C17 ZIN A   1      18.017  -0.981  15.953  0.00  0.00     0.002 A 
ATOM     18  C18 ZIN A   1      18.194  -0.287  14.769  0.00  0.00     0.031 A 
ATOM     19  C19 ZIN A   1      18.589   1.034  14.809  0.00  0.00     0.058 A 
ATOM     20  H20 ZIN A   1      21.395  -0.075  12.783  0.00  0.00     0.160 HD
ATOM     21  H21 ZIN A   1      20.394  -0.242  14.122  0.00  0.00     0.160 HD
ENDROOT
TORSDOF 0
ENDMDL
MODEL 4
REMARK VINA RESULT:      -8.0      2.552      4.621
REMARK  0 active torsions:
REMARK  status: ('A' for Active; 'I' for Inactive)
REMARK       I    between atoms: N1_1  and  C2_2 
REMARK       I    between atoms: C2_2  and  N4_4 
ROOT
ATOM      1  N1  ZIN A   1      17.306  -0.633   7.217  0.00  0.00    -0.351 N 
ATOM      2  C2  ZIN A   1      17.680  -1.544   8.137  0.00  0.00     0.325 C 
ATOM      3  O3  ZIN A   1      17.500  -2.729   7.927  0.00  0.00    -0.247 OA
ATOM      4  N4  ZIN A   1      18.253  -1.144   9.290  0.00  0.00    -0.263 N 
ATOM      5  C5  ZIN A   1      18.624  -2.128  10.202  0.00  0.00     0.051 A 
ATOM      6  C6  ZIN A   1      19.320  -3.215   9.658  0.00  0.00     0.031 A 
ATOM      7  C7  ZIN A   1      19.744  -4.256  10.452  0.00  0.00     0.002 A 
ATOM      8  C8  ZIN A   1      19.476  -4.228  11.808  0.00  0.00     0.001 A 
ATOM      9  C9  ZIN A   1      18.793  -3.162  12.346  0.00  0.00     0.010 A 
ATOM     10  C10 ZIN A   1      18.358  -2.098  11.552  0.00  0.00    -0.024 A 
ATOM     11  C11 ZIN A   1      17.628  -1.013  12.302  0.00  0.00     0.125 C 
ATOM     12  C12 ZIN A   1      16.935  -0.028  11.419  0.00  0.00     0.166 C 
ATOM     13  O13 ZIN A   1      15.727   0.070  11.459  0.00  0.00    -0.292 OA
ATOM     14  C14 ZIN A   1      17.701   0.821  10.505  0.00  0.00     0.037 A 
ATOM     15  C15 ZIN A   1      17.726   2.212  10.649  0.00  0.00     0.017 A 
ATOM     16  C16 ZIN A   1      18.512   2.963   9.800  0.00  0.00     0.001 A 
ATOM     17  C17 ZIN A   1      19.275   2.350   8.819  0.00  0.00     0.002 A 
ATOM     18  C18 ZIN A   1      19.239   0.977   8.655  0.00  0.00     0.031 A 
ATOM     19  C19 ZIN A   1      18.435   0.214   9.477  0.00  0.00     0.058 A 
ATOM     20  H20 ZIN A   1      16.894  -0.921   6.388  0.00  0.00     0.160 HD
ATOM     21  H21 ZIN A   1      17.447   0.312   7.387  0.00  0.00     0.160 HD
ENDROOT
TORSDOF 0
ENDMDL
MODEL 5
REMARK VINA RESULT:      -8.0      3.116      5.817
REMARK  0 active torsions:
REMARK  status: ('A' for Active; 'I' for Inactive)
REMARK       I    between atoms: N1_1  and  C2_2 
REMARK       I    between atoms: C2_2  and  N4_4 
ROOT
ATOM      1  N1  ZIN A   1      19.549   4.272  14.470  0.00  0.00    -0.351 N 
ATOM      2  C2  ZIN A   1      19.291   3.067  15.016  0.00  0.00     0.325 C 
ATOM      3  O3  ZIN A   1      19.542   2.864  16.189  0.00  0.00    -0.247 OA
ATOM      4  N4  ZIN A   1      18.754   2.086  14.263  0.00  0.00    -0.263 N 
ATOM      5  C5  ZIN A   1      18.502   0.864  14.880  0.00  0.00     0.051 A 
ATOM      6  C6  ZIN A   1      17.856   0.941  16.120  0.00  0.00     0.031 A 
ATOM      7  C7  ZIN A   1      17.551  -0.194  16.833  0.00  0.00     0.002 A 
ATOM      8  C8  ZIN A   1      17.888  -1.432  16.317  0.00  0.00     0.001 A 
ATOM      9  C9  ZIN A   1      18.523  -1.512  15.099  0.00  0.00     0.010 A 
ATOM     10  C10 ZIN A   1      18.838  -0.367  14.364  0.00  0.00    -0.024 A 
ATOM     11  C11 ZIN A   1      19.529  -0.636  13.052  0.00  0.00     0.125 C 
ATOM     12  C12 ZIN A   1      20.102   0.584  12.409  0.00  0.00     0.166 C 
ATOM     13  O13 ZIN A   1      21.301   0.671  12.246  0.00  0.00    -0.292 OA
ATOM     14  C14 ZIN A   1      19.231   1.676  11.972  0.00  0.00     0.037 A 
ATOM     15  C15 ZIN A   1      19.116   2.023  10.623  0.00  0.00     0.017 A 
ATOM     16  C16 ZIN A   1      18.234   3.019  10.257  0.00  0.00     0.001 A 
ATOM     17  C17 ZIN A   1      17.465   3.665  11.211  0.00  0.00     0.002 A 
ATOM     18  C18 ZIN A   1      17.588   3.344  12.550  0.00  0.00     0.031 A 
ATOM     19  C19 ZIN A   1      18.487   2.371  12.936  0.00  0.00     0.058 A 
ATOM     20  H20 ZIN A   1      19.936   4.977  15.012  0.00  0.00     0.160 HD
ATOM     21  H21 ZIN A   1      19.352   4.432  13.534  0.00  0.00     0.160 HD
ENDROOT
TORSDOF 0
ENDMDL
MODEL 6
REMARK VINA RESULT:      -7.7      3.946      5.256
REMARK  0 active torsions:
REMARK  status: ('A' for Active; 'I' for Inactive)
REMARK       I    between atoms: N1_1  and  C2_2 
REMARK       I    between atoms: C2_2  and  N4_4 
ROOT
ATOM      1  N1  ZIN A   1      19.758  -5.253   7.699  0.00  0.00    -0.351 N 
ATOM      2  C2  ZIN A   1      19.644  -3.961   7.334  0.00  0.00     0.325 C 
ATOM      3  O3  ZIN A   1      20.357  -3.510   6.459  0.00  0.00    -0.247 OA
ATOM      4  N4  ZIN A   1      18.738  -3.167   7.940  0.00  0.00    -0.263 N 
ATOM      5  C5  ZIN A   1      18.658  -1.842   7.521  0.00  0.00     0.051 A 
ATOM      6  C6  ZIN A   1      18.626  -1.655   6.133  0.00  0.00     0.031 A 
ATOM      7  C7  ZIN A   1      18.549  -0.394   5.588  0.00  0.00     0.002 A 
ATOM      8  C8  ZIN A   1      18.503   0.705   6.425  0.00  0.00     0.001 A 
ATOM      9  C9  ZIN A   1      18.535   0.527   7.788  0.00  0.00     0.010 A 
ATOM     10  C10 ZIN A   1      18.612  -0.748   8.355  0.00  0.00    -0.024 A 
ATOM     11  C11 ZIN A   1      18.634  -0.763   9.862  0.00  0.00     0.125 C 
ATOM     12  C12 ZIN A   1      18.991  -2.090  10.448  0.00  0.00     0.166 C 
ATOM     13  O13 ZIN A   1      20.002  -2.203  11.108  0.00  0.00    -0.292 OA
ATOM     14  C14 ZIN A   1      18.130  -3.254  10.235  0.00  0.00     0.037 A 
ATOM     15  C15 ZIN A   1      17.476  -3.883  11.299  0.00  0.00     0.017 A 
ATOM     16  C16 ZIN A   1      16.627  -4.939  11.038  0.00  0.00     0.001 A 
ATOM     17  C17 ZIN A   1      16.416  -5.369   9.738  0.00  0.00     0.002 A 
ATOM     18  C18 ZIN A   1      17.076  -4.768   8.681  0.00  0.00     0.031 A 
ATOM     19  C19 ZIN A   1      17.951  -3.730   8.929  0.00  0.00     0.058 A 
ATOM     20  H20 ZIN A   1      20.409  -5.824   7.263  0.00  0.00     0.160 HD
ATOM     21  H21 ZIN A   1      19.191  -5.611   8.400  0.00  0.00     0.160 HD
ENDROOT
TORSDOF 0
ENDMDL
MODEL 7
REMARK VINA RESULT:      -7.4      4.094      6.000
REMARK  0 active torsions:
REMARK  status: ('A' for Active; 'I' for Inactive)
REMARK       I    between atoms: N1_1  and  C2_2 
REMARK       I    between atoms: C2_2  and  N4_4 
ROOT
ATOM      1  N1  ZIN A   1      19.917   1.393  12.846  0.00  0.00    -0.351 N 
ATOM      2  C2  ZIN A   1      19.274   2.575  12.922  0.00  0.00     0.325 C 
ATOM      3  O3  ZIN A   1      19.477   3.433  12.084  0.00  0.00    -0.247 OA
ATOM      4  N4  ZIN A   1      18.405   2.807  13.926  0.00  0.00    -0.263 N 
ATOM      5  C5  ZIN A   1      17.764   4.043  13.952  0.00  0.00     0.051 A 
ATOM      6  C6  ZIN A   1      17.226   4.463  12.729  0.00  0.00     0.031 A 
ATOM      7  C7  ZIN A   1      16.568   5.666  12.619  0.00  0.00     0.002 A 
ATOM      8  C8  ZIN A   1      16.437   6.473  13.735  0.00  0.00     0.001 A 
ATOM      9  C9  ZIN A   1      16.964   6.063  14.938  0.00  0.00     0.010 A 
ATOM     10  C10 ZIN A   1      17.633   4.844  15.063  0.00  0.00    -0.024 A 
ATOM     11  C11 ZIN A   1      18.144   4.550  16.451  0.00  0.00     0.125 C 
ATOM     12  C12 ZIN A   1      19.085   3.391  16.516  0.00  0.00     0.166 C 
ATOM     13  O13 ZIN A   1      20.233   3.568  16.865  0.00  0.00    -0.292 OA
ATOM     14  C14 ZIN A   1      18.634   2.044  16.164  0.00  0.00     0.037 A 
ATOM     15  C15 ZIN A   1      18.603   1.014  17.109  0.00  0.00     0.017 A 
ATOM     16  C16 ZIN A   1      18.111  -0.221  16.743  0.00  0.00     0.001 A 
ATOM     17  C17 ZIN A   1      17.646  -0.442  15.456  0.00  0.00     0.002 A 
ATOM     18  C18 ZIN A   1      17.694   0.564  14.508  0.00  0.00     0.031 A 
ATOM     19  C19 ZIN A   1      18.210   1.797  14.851  0.00  0.00     0.058 A 
ATOM     20  H20 ZIN A   1      20.542   1.226  12.124  0.00  0.00     0.160 HD
ATOM     21  H21 ZIN A   1      19.757   0.710  13.517  0.00  0.00     0.160 HD
ENDROOT
TORSDOF 0
ENDMDL
MODEL 8
REMARK VINA RESULT:      -7.4      2.819      3.516
REMARK  0 active torsions:
REMARK  status: ('A' for Active; 'I' for Inactive)
REMARK       I    between atoms: N1_1  and  C2_2 
REMARK       I    between atoms: C2_2  and  N4_4 
ROOT
ATOM      1  N1  ZIN A   1      17.130  -1.195  11.930  0.00  0.00    -0.351 N 
ATOM      2  C2  ZIN A   1      17.385  -0.593  10.751  0.00  0.00     0.325 C 
ATOM      3  O3  ZIN A   1      16.745   0.385  10.416  0.00  0.00    -0.247 OA
ATOM      4  N4  ZIN A   1      18.351  -1.075   9.943  0.00  0.00    -0.263 N 
ATOM      5  C5  ZIN A   1      18.576  -0.411   8.740  0.00  0.00     0.051 A 
ATOM      6  C6  ZIN A   1      18.664   0.984   8.835  0.00  0.00     0.031 A 
ATOM      7  C7  ZIN A   1      18.884   1.758   7.719  0.00  0.00     0.002 A 
ATOM      8  C8  ZIN A   1      19.019   1.149   6.486  0.00  0.00     0.001 A 
ATOM      9  C9  ZIN A   1      18.933  -0.221   6.389  0.00  0.00     0.010 A 
ATOM     10  C10 ZIN A   1      18.712  -1.019   7.513  0.00  0.00    -0.024 A 
ATOM     11  C11 ZIN A   1      18.648  -2.498   7.229  0.00  0.00     0.125 C 
ATOM     12  C12 ZIN A   1      18.143  -3.313   8.374  0.00  0.00     0.166 C 
ATOM     13  O13 ZIN A   1      17.109  -3.935   8.259  0.00  0.00    -0.292 OA
ATOM     14  C14 ZIN A   1      18.886  -3.369   9.634  0.00  0.00     0.037 A 
ATOM     15  C15 ZIN A   1      19.444  -4.563  10.101  0.00  0.00     0.017 A 
ATOM     16  C16 ZIN A   1      20.187  -4.550  11.262  0.00  0.00     0.001 A 
ATOM     17  C17 ZIN A   1      20.387  -3.369  11.959  0.00  0.00     0.002 A 
ATOM     18  C18 ZIN A   1      19.820  -2.187  11.517  0.00  0.00     0.031 A 
ATOM     19  C19 ZIN A   1      19.050  -2.188  10.373  0.00  0.00     0.058 A 
ATOM     20  H20 ZIN A   1      16.435  -0.848  12.511  0.00  0.00     0.160 HD
ATOM     21  H21 ZIN A   1      17.639  -1.977  12.195  0.00  0.00     0.160 HD
ENDROOT
TORSDOF 0
ENDMDL
MODEL 9
REMARK VINA RESULT:      -7.4      2.609      5.701
REMARK  0 active torsions:
REMARK  status: ('A' for Active; 'I' for Inactive)
REMARK       I    between atoms: N1_1  and  C2_2 
REMARK       I    between atoms: C2_2  and  N4_4 
ROOT
ATOM      1  N1  ZIN A   1      16.965  -0.201  12.233  0.00  0.00    -0.351 N 
ATOM      2  C2  ZIN A   1      17.411   0.677  13.153  0.00  0.00     0.325 C 
ATOM      3  O3  ZIN A   1      17.015   0.609  14.301  0.00  0.00    -0.247 OA
ATOM      4  N4  ZIN A   1      18.296   1.631  12.802  0.00  0.00    -0.263 N 
ATOM      5  C5  ZIN A   1      18.728   2.508  13.794  0.00  0.00     0.051 A 
ATOM      6  C6  ZIN A   1      19.107   1.906  15.000  0.00  0.00     0.031 A 
ATOM      7  C7  ZIN A   1      19.551   2.660  16.061  0.00  0.00     0.002 A 
ATOM      8  C8  ZIN A   1      19.624   4.035  15.933  0.00  0.00     0.001 A 
ATOM      9  C9  ZIN A   1      19.254   4.630  14.750  0.00  0.00     0.010 A 
ATOM     10  C10 ZIN A   1      18.801   3.876  13.665  0.00  0.00    -0.024 A 
ATOM     11  C11 ZIN A   1      18.440   4.686  12.446  0.00  0.00     0.125 C 
ATOM     12  C12 ZIN A   1      17.707   3.912  11.400  0.00  0.00     0.166 C 
ATOM     13  O13 ZIN A   1      16.572   4.222  11.107  0.00  0.00    -0.292 OA
ATOM     14  C14 ZIN A   1      18.346   2.782  10.724  0.00  0.00     0.037 A 
ATOM     15  C15 ZIN A   1      18.608   2.806   9.351  0.00  0.00     0.017 A 
ATOM     16  C16 ZIN A   1      19.268   1.742   8.772  0.00  0.00     0.001 A 
ATOM     17  C17 ZIN A   1      19.675   0.663   9.541  0.00  0.00     0.002 A 
ATOM     18  C18 ZIN A   1      19.401   0.620  10.896  0.00  0.00     0.031 A 
ATOM     19  C19 ZIN A   1      18.715   1.663  11.484  0.00  0.00     0.058 A 
ATOM     20  H20 ZIN A   1      16.328  -0.887  12.486  0.00  0.00     0.160 HD
ATOM     21  H21 ZIN A   1      17.279  -0.143  11.317  0.00  0.00     0.160 HD
ENDROOT
TORSDOF 0
ENDMDL
