MODEL 1
REMARK VINA RESULT:      -8.4      0.000      0.000
REMARK  5 active torsions:
REMARK  status: ('A' for Active; 'I' for Inactive)
REMARK    1  A    between atoms: C2_2  and  O3_3 
REMARK    2  A    between atoms: O3_3  and  C4_4 
REMARK    3  A    between atoms: C4_4  and  C6_6 
REMARK    4  A    between atoms: C9_9  and  C10_10 
REMARK    5  A    between atoms: C11_11  and  C12_12 
ROOT
ATOM      1  C10 ZIN A   1      18.981   0.898  10.845  0.00  0.00    -0.041 C 
ATOM      2  C11 ZIN A   1      18.932   1.174  11.985  0.00  0.00    -0.060 C 
ENDROOT
BRANCH   2   3
ATOM      3  C12 ZIN A   1      18.871   1.509  13.376  0.00  0.00     0.018 A 
ATOM      4  C23 ZIN A   1      18.727   0.506  14.333  0.00  0.00     0.029 A 
ATOM      5  C22 ZIN A   1      18.673   0.812  15.686  0.00  0.00    -0.032 A 
ATOM      6  C15 ZIN A   1      18.767   2.138  16.079  0.00  0.00     0.007 A 
ATOM      7  C19 ZIN A   1      18.507  -0.348  16.624  0.00  0.00    -0.018 C 
ATOM      8  C14 ZIN A   1      18.899   3.147  15.120  0.00  0.00     0.020 A 
ATOM      9  S16 ZIN A   1      18.748   2.620  17.777  0.00  0.00    -0.129 SA
ATOM     10  C13 ZIN A   1      18.951   2.846  13.782  0.00  0.00     0.022 A 
ATOM     11  C17 ZIN A   1      18.184   1.109  18.612  0.00  0.00     0.080 C 
ATOM     12  C18 ZIN A   1      18.992  -0.062  18.035  0.00  0.00     0.024 C 
ATOM     13  C20 ZIN A   1      19.287  -1.541  16.070  0.00  0.00     0.020 C 
ATOM     14  C21 ZIN A   1      17.023  -0.718  16.682  0.00  0.00     0.020 C 
ENDBRANCH   2   3
BRANCH   1  15
ATOM     15  C9  ZIN A   1      19.041   0.563   9.454  0.00  0.00     0.110 A 
ATOM     16  C8  ZIN A   1      18.917   1.574   8.494  0.00  0.00     0.042 A 
ATOM     17  C7  ZIN A   1      18.975   1.247   7.166  0.00  0.00     0.022 A 
ATOM     18  C6  ZIN A   1      19.158  -0.099   6.813  0.00  0.00     0.057 A 
ATOM     19  C25 ZIN A   1      19.269  -1.058   7.825  0.00  0.00     0.135 A 
ATOM     20  N24 ZIN A   1      19.215  -0.706   9.090  0.00  0.00    -0.251 NA
BRANCH  18  21
ATOM     21  C4  ZIN A   1      19.227  -0.497   5.396  0.00  0.00     0.294 C 
ATOM     22  O5  ZIN A   1      18.760   0.226   4.539  0.00  0.00    -0.259 OA
BRANCH  21  23
ATOM     23  O3  ZIN A   1      19.807  -1.664   5.051  0.00  0.00    -0.318 OA
BRANCH  23  24
ATOM     24  C2  ZIN A   1      18.957  -2.666   4.433  0.00  0.00     0.174 C 
ATOM     25  C1  ZIN A   1      18.745  -3.824   5.409  0.00  0.00     0.034 C 
ENDBRANCH  23  24
ENDBRANCH  21  23
ENDBRANCH  18  21
ENDBRANCH   1  15
TORSDOF 5
ENDMDL
MODEL 2
REMARK VINA RESULT:      -8.0      5.026     10.080
REMARK  5 active torsions:
REMARK  status: ('A' for Active; 'I' for Inactive)
REMARK    1  A    between atoms: C2_2  and  O3_3 
REMARK    2  A    between atoms: O3_3  and  C4_4 
REMARK    3  A    between atoms: C4_4  and  C6_6 
REMARK    4  A    between atoms: C9_9  and  C10_10 
REMARK    5  A    between atoms: C11_11  and  C12_12 
ROOT
ATOM      1  C10 ZIN A   1      18.955  -1.044  12.311  0.00  0.00    -0.041 C 
ATOM      2  C11 ZIN A   1      18.950  -1.383  11.187  0.00  0.00    -0.060 C 
ENDROOT
BRANCH   2   3
ATOM      3  C12 ZIN A   1      18.944  -1.797   9.817  0.00  0.00     0.018 A 
ATOM      4  C23 ZIN A   1      18.745  -0.861   8.802  0.00  0.00     0.029 A 
ATOM      5  C22 ZIN A   1      18.742  -1.244   7.468  0.00  0.00    -0.032 A 
ATOM      6  C15 ZIN A   1      18.943  -2.578   7.152  0.00  0.00     0.007 A 
ATOM      7  C19 ZIN A   1      18.510  -0.152   6.464  0.00  0.00    -0.018 C 
ATOM      8  C14 ZIN A   1      19.128  -3.521   8.168  0.00  0.00     0.020 A 
ATOM      9  S16 ZIN A   1      18.994  -3.152   5.483  0.00  0.00    -0.129 SA
ATOM     10  C13 ZIN A   1      19.130  -3.144   9.487  0.00  0.00     0.022 A 
ATOM     11  C17 ZIN A   1      18.337  -1.735   4.555  0.00  0.00     0.080 C 
ATOM     12  C18 ZIN A   1      19.044  -0.477   5.080  0.00  0.00     0.024 C 
ATOM     13  C20 ZIN A   1      19.188   1.125   6.963  0.00  0.00     0.020 C 
ATOM     14  C21 ZIN A   1      17.005   0.101   6.361  0.00  0.00     0.020 C 
ENDBRANCH   2   3
BRANCH   1  15
ATOM     15  C9  ZIN A   1      18.961  -0.630  13.682  0.00  0.00     0.110 A 
ATOM     16  C8  ZIN A   1      18.753  -1.578  14.691  0.00  0.00     0.042 A 
ATOM     17  C7  ZIN A   1      18.760  -1.176  15.999  0.00  0.00     0.022 A 
ATOM     18  C6  ZIN A   1      18.977   0.182  16.283  0.00  0.00     0.057 A 
ATOM     19  C25 ZIN A   1      19.171   1.075  15.226  0.00  0.00     0.135 A 
ATOM     20  N24 ZIN A   1      19.164   0.652  13.981  0.00  0.00    -0.251 NA
BRANCH  18  21
ATOM     21  C4  ZIN A   1      18.992   0.659  17.677  0.00  0.00     0.294 C 
ATOM     22  O5  ZIN A   1      18.386   0.050  18.535  0.00  0.00    -0.259 OA
BRANCH  21  23
ATOM     23  O3  ZIN A   1      19.680   1.773  18.000  0.00  0.00    -0.318 OA
BRANCH  23  24
ATOM     24  C2  ZIN A   1      18.920   2.878  18.558  0.00  0.00     0.174 C 
ATOM     25  C1  ZIN A   1      18.734   3.958  17.491  0.00  0.00     0.034 C 
ENDBRANCH  23  24
ENDBRANCH  21  23
ENDBRANCH  18  21
ENDBRANCH   1  15
TORSDOF 5
ENDMDL
MODEL 3
REMARK VINA RESULT:      -7.8      3.737      4.631
REMARK  5 active torsions:
REMARK  status: ('A' for Active; 'I' for Inactive)
REMARK    1  A    between atoms: C2_2  and  O3_3 
REMARK    2  A    between atoms: O3_3  and  C4_4 
REMARK    3  A    between atoms: C4_4  and  C6_6 
REMARK    4  A    between atoms: C9_9  and  C10_10 
REMARK    5  A    between atoms: C11_11  and  C12_12 
ROOT
ATOM      1  C10 ZIN A   1      17.870  -2.780  11.398  0.00  0.00    -0.041 C 
ATOM      2  C11 ZIN A   1      18.034  -1.857  12.104  0.00  0.00    -0.060 C 
ENDROOT
BRANCH   2   3
ATOM      3  C12 ZIN A   1      18.233  -0.730  12.965  0.00  0.00     0.018 A 
ATOM      4  C23 ZIN A   1      18.273  -0.903  14.348  0.00  0.00     0.029 A 
ATOM      5  C22 ZIN A   1      18.471   0.177  15.198  0.00  0.00    -0.032 A 
ATOM      6  C15 ZIN A   1      18.633   1.440  14.650  0.00  0.00     0.007 A 
ATOM      7  C19 ZIN A   1      18.486  -0.126  16.667  0.00  0.00    -0.018 C 
ATOM      8  C14 ZIN A   1      18.581   1.618  13.264  0.00  0.00     0.020 A 
ATOM      9  S16 ZIN A   1      18.929   2.866  15.648  0.00  0.00    -0.129 SA
ATOM     10  C13 ZIN A   1      18.383   0.551  12.424  0.00  0.00     0.022 A 
ATOM     11  C17 ZIN A   1      18.535   2.272  17.318  0.00  0.00     0.080 C 
ATOM     12  C18 ZIN A   1      19.224   0.911  17.494  0.00  0.00     0.024 C 
ATOM     13  C20 ZIN A   1      19.152  -1.487  16.879  0.00  0.00     0.020 C 
ATOM     14  C21 ZIN A   1      17.040  -0.207  17.161  0.00  0.00     0.020 C 
ENDBRANCH   2   3
BRANCH   1  15
ATOM     15  C9  ZIN A   1      17.671  -3.907  10.537  0.00  0.00     0.110 A 
ATOM     16  C8  ZIN A   1      17.207  -5.114  11.075  0.00  0.00     0.042 A 
ATOM     17  C7  ZIN A   1      17.018  -6.187  10.247  0.00  0.00     0.022 A 
ATOM     18  C6  ZIN A   1      17.300  -6.038   8.880  0.00  0.00     0.057 A 
ATOM     19  C25 ZIN A   1      17.766  -4.806   8.412  0.00  0.00     0.135 A 
ATOM     20  N24 ZIN A   1      17.929  -3.795   9.235  0.00  0.00    -0.251 NA
BRANCH  18  21
ATOM     21  C4  ZIN A   1      17.112  -7.168   7.952  0.00  0.00     0.294 C 
ATOM     22  O5  ZIN A   1      18.077  -7.751   7.501  0.00  0.00    -0.259 OA
BRANCH  21  23
ATOM     23  O3  ZIN A   1      15.868  -7.554   7.604  0.00  0.00    -0.318 OA
BRANCH  23  24
ATOM     24  C2  ZIN A   1      15.000  -6.542   7.029  0.00  0.00     0.174 C 
ATOM     25  C1  ZIN A   1      13.792  -6.329   7.943  0.00  0.00     0.034 C 
ENDBRANCH  23  24
ENDBRANCH  21  23
ENDBRANCH  18  21
ENDBRANCH   1  15
TORSDOF 5
ENDMDL
MODEL 4
REMARK VINA RESULT:      -7.6      0.992      1.467
REMARK  5 active torsions:
REMARK  status: ('A' for Active; 'I' for Inactive)
REMARK    1  A    between atoms: C2_2  and  O3_3 
REMARK    2  A    between atoms: O3_3  and  C4_4 
REMARK    3  A    between atoms: C4_4  and  C6_6 
REMARK    4  A    between atoms: C9_9  and  C10_10 
REMARK    5  A    between atoms: C11_11  and  C12_12 
ROOT
ATOM      1  C10 ZIN A   1      18.956  -0.065  10.880  0.00  0.00    -0.041 C 
ATOM      2  C11 ZIN A   1      18.890   0.378  11.965  0.00  0.00    -0.060 C 
ENDROOT
BRANCH   2   3
ATOM      3  C12 ZIN A   1      18.809   0.919  13.288  0.00  0.00     0.018 A 
ATOM      4  C23 ZIN A   1      18.657   0.070  14.384  0.00  0.00     0.029 A 
ATOM      5  C22 ZIN A   1      18.583   0.576  15.675  0.00  0.00    -0.032 A 
ATOM      6  C15 ZIN A   1      18.665   1.947  15.864  0.00  0.00     0.007 A 
ATOM      7  C19 ZIN A   1      18.409  -0.430  16.775  0.00  0.00    -0.018 C 
ATOM      8  C14 ZIN A   1      18.805   2.801  14.766  0.00  0.00     0.020 A 
ATOM      9  S16 ZIN A   1      18.620   2.679  17.470  0.00  0.00    -0.129 SA
ATOM     10  C13 ZIN A   1      18.877   2.302  13.489  0.00  0.00     0.022 A 
ATOM     11  C17 ZIN A   1      18.052   1.307  18.516  0.00  0.00     0.080 C 
ATOM     12  C18 ZIN A   1      18.873   0.068  18.132  0.00  0.00     0.024 C 
ATOM     13  C20 ZIN A   1      19.202  -1.688  16.417  0.00  0.00     0.020 C 
ATOM     14  C21 ZIN A   1      16.927  -0.797  16.869  0.00  0.00     0.020 C 
ENDBRANCH   2   3
BRANCH   1  15
ATOM     15  C9  ZIN A   1      19.037  -0.605   9.557  0.00  0.00     0.110 A 
ATOM     16  C8  ZIN A   1      19.022  -1.994   9.375  0.00  0.00     0.042 A 
ATOM     17  C7  ZIN A   1      19.100  -2.504   8.108  0.00  0.00     0.022 A 
ATOM     18  C6  ZIN A   1      19.193  -1.611   7.029  0.00  0.00     0.057 A 
ATOM     19  C25 ZIN A   1      19.209  -0.237   7.283  0.00  0.00     0.135 A 
ATOM     20  N24 ZIN A   1      19.126   0.218   8.513  0.00  0.00    -0.251 NA
BRANCH  18  21
ATOM     21  C4  ZIN A   1      19.279  -2.116   5.647  0.00  0.00     0.294 C 
ATOM     22  O5  ZIN A   1      19.679  -1.391   4.758  0.00  0.00    -0.259 OA
BRANCH  21  23
ATOM     23  O3  ZIN A   1      18.915  -3.385   5.369  0.00  0.00    -0.318 OA
BRANCH  23  24
ATOM     24  C2  ZIN A   1      18.189  -3.606   4.132  0.00  0.00     0.174 C 
ATOM     25  C1  ZIN A   1      17.184  -4.743   4.328  0.00  0.00     0.034 C 
ENDBRANCH  23  24
ENDBRANCH  21  23
ENDBRANCH  18  21
ENDBRANCH   1  15
TORSDOF 5
ENDMDL
MODEL 5
REMARK VINA RESULT:      -7.5      3.959      5.619
REMARK  5 active torsions:
REMARK  status: ('A' for Active; 'I' for Inactive)
REMARK    1  A    between atoms: C2_2  and  O3_3 
REMARK    2  A    between atoms: O3_3  and  C4_4 
REMARK    3  A    between atoms: C4_4  and  C6_6 
REMARK    4  A    between atoms: C9_9  and  C10_10 
REMARK    5  A    between atoms: C11_11  and  C12_12 
ROOT
ATOM      1  C10 ZIN A   1      17.649  -2.534  11.382  0.00  0.00    -0.041 C 
ATOM      2  C11 ZIN A   1      17.769  -1.548  12.007  0.00  0.00    -0.060 C 
ENDROOT
BRANCH   2   3
ATOM      3  C12 ZIN A   1      17.914  -0.344  12.768  0.00  0.00     0.018 A 
ATOM      4  C23 ZIN A   1      18.090   0.879  12.120  0.00  0.00     0.029 A 
ATOM      5  C22 ZIN A   1      18.226   2.057  12.842  0.00  0.00    -0.032 A 
ATOM      6  C15 ZIN A   1      18.183   2.004  14.226  0.00  0.00     0.007 A 
ATOM      7  C19 ZIN A   1      18.420   3.310  12.039  0.00  0.00    -0.018 C 
ATOM      8  C14 ZIN A   1      18.021   0.778  14.879  0.00  0.00     0.020 A 
ATOM      9  S16 ZIN A   1      18.309   3.454  15.226  0.00  0.00    -0.129 SA
ATOM     10  C13 ZIN A   1      17.887  -0.387  14.166  0.00  0.00     0.022 A 
ATOM     11  C17 ZIN A   1      18.885   4.705  14.043  0.00  0.00     0.080 C 
ATOM     12  C18 ZIN A   1      18.021   4.574  12.780  0.00  0.00     0.024 C 
ATOM     13  C20 ZIN A   1      17.584   3.207  10.762  0.00  0.00     0.020 C 
ATOM     14  C21 ZIN A   1      19.895   3.415  11.650  0.00  0.00     0.020 C 
ENDBRANCH   2   3
BRANCH   1  15
ATOM     15  C9  ZIN A   1      17.503  -3.738  10.621  0.00  0.00     0.110 A 
ATOM     16  C8  ZIN A   1      17.335  -4.959  11.285  0.00  0.00     0.042 A 
ATOM     17  C7  ZIN A   1      17.196  -6.107  10.552  0.00  0.00     0.022 A 
ATOM     18  C6  ZIN A   1      17.229  -6.017   9.151  0.00  0.00     0.057 A 
ATOM     19  C25 ZIN A   1      17.407  -4.765   8.554  0.00  0.00     0.135 A 
ATOM     20  N24 ZIN A   1      17.531  -3.683   9.290  0.00  0.00    -0.251 NA
BRANCH  18  21
ATOM     21  C4  ZIN A   1      17.085  -7.226   8.322  0.00  0.00     0.294 C 
ATOM     22  O5  ZIN A   1      18.039  -7.661   7.710  0.00  0.00    -0.259 OA
BRANCH  21  23
ATOM     23  O3  ZIN A   1      15.893  -7.851   8.244  0.00  0.00    -0.318 OA
BRANCH  23  24
ATOM     24  C2  ZIN A   1      14.982  -7.406   7.204  0.00  0.00     0.174 C 
ATOM     25  C1  ZIN A   1      13.938  -6.466   7.809  0.00  0.00     0.034 C 
ENDBRANCH  23  24
ENDBRANCH  21  23
ENDBRANCH  18  21
ENDBRANCH   1  15
TORSDOF 5
ENDMDL
MODEL 6
REMARK VINA RESULT:      -7.4      5.521      9.761
REMARK  5 active torsions:
REMARK  status: ('A' for Active; 'I' for Inactive)
REMARK    1  A    between atoms: C2_2  and  O3_3 
REMARK    2  A    between atoms: O3_3  and  C4_4 
REMARK    3  A    between atoms: C4_4  and  C6_6 
REMARK    4  A    between atoms: C9_9  and  C10_10 
REMARK    5  A    between atoms: C11_11  and  C12_12 
ROOT
ATOM      1  C10 ZIN A   1      17.722   2.396  11.218  0.00  0.00    -0.041 C 
ATOM      2  C11 ZIN A   1      17.888   1.449  10.545  0.00  0.00    -0.060 C 
ENDROOT
BRANCH   2   3
ATOM      3  C12 ZIN A   1      18.091   0.293   9.724  0.00  0.00     0.018 A 
ATOM      4  C23 ZIN A   1      18.196   0.426   8.340  0.00  0.00     0.029 A 
ATOM      5  C22 ZIN A   1      18.398  -0.683   7.529  0.00  0.00    -0.032 A 
ATOM      6  C15 ZIN A   1      18.499  -1.934   8.116  0.00  0.00     0.007 A 
ATOM      7  C19 ZIN A   1      18.486  -0.420   6.054  0.00  0.00    -0.018 C 
ATOM      8  C14 ZIN A   1      18.380  -2.072   9.503  0.00  0.00     0.020 A 
ATOM      9  S16 ZIN A   1      18.795  -3.395   7.171  0.00  0.00    -0.129 SA
ATOM     10  C13 ZIN A   1      18.179  -0.977  10.305  0.00  0.00     0.022 A 
ATOM     11  C17 ZIN A   1      18.492  -2.836   5.469  0.00  0.00     0.080 C 
ATOM     12  C18 ZIN A   1      19.229  -1.501   5.288  0.00  0.00     0.024 C 
ATOM     13  C20 ZIN A   1      19.202   0.914   5.836  0.00  0.00     0.020 C 
ATOM     14  C21 ZIN A   1      17.067  -0.311   5.494  0.00  0.00     0.020 C 
ENDBRANCH   2   3
BRANCH   1  15
ATOM     15  C9  ZIN A   1      17.519   3.551  12.039  0.00  0.00     0.110 A 
ATOM     16  C8  ZIN A   1      18.190   3.655  13.264  0.00  0.00     0.042 A 
ATOM     17  C7  ZIN A   1      17.992   4.762  14.044  0.00  0.00     0.022 A 
ATOM     18  C6  ZIN A   1      17.117   5.759  13.585  0.00  0.00     0.057 A 
ATOM     19  C25 ZIN A   1      16.475   5.587  12.355  0.00  0.00     0.135 A 
ATOM     20  N24 ZIN A   1      16.695   4.514  11.629  0.00  0.00    -0.251 NA
BRANCH  18  21
ATOM     21  C4  ZIN A   1      16.874   6.968  14.392  0.00  0.00     0.294 C 
ATOM     22  O5  ZIN A   1      17.806   7.660  14.747  0.00  0.00    -0.259 OA
BRANCH  21  23
ATOM     23  O3  ZIN A   1      15.615   7.305  14.738  0.00  0.00    -0.318 OA
BRANCH  23  24
ATOM     24  C2  ZIN A   1      14.858   6.331  15.503  0.00  0.00     0.174 C 
ATOM     25  C1  ZIN A   1      13.436   6.240  14.947  0.00  0.00     0.034 C 
ENDBRANCH  23  24
ENDBRANCH  21  23
ENDBRANCH  18  21
ENDBRANCH   1  15
TORSDOF 5
ENDMDL
MODEL 7
REMARK VINA RESULT:      -7.2      5.393      9.840
REMARK  5 active torsions:
REMARK  status: ('A' for Active; 'I' for Inactive)
REMARK    1  A    between atoms: C2_2  and  O3_3 
REMARK    2  A    between atoms: O3_3  and  C4_4 
REMARK    3  A    between atoms: C4_4  and  C6_6 
REMARK    4  A    between atoms: C9_9  and  C10_10 
REMARK    5  A    between atoms: C11_11  and  C12_12 
ROOT
ATOM      1  C10 ZIN A   1      17.926   1.656  10.476  0.00  0.00    -0.041 C 
ATOM      2  C11 ZIN A   1      18.110   0.716   9.798  0.00  0.00    -0.060 C 
ENDROOT
BRANCH   2   3
ATOM      3  C12 ZIN A   1      18.334  -0.432   8.972  0.00  0.00     0.018 A 
ATOM      4  C23 ZIN A   1      18.348  -0.304   7.583  0.00  0.00     0.029 A 
ATOM      5  C22 ZIN A   1      18.570  -1.405   6.767  0.00  0.00    -0.032 A 
ATOM      6  C15 ZIN A   1      18.782  -2.642   7.352  0.00  0.00     0.007 A 
ATOM      7  C19 ZIN A   1      18.553  -1.149   5.288  0.00  0.00    -0.018 C 
ATOM      8  C14 ZIN A   1      18.755  -2.776   8.744  0.00  0.00     0.020 A 
ATOM      9  S16 ZIN A   1      19.110  -4.090   6.397  0.00  0.00    -0.129 SA
ATOM     10  C13 ZIN A   1      18.534  -1.689   9.552  0.00  0.00     0.022 A 
ATOM     11  C17 ZIN A   1      18.673  -3.565   4.715  0.00  0.00     0.080 C 
ATOM     12  C18 ZIN A   1      19.314  -2.189   4.484  0.00  0.00     0.024 C 
ATOM     13  C20 ZIN A   1      19.171   0.224   5.021  0.00  0.00     0.020 C 
ATOM     14  C21 ZIN A   1      17.099  -1.131   4.814  0.00  0.00     0.020 C 
ENDBRANCH   2   3
BRANCH   1  15
ATOM     15  C9  ZIN A   1      17.702   2.804  11.303  0.00  0.00     0.110 A 
ATOM     16  C8  ZIN A   1      17.241   3.993  10.724  0.00  0.00     0.042 A 
ATOM     17  C7  ZIN A   1      17.029   5.086  11.520  0.00  0.00     0.022 A 
ATOM     18  C6  ZIN A   1      17.283   4.975  12.896  0.00  0.00     0.057 A 
ATOM     19  C25 ZIN A   1      17.748   3.759  13.405  0.00  0.00     0.135 A 
ATOM     20  N24 ZIN A   1      17.934   2.728  12.612  0.00  0.00    -0.251 NA
BRANCH  18  21
ATOM     21  C4  ZIN A   1      17.070   6.127  13.790  0.00  0.00     0.294 C 
ATOM     22  O5  ZIN A   1      15.944   6.530  14.004  0.00  0.00    -0.259 OA
BRANCH  21  23
ATOM     23  O3  ZIN A   1      18.124   6.734  14.370  0.00  0.00    -0.318 OA
BRANCH  23  24
ATOM     24  C2  ZIN A   1      17.985   7.103  15.768  0.00  0.00     0.174 C 
ATOM     25  C1  ZIN A   1      18.272   5.885  16.647  0.00  0.00     0.034 C 
ENDBRANCH  23  24
ENDBRANCH  21  23
ENDBRANCH  18  21
ENDBRANCH   1  15
TORSDOF 5
ENDMDL
MODEL 8
REMARK VINA RESULT:      -7.1      4.804      9.716
REMARK  5 active torsions:
REMARK  status: ('A' for Active; 'I' for Inactive)
REMARK    1  A    between atoms: C2_2  and  O3_3 
REMARK    2  A    between atoms: O3_3  and  C4_4 
REMARK    3  A    between atoms: C4_4  and  C6_6 
REMARK    4  A    between atoms: C9_9  and  C10_10 
REMARK    5  A    between atoms: C11_11  and  C12_12 
ROOT
ATOM      1  C10 ZIN A   1      18.631   0.730  11.023  0.00  0.00    -0.041 C 
ATOM      2  C11 ZIN A   1      18.576   0.313   9.927  0.00  0.00    -0.060 C 
ENDROOT
BRANCH   2   3
ATOM      3  C12 ZIN A   1      18.508  -0.195   8.590  0.00  0.00     0.018 A 
ATOM      4  C23 ZIN A   1      18.551  -1.570   8.359  0.00  0.00     0.029 A 
ATOM      5  C22 ZIN A   1      18.480  -2.080   7.070  0.00  0.00    -0.032 A 
ATOM      6  C15 ZIN A   1      18.362  -1.200   6.005  0.00  0.00     0.007 A 
ATOM      7  C19 ZIN A   1      18.546  -3.574   6.942  0.00  0.00    -0.018 C 
ATOM      8  C14 ZIN A   1      18.332   0.179   6.233  0.00  0.00     0.020 A 
ATOM      9  S16 ZIN A   1      18.226  -1.757   4.336  0.00  0.00    -0.129 SA
ATOM     10  C13 ZIN A   1      18.403   0.685   7.507  0.00  0.00     0.022 A 
ATOM     11  C17 ZIN A   1      18.694  -3.508   4.461  0.00  0.00     0.080 C 
ATOM     12  C18 ZIN A   1      17.932  -4.100   5.656  0.00  0.00     0.024 C 
ATOM     13  C20 ZIN A   1      17.810  -4.200   8.127  0.00  0.00     0.020 C 
ATOM     14  C21 ZIN A   1      20.013  -4.003   6.996  0.00  0.00     0.020 C 
ENDBRANCH   2   3
BRANCH   1  15
ATOM     15  C9  ZIN A   1      18.699   1.238  12.360  0.00  0.00     0.110 A 
ATOM     16  C8  ZIN A   1      19.330   0.482  13.355  0.00  0.00     0.042 A 
ATOM     17  C7  ZIN A   1      19.392   0.973  14.631  0.00  0.00     0.022 A 
ATOM     18  C6  ZIN A   1      18.815   2.225  14.897  0.00  0.00     0.057 A 
ATOM     19  C25 ZIN A   1      18.195   2.923  13.857  0.00  0.00     0.135 A 
ATOM     20  N24 ZIN A   1      18.161   2.423  12.642  0.00  0.00    -0.251 NA
BRANCH  18  21
ATOM     21  C4  ZIN A   1      18.858   2.792  16.257  0.00  0.00     0.294 C 
ATOM     22  O5  ZIN A   1      18.175   3.757  16.535  0.00  0.00    -0.259 OA
BRANCH  21  23
ATOM     23  O3  ZIN A   1      19.655   2.238  17.193  0.00  0.00    -0.318 OA
BRANCH  23  24
ATOM     24  C2  ZIN A   1      19.003   1.633  18.340  0.00  0.00     0.174 C 
ATOM     25  C1  ZIN A   1      19.120   0.111  18.247  0.00  0.00     0.034 C 
ENDBRANCH  23  24
ENDBRANCH  21  23
ENDBRANCH  18  21
ENDBRANCH   1  15
TORSDOF 5
ENDMDL
MODEL 9
REMARK VINA RESULT:      -6.9      1.258      2.599
REMARK  5 active torsions:
REMARK  status: ('A' for Active; 'I' for Inactive)
REMARK    1  A    between atoms: C2_2  and  O3_3 
REMARK    2  A    between atoms: O3_3  and  C4_4 
REMARK    3  A    between atoms: C4_4  and  C6_6 
REMARK    4  A    between atoms: C9_9  and  C10_10 
REMARK    5  A    between atoms: C11_11  and  C12_12 
ROOT
ATOM      1  C10 ZIN A   1      18.969   0.118  11.447  0.00  0.00    -0.041 C 
ATOM      2  C11 ZIN A   1      18.929   0.305  12.606  0.00  0.00    -0.060 C 
ENDROOT
BRANCH   2   3
ATOM      3  C12 ZIN A   1      18.882   0.535  14.018  0.00  0.00     0.018 A 
ATOM      4  C23 ZIN A   1      18.852   1.838  14.516  0.00  0.00     0.029 A 
ATOM      5  C22 ZIN A   1      18.799   2.079  15.882  0.00  0.00    -0.032 A 
ATOM      6  C15 ZIN A   1      18.773   1.002  16.753  0.00  0.00     0.007 A 
ATOM      7  C19 ZIN A   1      18.781   3.520  16.302  0.00  0.00    -0.018 C 
ATOM      8  C14 ZIN A   1      18.817  -0.305  16.257  0.00  0.00     0.020 A 
ATOM      9  S16 ZIN A   1      18.667   1.210  18.503  0.00  0.00    -0.129 SA
ATOM     10  C13 ZIN A   1      18.870  -0.545  14.907  0.00  0.00     0.022 A 
ATOM     11  C17 ZIN A   1      19.025   2.978  18.715  0.00  0.00     0.080 C 
ATOM     12  C18 ZIN A   1      18.186   3.743  17.681  0.00  0.00     0.024 C 
ATOM     13  C20 ZIN A   1      17.965   4.317  15.282  0.00  0.00     0.020 C 
ATOM     14  C21 ZIN A   1      20.217   4.046  16.297  0.00  0.00     0.020 C 
ENDBRANCH   2   3
BRANCH   1  15
ATOM     15  C9  ZIN A   1      19.017  -0.112  10.035  0.00  0.00     0.110 A 
ATOM     16  C8  ZIN A   1      18.922   0.972   9.155  0.00  0.00     0.042 A 
ATOM     17  C7  ZIN A   1      18.968   0.746   7.806  0.00  0.00     0.022 A 
ATOM     18  C6  ZIN A   1      19.109  -0.575   7.351  0.00  0.00     0.057 A 
ATOM     19  C25 ZIN A   1      19.192  -1.611   8.286  0.00  0.00     0.135 A 
ATOM     20  N24 ZIN A   1      19.151  -1.355   9.574  0.00  0.00    -0.251 NA
BRANCH  18  21
ATOM     21  C4  ZIN A   1      19.163  -0.865   5.907  0.00  0.00     0.294 C 
ATOM     22  O5  ZIN A   1      19.880  -1.753   5.492  0.00  0.00    -0.259 OA
BRANCH  21  23
ATOM     23  O3  ZIN A   1      18.416  -0.145   5.047  0.00  0.00    -0.318 OA
BRANCH  23  24
ATOM     24  C2  ZIN A   1      17.930  -0.830   3.862  0.00  0.00     0.174 C 
ATOM     25  C1  ZIN A   1      16.988  -1.960   4.279  0.00  0.00     0.034 C 
ENDBRANCH  23  24
ENDBRANCH  21  23
ENDBRANCH  18  21
ENDBRANCH   1  15
TORSDOF 5
ENDMDL
