MODEL 1
REMARK VINA RESULT:      -4.9      0.000      0.000
REMARK  9 active torsions:
REMARK  status: ('A' for Active; 'I' for Inactive)
REMARK    1  A    between atoms: N1_1  and  C5_5 
REMARK    2  A    between atoms: C5_5  and  C6_6 
REMARK    3  A    between atoms: C6_6  and  C7_7 
REMARK    4  A    between atoms: C7_7  and  C8_8 
REMARK    5  A    between atoms: C8_8  and  O9_9 
REMARK    6  A    between atoms: C8_8  and  P10_10 
REMARK    7  A    between atoms: C8_8  and  P14_14 
REMARK    8  A    between atoms: P10_10  and  O13_13 
REMARK    9  A    between atoms: P14_14  and  O17_17 
ROOT
ATOM      1  C8  ZIN A   1      19.347   1.554  10.894  0.00  0.00     0.268 C 
ENDROOT
BRANCH   1   2
ATOM      2  C7  ZIN A   1      17.887   1.892  11.200  0.00  0.00     0.067 C 
BRANCH   2   3
ATOM      3  C6  ZIN A   1      17.682   3.405  11.101  0.00  0.00     0.031 C 
BRANCH   3   4
ATOM      4  C5  ZIN A   1      17.451   3.980  12.501  0.00  0.00     0.230 C 
BRANCH   4   5
ATOM      5  N1  ZIN A   1      18.745   4.191  13.162  0.00  0.00    -0.079 N 
ATOM      6  H2  ZIN A   1      18.617   4.776  13.974  0.00  0.00     0.274 HD
ATOM      7  H3  ZIN A   1      19.382   4.641  12.521  0.00  0.00     0.274 HD
ATOM      8  H4  ZIN A   1      19.127   3.301  13.445  0.00  0.00     0.274 HD
ENDBRANCH   4   5
ENDBRANCH   3   4
ENDBRANCH   2   3
ENDBRANCH   1   2
BRANCH   1   9
ATOM      9  O9  ZIN A   1      20.089   2.763  10.721  0.00  0.00    -0.366 OA
ATOM     10  H24 ZIN A   1      20.977   2.630  10.360  0.00  0.00     0.212 HD
ENDBRANCH   1   9
BRANCH   1  11
ATOM     11  P10 ZIN A   1      20.053   0.602  12.279  0.00  0.00     0.296 P 
ATOM     12  O11 ZIN A   1      19.608   1.233  13.618  0.00  0.00    -0.644 OA
ATOM     13  O12 ZIN A   1      19.553  -0.858  12.208  0.00  0.00    -0.644 OA
BRANCH  11  14
ATOM     14  O13 ZIN A   1      21.660   0.625  12.183  0.00  0.00    -0.320 OA
ATOM     15  H25 ZIN A   1      22.071   1.365  12.652  0.00  0.00     0.221 HD
ENDBRANCH  11  14
ENDBRANCH   1  11
BRANCH   1  16
ATOM     16  P14 ZIN A   1      19.435   0.562   9.367  0.00  0.00     0.296 P 
ATOM     17  O15 ZIN A   1      19.605   1.501   8.153  0.00  0.00    -0.644 OA
ATOM     18  O16 ZIN A   1      18.134  -0.255   9.208  0.00  0.00    -0.644 OA
BRANCH  16  19
ATOM     19  O17 ZIN A   1      20.692  -0.441   9.451  0.00  0.00    -0.320 OA
ATOM     20  H26 ZIN A   1      21.550  -0.005   9.356  0.00  0.00     0.221 HD
ENDBRANCH  16  19
ENDBRANCH   1  16
TORSDOF 9
ENDMDL
MODEL 2
REMARK VINA RESULT:      -4.8      2.950      4.749
REMARK  9 active torsions:
REMARK  status: ('A' for Active; 'I' for Inactive)
REMARK    1  A    between atoms: N1_1  and  C5_5 
REMARK    2  A    between atoms: C5_5  and  C6_6 
REMARK    3  A    between atoms: C6_6  and  C7_7 
REMARK    4  A    between atoms: C7_7  and  C8_8 
REMARK    5  A    between atoms: C8_8  and  O9_9 
REMARK    6  A    between atoms: C8_8  and  P10_10 
REMARK    7  A    between atoms: C8_8  and  P14_14 
REMARK    8  A    between atoms: P10_10  and  O13_13 
REMARK    9  A    between atoms: P14_14  and  O17_17 
ROOT
ATOM      1  C8  ZIN A   1      19.686   0.022  10.503  0.00  0.00     0.268 C 
ENDROOT
BRANCH   1   2
ATOM      2  C7  ZIN A   1      18.589  -1.044  10.507  0.00  0.00     0.067 C 
BRANCH   2   3
ATOM      3  C6  ZIN A   1      19.102  -2.306   9.811  0.00  0.00     0.031 C 
BRANCH   3   4
ATOM      4  C5  ZIN A   1      19.354  -3.398  10.853  0.00  0.00     0.230 C 
BRANCH   4   5
ATOM      5  N1  ZIN A   1      20.720  -3.269  11.376  0.00  0.00    -0.079 N 
ATOM      6  H2  ZIN A   1      20.786  -2.438  11.945  0.00  0.00     0.274 HD
ATOM      7  H3  ZIN A   1      21.370  -3.201  10.607  0.00  0.00     0.274 HD
ATOM      8  H4  ZIN A   1      20.944  -4.078  11.935  0.00  0.00     0.274 HD
ENDBRANCH   4   5
ENDBRANCH   3   4
ENDBRANCH   2   3
ENDBRANCH   1   2
BRANCH   1   9
ATOM      9  O9  ZIN A   1      20.818  -0.462   9.778  0.00  0.00    -0.366 OA
ATOM     10  H24 ZIN A   1      20.984  -1.408   9.895  0.00  0.00     0.212 HD
ENDBRANCH   1   9
BRANCH   1  11
ATOM     11  P10 ZIN A   1      19.058   1.537   9.706  0.00  0.00     0.296 P 
ATOM     12  O11 ZIN A   1      19.302   1.456   8.182  0.00  0.00    -0.644 OA
ATOM     13  O12 ZIN A   1      17.544   1.672   9.978  0.00  0.00    -0.644 OA
BRANCH  11  14
ATOM     14  O13 ZIN A   1      19.828   2.817  10.305  0.00  0.00    -0.320 OA
ATOM     15  H25 ZIN A   1      19.267   3.401  10.835  0.00  0.00     0.221 HD
ENDBRANCH  11  14
ENDBRANCH   1  11
BRANCH   1  16
ATOM     16  P14 ZIN A   1      20.177   0.397  12.218  0.00  0.00     0.296 P 
ATOM     17  O15 ZIN A   1      19.829  -0.803  13.127  0.00  0.00    -0.644 OA
ATOM     18  O16 ZIN A   1      19.418   1.650  12.709  0.00  0.00    -0.644 OA
BRANCH  16  19
ATOM     19  O17 ZIN A   1      21.762   0.672  12.275  0.00  0.00    -0.320 OA
ATOM     20  H26 ZIN A   1      22.290   0.032  11.779  0.00  0.00     0.221 HD
ENDBRANCH  16  19
ENDBRANCH   1  16
TORSDOF 9
ENDMDL
MODEL 3
REMARK VINA RESULT:      -4.8      1.010      3.232
REMARK  9 active torsions:
REMARK  status: ('A' for Active; 'I' for Inactive)
REMARK    1  A    between atoms: N1_1  and  C5_5 
REMARK    2  A    between atoms: C5_5  and  C6_6 
REMARK    3  A    between atoms: C6_6  and  C7_7 
REMARK    4  A    between atoms: C7_7  and  C8_8 
REMARK    5  A    between atoms: C8_8  and  O9_9 
REMARK    6  A    between atoms: C8_8  and  P10_10 
REMARK    7  A    between atoms: C8_8  and  P14_14 
REMARK    8  A    between atoms: P10_10  and  O13_13 
REMARK    9  A    between atoms: P14_14  and  O17_17 
ROOT
ATOM      1  C8  ZIN A   1      19.139   1.330  11.010  0.00  0.00     0.268 C 
ENDROOT
BRANCH   1   2
ATOM      2  C7  ZIN A   1      19.607   2.780  10.880  0.00  0.00     0.067 C 
BRANCH   2   3
ATOM      3  C6  ZIN A   1      18.423   3.721  11.107  0.00  0.00     0.031 C 
BRANCH   3   4
ATOM      4  C5  ZIN A   1      18.679   4.572  12.354  0.00  0.00     0.230 C 
BRANCH   4   5
ATOM      5  N1  ZIN A   1      20.023   4.288  12.872  0.00  0.00    -0.079 N 
ATOM      6  H2  ZIN A   1      20.143   4.741  13.766  0.00  0.00     0.274 HD
ATOM      7  H3  ZIN A   1      20.715   4.635  12.224  0.00  0.00     0.274 HD
ATOM      8  H4  ZIN A   1      20.137   3.291  12.983  0.00  0.00     0.274 HD
ENDBRANCH   4   5
ENDBRANCH   3   4
ENDBRANCH   2   3
ENDBRANCH   1   2
BRANCH   1   9
ATOM      9  O9  ZIN A   1      17.737   1.305  11.286  0.00  0.00    -0.366 OA
ATOM     10  H24 ZIN A   1      17.228   0.742  10.686  0.00  0.00     0.212 HD
ENDBRANCH   1   9
BRANCH   1  11
ATOM     11  P10 ZIN A   1      19.467   0.443   9.451  0.00  0.00     0.296 P 
ATOM     12  O11 ZIN A   1      18.277  -0.490   9.129  0.00  0.00    -0.644 OA
ATOM     13  O12 ZIN A   1      19.646   1.464   8.306  0.00  0.00    -0.644 OA
BRANCH  11  14
ATOM     14  O13 ZIN A   1      20.809  -0.433   9.605  0.00  0.00    -0.320 OA
ATOM     15  H25 ZIN A   1      20.784  -1.065  10.338  0.00  0.00     0.221 HD
ENDBRANCH  11  14
ENDBRANCH   1  11
BRANCH   1  16
ATOM     16  P14 ZIN A   1      20.040   0.519  12.372  0.00  0.00     0.296 P 
ATOM     17  O15 ZIN A   1      19.673  -0.981  12.411  0.00  0.00    -0.644 OA
ATOM     18  O16 ZIN A   1      19.649   1.179  13.713  0.00  0.00    -0.644 OA
BRANCH  16  19
ATOM     19  O17 ZIN A   1      21.625   0.678  12.136  0.00  0.00    -0.320 OA
ATOM     20  H26 ZIN A   1      21.862   1.388  11.524  0.00  0.00     0.221 HD
ENDBRANCH  16  19
ENDBRANCH   1  16
TORSDOF 9
ENDMDL
MODEL 4
REMARK VINA RESULT:      -4.8      2.982      3.787
REMARK  9 active torsions:
REMARK  status: ('A' for Active; 'I' for Inactive)
REMARK    1  A    between atoms: N1_1  and  C5_5 
REMARK    2  A    between atoms: C5_5  and  C6_6 
REMARK    3  A    between atoms: C6_6  and  C7_7 
REMARK    4  A    between atoms: C7_7  and  C8_8 
REMARK    5  A    between atoms: C8_8  and  O9_9 
REMARK    6  A    between atoms: C8_8  and  P10_10 
REMARK    7  A    between atoms: C8_8  and  P14_14 
REMARK    8  A    between atoms: P10_10  and  O13_13 
REMARK    9  A    between atoms: P14_14  and  O17_17 
ROOT
ATOM      1  C8  ZIN A   1      19.581  -0.128  10.561  0.00  0.00     0.268 C 
ENDROOT
BRANCH   1   2
ATOM      2  C7  ZIN A   1      18.385   0.534   9.875  0.00  0.00     0.067 C 
BRANCH   2   3
ATOM      3  C6  ZIN A   1      18.634   0.600   8.367  0.00  0.00     0.031 C 
BRANCH   3   4
ATOM      4  C5  ZIN A   1      17.514  -0.141   7.632  0.00  0.00     0.230 C 
BRANCH   4   5
ATOM      5  N1  ZIN A   1      17.752  -1.588   7.710  0.00  0.00    -0.079 N 
ATOM      6  H2  ZIN A   1      16.946  -2.041   8.116  0.00  0.00     0.274 HD
ATOM      7  H3  ZIN A   1      18.562  -1.766   8.285  0.00  0.00     0.274 HD
ATOM      8  H4  ZIN A   1      17.911  -1.954   6.783  0.00  0.00     0.274 HD
ENDBRANCH   4   5
ENDBRANCH   3   4
ENDBRANCH   2   3
ENDBRANCH   1   2
BRANCH   1   9
ATOM      9  O9  ZIN A   1      20.637  -0.302   9.614  0.00  0.00    -0.366 OA
ATOM     10  H24 ZIN A   1      20.349  -0.252   8.692  0.00  0.00     0.212 HD
ENDBRANCH   1   9
BRANCH   1  11
ATOM     11  P10 ZIN A   1      20.160   0.930  11.928  0.00  0.00     0.296 P 
ATOM     12  O11 ZIN A   1      20.004   2.416  11.531  0.00  0.00    -0.644 OA
ATOM     13  O12 ZIN A   1      19.318   0.645  13.191  0.00  0.00    -0.644 OA
BRANCH  11  14
ATOM     14  O13 ZIN A   1      21.709   0.615  12.232  0.00  0.00    -0.320 OA
ATOM     15  H25 ZIN A   1      22.318   0.956  11.561  0.00  0.00     0.221 HD
ENDBRANCH  11  14
ENDBRANCH   1  11
BRANCH   1  16
ATOM     16  P14 ZIN A   1      19.082  -1.753  11.220  0.00  0.00     0.296 P 
ATOM     17  O15 ZIN A   1      19.259  -2.829  10.125  0.00  0.00    -0.644 OA
ATOM     18  O16 ZIN A   1      17.600  -1.700  11.654  0.00  0.00    -0.644 OA
BRANCH  16  19
ATOM     19  O17 ZIN A   1      20.001  -2.123  12.489  0.00  0.00    -0.320 OA
ATOM     20  H26 ZIN A   1      20.837  -1.637  12.524  0.00  0.00     0.221 HD
ENDBRANCH  16  19
ENDBRANCH   1  16
TORSDOF 9
ENDMDL
MODEL 5
REMARK VINA RESULT:      -4.7      2.716      3.744
REMARK  9 active torsions:
REMARK  status: ('A' for Active; 'I' for Inactive)
REMARK    1  A    between atoms: N1_1  and  C5_5 
REMARK    2  A    between atoms: C5_5  and  C6_6 
REMARK    3  A    between atoms: C6_6  and  C7_7 
REMARK    4  A    between atoms: C7_7  and  C8_8 
REMARK    5  A    between atoms: C8_8  and  O9_9 
REMARK    6  A    between atoms: C8_8  and  P10_10 
REMARK    7  A    between atoms: C8_8  and  P14_14 
REMARK    8  A    between atoms: P10_10  and  O13_13 
REMARK    9  A    between atoms: P14_14  and  O17_17 
ROOT
ATOM      1  C8  ZIN A   1      19.628   0.238  12.514  0.00  0.00     0.268 C 
ENDROOT
BRANCH   1   2
ATOM      2  C7  ZIN A   1      18.543  -0.580  13.216  0.00  0.00     0.067 C 
BRANCH   2   3
ATOM      3  C6  ZIN A   1      18.917  -0.767  14.688  0.00  0.00     0.031 C 
BRANCH   3   4
ATOM      4  C5  ZIN A   1      17.725  -0.385  15.569  0.00  0.00     0.230 C 
BRANCH   4   5
ATOM      5  N1  ZIN A   1      17.462   1.053  15.440  0.00  0.00    -0.079 N 
ATOM      6  H2  ZIN A   1      18.296   1.521  15.117  0.00  0.00     0.274 HD
ATOM      7  H3  ZIN A   1      17.193   1.429  16.338  0.00  0.00     0.274 HD
ATOM      8  H4  ZIN A   1      16.715   1.201  14.777  0.00  0.00     0.274 HD
ENDBRANCH   4   5
ENDBRANCH   3   4
ENDBRANCH   2   3
ENDBRANCH   1   2
BRANCH   1   9
ATOM      9  O9  ZIN A   1      20.752   0.385  13.385  0.00  0.00    -0.366 OA
ATOM     10  H24 ZIN A   1      21.298  -0.410  13.459  0.00  0.00     0.212 HD
ENDBRANCH   1   9
BRANCH   1  11
ATOM     11  P10 ZIN A   1      20.147  -0.620  10.992  0.00  0.00     0.296 P 
ATOM     12  O11 ZIN A   1      19.653  -2.084  11.032  0.00  0.00    -0.644 OA
ATOM     13  O12 ZIN A   1      19.540   0.095   9.765  0.00  0.00    -0.644 OA
BRANCH  11  14
ATOM     14  O13 ZIN A   1      21.754  -0.599  10.886  0.00  0.00    -0.320 OA
ATOM     15  H25 ZIN A   1      22.135   0.290  10.869  0.00  0.00     0.221 HD
ENDBRANCH  11  14
ENDBRANCH   1  11
BRANCH   1  16
ATOM     16  P14 ZIN A   1      18.969   1.884  12.089  0.00  0.00     0.296 P 
ATOM     17  O15 ZIN A   1      18.998   2.789  13.340  0.00  0.00    -0.644 OA
ATOM     18  O16 ZIN A   1      17.514   1.743  11.590  0.00  0.00    -0.644 OA
BRANCH  16  19
ATOM     19  O17 ZIN A   1      19.874   2.541  10.930  0.00  0.00    -0.320 OA
ATOM     20  H26 ZIN A   1      20.592   1.972  10.622  0.00  0.00     0.221 HD
ENDBRANCH  16  19
ENDBRANCH   1  16
TORSDOF 9
ENDMDL
MODEL 6
REMARK VINA RESULT:      -4.7      3.058      4.075
REMARK  9 active torsions:
REMARK  status: ('A' for Active; 'I' for Inactive)
REMARK    1  A    between atoms: N1_1  and  C5_5 
REMARK    2  A    between atoms: C5_5  and  C6_6 
REMARK    3  A    between atoms: C6_6  and  C7_7 
REMARK    4  A    between atoms: C7_7  and  C8_8 
REMARK    5  A    between atoms: C8_8  and  O9_9 
REMARK    6  A    between atoms: C8_8  and  P10_10 
REMARK    7  A    between atoms: C8_8  and  P14_14 
REMARK    8  A    between atoms: P10_10  and  O13_13 
REMARK    9  A    between atoms: P14_14  and  O17_17 
ROOT
ATOM      1  C8  ZIN A   1      18.988   0.520  10.304  0.00  0.00     0.268 C 
ENDROOT
BRANCH   1   2
ATOM      2  C7  ZIN A   1      19.459   0.764   8.870  0.00  0.00     0.067 C 
BRANCH   2   3
ATOM      3  C6  ZIN A   1      18.306   0.496   7.901  0.00  0.00     0.031 C 
BRANCH   3   4
ATOM      4  C5  ZIN A   1      18.528  -0.847   7.202  0.00  0.00     0.230 C 
BRANCH   4   5
ATOM      5  N1  ZIN A   1      17.754  -1.890   7.888  0.00  0.00    -0.079 N 
ATOM      6  H2  ZIN A   1      17.551  -1.593   8.831  0.00  0.00     0.274 HD
ATOM      7  H3  ZIN A   1      18.289  -2.745   7.912  0.00  0.00     0.274 HD
ATOM      8  H4  ZIN A   1      16.889  -2.048   7.392  0.00  0.00     0.274 HD
ENDBRANCH   4   5
ENDBRANCH   3   4
ENDBRANCH   2   3
ENDBRANCH   1   2
BRANCH   1   9
ATOM      9  O9  ZIN A   1      17.602   0.172  10.297  0.00  0.00    -0.366 OA
ATOM     10  H24 ZIN A   1      17.436  -0.781  10.328  0.00  0.00     0.212 HD
ENDBRANCH   1   9
BRANCH   1  11
ATOM     11  P10 ZIN A   1      19.953  -0.842  11.037  0.00  0.00     0.296 P 
ATOM     12  O11 ZIN A   1      19.701  -0.890  12.561  0.00  0.00    -0.644 OA
ATOM     13  O12 ZIN A   1      19.519  -2.181  10.401  0.00  0.00    -0.644 OA
BRANCH  11  14
ATOM     14  O13 ZIN A   1      21.521  -0.598  10.760  0.00  0.00    -0.320 OA
ATOM     15  H25 ZIN A   1      21.714   0.232  10.302  0.00  0.00     0.221 HD
ENDBRANCH  11  14
ENDBRANCH   1  11
BRANCH   1  16
ATOM     16  P14 ZIN A   1      19.229   2.035  11.289  0.00  0.00     0.296 P 
ATOM     17  O15 ZIN A   1      18.168   2.094  12.410  0.00  0.00    -0.644 OA
ATOM     18  O16 ZIN A   1      19.083   3.272  10.376  0.00  0.00    -0.644 OA
BRANCH  16  19
ATOM     19  O17 ZIN A   1      20.701   2.021  11.944  0.00  0.00    -0.320 OA
ATOM     20  H26 ZIN A   1      20.873   1.254  12.508  0.00  0.00     0.221 HD
ENDBRANCH  16  19
ENDBRANCH   1  16
TORSDOF 9
ENDMDL
MODEL 7
REMARK VINA RESULT:      -4.6      1.382      2.032
REMARK  9 active torsions:
REMARK  status: ('A' for Active; 'I' for Inactive)
REMARK    1  A    between atoms: N1_1  and  C5_5 
REMARK    2  A    between atoms: C5_5  and  C6_6 
REMARK    3  A    between atoms: C6_6  and  C7_7 
REMARK    4  A    between atoms: C7_7  and  C8_8 
REMARK    5  A    between atoms: C8_8  and  O9_9 
REMARK    6  A    between atoms: C8_8  and  P10_10 
REMARK    7  A    between atoms: C8_8  and  P14_14 
REMARK    8  A    between atoms: P10_10  and  O13_13 
REMARK    9  A    between atoms: P14_14  and  O17_17 
ROOT
ATOM      1  C8  ZIN A   1      19.457   1.182  11.265  0.00  0.00     0.268 C 
ENDROOT
BRANCH   1   2
ATOM      2  C7  ZIN A   1      18.168   1.572  10.541  0.00  0.00     0.067 C 
BRANCH   2   3
ATOM      3  C6  ZIN A   1      18.342   2.947   9.893  0.00  0.00     0.031 C 
BRANCH   3   4
ATOM      4  C5  ZIN A   1      17.511   3.980  10.658  0.00  0.00     0.230 C 
BRANCH   4   5
ATOM      5  N1  ZIN A   1      18.330   4.577  11.721  0.00  0.00    -0.079 N 
ATOM      6  H2  ZIN A   1      19.228   4.845  11.344  0.00  0.00     0.274 HD
ATOM      7  H3  ZIN A   1      18.464   3.905  12.461  0.00  0.00     0.274 HD
ATOM      8  H4  ZIN A   1      17.863   5.393  12.088  0.00  0.00     0.274 HD
ENDBRANCH   4   5
ENDBRANCH   3   4
ENDBRANCH   2   3
ENDBRANCH   1   2
BRANCH   1   9
ATOM      9  O9  ZIN A   1      20.420   2.227  11.120  0.00  0.00    -0.366 OA
ATOM     10  H24 ZIN A   1      20.174   2.900  10.470  0.00  0.00     0.212 HD
ENDBRANCH   1   9
BRANCH   1  11
ATOM     11  P10 ZIN A   1      19.104   0.923  13.035  0.00  0.00     0.296 P 
ATOM     12  O11 ZIN A   1      20.319   0.244  13.708  0.00  0.00    -0.644 OA
ATOM     13  O12 ZIN A   1      18.836   2.285  13.711  0.00  0.00    -0.644 OA
BRANCH  11  14
ATOM     14  O13 ZIN A   1      17.808  -0.020  13.191  0.00  0.00    -0.320 OA
ATOM     15  H25 ZIN A   1      17.567  -0.207  14.109  0.00  0.00     0.221 HD
ENDBRANCH  11  14
ENDBRANCH   1  11
BRANCH   1  16
ATOM     16  P14 ZIN A   1      20.118  -0.357  10.546  0.00  0.00     0.296 P 
ATOM     17  O15 ZIN A   1      20.053  -0.274   9.004  0.00  0.00    -0.644 OA
ATOM     18  O16 ZIN A   1      19.274  -1.557  11.032  0.00  0.00    -0.644 OA
BRANCH  16  19
ATOM     19  O17 ZIN A   1      21.647  -0.553  11.009  0.00  0.00    -0.320 OA
ATOM     20  H26 ZIN A   1      21.879  -0.069  11.813  0.00  0.00     0.221 HD
ENDBRANCH  16  19
ENDBRANCH   1  16
TORSDOF 9
ENDMDL
MODEL 8
REMARK VINA RESULT:      -4.6      2.929      4.024
REMARK  9 active torsions:
REMARK  status: ('A' for Active; 'I' for Inactive)
REMARK    1  A    between atoms: N1_1  and  C5_5 
REMARK    2  A    between atoms: C5_5  and  C6_6 
REMARK    3  A    between atoms: C6_6  and  C7_7 
REMARK    4  A    between atoms: C7_7  and  C8_8 
REMARK    5  A    between atoms: C8_8  and  O9_9 
REMARK    6  A    between atoms: C8_8  and  P10_10 
REMARK    7  A    between atoms: C8_8  and  P14_14 
REMARK    8  A    between atoms: P10_10  and  O13_13 
REMARK    9  A    between atoms: P14_14  and  O17_17 
ROOT
ATOM      1  C8  ZIN A   1      19.273   1.086  10.623  0.00  0.00     0.268 C 
ENDROOT
BRANCH   1   2
ATOM      2  C7  ZIN A   1      19.089   0.550   9.202  0.00  0.00     0.067 C 
BRANCH   2   3
ATOM      3  C6  ZIN A   1      19.238   1.697   8.201  0.00  0.00     0.031 C 
BRANCH   3   4
ATOM      4  C5  ZIN A   1      18.934   1.185   6.790  0.00  0.00     0.230 C 
BRANCH   4   5
ATOM      5  N1  ZIN A   1      19.005  -0.281   6.776  0.00  0.00    -0.079 N 
ATOM      6  H2  ZIN A   1      18.633  -0.628   5.905  0.00  0.00     0.274 HD
ATOM      7  H3  ZIN A   1      18.465  -0.652   7.543  0.00  0.00     0.274 HD
ATOM      8  H4  ZIN A   1      19.967  -0.572   6.870  0.00  0.00     0.274 HD
ENDBRANCH   4   5
ENDBRANCH   3   4
ENDBRANCH   2   3
ENDBRANCH   1   2
BRANCH   1   9
ATOM      9  O9  ZIN A   1      19.980   2.327  10.576  0.00  0.00    -0.366 OA
ATOM     10  H24 ZIN A   1      19.803   2.909  11.328  0.00  0.00     0.212 HD
ENDBRANCH   1   9
BRANCH   1  11
ATOM     11  P10 ZIN A   1      17.640   1.347  11.391  0.00  0.00     0.296 P 
ATOM     12  O11 ZIN A   1      17.173   2.796  11.128  0.00  0.00    -0.644 OA
ATOM     13  O12 ZIN A   1      16.622   0.359  10.782  0.00  0.00    -0.644 OA
BRANCH  11  14
ATOM     14  O13 ZIN A   1      17.749   1.097  12.978  0.00  0.00    -0.320 OA
ATOM     15  H25 ZIN A   1      17.145   1.641  13.503  0.00  0.00     0.221 HD
ENDBRANCH  11  14
ENDBRANCH   1  11
BRANCH   1  16
ATOM     16  P14 ZIN A   1      20.224  -0.117  11.609  0.00  0.00     0.296 P 
ATOM     17  O15 ZIN A   1      19.345  -1.355  11.897  0.00  0.00    -0.644 OA
ATOM     18  O16 ZIN A   1      20.650   0.533  12.944  0.00  0.00    -0.644 OA
BRANCH  16  19
ATOM     19  O17 ZIN A   1      21.533  -0.568  10.788  0.00  0.00    -0.320 OA
ATOM     20  H26 ZIN A   1      22.332  -0.637  11.329  0.00  0.00     0.221 HD
ENDBRANCH  16  19
ENDBRANCH   1  16
TORSDOF 9
ENDMDL
MODEL 9
REMARK VINA RESULT:      -4.4      3.248      4.352
REMARK  9 active torsions:
REMARK  status: ('A' for Active; 'I' for Inactive)
REMARK    1  A    between atoms: N1_1  and  C5_5 
REMARK    2  A    between atoms: C5_5  and  C6_6 
REMARK    3  A    between atoms: C6_6  and  C7_7 
REMARK    4  A    between atoms: C7_7  and  C8_8 
REMARK    5  A    between atoms: C8_8  and  O9_9 
REMARK    6  A    between atoms: C8_8  and  P10_10 
REMARK    7  A    between atoms: C8_8  and  P14_14 
REMARK    8  A    between atoms: P10_10  and  O13_13 
REMARK    9  A    between atoms: P14_14  and  O17_17 
ROOT
ATOM      1  C8  ZIN A   1      19.004  -1.423  10.463  0.00  0.00     0.268 C 
ENDROOT
BRANCH   1   2
ATOM      2  C7  ZIN A   1      19.248  -1.279   8.960  0.00  0.00     0.067 C 
BRANCH   2   3
ATOM      3  C6  ZIN A   1      17.989  -0.727   8.289  0.00  0.00     0.031 C 
BRANCH   3   4
ATOM      4  C5  ZIN A   1      18.368   0.437   7.371  0.00  0.00     0.230 C 
BRANCH   4   5
ATOM      5  N1  ZIN A   1      19.338   1.303   8.053  0.00  0.00    -0.079 N 
ATOM      6  H2  ZIN A   1      19.515   2.121   7.490  0.00  0.00     0.274 HD
ATOM      7  H3  ZIN A   1      20.201   0.797   8.192  0.00  0.00     0.274 HD
ATOM      8  H4  ZIN A   1      18.967   1.585   8.948  0.00  0.00     0.274 HD
ENDBRANCH   4   5
ENDBRANCH   3   4
ENDBRANCH   2   3
ENDBRANCH   1   2
BRANCH   1   9
ATOM      9  O9  ZIN A   1      17.644  -1.100  10.758  0.00  0.00    -0.366 OA
ATOM     10  H24 ZIN A   1      17.364  -0.236  10.424  0.00  0.00     0.212 HD
ENDBRANCH   1   9
BRANCH   1  11
ATOM     11  P10 ZIN A   1      19.344  -3.141  10.971  0.00  0.00     0.296 P 
ATOM     12  O11 ZIN A   1      18.344  -3.559  12.073  0.00  0.00    -0.644 OA
ATOM     13  O12 ZIN A   1      19.191  -4.078   9.754  0.00  0.00    -0.644 OA
BRANCH  11  14
ATOM     14  O13 ZIN A   1      20.846  -3.243  11.543  0.00  0.00    -0.320 OA
ATOM     15  H25 ZIN A   1      21.130  -4.146  11.743  0.00  0.00     0.221 HD
ENDBRANCH  11  14
ENDBRANCH   1  11
BRANCH   1  16
ATOM     16  P14 ZIN A   1      20.109  -0.291  11.370  0.00  0.00     0.296 P 
ATOM     17  O15 ZIN A   1      19.960  -0.533  12.888  0.00  0.00    -0.644 OA
ATOM     18  O16 ZIN A   1      19.728   1.170  11.042  0.00  0.00    -0.644 OA
BRANCH  16  19
ATOM     19  O17 ZIN A   1      21.634  -0.561  10.929  0.00  0.00    -0.320 OA
ATOM     20  H26 ZIN A   1      21.787  -1.444  10.566  0.00  0.00     0.221 HD
ENDBRANCH  16  19
ENDBRANCH   1  16
TORSDOF 9
ENDMDL
