MODEL 1
REMARK VINA RESULT:      -5.1      0.000      0.000
REMARK  3 active torsions:
REMARK  status: ('A' for Active; 'I' for Inactive)
REMARK    1  A    between atoms: C2_2  and  N4_3 
REMARK    2  A    between atoms: C2_2  and  C8_7 
REMARK    3  A    between atoms: C8_7  and  C9_8 
ROOT
ATOM      1  C8  ZIN A   1      19.401  -0.485  12.708  0.00  0.00     0.070 C 
ENDROOT
BRANCH   1   2
ATOM      2  C2  ZIN A   1      20.154   0.836  12.535  0.00  0.00     0.183 C 
ATOM      3  C1  ZIN A   1      19.479   1.669  11.444  0.00  0.00     0.040 C 
BRANCH   2   4
ATOM      4  N4  ZIN A   1      21.545   0.560  12.151  0.00  0.00    -0.075 N 
ATOM      5  H5  ZIN A   1      21.589   0.369  11.162  0.00  0.00     0.274 HD
ATOM      6  H6  ZIN A   1      22.118   1.363  12.365  0.00  0.00     0.274 HD
ATOM      7  H7  ZIN A   1      21.883  -0.240  12.664  0.00  0.00     0.274 HD
ENDBRANCH   2   4
ENDBRANCH   1   2
BRANCH   1   8
ATOM      8  C9  ZIN A   1      18.897  -0.596  14.123  0.00  0.00    -0.056 A 
ATOM      9  C14 ZIN A   1      19.510  -1.460  15.010  0.00  0.00     0.007 A 
ATOM     10  C13 ZIN A   1      19.049  -1.559  16.310  0.00  0.00     0.001 A 
ATOM     11  C12 ZIN A   1      17.969  -0.801  16.719  0.00  0.00     0.000 A 
ATOM     12  C11 ZIN A   1      17.351   0.059  15.831  0.00  0.00     0.001 A 
ATOM     13  C10 ZIN A   1      17.814   0.161  14.532  0.00  0.00     0.007 A 
ENDBRANCH   1   8
TORSDOF 3
ENDMDL
MODEL 2
REMARK VINA RESULT:      -5.0      3.392      6.414
REMARK  3 active torsions:
REMARK  status: ('A' for Active; 'I' for Inactive)
REMARK    1  A    between atoms: C2_2  and  N4_3 
REMARK    2  A    between atoms: C2_2  and  C8_7 
REMARK    3  A    between atoms: C8_7  and  C9_8 
ROOT
ATOM      1  C8  ZIN A   1      19.468   0.714  10.466  0.00  0.00     0.070 C 
ENDROOT
BRANCH   1   2
ATOM      2  C2  ZIN A   1      20.053  -0.644  10.859  0.00  0.00     0.183 C 
ATOM      3  C1  ZIN A   1      19.484  -1.071  12.214  0.00  0.00     0.040 C 
BRANCH   2   4
ATOM      4  N4  ZIN A   1      21.516  -0.537  10.954  0.00  0.00    -0.075 N 
ATOM      5  H5  ZIN A   1      21.942  -1.238  10.368  0.00  0.00     0.274 HD
ATOM      6  H6  ZIN A   1      21.806   0.380  10.649  0.00  0.00     0.274 HD
ATOM      7  H7  ZIN A   1      21.801  -0.679  11.911  0.00  0.00     0.274 HD
ENDBRANCH   2   4
ENDBRANCH   1   2
BRANCH   1   8
ATOM      8  C9  ZIN A   1      18.893   0.630   9.075  0.00  0.00    -0.056 A 
ATOM      9  C14 ZIN A   1      17.809  -0.188   8.823  0.00  0.00     0.007 A 
ATOM     10  C13 ZIN A   1      17.280  -0.262   7.548  0.00  0.00     0.001 A 
ATOM     11  C12 ZIN A   1      17.842   0.476   6.523  0.00  0.00     0.000 A 
ATOM     12  C11 ZIN A   1      18.931   1.291   6.774  0.00  0.00     0.001 A 
ATOM     13  C10 ZIN A   1      19.457   1.368   8.049  0.00  0.00     0.007 A 
ENDBRANCH   1   8
TORSDOF 3
ENDMDL
MODEL 3
REMARK VINA RESULT:      -5.0      5.273      6.657
REMARK  3 active torsions:
REMARK  status: ('A' for Active; 'I' for Inactive)
REMARK    1  A    between atoms: C2_2  and  N4_3 
REMARK    2  A    between atoms: C2_2  and  C8_7 
REMARK    3  A    between atoms: C8_7  and  C9_8 
ROOT
ATOM      1  C8  ZIN A   1      18.934   2.490  10.176  0.00  0.00     0.070 C 
ENDROOT
BRANCH   1   2
ATOM      2  C2  ZIN A   1      17.670   3.148  10.732  0.00  0.00     0.183 C 
ATOM      3  C1  ZIN A   1      17.612   4.607  10.277  0.00  0.00     0.040 C 
BRANCH   2   4
ATOM      4  N4  ZIN A   1      17.695   3.093  12.200  0.00  0.00    -0.075 N 
ATOM      5  H5  ZIN A   1      18.129   3.929  12.560  0.00  0.00     0.274 HD
ATOM      6  H6  ZIN A   1      16.751   3.026  12.550  0.00  0.00     0.274 HD
ATOM      7  H7  ZIN A   1      18.221   2.286  12.498  0.00  0.00     0.274 HD
ENDBRANCH   2   4
ENDBRANCH   1   2
BRANCH   1   8
ATOM      8  C9  ZIN A   1      18.570   1.602   9.014  0.00  0.00    -0.056 A 
ATOM      9  C14 ZIN A   1      17.652   0.583   9.183  0.00  0.00     0.007 A 
ATOM     10  C13 ZIN A   1      17.316  -0.229   8.117  0.00  0.00     0.001 A 
ATOM     11  C12 ZIN A   1      17.905  -0.028   6.883  0.00  0.00     0.000 A 
ATOM     12  C11 ZIN A   1      18.828   0.988   6.714  0.00  0.00     0.001 A 
ATOM     13  C10 ZIN A   1      19.161   1.802   7.779  0.00  0.00     0.007 A 
ENDBRANCH   1   8
TORSDOF 3
ENDMDL
MODEL 4
REMARK VINA RESULT:      -4.9      3.641      6.178
REMARK  3 active torsions:
REMARK  status: ('A' for Active; 'I' for Inactive)
REMARK    1  A    between atoms: C2_2  and  N4_3 
REMARK    2  A    between atoms: C2_2  and  C8_7 
REMARK    3  A    between atoms: C8_7  and  C9_8 
ROOT
ATOM      1  C8  ZIN A   1      19.136   2.658  10.289  0.00  0.00     0.070 C 
ENDROOT
BRANCH   1   2
ATOM      2  C2  ZIN A   1      19.299   1.874  11.592  0.00  0.00     0.183 C 
ATOM      3  C1  ZIN A   1      18.570   2.605  12.721  0.00  0.00     0.040 C 
BRANCH   2   4
ATOM      4  N4  ZIN A   1      20.726   1.763  11.922  0.00  0.00    -0.075 N 
ATOM      5  H5  ZIN A   1      21.150   1.052  11.345  0.00  0.00     0.274 HD
ATOM      6  H6  ZIN A   1      21.180   2.648  11.753  0.00  0.00     0.274 HD
ATOM      7  H7  ZIN A   1      20.828   1.512  12.894  0.00  0.00     0.274 HD
ENDBRANCH   2   4
ENDBRANCH   1   2
BRANCH   1   8
ATOM      8  C9  ZIN A   1      18.681   1.728   9.194  0.00  0.00    -0.056 A 
ATOM      9  C14 ZIN A   1      17.746   0.747   9.465  0.00  0.00     0.007 A 
ATOM     10  C13 ZIN A   1      17.326  -0.104   8.460  0.00  0.00     0.001 A 
ATOM     11  C12 ZIN A   1      17.848   0.020   7.187  0.00  0.00     0.000 A 
ATOM     12  C11 ZIN A   1      18.788   0.997   6.916  0.00  0.00     0.001 A 
ATOM     13  C10 ZIN A   1      19.205   1.851   7.920  0.00  0.00     0.007 A 
ENDBRANCH   1   8
TORSDOF 3
ENDMDL
MODEL 5
REMARK VINA RESULT:      -4.9      3.519      6.264
REMARK  3 active torsions:
REMARK  status: ('A' for Active; 'I' for Inactive)
REMARK    1  A    between atoms: C2_2  and  N4_3 
REMARK    2  A    between atoms: C2_2  and  C8_7 
REMARK    3  A    between atoms: C8_7  and  C9_8 
ROOT
ATOM      1  C8  ZIN A   1      19.165   2.499  10.187  0.00  0.00     0.070 C 
ENDROOT
BRANCH   1   2
ATOM      2  C2  ZIN A   1      19.318   1.673  11.465  0.00  0.00     0.183 C 
ATOM      3  C1  ZIN A   1      18.425   2.258  12.561  0.00  0.00     0.040 C 
BRANCH   2   4
ATOM      4  N4  ZIN A   1      20.720   1.708  11.906  0.00  0.00    -0.075 N 
ATOM      5  H5  ZIN A   1      20.754   1.789  12.910  0.00  0.00     0.274 HD
ATOM      6  H6  ZIN A   1      21.182   0.857  11.620  0.00  0.00     0.274 HD
ATOM      7  H7  ZIN A   1      21.184   2.499  11.488  0.00  0.00     0.274 HD
ENDBRANCH   2   4
ENDBRANCH   1   2
BRANCH   1   8
ATOM      8  C9  ZIN A   1      18.686   1.611   9.068  0.00  0.00    -0.056 A 
ATOM      9  C14 ZIN A   1      19.194   1.770   7.793  0.00  0.00     0.007 A 
ATOM     10  C13 ZIN A   1      18.757   0.954   6.767  0.00  0.00     0.001 A 
ATOM     11  C12 ZIN A   1      17.805  -0.017   7.015  0.00  0.00     0.000 A 
ATOM     12  C11 ZIN A   1      17.291  -0.173   8.289  0.00  0.00     0.001 A 
ATOM     13  C10 ZIN A   1      17.731   0.641   9.316  0.00  0.00     0.007 A 
ENDBRANCH   1   8
TORSDOF 3
ENDMDL
MODEL 6
REMARK VINA RESULT:      -4.7      1.725      2.833
REMARK  3 active torsions:
REMARK  status: ('A' for Active; 'I' for Inactive)
REMARK    1  A    between atoms: C2_2  and  N4_3 
REMARK    2  A    between atoms: C2_2  and  C8_7 
REMARK    3  A    between atoms: C8_7  and  C9_8 
ROOT
ATOM      1  C8  ZIN A   1      18.307  -1.431  14.788  0.00  0.00     0.070 C 
ENDROOT
BRANCH   1   2
ATOM      2  C2  ZIN A   1      19.655  -1.176  14.111  0.00  0.00     0.183 C 
ATOM      3  C1  ZIN A   1      19.720   0.277  13.637  0.00  0.00     0.040 C 
BRANCH   2   4
ATOM      4  N4  ZIN A   1      19.802  -2.075  12.958  0.00  0.00    -0.075 N 
ATOM      5  H5  ZIN A   1      20.241  -2.933  13.255  0.00  0.00     0.274 HD
ATOM      6  H6  ZIN A   1      18.891  -2.278  12.573  0.00  0.00     0.274 HD
ATOM      7  H7  ZIN A   1      20.372  -1.630  12.256  0.00  0.00     0.274 HD
ENDBRANCH   2   4
ENDBRANCH   1   2
BRANCH   1   8
ATOM      8  C9  ZIN A   1      18.292  -0.776  16.145  0.00  0.00    -0.056 A 
ATOM      9  C14 ZIN A   1      17.247   0.055  16.501  0.00  0.00     0.007 A 
ATOM     10  C13 ZIN A   1      17.232   0.654  17.746  0.00  0.00     0.001 A 
ATOM     11  C12 ZIN A   1      18.268   0.429  18.633  0.00  0.00     0.000 A 
ATOM     12  C11 ZIN A   1      19.317  -0.398  18.276  0.00  0.00     0.001 A 
ATOM     13  C10 ZIN A   1      19.330  -1.000  17.032  0.00  0.00     0.007 A 
ENDBRANCH   1   8
TORSDOF 3
ENDMDL
MODEL 7
REMARK VINA RESULT:      -4.7      5.219      8.154
REMARK  3 active torsions:
REMARK  status: ('A' for Active; 'I' for Inactive)
REMARK    1  A    between atoms: C2_2  and  N4_3 
REMARK    2  A    between atoms: C2_2  and  C8_7 
REMARK    3  A    between atoms: C8_7  and  C9_8 
ROOT
ATOM      1  C8  ZIN A   1      18.894   1.500   7.975  0.00  0.00     0.070 C 
ENDROOT
BRANCH   1   2
ATOM      2  C2  ZIN A   1      18.831   0.593   9.205  0.00  0.00     0.183 C 
ATOM      3  C1  ZIN A   1      18.231   1.367  10.381  0.00  0.00     0.040 C 
BRANCH   2   4
ATOM      4  N4  ZIN A   1      20.187   0.147   9.554  0.00  0.00    -0.075 N 
ATOM      5  H5  ZIN A   1      20.859   0.819   9.217  0.00  0.00     0.274 HD
ATOM      6  H6  ZIN A   1      20.266   0.066  10.557  0.00  0.00     0.274 HD
ATOM      7  H7  ZIN A   1      20.366  -0.750   9.129  0.00  0.00     0.274 HD
ENDBRANCH   2   4
ENDBRANCH   1   2
BRANCH   1   8
ATOM      8  C9  ZIN A   1      18.587   0.695   6.740  0.00  0.00    -0.056 A 
ATOM      9  C14 ZIN A   1      17.478  -0.130   6.709  0.00  0.00     0.007 A 
ATOM     10  C13 ZIN A   1      17.194  -0.866   5.574  0.00  0.00     0.001 A 
ATOM     11  C12 ZIN A   1      18.025  -0.784   4.472  0.00  0.00     0.000 A 
ATOM     12  C11 ZIN A   1      19.138   0.037   4.504  0.00  0.00     0.001 A 
ATOM     13  C10 ZIN A   1      19.419   0.776   5.638  0.00  0.00     0.007 A 
ENDBRANCH   1   8
TORSDOF 3
ENDMDL
MODEL 8
REMARK VINA RESULT:      -4.6      3.435      6.310
REMARK  3 active torsions:
REMARK  status: ('A' for Active; 'I' for Inactive)
REMARK    1  A    between atoms: C2_2  and  N4_3 
REMARK    2  A    between atoms: C2_2  and  C8_7 
REMARK    3  A    between atoms: C8_7  and  C9_8 
ROOT
ATOM      1  C8  ZIN A   1      20.138  -0.654  10.826  0.00  0.00     0.070 C 
ENDROOT
BRANCH   1   2
ATOM      2  C2  ZIN A   1      19.602  -2.079  10.981  0.00  0.00     0.183 C 
ATOM      3  C1  ZIN A   1      18.527  -2.104  12.069  0.00  0.00     0.040 C 
BRANCH   2   4
ATOM      4  N4  ZIN A   1      20.703  -2.977  11.358  0.00  0.00    -0.075 N 
ATOM      5  H5  ZIN A   1      21.577  -2.477  11.308  0.00  0.00     0.274 HD
ATOM      6  H6  ZIN A   1      20.557  -3.308  12.301  0.00  0.00     0.274 HD
ATOM      7  H7  ZIN A   1      20.727  -3.762  10.726  0.00  0.00     0.274 HD
ENDBRANCH   2   4
ENDBRANCH   1   2
BRANCH   1   8
ATOM      8  C9  ZIN A   1      19.678  -0.084   9.509  0.00  0.00    -0.056 A 
ATOM      9  C14 ZIN A   1      19.490   1.278   9.373  0.00  0.00     0.007 A 
ATOM     10  C13 ZIN A   1      19.071   1.801   8.164  0.00  0.00     0.001 A 
ATOM     11  C12 ZIN A   1      18.833   0.961   7.094  0.00  0.00     0.000 A 
ATOM     12  C11 ZIN A   1      19.015  -0.403   7.230  0.00  0.00     0.001 A 
ATOM     13  C10 ZIN A   1      19.437  -0.926   8.438  0.00  0.00     0.007 A 
ENDBRANCH   1   8
TORSDOF 3
ENDMDL
MODEL 9
REMARK VINA RESULT:      -4.6      3.784      6.524
REMARK  3 active torsions:
REMARK  status: ('A' for Active; 'I' for Inactive)
REMARK    1  A    between atoms: C2_2  and  N4_3 
REMARK    2  A    between atoms: C2_2  and  C8_7 
REMARK    3  A    between atoms: C8_7  and  C9_8 
ROOT
ATOM      1  C8  ZIN A   1      17.063   0.025  10.559  0.00  0.00     0.070 C 
ENDROOT
BRANCH   1   2
ATOM      2  C2  ZIN A   1      18.026  -0.856  11.356  0.00  0.00     0.183 C 
ATOM      3  C1  ZIN A   1      17.539  -2.306  11.324  0.00  0.00     0.040 C 
BRANCH   2   4
ATOM      4  N4  ZIN A   1      18.079  -0.389  12.749  0.00  0.00    -0.075 N 
ATOM      5  H5  ZIN A   1      18.159  -1.181  13.367  0.00  0.00     0.274 HD
ATOM      6  H6  ZIN A   1      18.879   0.215  12.870  0.00  0.00     0.274 HD
ATOM      7  H7  ZIN A   1      17.237   0.123  12.963  0.00  0.00     0.274 HD
ENDBRANCH   2   4
ENDBRANCH   1   2
BRANCH   1   8
ATOM      8  C9  ZIN A   1      17.704   0.419   9.254  0.00  0.00    -0.056 A 
ATOM      9  C14 ZIN A   1      17.297  -0.177   8.075  0.00  0.00     0.007 A 
ATOM     10  C13 ZIN A   1      17.883   0.187   6.877  0.00  0.00     0.001 A 
ATOM     11  C12 ZIN A   1      18.883   1.141   6.860  0.00  0.00     0.000 A 
ATOM     12  C11 ZIN A   1      19.295   1.733   8.039  0.00  0.00     0.001 A 
ATOM     13  C10 ZIN A   1      18.706   1.372   9.236  0.00  0.00     0.007 A 
ENDBRANCH   1   8
TORSDOF 3
ENDMDL
