MODEL 1
REMARK VINA RESULT:      -7.2      0.000      0.000
REMARK  5 active torsions:
REMARK  status: ('A' for Active; 'I' for Inactive)
REMARK    1  A    between atoms: O2_2  and  C3_3 
REMARK    2  A    between atoms: C7_7  and  C8_8 
REMARK    3  A    between atoms: C8_8  and  O9_9 
REMARK    4  A    between atoms: C14_14  and  C16_15 
REMARK    5  A    between atoms: C16_15  and  N17_16 
ROOT
ATOM      1  C8  ZIN A   1      18.066  -0.213   6.935  0.00  0.00     0.090 C 
ATOM      2  C10 ZIN A   1      18.637   0.576   5.756  0.00  0.00     0.043 C 
ATOM      3  C11 ZIN A   1      18.504  -0.252   4.476  0.00  0.00     0.003 C 
ATOM      4  C12 ZIN A   1      19.277  -1.562   4.634  0.00  0.00     0.001 C 
ATOM      5  C13 ZIN A   1      18.706  -2.352   5.813  0.00  0.00     0.010 C 
ATOM      6  C14 ZIN A   1      18.839  -1.524   7.094  0.00  0.00     0.050 C 
ENDROOT
BRANCH   1   7
ATOM      7  C7  ZIN A   1      18.197   0.601   8.196  0.00  0.00    -0.021 A 
ATOM      8  C6  ZIN A   1      19.146   1.605   8.276  0.00  0.00     0.010 A 
ATOM      9  C5  ZIN A   1      19.267   2.353   9.431  0.00  0.00     0.003 A 
ATOM     10  C4  ZIN A   1      18.441   2.102  10.510  0.00  0.00     0.037 A 
ATOM     11  C3  ZIN A   1      17.489   1.095  10.434  0.00  0.00     0.068 A 
ATOM     12  C21 ZIN A   1      17.372   0.342   9.274  0.00  0.00     0.047 A 
BRANCH  11  13
ATOM     13  O2  ZIN A   1      16.676   0.846  11.492  0.00  0.00    -0.356 OA
ATOM     14  C1  ZIN A   1      17.032  -0.249  12.340  0.00  0.00     0.210 C 
ENDBRANCH  11  13
ENDBRANCH   1   7
BRANCH   1  15
ATOM     15  O9  ZIN A   1      16.687  -0.500   6.694  0.00  0.00    -0.385 OA
ATOM     16  H28 ZIN A   1      16.142  -0.511   7.493  0.00  0.00     0.211 HD
ENDBRANCH   1  15
BRANCH   6  17
ATOM     17  C16 ZIN A   1      18.268  -2.314   8.272  0.00  0.00     0.242 C 
BRANCH  17  18
ATOM     18  N17 ZIN A   1      19.364  -2.960   9.008  0.00  0.00    -0.078 N 
ATOM     19  H18 ZIN A   1      20.249  -2.665   8.620  0.00  0.00     0.279 HD
ATOM     20  C19 ZIN A   1      19.298  -2.575  10.423  0.00  0.00     0.269 C 
ATOM     21  C20 ZIN A   1      19.240  -4.419   8.891  0.00  0.00     0.269 C 
ENDBRANCH  17  18
ENDBRANCH   6  17
TORSDOF 5
ENDMDL
MODEL 2
REMARK VINA RESULT:      -6.9      1.763      4.738
REMARK  5 active torsions:
REMARK  status: ('A' for Active; 'I' for Inactive)
REMARK    1  A    between atoms: O2_2  and  C3_3 
REMARK    2  A    between atoms: C7_7  and  C8_8 
REMARK    3  A    between atoms: C8_8  and  O9_9 
REMARK    4  A    between atoms: C14_14  and  C16_15 
REMARK    5  A    between atoms: C16_15  and  N17_16 
ROOT
ATOM      1  C8  ZIN A   1      19.030   0.578   8.534  0.00  0.00     0.090 C 
ATOM      2  C10 ZIN A   1      18.978   2.100   8.395  0.00  0.00     0.043 C 
ATOM      3  C11 ZIN A   1      18.995   2.739   9.785  0.00  0.00     0.003 C 
ATOM      4  C12 ZIN A   1      17.782   2.259  10.583  0.00  0.00     0.001 C 
ATOM      5  C13 ZIN A   1      17.834   0.736  10.722  0.00  0.00     0.010 C 
ATOM      6  C14 ZIN A   1      17.816   0.097   9.332  0.00  0.00     0.050 C 
ENDROOT
BRANCH   1   7
ATOM      7  C7  ZIN A   1      19.012  -0.052   7.165  0.00  0.00    -0.021 A 
ATOM      8  C6  ZIN A   1      18.650   0.700   6.062  0.00  0.00     0.010 A 
ATOM      9  C5  ZIN A   1      18.633   0.124   4.806  0.00  0.00     0.003 A 
ATOM     10  C4  ZIN A   1      18.978  -1.205   4.648  0.00  0.00     0.037 A 
ATOM     11  C3  ZIN A   1      19.341  -1.962   5.752  0.00  0.00     0.068 A 
ATOM     12  C21 ZIN A   1      19.352  -1.383   7.013  0.00  0.00     0.047 A 
BRANCH  11  13
ATOM     13  O2  ZIN A   1      19.680  -3.268   5.600  0.00  0.00    -0.356 OA
ATOM     14  C1  ZIN A   1      20.000  -3.998   6.786  0.00  0.00     0.210 C 
ENDBRANCH  11  13
ENDBRANCH   1   7
BRANCH   1  15
ATOM     15  O9  ZIN A   1      20.227   0.202   9.216  0.00  0.00    -0.385 OA
ATOM     16  H28 ZIN A   1      21.015   0.677   8.918  0.00  0.00     0.211 HD
ENDBRANCH   1  15
BRANCH   6  17
ATOM     17  C16 ZIN A   1      17.868  -1.426   9.471  0.00  0.00     0.242 C 
BRANCH  17  18
ATOM     18  N17 ZIN A   1      18.395  -1.780  10.796  0.00  0.00    -0.078 N 
ATOM     19  H18 ZIN A   1      18.609  -0.936  11.309  0.00  0.00     0.279 HD
ATOM     20  C19 ZIN A   1      17.388  -2.557  11.532  0.00  0.00     0.269 C 
ATOM     21  C20 ZIN A   1      19.615  -2.582  10.640  0.00  0.00     0.269 C 
ENDBRANCH  17  18
ENDBRANCH   6  17
TORSDOF 5
ENDMDL
MODEL 3
REMARK VINA RESULT:      -6.8      4.260      8.551
REMARK  5 active torsions:
REMARK  status: ('A' for Active; 'I' for Inactive)
REMARK    1  A    between atoms: O2_2  and  C3_3 
REMARK    2  A    between atoms: C7_7  and  C8_8 
REMARK    3  A    between atoms: C8_8  and  O9_9 
REMARK    4  A    between atoms: C14_14  and  C16_15 
REMARK    5  A    between atoms: C16_15  and  N17_16 
ROOT
ATOM      1  C8  ZIN A   1      18.156   0.296  16.005  0.00  0.00     0.090 C 
ATOM      2  C10 ZIN A   1      18.767  -0.553  17.121  0.00  0.00     0.043 C 
ATOM      3  C11 ZIN A   1      18.603   0.171  18.459  0.00  0.00     0.003 C 
ATOM      4  C12 ZIN A   1      19.316   1.523  18.399  0.00  0.00     0.001 C 
ATOM      5  C13 ZIN A   1      18.704   2.372  17.283  0.00  0.00     0.010 C 
ATOM      6  C14 ZIN A   1      18.869   1.649  15.944  0.00  0.00     0.050 C 
ENDROOT
BRANCH   1   7
ATOM      7  C7  ZIN A   1      18.317  -0.415  14.686  0.00  0.00    -0.021 A 
ATOM      8  C6  ZIN A   1      19.392  -1.263  14.485  0.00  0.00     0.010 A 
ATOM      9  C5  ZIN A   1      19.542  -1.916  13.276  0.00  0.00     0.003 A 
ATOM     10  C4  ZIN A   1      18.618  -1.726  12.267  0.00  0.00     0.037 A 
ATOM     11  C3  ZIN A   1      17.540  -0.877  12.465  0.00  0.00     0.068 A 
ATOM     12  C21 ZIN A   1      17.394  -0.217  13.677  0.00  0.00     0.047 A 
BRANCH  11  13
ATOM     13  O2  ZIN A   1      16.631  -0.687  11.474  0.00  0.00    -0.356 OA
ATOM     14  C1  ZIN A   1      17.022   0.152  10.386  0.00  0.00     0.210 C 
ENDBRANCH  11  13
ENDBRANCH   1   7
BRANCH   1  15
ATOM     15  O9  ZIN A   1      16.767   0.502  16.269  0.00  0.00    -0.385 OA
ATOM     16  H28 ZIN A   1      16.273   0.859  15.517  0.00  0.00     0.211 HD
ENDBRANCH   1  15
BRANCH   6  17
ATOM     17  C16 ZIN A   1      18.257   2.498  14.828  0.00  0.00     0.242 C 
BRANCH  17  18
ATOM     18  N17 ZIN A   1      19.330   3.143  14.059  0.00  0.00    -0.078 N 
ATOM     19  H18 ZIN A   1      20.226   2.842  14.413  0.00  0.00     0.279 HD
ATOM     20  C19 ZIN A   1      19.212   2.766  12.644  0.00  0.00     0.269 C 
ATOM     21  C20 ZIN A   1      19.217   4.602  14.188  0.00  0.00     0.269 C 
ENDBRANCH  17  18
ENDBRANCH   6  17
TORSDOF 5
ENDMDL
MODEL 4
REMARK VINA RESULT:      -6.8      3.966      6.004
REMARK  5 active torsions:
REMARK  status: ('A' for Active; 'I' for Inactive)
REMARK    1  A    between atoms: O2_2  and  C3_3 
REMARK    2  A    between atoms: C7_7  and  C8_8 
REMARK    3  A    between atoms: C8_8  and  O9_9 
REMARK    4  A    between atoms: C14_14  and  C16_15 
REMARK    5  A    between atoms: C16_15  and  N17_16 
ROOT
ATOM      1  C8  ZIN A   1      19.141   0.755  13.369  0.00  0.00     0.090 C 
ATOM      2  C10 ZIN A   1      18.786   1.496  14.660  0.00  0.00     0.043 C 
ATOM      3  C11 ZIN A   1      19.069   0.590  15.860  0.00  0.00     0.003 C 
ATOM      4  C12 ZIN A   1      18.225  -0.680  15.752  0.00  0.00     0.001 C 
ATOM      5  C13 ZIN A   1      18.579  -1.420  14.462  0.00  0.00     0.010 C 
ATOM      6  C14 ZIN A   1      18.295  -0.515  13.261  0.00  0.00     0.050 C 
ENDROOT
BRANCH   1   7
ATOM      7  C7  ZIN A   1      18.861   1.646  12.186  0.00  0.00    -0.021 A 
ATOM      8  C6  ZIN A   1      19.662   1.573  11.060  0.00  0.00     0.010 A 
ATOM      9  C5  ZIN A   1      19.407   2.389   9.974  0.00  0.00     0.003 A 
ATOM     10  C4  ZIN A   1      18.350   3.279  10.009  0.00  0.00     0.037 A 
ATOM     11  C3  ZIN A   1      17.545   3.355  11.137  0.00  0.00     0.068 A 
ATOM     12  C21 ZIN A   1      17.807   2.539  12.228  0.00  0.00     0.047 A 
BRANCH  11  13
ATOM     13  O2  ZIN A   1      16.507   4.229  11.174  0.00  0.00    -0.356 OA
ATOM     14  C1  ZIN A   1      16.582   5.285  12.133  0.00  0.00     0.210 C 
ENDBRANCH  11  13
ENDBRANCH   1   7
BRANCH   1  15
ATOM     15  O9  ZIN A   1      20.525   0.405  13.385  0.00  0.00    -0.385 OA
ATOM     16  H28 ZIN A   1      21.123   1.166  13.362  0.00  0.00     0.211 HD
ENDBRANCH   1  15
BRANCH   6  17
ATOM     17  C16 ZIN A   1      18.650  -1.256  11.970  0.00  0.00     0.242 C 
BRANCH  17  18
ATOM     18  N17 ZIN A   1      18.624  -2.705  12.213  0.00  0.00    -0.078 N 
ATOM     19  H18 ZIN A   1      18.508  -2.878  13.201  0.00  0.00     0.279 HD
ATOM     20  C19 ZIN A   1      17.502  -3.304  11.477  0.00  0.00     0.269 C 
ATOM     21  C20 ZIN A   1      19.885  -3.301  11.754  0.00  0.00     0.269 C 
ENDBRANCH  17  18
ENDBRANCH   6  17
TORSDOF 5
ENDMDL
MODEL 5
REMARK VINA RESULT:      -6.8      2.297      5.645
REMARK  5 active torsions:
REMARK  status: ('A' for Active; 'I' for Inactive)
REMARK    1  A    between atoms: O2_2  and  C3_3 
REMARK    2  A    between atoms: C7_7  and  C8_8 
REMARK    3  A    between atoms: C8_8  and  O9_9 
REMARK    4  A    between atoms: C14_14  and  C16_15 
REMARK    5  A    between atoms: C16_15  and  N17_16 
ROOT
ATOM      1  C8  ZIN A   1      18.680   2.329  10.470  0.00  0.00     0.090 C 
ATOM      2  C10 ZIN A   1      17.885   3.632  10.369  0.00  0.00     0.043 C 
ATOM      3  C11 ZIN A   1      18.191   4.511  11.583  0.00  0.00     0.003 C 
ATOM      4  C12 ZIN A   1      17.795   3.771  12.861  0.00  0.00     0.001 C 
ATOM      5  C13 ZIN A   1      18.590   2.468  12.964  0.00  0.00     0.010 C 
ATOM      6  C14 ZIN A   1      18.284   1.588  11.749  0.00  0.00     0.050 C 
ENDROOT
BRANCH   1   7
ATOM      7  C7  ZIN A   1      18.379   1.462   9.275  0.00  0.00    -0.021 A 
ATOM      8  C6  ZIN A   1      17.409   0.479   9.360  0.00  0.00     0.010 A 
ATOM      9  C5  ZIN A   1      17.132  -0.317   8.265  0.00  0.00     0.003 A 
ATOM     10  C4  ZIN A   1      17.822  -0.132   7.082  0.00  0.00     0.037 A 
ATOM     11  C3  ZIN A   1      18.795   0.852   6.994  0.00  0.00     0.068 A 
ATOM     12  C21 ZIN A   1      19.076   1.646   8.096  0.00  0.00     0.047 A 
BRANCH  11  13
ATOM     13  O2  ZIN A   1      19.475   1.035   5.832  0.00  0.00    -0.356 OA
ATOM     14  C1  ZIN A   1      19.313   0.038   4.822  0.00  0.00     0.210 C 
ENDBRANCH  11  13
ENDBRANCH   1   7
BRANCH   1  15
ATOM     15  O9  ZIN A   1      20.078   2.624  10.505  0.00  0.00    -0.385 OA
ATOM     16  H28 ZIN A   1      20.291   3.461  10.942  0.00  0.00     0.211 HD
ENDBRANCH   1  15
BRANCH   6  17
ATOM     17  C16 ZIN A   1      19.079   0.285  11.851  0.00  0.00     0.242 C 
BRANCH  17  18
ATOM     18  N17 ZIN A   1      18.423  -0.617  12.808  0.00  0.00    -0.078 N 
ATOM     19  H18 ZIN A   1      17.637  -0.144  13.231  0.00  0.00     0.279 HD
ATOM     20  C19 ZIN A   1      17.950  -1.816  12.105  0.00  0.00     0.269 C 
ATOM     21  C20 ZIN A   1      19.381  -1.005  13.851  0.00  0.00     0.269 C 
ENDBRANCH  17  18
ENDBRANCH   6  17
TORSDOF 5
ENDMDL
MODEL 6
REMARK VINA RESULT:      -6.7      3.223      4.824
REMARK  5 active torsions:
REMARK  status: ('A' for Active; 'I' for Inactive)
REMARK    1  A    between atoms: O2_2  and  C3_3 
REMARK    2  A    between atoms: C7_7  and  C8_8 
REMARK    3  A    between atoms: C8_8  and  O9_9 
REMARK    4  A    between atoms: C14_14  and  C16_15 
REMARK    5  A    between atoms: C16_15  and  N17_16 
ROOT
ATOM      1  C8  ZIN A   1      17.962  -0.890  11.162  0.00  0.00     0.090 C 
ATOM      2  C10 ZIN A   1      17.855  -1.884  10.003  0.00  0.00     0.043 C 
ATOM      3  C11 ZIN A   1      17.650  -3.294  10.559  0.00  0.00     0.003 C 
ATOM      4  C12 ZIN A   1      18.837  -3.672  11.445  0.00  0.00     0.001 C 
ATOM      5  C13 ZIN A   1      18.943  -2.679  12.605  0.00  0.00     0.010 C 
ATOM      6  C14 ZIN A   1      19.150  -1.268  12.049  0.00  0.00     0.050 C 
ENDROOT
BRANCH   1   7
ATOM      7  C7  ZIN A   1      18.165   0.499  10.616  0.00  0.00    -0.021 A 
ATOM      8  C6  ZIN A   1      19.114   0.725   9.634  0.00  0.00     0.010 A 
ATOM      9  C5  ZIN A   1      19.302   1.998   9.132  0.00  0.00     0.003 A 
ATOM     10  C4  ZIN A   1      18.542   3.050   9.608  0.00  0.00     0.037 A 
ATOM     11  C3  ZIN A   1      17.590   2.827  10.593  0.00  0.00     0.068 A 
ATOM     12  C21 ZIN A   1      17.407   1.548  11.100  0.00  0.00     0.047 A 
BRANCH  11  13
ATOM     13  O2  ZIN A   1      16.843   3.859  11.063  0.00  0.00    -0.356 OA
ATOM     14  C1  ZIN A   1      17.367   4.585  12.177  0.00  0.00     0.210 C 
ENDBRANCH  11  13
ENDBRANCH   1   7
BRANCH   1  15
ATOM     15  O9  ZIN A   1      16.760  -0.928  11.934  0.00  0.00    -0.385 OA
ATOM     16  H28 ZIN A   1      15.983  -1.220  11.437  0.00  0.00     0.211 HD
ENDBRANCH   1  15
BRANCH   6  17
ATOM     17  C16 ZIN A   1      19.256  -0.275  13.209  0.00  0.00     0.242 C 
BRANCH  17  18
ATOM     18  N17 ZIN A   1      18.350  -0.685  14.290  0.00  0.00    -0.078 N 
ATOM     19  H18 ZIN A   1      17.733  -1.410  13.955  0.00  0.00     0.279 HD
ATOM     20  C19 ZIN A   1      19.137  -1.198  15.420  0.00  0.00     0.269 C 
ATOM     21  C20 ZIN A   1      17.558   0.470  14.730  0.00  0.00     0.269 C 
ENDBRANCH  17  18
ENDBRANCH   6  17
TORSDOF 5
ENDMDL
MODEL 7
REMARK VINA RESULT:      -6.6      4.463      8.440
REMARK  5 active torsions:
REMARK  status: ('A' for Active; 'I' for Inactive)
REMARK    1  A    between atoms: O2_2  and  C3_3 
REMARK    2  A    between atoms: C7_7  and  C8_8 
REMARK    3  A    between atoms: C8_8  and  O9_9 
REMARK    4  A    between atoms: C14_14  and  C16_15 
REMARK    5  A    between atoms: C16_15  and  N17_16 
ROOT
ATOM      1  C8  ZIN A   1      18.424   0.632  15.502  0.00  0.00     0.090 C 
ATOM      2  C10 ZIN A   1      18.971  -0.637  16.159  0.00  0.00     0.043 C 
ATOM      3  C11 ZIN A   1      18.676  -0.602  17.659  0.00  0.00     0.003 C 
ATOM      4  C12 ZIN A   1      19.346   0.623  18.283  0.00  0.00     0.001 C 
ATOM      5  C13 ZIN A   1      18.798   1.892  17.627  0.00  0.00     0.010 C 
ATOM      6  C14 ZIN A   1      19.094   1.858  16.126  0.00  0.00     0.050 C 
ENDROOT
BRANCH   1   7
ATOM      7  C7  ZIN A   1      18.715   0.599  14.024  0.00  0.00    -0.021 A 
ATOM      8  C6  ZIN A   1      20.021   0.510  13.578  0.00  0.00     0.010 A 
ATOM      9  C5  ZIN A   1      20.290   0.479  12.223  0.00  0.00     0.003 A 
ATOM     10  C4  ZIN A   1      19.255   0.537  11.310  0.00  0.00     0.037 A 
ATOM     11  C3  ZIN A   1      17.944   0.627  11.754  0.00  0.00     0.068 A 
ATOM     12  C21 ZIN A   1      17.676   0.663  13.115  0.00  0.00     0.047 A 
BRANCH  11  13
ATOM     13  O2  ZIN A   1      16.924   0.685  10.858  0.00  0.00    -0.356 OA
ATOM     14  C1  ZIN A   1      17.205   0.252   9.526  0.00  0.00     0.210 C 
ENDBRANCH  11  13
ENDBRANCH   1   7
BRANCH   1  15
ATOM     15  O9  ZIN A   1      17.012   0.705  15.709  0.00  0.00    -0.385 OA
ATOM     16  H28 ZIN A   1      16.628   1.567  15.499  0.00  0.00     0.211 HD
ENDBRANCH   1  15
BRANCH   6  17
ATOM     17  C16 ZIN A   1      18.546   3.127  15.470  0.00  0.00     0.242 C 
BRANCH  17  18
ATOM     18  N17 ZIN A   1      19.662   3.942  14.970  0.00  0.00    -0.078 N 
ATOM     19  H18 ZIN A   1      20.480   3.360  14.860  0.00  0.00     0.279 HD
ATOM     20  C19 ZIN A   1      19.299   4.524  13.671  0.00  0.00     0.269 C 
ATOM     21  C20 ZIN A   1      19.950   5.018  15.926  0.00  0.00     0.269 C 
ENDBRANCH  17  18
ENDBRANCH   6  17
TORSDOF 5
ENDMDL
MODEL 8
REMARK VINA RESULT:      -6.6      2.321      5.170
REMARK  5 active torsions:
REMARK  status: ('A' for Active; 'I' for Inactive)
REMARK    1  A    between atoms: O2_2  and  C3_3 
REMARK    2  A    between atoms: C7_7  and  C8_8 
REMARK    3  A    between atoms: C8_8  and  O9_9 
REMARK    4  A    between atoms: C14_14  and  C16_15 
REMARK    5  A    between atoms: C16_15  and  N17_16 
ROOT
ATOM      1  C8  ZIN A   1      19.666  -0.455  11.209  0.00  0.00     0.090 C 
ATOM      2  C10 ZIN A   1      20.007   0.659  12.201  0.00  0.00     0.043 C 
ATOM      3  C11 ZIN A   1      20.241   0.053  13.586  0.00  0.00     0.003 C 
ATOM      4  C12 ZIN A   1      18.976  -0.670  14.048  0.00  0.00     0.001 C 
ATOM      5  C13 ZIN A   1      18.635  -1.785  13.057  0.00  0.00     0.010 C 
ATOM      6  C14 ZIN A   1      18.399  -1.179  11.671  0.00  0.00     0.050 C 
ENDROOT
BRANCH   1   7
ATOM      7  C7  ZIN A   1      19.433   0.140   9.845  0.00  0.00    -0.021 A 
ATOM      8  C6  ZIN A   1      19.171   1.492   9.715  0.00  0.00     0.010 A 
ATOM      9  C5  ZIN A   1      18.958   2.040   8.465  0.00  0.00     0.003 A 
ATOM     10  C4  ZIN A   1      19.008   1.239   7.340  0.00  0.00     0.037 A 
ATOM     11  C3  ZIN A   1      19.270  -0.117   7.466  0.00  0.00     0.068 A 
ATOM     12  C21 ZIN A   1      19.478  -0.666   8.723  0.00  0.00     0.047 A 
BRANCH  11  13
ATOM     13  O2  ZIN A   1      19.319  -0.906   6.362  0.00  0.00    -0.356 OA
ATOM     14  C1  ZIN A   1      19.337  -0.248   5.094  0.00  0.00     0.210 C 
ENDBRANCH  11  13
ENDBRANCH   1   7
BRANCH   1  15
ATOM     15  O9  ZIN A   1      20.749  -1.385  11.146  0.00  0.00    -0.385 OA
ATOM     16  H28 ZIN A   1      21.560  -1.072  11.570  0.00  0.00     0.211 HD
ENDBRANCH   1  15
BRANCH   6  17
ATOM     17  C16 ZIN A   1      18.059  -2.294  10.680  0.00  0.00     0.242 C 
BRANCH  17  18
ATOM     18  N17 ZIN A   1      18.288  -3.600  11.313  0.00  0.00    -0.078 N 
ATOM     19  H18 ZIN A   1      18.635  -3.463  12.251  0.00  0.00     0.279 HD
ATOM     20  C19 ZIN A   1      17.024  -4.348  11.363  0.00  0.00     0.269 C 
ATOM     21  C20 ZIN A   1      19.274  -4.357  10.531  0.00  0.00     0.269 C 
ENDBRANCH  17  18
ENDBRANCH   6  17
TORSDOF 5
ENDMDL
MODEL 9
REMARK VINA RESULT:      -6.6      4.744      8.320
REMARK  5 active torsions:
REMARK  status: ('A' for Active; 'I' for Inactive)
REMARK    1  A    between atoms: O2_2  and  C3_3 
REMARK    2  A    between atoms: C7_7  and  C8_8 
REMARK    3  A    between atoms: C8_8  and  O9_9 
REMARK    4  A    between atoms: C14_14  and  C16_15 
REMARK    5  A    between atoms: C16_15  and  N17_16 
ROOT
ATOM      1  C8  ZIN A   1      18.110  -0.017  15.501  0.00  0.00     0.090 C 
ATOM      2  C10 ZIN A   1      18.738  -0.997  16.494  0.00  0.00     0.043 C 
ATOM      3  C11 ZIN A   1      18.705  -0.390  17.898  0.00  0.00     0.003 C 
ATOM      4  C12 ZIN A   1      19.494   0.920  17.907  0.00  0.00     0.001 C 
ATOM      5  C13 ZIN A   1      18.866   1.900  16.914  0.00  0.00     0.010 C 
ATOM      6  C14 ZIN A   1      18.899   1.293  15.509  0.00  0.00     0.050 C 
ENDROOT
BRANCH   1   7
ATOM      7  C7  ZIN A   1      18.142  -0.614  14.118  0.00  0.00    -0.021 A 
ATOM      8  C6  ZIN A   1      17.250  -0.177  13.155  0.00  0.00     0.010 A 
ATOM      9  C5  ZIN A   1      17.278  -0.723  11.886  0.00  0.00     0.003 A 
ATOM     10  C4  ZIN A   1      18.199  -1.705  11.574  0.00  0.00     0.037 A 
ATOM     11  C3  ZIN A   1      19.095  -2.145  12.537  0.00  0.00     0.068 A 
ATOM     12  C21 ZIN A   1      19.061  -1.600  13.813  0.00  0.00     0.047 A 
BRANCH  11  13
ATOM     13  O2  ZIN A   1      20.001  -3.110  12.234  0.00  0.00    -0.356 OA
ATOM     14  C1  ZIN A   1      19.657  -4.016  11.184  0.00  0.00     0.210 C 
ENDBRANCH  11  13
ENDBRANCH   1   7
BRANCH   1  15
ATOM     15  O9  ZIN A   1      16.756   0.240  15.877  0.00  0.00    -0.385 OA
ATOM     16  H28 ZIN A   1      16.622   0.324  16.832  0.00  0.00     0.211 HD
ENDBRANCH   1  15
BRANCH   6  17
ATOM     17  C16 ZIN A   1      18.271   2.273  14.517  0.00  0.00     0.242 C 
BRANCH  17  18
ATOM     18  N17 ZIN A   1      19.330   3.049  13.856  0.00  0.00    -0.078 N 
ATOM     19  H18 ZIN A   1      20.231   2.741  14.192  0.00  0.00     0.279 HD
ATOM     20  C19 ZIN A   1      19.253   2.844  12.404  0.00  0.00     0.269 C 
ATOM     21  C20 ZIN A   1      19.155   4.475  14.160  0.00  0.00     0.269 C 
ENDBRANCH  17  18
ENDBRANCH   6  17
TORSDOF 5
ENDMDL
