MODEL 1
REMARK VINA RESULT:      -6.6      0.000      0.000
REMARK  2 active torsions:
REMARK  status: ('A' for Active; 'I' for Inactive)
REMARK    1  A    between atoms: N2_2  and  C3_3 
REMARK    2  A    between atoms: C3_3  and  C4_4 
ROOT
ATOM      1  C3  ZIN A   1      19.102   1.591  11.632  0.00  0.00     0.244 C 
ATOM      2  C11 ZIN A   1      19.223   0.316  12.473  0.00  0.00     0.055 C 
ATOM      3  C12 ZIN A   1      19.438   0.693  13.940  0.00  0.00     0.004 C 
ATOM      4  C13 ZIN A   1      18.213   1.442  14.467  0.00  0.00     0.007 C 
ATOM      5  C14 ZIN A   1      18.053   2.759  13.700  0.00  0.00     0.081 C 
ATOM      6  C15 ZIN A   1      18.008   2.452  12.220  0.00  0.00     0.170 C 
ATOM      7  O16 ZIN A   1      17.119   2.884  11.526  0.00  0.00    -0.295 OA
ENDROOT
BRANCH   1   8
ATOM      8  N2  ZIN A   1      20.375   2.323  11.660  0.00  0.00     0.101 N 
ATOM      9  C1  ZIN A   1      20.148   3.771  11.766  0.00  0.00     0.308 C 
ATOM     10  H20 ZIN A   1      20.936   2.104  10.851  0.00  0.00     0.317 HD
ENDBRANCH   1   8
BRANCH   1  11
ATOM     11  C4  ZIN A   1      18.756   1.233  10.209  0.00  0.00     0.009 A 
ATOM     12  C9  ZIN A   1      17.784   0.282   9.952  0.00  0.00     0.043 A 
ATOM     13  C8  ZIN A   1      17.462  -0.041   8.647  0.00  0.00     0.024 A 
ATOM     14 Cl10 ZIN A   1      16.958  -0.493  11.268  0.00  0.00    -0.084 Cl
ATOM     15  C7  ZIN A   1      18.120   0.576   7.600  0.00  0.00     0.002 A 
ATOM     16  C6  ZIN A   1      19.095   1.521   7.857  0.00  0.00     0.001 A 
ATOM     17  C5  ZIN A   1      19.414   1.849   9.162  0.00  0.00     0.012 A 
ENDBRANCH   1  11
TORSDOF 2
ENDMDL
MODEL 2
REMARK VINA RESULT:      -6.5      2.168      3.749
REMARK  2 active torsions:
REMARK  status: ('A' for Active; 'I' for Inactive)
REMARK    1  A    between atoms: N2_2  and  C3_3 
REMARK    2  A    between atoms: C3_3  and  C4_4 
ROOT
ATOM      1  C3  ZIN A   1      18.519   0.514  11.333  0.00  0.00     0.244 C 
ATOM      2  C11 ZIN A   1      19.233   0.136  10.033  0.00  0.00     0.055 C 
ATOM      3  C12 ZIN A   1      19.468  -1.375  10.003  0.00  0.00     0.004 C 
ATOM      4  C13 ZIN A   1      18.126  -2.108   9.986  0.00  0.00     0.007 C 
ATOM      5  C14 ZIN A   1      17.369  -1.814  11.285  0.00  0.00     0.081 C 
ATOM      6  C15 ZIN A   1      17.259  -0.314  11.449  0.00  0.00     0.170 C 
ATOM      7  O16 ZIN A   1      16.192   0.208  11.666  0.00  0.00    -0.295 OA
ENDROOT
BRANCH   1   8
ATOM      8  N2  ZIN A   1      19.398   0.238  12.478  0.00  0.00     0.101 N 
ATOM      9  C1  ZIN A   1      20.771   0.683  12.207  0.00  0.00     0.308 C 
ATOM     10  H20 ZIN A   1      19.376  -0.741  12.723  0.00  0.00     0.317 HD
ENDBRANCH   1   8
BRANCH   1  11
ATOM     11  C4  ZIN A   1      18.162   1.979  11.313  0.00  0.00     0.009 A 
ATOM     12  C9  ZIN A   1      17.834   2.627  12.490  0.00  0.00     0.043 A 
ATOM     13  C8  ZIN A   1      17.512   3.972  12.472  0.00  0.00     0.024 A 
ATOM     14 Cl10 ZIN A   1      17.841   1.756  13.992  0.00  0.00    -0.084 Cl
ATOM     15  C7  ZIN A   1      17.507   4.665  11.276  0.00  0.00     0.002 A 
ATOM     16  C6  ZIN A   1      17.829   4.015  10.099  0.00  0.00     0.001 A 
ATOM     17  C5  ZIN A   1      18.155   2.672  10.117  0.00  0.00     0.012 A 
ENDBRANCH   1  11
TORSDOF 2
ENDMDL
MODEL 3
REMARK VINA RESULT:      -6.5      1.990      4.724
REMARK  2 active torsions:
REMARK  status: ('A' for Active; 'I' for Inactive)
REMARK    1  A    between atoms: N2_2  and  C3_3 
REMARK    2  A    between atoms: C3_3  and  C4_4 
ROOT
ATOM      1  C3  ZIN A   1      18.622   0.766  12.422  0.00  0.00     0.244 C 
ATOM      2  C11 ZIN A   1      19.020   2.245  12.453  0.00  0.00     0.055 C 
ATOM      3  C12 ZIN A   1      19.169   2.761  11.021  0.00  0.00     0.004 C 
ATOM      4  C13 ZIN A   1      17.821   2.693  10.302  0.00  0.00     0.007 C 
ATOM      5  C14 ZIN A   1      17.377   1.230  10.190  0.00  0.00     0.081 C 
ATOM      6  C15 ZIN A   1      17.379   0.620  11.575  0.00  0.00     0.170 C 
ATOM      7  O16 ZIN A   1      16.410   0.031  11.992  0.00  0.00    -0.295 OA
ENDROOT
BRANCH   1   8
ATOM      8  N2  ZIN A   1      19.713  -0.027  11.837  0.00  0.00     0.101 N 
ATOM      9  C1  ZIN A   1      21.022   0.494  12.251  0.00  0.00     0.308 C 
ATOM     10  H20 ZIN A   1      19.637  -0.060  10.832  0.00  0.00     0.317 HD
ENDBRANCH   1   8
BRANCH   1  11
ATOM     11  C4  ZIN A   1      18.340   0.283  13.822  0.00  0.00     0.009 A 
ATOM     12  C9  ZIN A   1      18.391  -1.069  14.110  0.00  0.00     0.043 A 
ATOM     13  C8  ZIN A   1      18.139  -1.511  15.396  0.00  0.00     0.024 A 
ATOM     14 Cl10 ZIN A   1      18.786  -2.209  12.861  0.00  0.00    -0.084 Cl
ATOM     15  C7  ZIN A   1      17.825  -0.604  16.390  0.00  0.00     0.002 A 
ATOM     16  C6  ZIN A   1      17.768   0.747  16.099  0.00  0.00     0.001 A 
ATOM     17  C5  ZIN A   1      18.026   1.190  14.816  0.00  0.00     0.012 A 
ENDBRANCH   1  11
TORSDOF 2
ENDMDL
MODEL 4
REMARK VINA RESULT:      -6.5      2.872      4.270
REMARK  2 active torsions:
REMARK  status: ('A' for Active; 'I' for Inactive)
REMARK    1  A    between atoms: N2_2  and  C3_3 
REMARK    2  A    between atoms: C3_3  and  C4_4 
ROOT
ATOM      1  C3  ZIN A   1      18.960  -1.474   9.919  0.00  0.00     0.244 C 
ATOM      2  C11 ZIN A   1      17.603  -2.148  10.139  0.00  0.00     0.055 C 
ATOM      3  C12 ZIN A   1      17.814  -3.638  10.413  0.00  0.00     0.004 C 
ATOM      4  C13 ZIN A   1      18.601  -3.819  11.712  0.00  0.00     0.007 C 
ATOM      5  C14 ZIN A   1      19.997  -3.207  11.551  0.00  0.00     0.081 C 
ATOM      6  C15 ZIN A   1      19.843  -1.768  11.110  0.00  0.00     0.170 C 
ATOM      7  O16 ZIN A   1      20.411  -0.877  11.696  0.00  0.00    -0.295 OA
ENDROOT
BRANCH   1   8
ATOM      8  N2  ZIN A   1      19.584  -2.006   8.699  0.00  0.00     0.101 N 
ATOM      9  C1  ZIN A   1      18.588  -2.188   7.635  0.00  0.00     0.308 C 
ATOM     10  H20 ZIN A   1      20.073  -2.867   8.890  0.00  0.00     0.317 HD
ENDBRANCH   1   8
BRANCH   1  11
ATOM     11  C4  ZIN A   1      18.774   0.017   9.782  0.00  0.00     0.009 A 
ATOM     12  C9  ZIN A   1      17.883   0.680  10.606  0.00  0.00     0.043 A 
ATOM     13  C8  ZIN A   1      17.717   2.048  10.484  0.00  0.00     0.024 A 
ATOM     14 Cl10 ZIN A   1      16.985  -0.201  11.802  0.00  0.00    -0.084 Cl
ATOM     15  C7  ZIN A   1      18.433   2.749   9.533  0.00  0.00     0.002 A 
ATOM     16  C6  ZIN A   1      19.319   2.084   8.705  0.00  0.00     0.001 A 
ATOM     17  C5  ZIN A   1      19.489   0.718   8.829  0.00  0.00     0.012 A 
ENDBRANCH   1  11
TORSDOF 2
ENDMDL
MODEL 5
REMARK VINA RESULT:      -6.4      2.689      4.153
REMARK  2 active torsions:
REMARK  status: ('A' for Active; 'I' for Inactive)
REMARK    1  A    between atoms: N2_2  and  C3_3 
REMARK    2  A    between atoms: C3_3  and  C4_4 
ROOT
ATOM      1  C3  ZIN A   1      19.577  -0.027  10.539  0.00  0.00     0.244 C 
ATOM      2  C11 ZIN A   1      18.718   1.055  11.201  0.00  0.00     0.055 C 
ATOM      3  C12 ZIN A   1      19.111   2.426  10.648  0.00  0.00     0.004 C 
ATOM      4  C13 ZIN A   1      18.804   2.488   9.151  0.00  0.00     0.007 C 
ATOM      5  C14 ZIN A   1      19.666   1.459   8.411  0.00  0.00     0.081 C 
ATOM      6  C15 ZIN A   1      19.440   0.102   9.039  0.00  0.00     0.170 C 
ATOM      7  O16 ZIN A   1      19.157  -0.855   8.359  0.00  0.00    -0.295 OA
ENDROOT
BRANCH   1   8
ATOM      8  N2  ZIN A   1      20.983   0.155  10.924  0.00  0.00     0.101 N 
ATOM      9  C1  ZIN A   1      21.097   0.547  12.335  0.00  0.00     0.308 C 
ATOM     10  H20 ZIN A   1      21.438   0.827  10.324  0.00  0.00     0.317 HD
ENDBRANCH   1   8
BRANCH   1  11
ATOM     11  C4  ZIN A   1      19.106  -1.391  10.976  0.00  0.00     0.009 A 
ATOM     12  C9  ZIN A   1      17.760  -1.620  11.196  0.00  0.00     0.043 A 
ATOM     13  C8  ZIN A   1      17.328  -2.873  11.591  0.00  0.00     0.024 A 
ATOM     14 Cl10 ZIN A   1      16.611  -0.339  10.962  0.00  0.00    -0.084 Cl
ATOM     15  C7  ZIN A   1      18.242  -3.892  11.777  0.00  0.00     0.002 A 
ATOM     16  C6  ZIN A   1      19.588  -3.661  11.562  0.00  0.00     0.001 A 
ATOM     17  C5  ZIN A   1      20.020  -2.410  11.163  0.00  0.00     0.012 A 
ENDBRANCH   1  11
TORSDOF 2
ENDMDL
MODEL 6
REMARK VINA RESULT:      -6.4      2.354      3.683
REMARK  2 active torsions:
REMARK  status: ('A' for Active; 'I' for Inactive)
REMARK    1  A    between atoms: N2_2  and  C3_3 
REMARK    2  A    between atoms: C3_3  and  C4_4 
ROOT
ATOM      1  C3  ZIN A   1      18.458   1.503  11.804  0.00  0.00     0.244 C 
ATOM      2  C11 ZIN A   1      17.752   1.035  13.080  0.00  0.00     0.055 C 
ATOM      3  C12 ZIN A   1      18.351  -0.297  13.533  0.00  0.00     0.004 C 
ATOM      4  C13 ZIN A   1      19.823  -0.105  13.900  0.00  0.00     0.007 C 
ATOM      5  C14 ZIN A   1      20.608   0.321  12.654  0.00  0.00     0.081 C 
ATOM      6  C15 ZIN A   1      19.946   1.547  12.066  0.00  0.00     0.170 C 
ATOM      7  O16 ZIN A   1      20.591   2.536  11.811  0.00  0.00    -0.295 OA
ENDROOT
BRANCH   1   8
ATOM      8  N2  ZIN A   1      18.177   0.563  10.711  0.00  0.00     0.101 N 
ATOM      9  C1  ZIN A   1      16.784   0.098  10.762  0.00  0.00     0.308 C 
ATOM     10  H20 ZIN A   1      18.819  -0.215  10.729  0.00  0.00     0.317 HD
ENDBRANCH   1   8
BRANCH   1  11
ATOM     11  C4  ZIN A   1      17.970   2.879  11.425  0.00  0.00     0.009 A 
ATOM     12  C9  ZIN A   1      18.165   3.352  10.140  0.00  0.00     0.043 A 
ATOM     13  C8  ZIN A   1      17.712   4.612   9.792  0.00  0.00     0.024 A 
ATOM     14 Cl10 ZIN A   1      18.966   2.360   8.962  0.00  0.00    -0.084 Cl
ATOM     15  C7  ZIN A   1      17.074   5.400  10.730  0.00  0.00     0.002 A 
ATOM     16  C6  ZIN A   1      16.885   4.929  12.016  0.00  0.00     0.001 A 
ATOM     17  C5  ZIN A   1      17.333   3.669  12.364  0.00  0.00     0.012 A 
ENDBRANCH   1  11
TORSDOF 2
ENDMDL
MODEL 7
REMARK VINA RESULT:      -6.3      2.446      3.410
REMARK  2 active torsions:
REMARK  status: ('A' for Active; 'I' for Inactive)
REMARK    1  A    between atoms: N2_2  and  C3_3 
REMARK    2  A    between atoms: C3_3  and  C4_4 
ROOT
ATOM      1  C3  ZIN A   1      18.189   1.732  12.790  0.00  0.00     0.244 C 
ATOM      2  C11 ZIN A   1      19.669   1.355  12.672  0.00  0.00     0.055 C 
ATOM      3  C12 ZIN A   1      19.930   0.067  13.453  0.00  0.00     0.004 C 
ATOM      4  C13 ZIN A   1      19.140  -1.086  12.830  0.00  0.00     0.007 C 
ATOM      5  C14 ZIN A   1      17.640  -0.801  12.954  0.00  0.00     0.081 C 
ATOM      6  C15 ZIN A   1      17.355   0.553  12.342  0.00  0.00     0.170 C 
ATOM      7  O16 ZIN A   1      16.484   0.689  11.517  0.00  0.00    -0.295 OA
ENDROOT
BRANCH   1   8
ATOM      8  N2  ZIN A   1      17.872   2.058  14.188  0.00  0.00     0.101 N 
ATOM      9  C1  ZIN A   1      18.954   2.837  14.805  0.00  0.00     0.308 C 
ATOM     10  H20 ZIN A   1      17.680   1.222  14.719  0.00  0.00     0.317 HD
ENDBRANCH   1   8
BRANCH   1  11
ATOM     11  C4  ZIN A   1      17.893   2.923  11.914  0.00  0.00     0.009 A 
ATOM     12  C9  ZIN A   1      18.370   2.962  10.616  0.00  0.00     0.043 A 
ATOM     13  C8  ZIN A   1      18.094   4.053   9.811  0.00  0.00     0.024 A 
ATOM     14 Cl10 ZIN A   1      19.302   1.636   9.993  0.00  0.00    -0.084 Cl
ATOM     15  C7  ZIN A   1      17.352   5.107  10.308  0.00  0.00     0.002 A 
ATOM     16  C6  ZIN A   1      16.881   5.071  11.607  0.00  0.00     0.001 A 
ATOM     17  C5  ZIN A   1      17.153   3.979  12.411  0.00  0.00     0.012 A 
ENDBRANCH   1  11
TORSDOF 2
ENDMDL
MODEL 8
REMARK VINA RESULT:      -6.2      1.871      4.213
REMARK  2 active torsions:
REMARK  status: ('A' for Active; 'I' for Inactive)
REMARK    1  A    between atoms: N2_2  and  C3_3 
REMARK    2  A    between atoms: C3_3  and  C4_4 
ROOT
ATOM      1  C3  ZIN A   1      19.358   1.519  11.140  0.00  0.00     0.244 C 
ATOM      2  C11 ZIN A   1      18.105   2.352  10.855  0.00  0.00     0.055 C 
ATOM      3  C12 ZIN A   1      18.348   3.230   9.626  0.00  0.00     0.004 C 
ATOM      4  C13 ZIN A   1      18.568   2.350   8.396  0.00  0.00     0.007 C 
ATOM      5  C14 ZIN A   1      19.839   1.515   8.588  0.00  0.00     0.081 C 
ATOM      6  C15 ZIN A   1      19.720   0.752   9.889  0.00  0.00     0.170 C 
ATOM      7  O16 ZIN A   1      19.911  -0.440   9.926  0.00  0.00    -0.295 OA
ENDROOT
BRANCH   1   8
ATOM      8  N2  ZIN A   1      20.468   2.406  11.513  0.00  0.00     0.101 N 
ATOM      9  C1  ZIN A   1      19.967   3.662  12.089  0.00  0.00     0.308 C 
ATOM     10  H20 ZIN A   1      21.070   2.585  10.723  0.00  0.00     0.317 HD
ENDBRANCH   1   8
BRANCH   1  11
ATOM     11  C4  ZIN A   1      19.084   0.553  12.265  0.00  0.00     0.009 A 
ATOM     12  C9  ZIN A   1      17.897  -0.157  12.292  0.00  0.00     0.043 A 
ATOM     13  C8  ZIN A   1      17.648  -1.048  13.321  0.00  0.00     0.024 A 
ATOM     14 Cl10 ZIN A   1      16.726   0.059  11.028  0.00  0.00    -0.084 Cl
ATOM     15  C7  ZIN A   1      18.580  -1.220  14.326  0.00  0.00     0.002 A 
ATOM     16  C6  ZIN A   1      19.763  -0.505  14.302  0.00  0.00     0.001 A 
ATOM     17  C5  ZIN A   1      20.015   0.381  13.271  0.00  0.00     0.012 A 
ENDBRANCH   1  11
TORSDOF 2
ENDMDL
MODEL 9
REMARK VINA RESULT:      -6.2      2.016      2.477
REMARK  2 active torsions:
REMARK  status: ('A' for Active; 'I' for Inactive)
REMARK    1  A    between atoms: N2_2  and  C3_3 
REMARK    2  A    between atoms: C3_3  and  C4_4 
ROOT
ATOM      1  C3  ZIN A   1      18.621  -0.204  12.012  0.00  0.00     0.244 C 
ATOM      2  C11 ZIN A   1      19.315  -1.397  12.676  0.00  0.00     0.055 C 
ATOM      3  C12 ZIN A   1      19.476  -1.124  14.172  0.00  0.00     0.004 C 
ATOM      4  C13 ZIN A   1      18.099  -1.007  14.827  0.00  0.00     0.007 C 
ATOM      5  C14 ZIN A   1      17.358   0.201  14.244  0.00  0.00     0.081 C 
ATOM      6  C15 ZIN A   1      17.323   0.062  12.738  0.00  0.00     0.170 C 
ATOM      7  O16 ZIN A   1      16.283   0.161  12.132  0.00  0.00    -0.295 OA
ENDROOT
BRANCH   1   8
ATOM      8  N2  ZIN A   1      19.486   0.980  12.096  0.00  0.00     0.101 N 
ATOM      9  C1  ZIN A   1      20.896   0.619  11.898  0.00  0.00     0.308 C 
ATOM     10  H20 ZIN A   1      19.355   1.461  12.974  0.00  0.00     0.317 HD
ENDBRANCH   1   8
BRANCH   1  11
ATOM     11  C4  ZIN A   1      18.337  -0.520  10.565  0.00  0.00     0.009 A 
ATOM     12  C9  ZIN A   1      18.038   0.502   9.681  0.00  0.00     0.043 A 
ATOM     13  C8  ZIN A   1      17.783   0.213   8.352  0.00  0.00     0.024 A 
ATOM     14 Cl10 ZIN A   1      17.998   2.147  10.235  0.00  0.00    -0.084 Cl
ATOM     15  C7  ZIN A   1      17.815  -1.096   7.912  0.00  0.00     0.002 A 
ATOM     16  C6  ZIN A   1      18.108  -2.117   8.797  0.00  0.00     0.001 A 
ATOM     17  C5  ZIN A   1      18.368  -1.829  10.124  0.00  0.00     0.012 A 
ENDBRANCH   1  11
TORSDOF 2
ENDMDL
