MODEL 1
REMARK VINA RESULT:      -8.0      0.000      0.000
REMARK  6 active torsions:
REMARK  status: ('A' for Active; 'I' for Inactive)
REMARK    1  A    between atoms: C2_2  and  C3_3 
REMARK    2  A    between atoms: C4_4  and  C5_5 
REMARK    3  A    between atoms: C11_11  and  N13_12 
REMARK       I    between atoms: N13_12  and  C14_13 
REMARK    4  A    between atoms: C14_13  and  C16_15 
REMARK    5  A    between atoms: C16_15  and  C19_18 
REMARK    6  A    between atoms: C22_21  and  N23_22 
ROOT
ATOM      1  N13 ZIN A   1      18.818  -1.802   7.297  0.00  0.00    -0.339 N 
ATOM      2  C14 ZIN A   1      19.307  -2.578   6.310  0.00  0.00     0.275 C 
ATOM      3  O15 ZIN A   1      20.185  -3.384   6.550  0.00  0.00    -0.266 OA
ATOM      4  H33 ZIN A   1      18.061  -1.219   7.125  0.00  0.00     0.163 HD
ENDROOT
BRANCH   1   5
ATOM      5  C11 ZIN A   1      19.426  -1.839   8.630  0.00  0.00     0.211 C 
ATOM      6  C9  ZIN A   1      18.435  -1.800   9.769  0.00  0.00     0.251 C 
ATOM      7  N8  ZIN A   1      18.573  -0.504  10.020  0.00  0.00    -0.293 N 
ATOM      8  O10 ZIN A   1      17.749  -2.659  10.281  0.00  0.00    -0.271 OA
ATOM      9  C4  ZIN A   1      17.940   0.584  10.631  0.00  0.00     0.122 C 
ATOM     10  C26 ZIN A   1      19.805  -0.478   9.186  0.00  0.00     0.187 C 
ATOM     11  C3  ZIN A   1      18.211   1.840  10.218  0.00  0.00    -0.016 C 
ATOM     12  C29 ZIN A   1      19.201   2.264   9.183  0.00  0.00     0.117 C 
ATOM     13  S28 ZIN A   1      19.632   0.917   8.024  0.00  0.00    -0.136 SA
BRANCH   9  14
ATOM     14  C5  ZIN A   1      16.983   0.360  11.717  0.00  0.00     0.227 C 
ATOM     15  O6  ZIN A   1      17.345   0.458  12.883  0.00  0.00    -0.643 OA
ATOM     16  O7  ZIN A   1      15.820   0.073  11.458  0.00  0.00    -0.643 OA
ENDBRANCH   9  14
BRANCH  11  17
ATOM     17  C2  ZIN A   1      17.443   2.908  10.854  0.00  0.00     0.000 C 
ATOM     18  C1  ZIN A   1      17.584   4.170  10.438  0.00  0.00     0.012 C 
ENDBRANCH  11  17
ENDBRANCH   1   5
BRANCH   2  19
ATOM     19  C16 ZIN A   1      18.776  -2.450   4.933  0.00  0.00     0.181 C 
ATOM     20  N17 ZIN A   1      19.076  -1.406   4.214  0.00  0.00    -0.090 NA
ATOM     21  O18 ZIN A   1      20.011  -0.458   4.698  0.00  0.00    -0.060 OA
BRANCH  19  22
ATOM     22  C19 ZIN A   1      17.905  -3.506   4.374  0.00  0.00     0.077 A 
ATOM     23  N24 ZIN A   1      18.236  -4.798   4.410  0.00  0.00    -0.334 N 
ATOM     24  C22 ZIN A   1      17.391  -5.633   3.893  0.00  0.00     0.142 A 
ATOM     25  H25 ZIN A   1      19.067  -5.099   4.811  0.00  0.00     0.168 HD
ATOM     26  S21 ZIN A   1      16.003  -4.752   3.261  0.00  0.00    -0.064 SA
ATOM     27  C20 ZIN A   1      16.724  -3.233   3.788  0.00  0.00     0.085 A 
BRANCH  24  28
ATOM     28  N23 ZIN A   1      17.556  -7.007   3.840  0.00  0.00    -0.380 N 
ATOM     29  H35 ZIN A   1      18.101  -7.404   3.142  0.00  0.00     0.158 HD
ATOM     30  H36 ZIN A   1      17.126  -7.573   4.500  0.00  0.00     0.158 HD
ENDBRANCH  24  28
ENDBRANCH  19  22
ENDBRANCH   2  19
TORSDOF 6
ENDMDL
MODEL 2
REMARK VINA RESULT:      -7.6      2.793      3.679
REMARK  6 active torsions:
REMARK  status: ('A' for Active; 'I' for Inactive)
REMARK    1  A    between atoms: C2_2  and  C3_3 
REMARK    2  A    between atoms: C4_4  and  C5_5 
REMARK    3  A    between atoms: C11_11  and  N13_12 
REMARK       I    between atoms: N13_12  and  C14_13 
REMARK    4  A    between atoms: C14_13  and  C16_15 
REMARK    5  A    between atoms: C16_15  and  C19_18 
REMARK    6  A    between atoms: C22_21  and  N23_22 
ROOT
ATOM      1  N13 ZIN A   1      18.517  -0.558   7.841  0.00  0.00    -0.339 N 
ATOM      2  C14 ZIN A   1      18.192  -0.947   6.593  0.00  0.00     0.275 C 
ATOM      3  O15 ZIN A   1      17.142  -0.585   6.098  0.00  0.00    -0.266 OA
ATOM      4  H33 ZIN A   1      19.389  -0.777   8.205  0.00  0.00     0.163 HD
ENDROOT
BRANCH   1   5
ATOM      5  C11 ZIN A   1      17.555   0.196   8.648  0.00  0.00     0.211 C 
ATOM      6  C9  ZIN A   1      18.165   1.300   9.479  0.00  0.00     0.251 C 
ATOM      7  N8  ZIN A   1      18.194   0.611  10.614  0.00  0.00    -0.293 N 
ATOM      8  O10 ZIN A   1      18.512   2.429   9.204  0.00  0.00    -0.271 OA
ATOM      9  C4  ZIN A   1      18.806   0.563  11.871  0.00  0.00     0.122 C 
ATOM     10  C26 ZIN A   1      17.279  -0.400  10.018  0.00  0.00     0.187 C 
ATOM     11  C3  ZIN A   1      18.893  -0.609  12.534  0.00  0.00    -0.016 C 
ATOM     12  C29 ZIN A   1      18.334  -1.932  12.120  0.00  0.00     0.117 C 
ATOM     13  S28 ZIN A   1      18.023  -2.037  10.322  0.00  0.00    -0.136 SA
BRANCH   9  14
ATOM     14  C5  ZIN A   1      19.354   1.784  12.466  0.00  0.00     0.227 C 
ATOM     15  O6  ZIN A   1      20.393   2.265  12.030  0.00  0.00    -0.643 OA
ATOM     16  O7  ZIN A   1      18.774   2.323  13.400  0.00  0.00    -0.643 OA
ENDBRANCH   9  14
BRANCH  11  17
ATOM     17  C2  ZIN A   1      19.621  -0.583  13.800  0.00  0.00     0.000 C 
ATOM     18  C1  ZIN A   1      19.155  -1.259  14.853  0.00  0.00     0.012 C 
ENDBRANCH  11  17
ENDBRANCH   1   5
BRANCH   2  19
ATOM     19  C16 ZIN A   1      19.113  -1.816   5.823  0.00  0.00     0.181 C 
ATOM     20  N17 ZIN A   1      19.764  -1.332   4.803  0.00  0.00    -0.090 NA
ATOM     21  O18 ZIN A   1      19.690   0.051   4.508  0.00  0.00    -0.060 OA
BRANCH  19  22
ATOM     22  C19 ZIN A   1      19.294  -3.230   6.211  0.00  0.00     0.077 A 
ATOM     23  N24 ZIN A   1      20.421  -3.681   6.766  0.00  0.00    -0.334 N 
ATOM     24  C22 ZIN A   1      20.461  -4.940   7.068  0.00  0.00     0.142 A 
ATOM     25  H25 ZIN A   1      21.171  -3.092   6.942  0.00  0.00     0.168 HD
ATOM     26  S21 ZIN A   1      18.940  -5.704   6.616  0.00  0.00    -0.064 SA
ATOM     27  C20 ZIN A   1      18.336  -4.158   6.025  0.00  0.00     0.085 A 
BRANCH  24  28
ATOM     28  N23 ZIN A   1      21.537  -5.588   7.652  0.00  0.00    -0.380 N 
ATOM     29  H35 ZIN A   1      21.834  -5.333   8.539  0.00  0.00     0.158 HD
ATOM     30  H36 ZIN A   1      21.995  -6.297   7.172  0.00  0.00     0.158 HD
ENDBRANCH  24  28
ENDBRANCH  19  22
ENDBRANCH   2  19
TORSDOF 6
ENDMDL
MODEL 3
REMARK VINA RESULT:      -7.6      5.458     10.059
REMARK  6 active torsions:
REMARK  status: ('A' for Active; 'I' for Inactive)
REMARK    1  A    between atoms: C2_2  and  C3_3 
REMARK    2  A    between atoms: C4_4  and  C5_5 
REMARK    3  A    between atoms: C11_11  and  N13_12 
REMARK       I    between atoms: N13_12  and  C14_13 
REMARK    4  A    between atoms: C14_13  and  C16_15 
REMARK    5  A    between atoms: C16_15  and  C19_18 
REMARK    6  A    between atoms: C22_21  and  N23_22 
ROOT
ATOM      1  N13 ZIN A   1      18.745   0.943  15.045  0.00  0.00    -0.339 N 
ATOM      2  C14 ZIN A   1      18.384   1.144  16.327  0.00  0.00     0.275 C 
ATOM      3  O15 ZIN A   1      17.419   0.565  16.784  0.00  0.00    -0.266 OA
ATOM      4  H33 ZIN A   1      19.563   1.340  14.704  0.00  0.00     0.163 HD
ENDROOT
BRANCH   1   5
ATOM      5  C11 ZIN A   1      17.906   0.125  14.166  0.00  0.00     0.211 C 
ATOM      6  C9  ZIN A   1      18.675  -0.732  13.188  0.00  0.00     0.251 C 
ATOM      7  N8  ZIN A   1      18.526   0.084  12.152  0.00  0.00    -0.293 N 
ATOM      8  O10 ZIN A   1      19.236  -1.800  13.309  0.00  0.00    -0.271 OA
ATOM      9  C4  ZIN A   1      19.064   0.401  10.899  0.00  0.00     0.122 C 
ATOM     10  C26 ZIN A   1      17.465   0.821  12.890  0.00  0.00     0.187 C 
ATOM     11  C3  ZIN A   1      18.902   1.641  10.391  0.00  0.00    -0.016 C 
ATOM     12  C29 ZIN A   1      18.126   2.772  10.982  0.00  0.00     0.117 C 
ATOM     13  S28 ZIN A   1      17.878   2.595  12.785  0.00  0.00    -0.136 SA
BRANCH   9  14
ATOM     14  C5  ZIN A   1      19.803  -0.611  10.142  0.00  0.00     0.227 C 
ATOM     15  O6  ZIN A   1      19.218  -1.320   9.333  0.00  0.00    -0.643 OA
ATOM     16  O7  ZIN A   1      21.007  -0.749  10.319  0.00  0.00    -0.643 OA
ENDBRANCH   9  14
BRANCH  11  17
ATOM     17  C2  ZIN A   1      19.568   1.908   9.118  0.00  0.00     0.000 C 
ATOM     18  C1  ZIN A   1      18.846   2.032   8.001  0.00  0.00     0.012 C 
ENDBRANCH  11  17
ENDBRANCH   1   5
BRANCH   2  19
ATOM     19  C16 ZIN A   1      19.164   2.072  17.181  0.00  0.00     0.181 C 
ATOM     20  N17 ZIN A   1      19.712   1.639  18.281  0.00  0.00    -0.090 NA
ATOM     21  O18 ZIN A   1      19.672   0.258  18.596  0.00  0.00    -0.060 OA
BRANCH  19  22
ATOM     22  C19 ZIN A   1      19.319   3.487  16.786  0.00  0.00     0.077 A 
ATOM     23  N24 ZIN A   1      20.461   3.971  16.292  0.00  0.00    -0.334 N 
ATOM     24  C22 ZIN A   1      20.476   5.227  15.977  0.00  0.00     0.142 A 
ATOM     25  H25 ZIN A   1      21.240   3.406  16.169  0.00  0.00     0.168 HD
ATOM     26  S21 ZIN A   1      18.906   5.943  16.329  0.00  0.00    -0.064 SA
ATOM     27  C20 ZIN A   1      18.321   4.384  16.903  0.00  0.00     0.085 A 
BRANCH  24  28
ATOM     28  N23 ZIN A   1      21.563   5.905  15.449  0.00  0.00    -0.380 N 
ATOM     29  H35 ZIN A   1      21.570   6.155  14.512  0.00  0.00     0.158 HD
ATOM     30  H36 ZIN A   1      22.316   6.130  16.017  0.00  0.00     0.158 HD
ENDBRANCH  24  28
ENDBRANCH  19  22
ENDBRANCH   2  19
TORSDOF 6
ENDMDL
MODEL 4
REMARK VINA RESULT:      -7.3      4.705      9.207
REMARK  6 active torsions:
REMARK  status: ('A' for Active; 'I' for Inactive)
REMARK    1  A    between atoms: C2_2  and  C3_3 
REMARK    2  A    between atoms: C4_4  and  C5_5 
REMARK    3  A    between atoms: C11_11  and  N13_12 
REMARK       I    between atoms: N13_12  and  C14_13 
REMARK    4  A    between atoms: C14_13  and  C16_15 
REMARK    5  A    between atoms: C16_15  and  C19_18 
REMARK    6  A    between atoms: C22_21  and  N23_22 
ROOT
ATOM      1  N13 ZIN A   1      19.223   1.754  11.963  0.00  0.00    -0.339 N 
ATOM      2  C14 ZIN A   1      19.483   3.076  11.957  0.00  0.00     0.275 C 
ATOM      3  O15 ZIN A   1      20.506   3.491  11.449  0.00  0.00    -0.266 OA
ATOM      4  H33 ZIN A   1      18.370   1.429  12.294  0.00  0.00     0.163 HD
ENDROOT
BRANCH   1   5
ATOM      5  C11 ZIN A   1      20.226   0.806  11.473  0.00  0.00     0.211 C 
ATOM      6  C9  ZIN A   1      19.849   0.106  10.189  0.00  0.00     0.251 C 
ATOM      7  N8  ZIN A   1      19.439  -1.017  10.766  0.00  0.00    -0.293 N 
ATOM      8  O10 ZIN A   1      19.902   0.451   9.027  0.00  0.00    -0.271 OA
ATOM      9  C4  ZIN A   1      18.650  -2.154  10.554  0.00  0.00     0.122 C 
ATOM     10  C26 ZIN A   1      20.094  -0.598  12.035  0.00  0.00     0.187 C 
ATOM     11  C3  ZIN A   1      18.116  -2.808  11.606  0.00  0.00    -0.016 C 
ATOM     12  C29 ZIN A   1      18.313  -2.514  13.057  0.00  0.00     0.117 C 
ATOM     13  S28 ZIN A   1      18.858  -0.796  13.362  0.00  0.00    -0.136 SA
BRANCH   9  14
ATOM     14  C5  ZIN A   1      18.404  -2.630   9.191  0.00  0.00     0.227 C 
ATOM     15  O6  ZIN A   1      18.985  -3.624   8.775  0.00  0.00    -0.643 OA
ATOM     16  O7  ZIN A   1      17.615  -2.033   8.468  0.00  0.00    -0.643 OA
ENDBRANCH   9  14
BRANCH  11  17
ATOM     17  C2  ZIN A   1      17.238  -3.933  11.288  0.00  0.00     0.000 C 
ATOM     18  C1  ZIN A   1      17.404  -5.105  11.908  0.00  0.00     0.012 C 
ENDBRANCH  11  17
ENDBRANCH   1   5
BRANCH   2  19
ATOM     19  C16 ZIN A   1      18.522   4.024  12.568  0.00  0.00     0.181 C 
ATOM     20  N17 ZIN A   1      17.324   4.149  12.070  0.00  0.00    -0.090 NA
ATOM     21  O18 ZIN A   1      16.898   3.288  11.029  0.00  0.00    -0.060 OA
BRANCH  19  22
ATOM     22  C19 ZIN A   1      18.922   4.829  13.741  0.00  0.00     0.077 A 
ATOM     23  N24 ZIN A   1      20.180   4.869  14.186  0.00  0.00    -0.334 N 
ATOM     24  C22 ZIN A   1      20.411   5.614  15.220  0.00  0.00     0.142 A 
ATOM     25  H25 ZIN A   1      20.888   4.370  13.750  0.00  0.00     0.168 HD
ATOM     26  S21 ZIN A   1      18.912   6.370  15.750  0.00  0.00    -0.064 SA
ATOM     27  C20 ZIN A   1      18.043   5.571  14.442  0.00  0.00     0.085 A 
BRANCH  24  28
ATOM     28  N23 ZIN A   1      21.648   5.785  15.821  0.00  0.00    -0.380 N 
ATOM     29  H35 ZIN A   1      21.812   5.420  16.704  0.00  0.00     0.158 HD
ATOM     30  H36 ZIN A   1      22.349   6.270  15.358  0.00  0.00     0.158 HD
ENDBRANCH  24  28
ENDBRANCH  19  22
ENDBRANCH   2  19
TORSDOF 6
ENDMDL
MODEL 5
REMARK VINA RESULT:      -7.3      3.751      7.638
REMARK  6 active torsions:
REMARK  status: ('A' for Active; 'I' for Inactive)
REMARK    1  A    between atoms: C2_2  and  C3_3 
REMARK    2  A    between atoms: C4_4  and  C5_5 
REMARK    3  A    between atoms: C11_11  and  N13_12 
REMARK       I    between atoms: N13_12  and  C14_13 
REMARK    4  A    between atoms: C14_13  and  C16_15 
REMARK    5  A    between atoms: C16_15  and  C19_18 
REMARK    6  A    between atoms: C22_21  and  N23_22 
ROOT
ATOM      1  N13 ZIN A   1      18.107  -3.463   6.230  0.00  0.00    -0.339 N 
ATOM      2  C14 ZIN A   1      19.229  -2.835   6.633  0.00  0.00     0.275 C 
ATOM      3  O15 ZIN A   1      20.308  -3.379   6.508  0.00  0.00    -0.266 OA
ATOM      4  H33 ZIN A   1      17.256  -2.998   6.253  0.00  0.00     0.163 HD
ENDROOT
BRANCH   1   5
ATOM      5  C11 ZIN A   1      18.172  -4.849   5.757  0.00  0.00     0.211 C 
ATOM      6  C9  ZIN A   1      17.094  -5.222   4.768  0.00  0.00     0.251 C 
ATOM      7  N8  ZIN A   1      16.308  -5.827   5.650  0.00  0.00    -0.293 N 
ATOM      8  O10 ZIN A   1      16.984  -5.034   3.575  0.00  0.00    -0.271 OA
ATOM      9  C4  ZIN A   1      14.989  -6.243   5.863  0.00  0.00     0.122 C 
ATOM     10  C26 ZIN A   1      17.429  -5.846   6.628  0.00  0.00     0.187 C 
ATOM     11  C3  ZIN A   1      14.523  -6.382   7.122  0.00  0.00    -0.016 C 
ATOM     12  C29 ZIN A   1      15.280  -6.209   8.398  0.00  0.00     0.117 C 
ATOM     13  S28 ZIN A   1      16.778  -5.182   8.197  0.00  0.00    -0.136 SA
BRANCH   9  14
ATOM     14  C5  ZIN A   1      14.116  -6.524   4.722  0.00  0.00     0.227 C 
ATOM     15  O6  ZIN A   1      13.579  -5.604   4.120  0.00  0.00    -0.643 OA
ATOM     16  O7  ZIN A   1      13.923  -7.682   4.371  0.00  0.00    -0.643 OA
ENDBRANCH   9  14
BRANCH  11  17
ATOM     17  C2  ZIN A   1      13.111  -6.739   7.251  0.00  0.00     0.000 C 
ATOM     18  C1  ZIN A   1      12.322  -6.052   8.083  0.00  0.00     0.012 C 
ENDBRANCH  11  17
ENDBRANCH   1   5
BRANCH   2  19
ATOM     19  C16 ZIN A   1      19.147  -1.480   7.228  0.00  0.00     0.181 C 
ATOM     20  N17 ZIN A   1      18.971  -0.441   6.461  0.00  0.00    -0.090 NA
ATOM     21  O18 ZIN A   1      18.731  -0.617   5.076  0.00  0.00    -0.060 OA
BRANCH  19  22
ATOM     22  C19 ZIN A   1      19.265  -1.306   8.691  0.00  0.00     0.077 A 
ATOM     23  N24 ZIN A   1      20.351  -0.784   9.264  0.00  0.00    -0.334 N 
ATOM     24  C22 ZIN A   1      20.338  -0.677  10.555  0.00  0.00     0.142 A 
ATOM     25  H25 ZIN A   1      21.112  -0.491   8.738  0.00  0.00     0.168 HD
ATOM     26  S21 ZIN A   1      18.816  -1.300  11.183  0.00  0.00    -0.064 SA
ATOM     27  C20 ZIN A   1      18.287  -1.669   9.543  0.00  0.00     0.085 A 
BRANCH  24  28
ATOM     28  N23 ZIN A   1      21.367  -0.158  11.324  0.00  0.00    -0.380 N 
ATOM     29  H35 ZIN A   1      22.043  -0.749  11.692  0.00  0.00     0.158 HD
ATOM     30  H36 ZIN A   1      21.410   0.796  11.495  0.00  0.00     0.158 HD
ENDBRANCH  24  28
ENDBRANCH  19  22
ENDBRANCH   2  19
TORSDOF 6
ENDMDL
MODEL 6
REMARK VINA RESULT:      -7.2      6.286     11.298
REMARK  6 active torsions:
REMARK  status: ('A' for Active; 'I' for Inactive)
REMARK    1  A    between atoms: C2_2  and  C3_3 
REMARK    2  A    between atoms: C4_4  and  C5_5 
REMARK    3  A    between atoms: C11_11  and  N13_12 
REMARK       I    between atoms: N13_12  and  C14_13 
REMARK    4  A    between atoms: C14_13  and  C16_15 
REMARK    5  A    between atoms: C16_15  and  C19_18 
REMARK    6  A    between atoms: C22_21  and  N23_22 
ROOT
ATOM      1  N13 ZIN A   1      18.702   1.684  15.720  0.00  0.00    -0.339 N 
ATOM      2  C14 ZIN A   1      19.141   2.378  16.789  0.00  0.00     0.275 C 
ATOM      3  O15 ZIN A   1      19.988   3.239  16.648  0.00  0.00    -0.266 OA
ATOM      4  H33 ZIN A   1      17.969   1.056  15.818  0.00  0.00     0.163 HD
ENDROOT
BRANCH   1   5
ATOM      5  C11 ZIN A   1      19.330   1.878  14.411  0.00  0.00     0.211 C 
ATOM      6  C9  ZIN A   1      18.359   1.955  13.257  0.00  0.00     0.251 C 
ATOM      7  N8  ZIN A   1      18.518   0.696  12.866  0.00  0.00    -0.293 N 
ATOM      8  O10 ZIN A   1      17.669   2.857  12.833  0.00  0.00    -0.271 OA
ATOM      9  C4  ZIN A   1      17.910  -0.324  12.125  0.00  0.00     0.122 C 
ATOM     10  C26 ZIN A   1      19.737   0.592  13.712  0.00  0.00     0.187 C 
ATOM     11  C3  ZIN A   1      18.192  -1.615  12.400  0.00  0.00    -0.016 C 
ATOM     12  C29 ZIN A   1      19.172  -2.140  13.398  0.00  0.00     0.117 C 
ATOM     13  S28 ZIN A   1      19.566  -0.927  14.707  0.00  0.00    -0.136 SA
BRANCH   9  14
ATOM     14  C5  ZIN A   1      16.968   0.009  11.056  0.00  0.00     0.227 C 
ATOM     15  O6  ZIN A   1      15.773   0.117  11.303  0.00  0.00    -0.643 OA
ATOM     16  O7  ZIN A   1      17.375   0.178   9.912  0.00  0.00    -0.643 OA
ENDBRANCH   9  14
BRANCH  11  17
ATOM     17  C2  ZIN A   1      17.450  -2.614  11.635  0.00  0.00     0.000 C 
ATOM     18  C1  ZIN A   1      17.926  -3.858  11.522  0.00  0.00     0.012 C 
ENDBRANCH  11  17
ENDBRANCH   1   5
BRANCH   2  19
ATOM     19  C16 ZIN A   1      18.592   2.092  18.136  0.00  0.00     0.181 C 
ATOM     20  N17 ZIN A   1      18.769   0.919  18.675  0.00  0.00    -0.090 NA
ATOM     21  O18 ZIN A   1      19.591  -0.039  18.032  0.00  0.00    -0.060 OA
BRANCH  19  22
ATOM     22  C19 ZIN A   1      17.846   3.137  18.867  0.00  0.00     0.077 A 
ATOM     23  N24 ZIN A   1      18.316   4.376  19.021  0.00  0.00    -0.334 N 
ATOM     24  C22 ZIN A   1      17.570   5.208  19.678  0.00  0.00     0.142 A 
ATOM     25  H25 ZIN A   1      19.172   4.644  18.652  0.00  0.00     0.168 HD
ATOM     26  S21 ZIN A   1      16.098   4.394  20.199  0.00  0.00    -0.064 SA
ATOM     27  C20 ZIN A   1      16.645   2.906  19.431  0.00  0.00     0.085 A 
BRANCH  24  28
ATOM     28  N23 ZIN A   1      17.884   6.532  19.935  0.00  0.00    -0.380 N 
ATOM     29  H35 ZIN A   1      17.924   6.852  20.850  0.00  0.00     0.158 HD
ATOM     30  H36 ZIN A   1      18.065   7.139  19.200  0.00  0.00     0.158 HD
ENDBRANCH  24  28
ENDBRANCH  19  22
ENDBRANCH   2  19
TORSDOF 6
ENDMDL
MODEL 7
REMARK VINA RESULT:      -7.1      3.454      3.988
REMARK  6 active torsions:
REMARK  status: ('A' for Active; 'I' for Inactive)
REMARK    1  A    between atoms: C2_2  and  C3_3 
REMARK    2  A    between atoms: C4_4  and  C5_5 
REMARK    3  A    between atoms: C11_11  and  N13_12 
REMARK       I    between atoms: N13_12  and  C14_13 
REMARK    4  A    between atoms: C14_13  and  C16_15 
REMARK    5  A    between atoms: C16_15  and  C19_18 
REMARK    6  A    between atoms: C22_21  and  N23_22 
ROOT
ATOM      1  N13 ZIN A   1      17.358  -4.300   8.607  0.00  0.00    -0.339 N 
ATOM      2  C14 ZIN A   1      17.105  -5.599   8.355  0.00  0.00     0.275 C 
ATOM      3  O15 ZIN A   1      17.550  -6.458   9.091  0.00  0.00    -0.266 OA
ATOM      4  H33 ZIN A   1      16.936  -3.611   8.069  0.00  0.00     0.163 HD
ENDROOT
BRANCH   1   5
ATOM      5  C11 ZIN A   1      18.270  -3.927   9.691  0.00  0.00     0.211 C 
ATOM      6  C9  ZIN A   1      17.632  -3.109  10.790  0.00  0.00     0.251 C 
ATOM      7  N8  ZIN A   1      18.074  -1.936  10.355  0.00  0.00    -0.293 N 
ATOM      8  O10 ZIN A   1      16.949  -3.419  11.743  0.00  0.00    -0.271 OA
ATOM      9  C4  ZIN A   1      17.839  -0.558  10.438  0.00  0.00     0.122 C 
ATOM     10  C26 ZIN A   1      19.032  -2.635   9.456  0.00  0.00     0.187 C 
ATOM     11  C3  ZIN A   1      18.230   0.253   9.432  0.00  0.00    -0.016 C 
ATOM     12  C29 ZIN A   1      18.982  -0.125   8.198  0.00  0.00     0.117 C 
ATOM     13  S28 ZIN A   1      18.836  -1.902   7.797  0.00  0.00    -0.136 SA
BRANCH   9  14
ATOM     14  C5  ZIN A   1      17.169   0.001  11.613  0.00  0.00     0.227 C 
ATOM     15  O6  ZIN A   1      17.828   0.376  12.575  0.00  0.00    -0.643 OA
ATOM     16  O7  ZIN A   1      15.948   0.095  11.634  0.00  0.00    -0.643 OA
ENDBRANCH   9  14
BRANCH  11  17
ATOM     17  C2  ZIN A   1      17.870   1.663   9.564  0.00  0.00     0.000 C 
ATOM     18  C1  ZIN A   1      18.815   2.604   9.483  0.00  0.00     0.012 C 
ENDBRANCH  11  17
ENDBRANCH   1   5
BRANCH   2  19
ATOM     19  C16 ZIN A   1      16.285  -5.982   7.182  0.00  0.00     0.181 C 
ATOM     20  N17 ZIN A   1      16.795  -5.925   5.984  0.00  0.00    -0.090 NA
ATOM     21  O18 ZIN A   1      18.169  -5.622   5.814  0.00  0.00    -0.060 OA
BRANCH  19  22
ATOM     22  C19 ZIN A   1      14.888  -6.427   7.369  0.00  0.00     0.077 A 
ATOM     23  N24 ZIN A   1      14.001  -5.722   8.074  0.00  0.00    -0.334 N 
ATOM     24  C22 ZIN A   1      12.805  -6.211   8.166  0.00  0.00     0.142 A 
ATOM     25  H25 ZIN A   1      14.239  -4.880   8.492  0.00  0.00     0.168 HD
ATOM     26  S21 ZIN A   1      12.724  -7.740   7.295  0.00  0.00    -0.064 SA
ATOM     27  C20 ZIN A   1      14.420  -7.577   6.846  0.00  0.00     0.085 A 
BRANCH  24  28
ATOM     28  N23 ZIN A   1      11.752  -5.625   8.848  0.00  0.00    -0.380 N 
ATOM     29  H35 ZIN A   1      11.612  -5.823   9.787  0.00  0.00     0.158 HD
ATOM     30  H36 ZIN A   1      11.154  -5.015   8.387  0.00  0.00     0.158 HD
ENDBRANCH  24  28
ENDBRANCH  19  22
ENDBRANCH   2  19
TORSDOF 6
ENDMDL
MODEL 8
REMARK VINA RESULT:      -7.0      3.621      4.400
REMARK  6 active torsions:
REMARK  status: ('A' for Active; 'I' for Inactive)
REMARK    1  A    between atoms: C2_2  and  C3_3 
REMARK    2  A    between atoms: C4_4  and  C5_5 
REMARK    3  A    between atoms: C11_11  and  N13_12 
REMARK       I    between atoms: N13_12  and  C14_13 
REMARK    4  A    between atoms: C14_13  and  C16_15 
REMARK    5  A    between atoms: C16_15  and  C19_18 
REMARK    6  A    between atoms: C22_21  and  N23_22 
ROOT
ATOM      1  N13 ZIN A   1      19.214  -1.391  11.202  0.00  0.00    -0.339 N 
ATOM      2  C14 ZIN A   1      19.434  -2.711  11.047  0.00  0.00     0.275 C 
ATOM      3  O15 ZIN A   1      20.472  -3.204  11.445  0.00  0.00    -0.266 OA
ATOM      4  H33 ZIN A   1      18.354  -1.012  10.959  0.00  0.00     0.163 HD
ENDROOT
BRANCH   1   5
ATOM      5  C11 ZIN A   1      20.271  -0.528  11.735  0.00  0.00     0.211 C 
ATOM      6  C9  ZIN A   1      19.873   0.263  12.959  0.00  0.00     0.251 C 
ATOM      7  N8  ZIN A   1      19.626   1.395  12.310  0.00  0.00    -0.293 N 
ATOM      8  O10 ZIN A   1      19.802  -0.034  14.133  0.00  0.00    -0.271 OA
ATOM      9  C4  ZIN A   1      18.946   2.613  12.418  0.00  0.00     0.122 C 
ATOM     10  C26 ZIN A   1      20.327   0.856  11.113  0.00  0.00     0.187 C 
ATOM     11  C3  ZIN A   1      18.563   3.271  11.304  0.00  0.00    -0.016 C 
ATOM     12  C29 ZIN A   1      18.837   2.894   9.884  0.00  0.00     0.117 C 
ATOM     13  S28 ZIN A   1      19.222   1.118   9.686  0.00  0.00    -0.136 SA
BRANCH   9  14
ATOM     14  C5  ZIN A   1      18.648   3.172  13.738  0.00  0.00     0.227 C 
ATOM     15  O6  ZIN A   1      19.296   4.121  14.162  0.00  0.00    -0.643 OA
ATOM     16  O7  ZIN A   1      17.752   2.689  14.419  0.00  0.00    -0.643 OA
ENDBRANCH   9  14
BRANCH  11  17
ATOM     17  C2  ZIN A   1      17.785   4.491  11.510  0.00  0.00     0.000 C 
ATOM     18  C1  ZIN A   1      16.728   4.748  10.734  0.00  0.00     0.012 C 
ENDBRANCH  11  17
ENDBRANCH   1   5
BRANCH   2  19
ATOM     19  C16 ZIN A   1      18.414  -3.562  10.391  0.00  0.00     0.181 C 
ATOM     20  N17 ZIN A   1      17.208  -3.627  10.881  0.00  0.00    -0.090 NA
ATOM     21  O18 ZIN A   1      16.837  -2.789  11.960  0.00  0.00    -0.060 OA
BRANCH  19  22
ATOM     22  C19 ZIN A   1      18.763  -4.338   9.182  0.00  0.00     0.077 A 
ATOM     23  N24 ZIN A   1      20.017  -4.446   8.740  0.00  0.00    -0.334 N 
ATOM     24  C22 ZIN A   1      20.202  -5.156   7.672  0.00  0.00     0.142 A 
ATOM     25  H25 ZIN A   1      20.757  -4.019   9.200  0.00  0.00     0.168 HD
ATOM     26  S21 ZIN A   1      18.656  -5.778   7.102  0.00  0.00    -0.064 SA
ATOM     27  C20 ZIN A   1      17.838  -4.982   8.445  0.00  0.00     0.085 A 
BRANCH  24  28
ATOM     28  N23 ZIN A   1      21.427  -5.386   7.067  0.00  0.00    -0.380 N 
ATOM     29  H35 ZIN A   1      21.854  -4.683   6.553  0.00  0.00     0.158 HD
ATOM     30  H36 ZIN A   1      21.858  -6.250   7.158  0.00  0.00     0.158 HD
ENDBRANCH  24  28
ENDBRANCH  19  22
ENDBRANCH   2  19
TORSDOF 6
ENDMDL
MODEL 9
REMARK VINA RESULT:      -7.0      3.251      8.250
REMARK  6 active torsions:
REMARK  status: ('A' for Active; 'I' for Inactive)
REMARK    1  A    between atoms: C2_2  and  C3_3 
REMARK    2  A    between atoms: C4_4  and  C5_5 
REMARK    3  A    between atoms: C11_11  and  N13_12 
REMARK       I    between atoms: N13_12  and  C14_13 
REMARK    4  A    between atoms: C14_13  and  C16_15 
REMARK    5  A    between atoms: C16_15  and  C19_18 
REMARK    6  A    between atoms: C22_21  and  N23_22 
ROOT
ATOM      1  N13 ZIN A   1      18.551  -3.738   8.985  0.00  0.00    -0.339 N 
ATOM      2  C14 ZIN A   1      18.969  -3.673  10.264  0.00  0.00     0.275 C 
ATOM      3  O15 ZIN A   1      19.999  -4.228  10.595  0.00  0.00    -0.266 OA
ATOM      4  H33 ZIN A   1      17.775  -3.228   8.703  0.00  0.00     0.163 HD
ENDROOT
BRANCH   1   5
ATOM      5  C11 ZIN A   1      19.266  -4.578   8.021  0.00  0.00     0.211 C 
ATOM      6  C9  ZIN A   1      19.290  -4.030   6.613  0.00  0.00     0.251 C 
ATOM      7  N8  ZIN A   1      18.302  -4.790   6.159  0.00  0.00    -0.293 N 
ATOM      8  O10 ZIN A   1      19.978  -3.185   6.081  0.00  0.00    -0.271 OA
ATOM      9  C4  ZIN A   1      17.353  -4.886   5.134  0.00  0.00     0.122 C 
ATOM     10  C26 ZIN A   1      18.414  -5.651   7.368  0.00  0.00     0.187 C 
ATOM     11  C3  ZIN A   1      16.211  -5.576   5.337  0.00  0.00    -0.016 C 
ATOM     12  C29 ZIN A   1      15.822  -6.357   6.550  0.00  0.00     0.117 C 
ATOM     13  S28 ZIN A   1      16.731  -5.835   8.047  0.00  0.00    -0.136 SA
BRANCH   9  14
ATOM     14  C5  ZIN A   1      17.598  -4.237   3.846  0.00  0.00     0.227 C 
ATOM     15  O6  ZIN A   1      17.445  -3.027   3.730  0.00  0.00    -0.643 OA
ATOM     16  O7  ZIN A   1      17.956  -4.904   2.882  0.00  0.00    -0.643 OA
ENDBRANCH   9  14
BRANCH  11  17
ATOM     17  C2  ZIN A   1      15.241  -5.554   4.244  0.00  0.00     0.000 C 
ATOM     18  C1  ZIN A   1      14.107  -6.253   4.344  0.00  0.00     0.012 C 
ENDBRANCH  11  17
ENDBRANCH   1   5
BRANCH   2  19
ATOM     19  C16 ZIN A   1      18.175  -2.925  11.268  0.00  0.00     0.181 C 
ATOM     20  N17 ZIN A   1      17.017  -3.381  11.652  0.00  0.00    -0.090 NA
ATOM     21  O18 ZIN A   1      16.573  -4.651  11.208  0.00  0.00    -0.060 OA
BRANCH  19  22
ATOM     22  C19 ZIN A   1      18.697  -1.663  11.834  0.00  0.00     0.077 A 
ATOM     23  N24 ZIN A   1      19.939  -1.235  11.600  0.00  0.00    -0.334 N 
ATOM     24  C22 ZIN A   1      20.283  -0.112  12.146  0.00  0.00     0.142 A 
ATOM     25  H25 ZIN A   1      20.553  -1.737  11.041  0.00  0.00     0.168 HD
ATOM     26  S21 ZIN A   1      18.937   0.524  13.085  0.00  0.00    -0.064 SA
ATOM     27  C20 ZIN A   1      17.956  -0.866  12.627  0.00  0.00     0.085 A 
BRANCH  24  28
ATOM     28  N23 ZIN A   1      21.522   0.494  12.015  0.00  0.00    -0.380 N 
ATOM     29  H35 ZIN A   1      22.288   0.138  12.492  0.00  0.00     0.158 HD
ATOM     30  H36 ZIN A   1      21.623   1.274  11.447  0.00  0.00     0.158 HD
ENDBRANCH  24  28
ENDBRANCH  19  22
ENDBRANCH   2  19
TORSDOF 6
ENDMDL
