MODEL 1
REMARK VINA RESULT:      -7.9      0.000      0.000
REMARK  2 active torsions:
REMARK  status: ('A' for Active; 'I' for Inactive)
REMARK    1  A    between atoms: C4_4  and  C5_5 
REMARK       I    between atoms: C5_5  and  N7_7 
REMARK    2  A    between atoms: N7_7  and  C8_8 
ROOT
ATOM      1  C5  ZIN A   1      18.853   0.486  12.977  0.00  0.00     0.273 C 
ATOM      2  O6  ZIN A   1      18.649   1.148  11.977  0.00  0.00    -0.266 OA
ATOM      3  N7  ZIN A   1      18.984  -0.852  12.883  0.00  0.00    -0.351 N 
ATOM      4  H31 ZIN A   1      19.146  -1.381  13.681  0.00  0.00     0.163 HD
ENDROOT
BRANCH   3   5
ATOM      5  C8  ZIN A   1      18.881  -1.515  11.568  0.00  0.00     0.088 C 
ATOM      6  C18 ZIN A   1      17.472  -2.068  11.414  0.00  0.00     0.058 C 
ATOM      7  C16 ZIN A   1      17.344  -3.092  10.300  0.00  0.00     0.190 C 
ATOM      8  C15 ZIN A   1      16.969  -4.453  10.906  0.00  0.00     0.033 C 
ATOM      9  N19 ZIN A   1      18.564  -3.258   9.519  0.00  0.00    -0.066 N 
ATOM     10  C14 ZIN A   1      18.114  -4.937  11.799  0.00  0.00     0.004 C 
ATOM     11  C13 ZIN A   1      19.413  -4.993  10.993  0.00  0.00     0.033 C 
ATOM     12  C11 ZIN A   1      19.687  -3.611  10.378  0.00  0.00     0.190 C 
ATOM     13  C10 ZIN A   1      19.935  -2.609  11.493  0.00  0.00     0.058 C 
ATOM     14  H20 ZIN A   1      18.405  -4.067   8.900  0.00  0.00     0.280 HD
ATOM     15  C21 ZIN A   1      18.845  -2.119   8.657  0.00  0.00     0.270 C 
ENDBRANCH   3   5
BRANCH   1  16
ATOM     16  C4  ZIN A   1      18.956   1.147  14.290  0.00  0.00     0.157 A 
ATOM     17  N3  ZIN A   1      19.024   2.441  14.518  0.00  0.00    -0.166 NA
ATOM     18  N2  ZIN A   1      19.107   2.704  15.772  0.00  0.00    -0.273 N 
ATOM     19  C1  ZIN A   1      19.197   4.055  16.329  0.00  0.00     0.180 C 
ATOM     20  C27 ZIN A   1      19.107   1.556  16.521  0.00  0.00     0.065 A 
ATOM     21  C22 ZIN A   1      19.004   0.491  15.604  0.00  0.00     0.028 A 
ATOM     22  C26 ZIN A   1      19.168   1.276  17.882  0.00  0.00     0.032 A 
ATOM     23  C23 ZIN A   1      18.974  -0.823  16.058  0.00  0.00     0.016 A 
ATOM     24  C24 ZIN A   1      19.041  -1.076  17.401  0.00  0.00     0.001 A 
ATOM     25  C25 ZIN A   1      19.138  -0.032  18.312  0.00  0.00     0.002 A 
ENDBRANCH   1  16
TORSDOF 2
ENDMDL
MODEL 2
REMARK VINA RESULT:      -7.8      2.125      7.527
REMARK  2 active torsions:
REMARK  status: ('A' for Active; 'I' for Inactive)
REMARK    1  A    between atoms: C4_4  and  C5_5 
REMARK       I    between atoms: C5_5  and  N7_7 
REMARK    2  A    between atoms: N7_7  and  C8_8 
ROOT
ATOM      1  C5  ZIN A   1      19.187  -0.115  11.239  0.00  0.00     0.273 C 
ATOM      2  O6  ZIN A   1      20.004   0.780  11.344  0.00  0.00    -0.266 OA
ATOM      3  N7  ZIN A   1      18.461  -0.492  12.310  0.00  0.00    -0.351 N 
ATOM      4  H31 ZIN A   1      17.809  -1.206  12.227  0.00  0.00     0.163 HD
ENDROOT
BRANCH   3   5
ATOM      5  C8  ZIN A   1      18.657   0.180  13.610  0.00  0.00     0.088 C 
ATOM      6  C18 ZIN A   1      19.629  -0.645  14.440  0.00  0.00     0.058 C 
ATOM      7  C16 ZIN A   1      19.618  -0.286  15.915  0.00  0.00     0.190 C 
ATOM      8  C15 ZIN A   1      19.124  -1.495  16.725  0.00  0.00     0.033 C 
ATOM      9  N19 ZIN A   1      18.769   0.856  16.230  0.00  0.00    -0.066 N 
ATOM     10  C14 ZIN A   1      17.669  -1.790  16.348  0.00  0.00     0.004 C 
ATOM     11  C13 ZIN A   1      16.812  -0.543  16.573  0.00  0.00     0.033 C 
ATOM     12  C11 ZIN A   1      17.404   0.629  15.774  0.00  0.00     0.190 C 
ATOM     13  C10 ZIN A   1      17.303   0.322  14.290  0.00  0.00     0.058 C 
ATOM     14  H20 ZIN A   1      18.727   0.912  17.259  0.00  0.00     0.280 HD
ATOM     15  C21 ZIN A   1      19.321   2.119  15.763  0.00  0.00     0.270 C 
ENDBRANCH   3   5
BRANCH   1  16
ATOM     16  C4  ZIN A   1      18.991  -0.786   9.942  0.00  0.00     0.157 A 
ATOM     17  N3  ZIN A   1      18.823  -2.075   9.739  0.00  0.00    -0.166 NA
ATOM     18  N2  ZIN A   1      18.678  -2.350   8.493  0.00  0.00    -0.273 N 
ATOM     19  C1  ZIN A   1      18.475  -3.700   7.962  0.00  0.00     0.180 C 
ATOM     20  C27 ZIN A   1      18.744  -1.217   7.724  0.00  0.00     0.065 A 
ATOM     21  C22 ZIN A   1      18.943  -0.148   8.619  0.00  0.00     0.028 A 
ATOM     22  C26 ZIN A   1      18.644  -0.953   6.362  0.00  0.00     0.032 A 
ATOM     23  C23 ZIN A   1      19.049   1.154   8.141  0.00  0.00     0.016 A 
ATOM     24  C24 ZIN A   1      18.954   1.391   6.798  0.00  0.00     0.001 A 
ATOM     25  C25 ZIN A   1      18.752   0.343   5.909  0.00  0.00     0.002 A 
ENDBRANCH   1  16
TORSDOF 2
ENDMDL
MODEL 3
REMARK VINA RESULT:      -7.8      2.461      4.049
REMARK  2 active torsions:
REMARK  status: ('A' for Active; 'I' for Inactive)
REMARK    1  A    between atoms: C4_4  and  C5_5 
REMARK       I    between atoms: C5_5  and  N7_7 
REMARK    2  A    between atoms: N7_7  and  C8_8 
ROOT
ATOM      1  C5  ZIN A   1      19.510  -0.316  11.416  0.00  0.00     0.273 C 
ATOM      2  O6  ZIN A   1      20.663  -0.599  11.154  0.00  0.00    -0.266 OA
ATOM      3  N7  ZIN A   1      18.528  -1.210  11.182  0.00  0.00    -0.351 N 
ATOM      4  H31 ZIN A   1      17.608  -0.985  11.390  0.00  0.00     0.163 HD
ENDROOT
BRANCH   3   5
ATOM      5  C8  ZIN A   1      18.853  -2.531  10.608  0.00  0.00     0.088 C 
ATOM      6  C18 ZIN A   1      17.770  -2.903   9.607  0.00  0.00     0.058 C 
ATOM      7  C16 ZIN A   1      17.769  -4.376   9.239  0.00  0.00     0.190 C 
ATOM      8  C15 ZIN A   1      16.452  -5.013   9.711  0.00  0.00     0.033 C 
ATOM      9  N19 ZIN A   1      18.876  -5.123   9.823  0.00  0.00    -0.066 N 
ATOM     10  C14 ZIN A   1      16.388  -4.956  11.240  0.00  0.00     0.004 C 
ATOM     11  C13 ZIN A   1      17.619  -5.642  11.837  0.00  0.00     0.033 C 
ATOM     12  C11 ZIN A   1      18.889  -4.983  11.273  0.00  0.00     0.190 C 
ATOM     13  C10 ZIN A   1      18.952  -3.540  11.743  0.00  0.00     0.058 C 
ATOM     14  H20 ZIN A   1      18.691  -6.118   9.628  0.00  0.00     0.280 HD
ATOM     15  C21 ZIN A   1      20.159  -4.807   9.211  0.00  0.00     0.270 C 
ENDBRANCH   3   5
BRANCH   1  16
ATOM     16  C4  ZIN A   1      19.186   1.002  11.989  0.00  0.00     0.157 A 
ATOM     17  N3  ZIN A   1      19.228   1.342  13.259  0.00  0.00    -0.166 NA
ATOM     18  N2  ZIN A   1      18.887   2.566  13.441  0.00  0.00    -0.273 N 
ATOM     19  C1  ZIN A   1      18.838   3.226  14.748  0.00  0.00     0.180 C 
ATOM     20  C27 ZIN A   1      18.570   3.174  12.254  0.00  0.00     0.065 A 
ATOM     21  C22 ZIN A   1      18.751   2.199  11.255  0.00  0.00     0.028 A 
ATOM     22  C26 ZIN A   1      18.158   4.452  11.889  0.00  0.00     0.032 A 
ATOM     23  C23 ZIN A   1      18.511   2.510   9.920  0.00  0.00     0.016 A 
ATOM     24  C24 ZIN A   1      18.101   3.771   9.585  0.00  0.00     0.001 A 
ATOM     25  C25 ZIN A   1      17.925   4.740  10.563  0.00  0.00     0.002 A 
ENDBRANCH   1  16
TORSDOF 2
ENDMDL
MODEL 4
REMARK VINA RESULT:      -7.8      3.143      8.514
REMARK  2 active torsions:
REMARK  status: ('A' for Active; 'I' for Inactive)
REMARK    1  A    between atoms: C4_4  and  C5_5 
REMARK       I    between atoms: C5_5  and  N7_7 
REMARK    2  A    between atoms: N7_7  and  C8_8 
ROOT
ATOM      1  C5  ZIN A   1      17.670   2.755  11.608  0.00  0.00     0.273 C 
ATOM      2  O6  ZIN A   1      16.915   3.592  11.154  0.00  0.00    -0.266 OA
ATOM      3  N7  ZIN A   1      18.360   3.012  12.738  0.00  0.00    -0.351 N 
ATOM      4  H31 ZIN A   1      18.963   2.344  13.100  0.00  0.00     0.163 HD
ENDROOT
BRANCH   3   5
ATOM      5  C8  ZIN A   1      18.198   4.310  13.422  0.00  0.00     0.088 C 
ATOM      6  C18 ZIN A   1      19.553   4.999  13.480  0.00  0.00     0.058 C 
ATOM      7  C16 ZIN A   1      19.609   6.139  14.481  0.00  0.00     0.190 C 
ATOM      8  C15 ZIN A   1      20.617   5.791  15.587  0.00  0.00     0.033 C 
ATOM      9  N19 ZIN A   1      18.324   6.428  15.105  0.00  0.00    -0.066 N 
ATOM     10  C14 ZIN A   1      20.111   4.570  16.360  0.00  0.00     0.004 C 
ATOM     11  C13 ZIN A   1      18.710   4.847  16.910  0.00  0.00     0.033 C 
ATOM     12  C11 ZIN A   1      17.780   5.240  15.750  0.00  0.00     0.190 C 
ATOM     13  C10 ZIN A   1      17.628   4.056  14.811  0.00  0.00     0.058 C 
ATOM     14  H20 ZIN A   1      18.512   7.108  15.858  0.00  0.00     0.280 HD
ATOM     15  C21 ZIN A   1      17.380   7.061  14.195  0.00  0.00     0.270 C 
ENDBRANCH   3   5
BRANCH   1  16
ATOM     16  C4  ZIN A   1      17.831   1.459  10.925  0.00  0.00     0.157 A 
ATOM     17  N3  ZIN A   1      17.584   0.268  11.425  0.00  0.00    -0.166 NA
ATOM     18  N2  ZIN A   1      17.825  -0.668  10.579  0.00  0.00    -0.273 N 
ATOM     19  C1  ZIN A   1      17.645  -2.096  10.852  0.00  0.00     0.180 C 
ATOM     20  C27 ZIN A   1      18.277  -0.158   9.390  0.00  0.00     0.065 A 
ATOM     21  C22 ZIN A   1      18.299   1.242   9.549  0.00  0.00     0.028 A 
ATOM     22  C26 ZIN A   1      18.664  -0.709   8.173  0.00  0.00     0.032 A 
ATOM     23  C23 ZIN A   1      18.714   2.058   8.502  0.00  0.00     0.016 A 
ATOM     24  C24 ZIN A   1      19.096   1.495   7.316  0.00  0.00     0.001 A 
ATOM     25  C25 ZIN A   1      19.072   0.116   7.149  0.00  0.00     0.002 A 
ENDBRANCH   1  16
TORSDOF 2
ENDMDL
MODEL 5
REMARK VINA RESULT:      -7.6      3.083      8.025
REMARK  2 active torsions:
REMARK  status: ('A' for Active; 'I' for Inactive)
REMARK    1  A    between atoms: C4_4  and  C5_5 
REMARK       I    between atoms: C5_5  and  N7_7 
REMARK    2  A    between atoms: N7_7  and  C8_8 
ROOT
ATOM      1  C5  ZIN A   1      17.734   3.008  11.313  0.00  0.00     0.273 C 
ATOM      2  O6  ZIN A   1      16.821   3.766  11.048  0.00  0.00    -0.266 OA
ATOM      3  N7  ZIN A   1      18.519   3.248  12.382  0.00  0.00    -0.351 N 
ATOM      4  H31 ZIN A   1      19.248   2.643  12.594  0.00  0.00     0.163 HD
ENDROOT
BRANCH   3   5
ATOM      5  C8  ZIN A   1      18.271   4.429  13.232  0.00  0.00     0.088 C 
ATOM      6  C18 ZIN A   1      19.579   5.186  13.404  0.00  0.00     0.058 C 
ATOM      7  C16 ZIN A   1      19.554   6.183  14.549  0.00  0.00     0.190 C 
ATOM      8  C15 ZIN A   1      20.572   5.751  15.616  0.00  0.00     0.033 C 
ATOM      9  N19 ZIN A   1      18.248   6.306  15.184  0.00  0.00    -0.066 N 
ATOM     10  C14 ZIN A   1      20.138   4.409  16.210  0.00  0.00     0.004 C 
ATOM     11  C13 ZIN A   1      18.717   4.524  16.768  0.00  0.00     0.033 C 
ATOM     12  C11 ZIN A   1      17.775   5.011  15.655  0.00  0.00     0.190 C 
ATOM     13  C10 ZIN A   1      17.705   3.957  14.564  0.00  0.00     0.058 C 
ATOM     14  H20 ZIN A   1      18.386   6.889  16.024  0.00  0.00     0.280 HD
ATOM     15  C21 ZIN A   1      17.274   6.997  14.351  0.00  0.00     0.270 C 
ENDBRANCH   3   5
BRANCH   1  16
ATOM     16  C4  ZIN A   1      17.983   1.829  10.465  0.00  0.00     0.157 A 
ATOM     17  N3  ZIN A   1      18.314   1.829   9.192  0.00  0.00    -0.166 NA
ATOM     18  N2  ZIN A   1      18.461   0.639   8.734  0.00  0.00    -0.273 N 
ATOM     19  C1  ZIN A   1      18.827   0.324   7.351  0.00  0.00     0.180 C 
ATOM     20  C27 ZIN A   1      18.226  -0.300   9.705  0.00  0.00     0.065 A 
ATOM     21  C22 ZIN A   1      17.911   0.419  10.874  0.00  0.00     0.028 A 
ATOM     22  C26 ZIN A   1      18.254  -1.689   9.749  0.00  0.00     0.032 A 
ATOM     23  C23 ZIN A   1      17.621  -0.257  12.055  0.00  0.00     0.016 A 
ATOM     24  C24 ZIN A   1      17.648  -1.624  12.075  0.00  0.00     0.001 A 
ATOM     25  C25 ZIN A   1      17.963  -2.340  10.928  0.00  0.00     0.002 A 
ENDBRANCH   1  16
TORSDOF 2
ENDMDL
MODEL 6
REMARK VINA RESULT:      -7.5      1.742      2.407
REMARK  2 active torsions:
REMARK  status: ('A' for Active; 'I' for Inactive)
REMARK    1  A    between atoms: C4_4  and  C5_5 
REMARK       I    between atoms: C5_5  and  N7_7 
REMARK    2  A    between atoms: N7_7  and  C8_8 
ROOT
ATOM      1  C5  ZIN A   1      19.594  -1.186  11.438  0.00  0.00     0.273 C 
ATOM      2  O6  ZIN A   1      20.622  -1.202  10.789  0.00  0.00    -0.266 OA
ATOM      3  N7  ZIN A   1      18.666  -2.147  11.254  0.00  0.00    -0.351 N 
ATOM      4  H31 ZIN A   1      17.845  -2.134  11.772  0.00  0.00     0.163 HD
ENDROOT
BRANCH   3   5
ATOM      5  C8  ZIN A   1      18.898  -3.218  10.265  0.00  0.00     0.088 C 
ATOM      6  C18 ZIN A   1      17.829  -3.121   9.187  0.00  0.00     0.058 C 
ATOM      7  C16 ZIN A   1      17.715  -4.373   8.336  0.00  0.00     0.190 C 
ATOM      8  C15 ZIN A   1      16.330  -5.003   8.549  0.00  0.00     0.033 C 
ATOM      9  N19 ZIN A   1      18.728  -5.377   8.639  0.00  0.00    -0.066 N 
ATOM     10  C14 ZIN A   1      16.207  -5.465  10.004  0.00  0.00     0.004 C 
ATOM     11  C13 ZIN A   1      17.348  -6.428  10.341  0.00  0.00     0.033 C 
ATOM     12  C11 ZIN A   1      18.693  -5.741  10.049  0.00  0.00     0.190 C 
ATOM     13  C10 ZIN A   1      18.862  -4.558  10.986  0.00  0.00     0.058 C 
ATOM     14  H20 ZIN A   1      18.465  -6.223   8.112  0.00  0.00     0.280 HD
ATOM     15  C21 ZIN A   1      20.057  -4.996   8.184  0.00  0.00     0.270 C 
ENDBRANCH   3   5
BRANCH   1  16
ATOM     16  C4  ZIN A   1      19.362  -0.117  12.426  0.00  0.00     0.157 A 
ATOM     17  N3  ZIN A   1      19.272   1.173  12.184  0.00  0.00    -0.166 NA
ATOM     18  N2  ZIN A   1      19.067   1.849  13.256  0.00  0.00    -0.273 N 
ATOM     19  C1  ZIN A   1      18.924   3.307  13.300  0.00  0.00     0.180 C 
ATOM     20  C27 ZIN A   1      19.003   1.032  14.354  0.00  0.00     0.065 A 
ATOM     21  C22 ZIN A   1      19.185  -0.280  13.875  0.00  0.00     0.028 A 
ATOM     22  C26 ZIN A   1      18.798   1.236  15.714  0.00  0.00     0.032 A 
ATOM     23  C23 ZIN A   1      19.169  -1.356  14.757  0.00  0.00     0.016 A 
ATOM     24  C24 ZIN A   1      18.972  -1.132  16.092  0.00  0.00     0.001 A 
ATOM     25  C25 ZIN A   1      18.786   0.158  16.572  0.00  0.00     0.002 A 
ENDBRANCH   1  16
TORSDOF 2
ENDMDL
MODEL 7
REMARK VINA RESULT:      -7.5      2.117      3.464
REMARK  2 active torsions:
REMARK  status: ('A' for Active; 'I' for Inactive)
REMARK    1  A    between atoms: C4_4  and  C5_5 
REMARK       I    between atoms: C5_5  and  N7_7 
REMARK    2  A    between atoms: N7_7  and  C8_8 
ROOT
ATOM      1  C5  ZIN A   1      18.061  -2.004  11.633  0.00  0.00     0.273 C 
ATOM      2  O6  ZIN A   1      17.002  -2.552  11.874  0.00  0.00    -0.266 OA
ATOM      3  N7  ZIN A   1      18.913  -2.550  10.743  0.00  0.00    -0.351 N 
ATOM      4  H31 ZIN A   1      19.758  -2.113  10.550  0.00  0.00     0.163 HD
ENDROOT
BRANCH   3   5
ATOM      5  C8  ZIN A   1      18.562  -3.811  10.060  0.00  0.00     0.088 C 
ATOM      6  C18 ZIN A   1      19.842  -4.589   9.793  0.00  0.00     0.058 C 
ATOM      7  C16 ZIN A   1      19.672  -5.698   8.770  0.00  0.00     0.190 C 
ATOM      8  C15 ZIN A   1      20.535  -5.385   7.538  0.00  0.00     0.033 C 
ATOM      9  N19 ZIN A   1      18.294  -5.879   8.332  0.00  0.00    -0.066 N 
ATOM     10  C14 ZIN A   1      20.014  -4.108   6.872  0.00  0.00     0.004 C 
ATOM     11  C13 ZIN A   1      18.532  -4.272   6.525  0.00  0.00     0.033 C 
ATOM     12  C11 ZIN A   1      17.751  -4.636   7.798  0.00  0.00     0.190 C 
ATOM     13  C10 ZIN A   1      17.820  -3.475   8.775  0.00  0.00     0.058 C 
ATOM     14  H20 ZIN A   1      18.323  -6.545   7.546  0.00  0.00     0.280 HD
ATOM     15  C21 ZIN A   1      17.446  -6.475   9.355  0.00  0.00     0.270 C 
ENDBRANCH   3   5
BRANCH   1  16
ATOM     16  C4  ZIN A   1      18.411  -0.746  12.314  0.00  0.00     0.157 A 
ATOM     17  N3  ZIN A   1      18.678   0.411  11.745  0.00  0.00    -0.166 NA
ATOM     18  N2  ZIN A   1      18.948   1.320  12.609  0.00  0.00    -0.273 N 
ATOM     19  C1  ZIN A   1      19.285   2.706  12.274  0.00  0.00     0.180 C 
ATOM     20  C27 ZIN A   1      18.887   0.826  13.886  0.00  0.00     0.065 A 
ATOM     21  C22 ZIN A   1      18.531  -0.532  13.763  0.00  0.00     0.028 A 
ATOM     22  C26 ZIN A   1      19.076   1.365  15.154  0.00  0.00     0.032 A 
ATOM     23  C23 ZIN A   1      18.383  -1.322  14.897  0.00  0.00     0.016 A 
ATOM     24  C24 ZIN A   1      18.579  -0.773  16.134  0.00  0.00     0.001 A 
ATOM     25  C25 ZIN A   1      18.924   0.565  16.265  0.00  0.00     0.002 A 
ENDBRANCH   1  16
TORSDOF 2
ENDMDL
MODEL 8
REMARK VINA RESULT:      -7.5      2.888      8.572
REMARK  2 active torsions:
REMARK  status: ('A' for Active; 'I' for Inactive)
REMARK    1  A    between atoms: C4_4  and  C5_5 
REMARK       I    between atoms: C5_5  and  N7_7 
REMARK    2  A    between atoms: N7_7  and  C8_8 
ROOT
ATOM      1  C5  ZIN A   1      19.111  -1.181   9.666  0.00  0.00     0.273 C 
ATOM      2  O6  ZIN A   1      19.785  -1.755  10.500  0.00  0.00    -0.266 OA
ATOM      3  N7  ZIN A   1      18.546   0.008   9.959  0.00  0.00    -0.351 N 
ATOM      4  H31 ZIN A   1      18.008   0.466   9.295  0.00  0.00     0.163 HD
ENDROOT
BRANCH   3   5
ATOM      5  C8  ZIN A   1      18.745   0.612  11.291  0.00  0.00     0.088 C 
ATOM      6  C18 ZIN A   1      17.469   1.339  11.689  0.00  0.00     0.058 C 
ATOM      7  C16 ZIN A   1      17.663   2.315  12.837  0.00  0.00     0.190 C 
ATOM      8  C15 ZIN A   1      17.388   3.742  12.337  0.00  0.00     0.033 C 
ATOM      9  N19 ZIN A   1      19.002   2.279  13.411  0.00  0.00    -0.066 N 
ATOM     10  C14 ZIN A   1      18.433   4.114  11.281  0.00  0.00     0.004 C 
ATOM     11  C13 ZIN A   1      19.839   3.957  11.865  0.00  0.00     0.033 C 
ATOM     12  C11 ZIN A   1      20.012   2.522  12.389  0.00  0.00     0.190 C 
ATOM     13  C10 ZIN A   1      19.940   1.552  11.222  0.00  0.00     0.058 C 
ATOM     14  H20 ZIN A   1      19.058   3.070  14.069  0.00  0.00     0.280 HD
ATOM     15  C21 ZIN A   1      19.256   1.072  14.184  0.00  0.00     0.270 C 
ENDBRANCH   3   5
BRANCH   1  16
ATOM     16  C4  ZIN A   1      18.911  -1.784   8.337  0.00  0.00     0.157 A 
ATOM     17  N3  ZIN A   1      18.708  -3.057   8.071  0.00  0.00    -0.166 NA
ATOM     18  N2  ZIN A   1      18.571  -3.268   6.812  0.00  0.00    -0.273 N 
ATOM     19  C1  ZIN A   1      18.334  -4.585   6.216  0.00  0.00     0.180 C 
ATOM     20  C27 ZIN A   1      18.680  -2.103   6.098  0.00  0.00     0.065 A 
ATOM     21  C22 ZIN A   1      18.900  -1.084   7.045  0.00  0.00     0.028 A 
ATOM     22  C26 ZIN A   1      18.606  -1.772   4.749  0.00  0.00     0.032 A 
ATOM     23  C23 ZIN A   1      19.051   0.235   6.631  0.00  0.00     0.016 A 
ATOM     24  C24 ZIN A   1      18.980   0.538   5.299  0.00  0.00     0.001 A 
ATOM     25  C25 ZIN A   1      18.758  -0.460   4.359  0.00  0.00     0.002 A 
ENDBRANCH   1  16
TORSDOF 2
ENDMDL
MODEL 9
REMARK VINA RESULT:      -7.5      2.481      4.631
REMARK  2 active torsions:
REMARK  status: ('A' for Active; 'I' for Inactive)
REMARK    1  A    between atoms: C4_4  and  C5_5 
REMARK       I    between atoms: C5_5  and  N7_7 
REMARK    2  A    between atoms: N7_7  and  C8_8 
ROOT
ATOM      1  C5  ZIN A   1      18.016  -1.910  11.397  0.00  0.00     0.273 C 
ATOM      2  O6  ZIN A   1      17.003  -2.487  11.741  0.00  0.00    -0.266 OA
ATOM      3  N7  ZIN A   1      18.819  -2.459  10.464  0.00  0.00    -0.351 N 
ATOM      4  H31 ZIN A   1      19.628  -1.999  10.189  0.00  0.00     0.163 HD
ENDROOT
BRANCH   3   5
ATOM      5  C8  ZIN A   1      18.469  -3.759   9.860  0.00  0.00     0.088 C 
ATOM      6  C18 ZIN A   1      19.704  -4.648   9.873  0.00  0.00     0.058 C 
ATOM      7  C16 ZIN A   1      19.594  -5.847   8.948  0.00  0.00     0.190 C 
ATOM      8  C15 ZIN A   1      20.655  -5.729   7.842  0.00  0.00     0.033 C 
ATOM      9  N19 ZIN A   1      18.287  -5.978   8.318  0.00  0.00    -0.066 N 
ATOM     10  C14 ZIN A   1      20.349  -4.499   6.983  0.00  0.00     0.004 C 
ATOM     11  C13 ZIN A   1      18.927  -4.596   6.425  0.00  0.00     0.033 C 
ATOM     12  C11 ZIN A   1      17.937  -4.767   7.588  0.00  0.00     0.190 C 
ATOM     13  C10 ZIN A   1      17.957  -3.514   8.448  0.00  0.00     0.058 C 
ATOM     14  H20 ZIN A   1      18.377  -6.727   7.614  0.00  0.00     0.280 HD
ATOM     15  C21 ZIN A   1      17.249  -6.400   9.248  0.00  0.00     0.270 C 
ENDBRANCH   3   5
BRANCH   1  16
ATOM     16  C4  ZIN A   1      18.366  -0.612  12.000  0.00  0.00     0.157 A 
ATOM     17  N3  ZIN A   1      18.642  -0.379  13.266  0.00  0.00    -0.166 NA
ATOM     18  N2  ZIN A   1      18.908   0.858  13.479  0.00  0.00    -0.273 N 
ATOM     19  C1  ZIN A   1      19.251   1.417  14.790  0.00  0.00     0.180 C 
ATOM     20  C27 ZIN A   1      18.826   1.591  12.324  0.00  0.00     0.065 A 
ATOM     21  C22 ZIN A   1      18.478   0.680  11.308  0.00  0.00     0.028 A 
ATOM     22  C26 ZIN A   1      19.019   2.929  11.998  0.00  0.00     0.032 A 
ATOM     23  C23 ZIN A   1      18.318   1.119   9.998  0.00  0.00     0.016 A 
ATOM     24  C24 ZIN A   1      18.507   2.440   9.701  0.00  0.00     0.001 A 
ATOM     25  C25 ZIN A   1      18.856   3.345  10.695  0.00  0.00     0.002 A 
ENDBRANCH   1  16
TORSDOF 2
ENDMDL
