MODEL 1
REMARK VINA RESULT:      -8.4      0.000      0.000
REMARK  16 active torsions:
REMARK  status: ('A' for Active; 'I' for Inactive)
REMARK    1  A    between atoms: C2_2  and  C3_3 
REMARK    2  A    between atoms: C3_3  and  C4_4 
REMARK    3  A    between atoms: C4_4  and  C5_5 
REMARK    4  A    between atoms: C5_5  and  O7_7 
REMARK    5  A    between atoms: O7_7  and  C8_8 
REMARK    6  A    between atoms: C8_8  and  C9_9 
REMARK    7  A    between atoms: C9_9  and  C11_11 
REMARK    8  A    between atoms: C11_11  and  O12_12 
REMARK    9  A    between atoms: C15_15  and  O16_16 
REMARK   10  A    between atoms: C22_22  and  O23_23 
REMARK   11  A    between atoms: C31_31  and  O32_32 
REMARK   12  A    between atoms: C34_34  and  O36_35 
REMARK   13  A    between atoms: O36_35  and  C37_36 
REMARK   14  A    between atoms: C40_38  and  N42_39 
REMARK       I    between atoms: N42_39  and  C43_40 
REMARK   15  A    between atoms: C43_40  and  C45_42 
REMARK   16  A    between atoms: C49_46  and  O51_47 
ROOT
ATOM      1  C11 ZIN A   1      18.802   4.757  12.668  0.00  0.00     0.127 C 
ATOM      2  C13 ZIN A   1      19.529   3.954  11.593  0.00  0.00     0.088 C 
ATOM      3  C14 ZIN A   1      18.965   2.560  11.495  0.00  0.00    -0.009 A 
ATOM      4  C15 ZIN A   1      19.248   1.832  10.332  0.00  0.00     0.088 A 
ATOM      5  C17 ZIN A   1      18.763   0.535  10.177  0.00  0.00     0.066 A 
ATOM      6  C18 ZIN A   1      17.986  -0.042  11.202  0.00  0.00     0.066 A 
ATOM      7  C19 ZIN A   1      17.476  -1.417  11.047  0.00  0.00     0.200 C 
ATOM      8  O20 ZIN A   1      16.610  -1.840  11.790  0.00  0.00    -0.286 OA
ATOM      9  C21 ZIN A   1      18.027  -2.273   9.979  0.00  0.00     0.062 A 
ATOM     10  C22 ZIN A   1      17.789  -3.649   9.976  0.00  0.00     0.083 A 
ATOM     11  C25 ZIN A   1      18.320  -4.438   8.958  0.00  0.00     0.038 A 
ATOM     12  C26 ZIN A   1      19.077  -3.867   7.955  0.00  0.00     0.004 A 
ATOM     13  C27 ZIN A   1      19.320  -2.502   7.946  0.00  0.00     0.017 A 
ATOM     14  C28 ZIN A   1      18.802  -1.697   8.952  0.00  0.00     0.032 A 
ATOM     15  C29 ZIN A   1      19.056  -0.241   8.957  0.00  0.00     0.197 C 
ATOM     16  O30 ZIN A   1      19.499   0.311   7.968  0.00  0.00    -0.286 OA
ATOM     17  C31 ZIN A   1      17.712   0.696  12.351  0.00  0.00     0.090 A 
ATOM     18  C33 ZIN A   1      18.205   2.001  12.491  0.00  0.00     0.014 A 
ATOM     19  C34 ZIN A   1      17.854   2.740  13.757  0.00  0.00     0.164 C 
ATOM     20  C56 ZIN A   1      18.786   3.931  13.961  0.00  0.00     0.083 C 
ENDROOT
BRANCH  19  21
ATOM     21  O36 ZIN A   1      17.976   1.851  14.870  0.00  0.00    -0.351 OA
BRANCH  21  22
ATOM     22  C37 ZIN A   1      19.279   1.830  15.457  0.00  0.00     0.263 C 
ATOM     23  O55 ZIN A   1      19.627   0.485  15.794  0.00  0.00    -0.354 OA
ATOM     24  C52 ZIN A   1      18.722  -0.141  16.705  0.00  0.00     0.151 C 
ATOM     25  C49 ZIN A   1      18.704   0.640  18.021  0.00  0.00     0.169 C 
ATOM     26  C54 ZIN A   1      19.177  -1.578  16.969  0.00  0.00     0.042 C 
ATOM     27  C40 ZIN A   1      18.306   2.092  17.740  0.00  0.00     0.120 C 
ATOM     28  C39 ZIN A   1      19.283   2.689  16.723  0.00  0.00     0.088 C 
BRANCH  25  29
ATOM     29  O51 ZIN A   1      20.003   0.608  18.616  0.00  0.00    -0.391 OA
ATOM     30  H82 ZIN A   1      20.623   0.013  18.173  0.00  0.00     0.210 HD
ENDBRANCH  25  29
BRANCH  27  31
ATOM     31  N42 ZIN A   1      18.357   2.866  18.983  0.00  0.00    -0.346 N 
ATOM     32  C43 ZIN A   1      17.632   3.995  19.103  0.00  0.00     0.325 C 
ATOM     33  O44 ZIN A   1      16.937   4.371  18.183  0.00  0.00    -0.263 OA
ATOM     34  H81 ZIN A   1      18.912   2.565  19.718  0.00  0.00     0.163 HD
BRANCH  32  35
ATOM     35  C45 ZIN A   1      17.684   4.792  20.382  0.00  0.00     0.472 C 
ATOM     36  F46 ZIN A   1      18.918   4.585  21.009  0.00  0.00    -0.162 F 
ATOM     37  F47 ZIN A   1      17.530   6.151  20.092  0.00  0.00    -0.162 F 
ATOM     38  F48 ZIN A   1      16.654   4.376  21.233  0.00  0.00    -0.162 F 
ENDBRANCH  32  35
ENDBRANCH  27  31
ENDBRANCH  21  22
ENDBRANCH  19  21
BRANCH  17  39
ATOM     39  O32 ZIN A   1      16.964   0.148  13.340  0.00  0.00    -0.359 OA
ATOM     40  H78 ZIN A   1      17.323   0.285  14.227  0.00  0.00     0.217 HD
ENDBRANCH  17  39
BRANCH   1  41
ATOM     41  C9  ZIN A   1      17.388   5.034  12.225  0.00  0.00     0.185 C 
ATOM     42  O10 ZIN A   1      17.080   4.895  11.066  0.00  0.00    -0.292 OA
BRANCH  41  43
ATOM     43  C8  ZIN A   1      16.358   5.483  13.230  0.00  0.00     0.260 C 
BRANCH  43  44
ATOM     44  O7  ZIN A   1      16.632   6.854  13.623  0.00  0.00    -0.314 OA
BRANCH  44  45
ATOM     45  C5  ZIN A   1      16.974   7.064  14.904  0.00  0.00     0.259 C 
ATOM     46  O6  ZIN A   1      18.136   7.216  15.201  0.00  0.00    -0.265 OA
BRANCH  45  47
ATOM     47  C4  ZIN A   1      15.912   7.110  15.971  0.00  0.00     0.111 C 
BRANCH  47  48
ATOM     48  C3  ZIN A   1      14.630   7.709  15.390  0.00  0.00     0.009 C 
BRANCH  48  49
ATOM     49  C2  ZIN A   1      13.467   6.743  15.619  0.00  0.00    -0.004 C 
ATOM     50  C1  ZIN A   1      13.112   6.715  17.108  0.00  0.00     0.005 C 
ENDBRANCH  48  49
ENDBRANCH  47  48
ENDBRANCH  45  47
ENDBRANCH  44  45
ENDBRANCH  43  44
ENDBRANCH  41  43
ENDBRANCH   1  41
BRANCH   1  51
ATOM     51  O12 ZIN A   1      19.486   5.991  12.894  0.00  0.00    -0.382 OA
ATOM     52  H68 ZIN A   1      19.172   6.721  12.343  0.00  0.00     0.211 HD
ENDBRANCH   1  51
BRANCH   4  53
ATOM     53  O16 ZIN A   1      19.996   2.393   9.351  0.00  0.00    -0.359 OA
ATOM     54  H71 ZIN A   1      19.649   3.235   9.024  0.00  0.00     0.217 HD
ENDBRANCH   4  53
BRANCH  10  55
ATOM     55  O23 ZIN A   1      17.044  -4.214  10.958  0.00  0.00    -0.355 OA
ATOM     56  C24 ZIN A   1      17.573  -5.388  11.578  0.00  0.00     0.210 C 
ENDBRANCH  10  55
TORSDOF 16
ENDMDL
MODEL 2
REMARK VINA RESULT:      -7.4      1.411      1.590
REMARK  16 active torsions:
REMARK  status: ('A' for Active; 'I' for Inactive)
REMARK    1  A    between atoms: C2_2  and  C3_3 
REMARK    2  A    between atoms: C3_3  and  C4_4 
REMARK    3  A    between atoms: C4_4  and  C5_5 
REMARK    4  A    between atoms: C5_5  and  O7_7 
REMARK    5  A    between atoms: O7_7  and  C8_8 
REMARK    6  A    between atoms: C8_8  and  C9_9 
REMARK    7  A    between atoms: C9_9  and  C11_11 
REMARK    8  A    between atoms: C11_11  and  O12_12 
REMARK    9  A    between atoms: C15_15  and  O16_16 
REMARK   10  A    between atoms: C22_22  and  O23_23 
REMARK   11  A    between atoms: C31_31  and  O32_32 
REMARK   12  A    between atoms: C34_34  and  O36_35 
REMARK   13  A    between atoms: O36_35  and  C37_36 
REMARK   14  A    between atoms: C40_38  and  N42_39 
REMARK       I    between atoms: N42_39  and  C43_40 
REMARK   15  A    between atoms: C43_40  and  C45_42 
REMARK   16  A    between atoms: C49_46  and  O51_47 
ROOT
ATOM      1  C11 ZIN A   1      18.845   3.954  12.046  0.00  0.00     0.127 C 
ATOM      2  C13 ZIN A   1      19.544   3.252  10.884  0.00  0.00     0.088 C 
ATOM      3  C14 ZIN A   1      19.032   1.844  10.726  0.00  0.00    -0.009 A 
ATOM      4  C15 ZIN A   1      19.279   1.203   9.504  0.00  0.00     0.088 A 
ATOM      5  C17 ZIN A   1      18.838  -0.101   9.290  0.00  0.00     0.066 A 
ATOM      6  C18 ZIN A   1      18.142  -0.774  10.315  0.00  0.00     0.066 A 
ATOM      7  C19 ZIN A   1      17.679  -2.158  10.097  0.00  0.00     0.200 C 
ATOM      8  O20 ZIN A   1      16.873  -2.663  10.855  0.00  0.00    -0.286 OA
ATOM      9  C21 ZIN A   1      18.204  -2.920   8.948  0.00  0.00     0.062 A 
ATOM     10  C22 ZIN A   1      18.021  -4.302   8.868  0.00  0.00     0.083 A 
ATOM     11  C25 ZIN A   1      18.526  -5.001   7.775  0.00  0.00     0.038 A 
ATOM     12  C26 ZIN A   1      19.204  -4.337   6.773  0.00  0.00     0.004 A 
ATOM     13  C27 ZIN A   1      19.392  -2.964   6.840  0.00  0.00     0.017 A 
ATOM     14  C28 ZIN A   1      18.898  -2.248   7.923  0.00  0.00     0.032 A 
ATOM     15  C29 ZIN A   1      19.094  -0.785   8.009  0.00  0.00     0.197 C 
ATOM     16  O30 ZIN A   1      19.460  -0.153   7.037  0.00  0.00    -0.286 OA
ATOM     17  C31 ZIN A   1      17.902  -0.123  11.522  0.00  0.00     0.090 A 
ATOM     18  C33 ZIN A   1      18.349   1.191  11.721  0.00  0.00     0.014 A 
ATOM     19  C34 ZIN A   1      18.039   1.833  13.049  0.00  0.00     0.164 C 
ATOM     20  C56 ZIN A   1      18.933   3.048  13.281  0.00  0.00     0.083 C 
ENDROOT
BRANCH  19  21
ATOM     21  O36 ZIN A   1      18.257   0.883  14.094  0.00  0.00    -0.351 OA
BRANCH  21  22
ATOM     22  C37 ZIN A   1      19.465   1.092  14.827  0.00  0.00     0.263 C 
ATOM     23  O55 ZIN A   1      19.785  -0.090  15.565  0.00  0.00    -0.354 OA
ATOM     24  C52 ZIN A   1      18.772  -0.493  16.489  0.00  0.00     0.151 C 
ATOM     25  C49 ZIN A   1      18.557   0.614  17.524  0.00  0.00     0.169 C 
ATOM     26  C54 ZIN A   1      19.208  -1.777  17.197  0.00  0.00     0.042 C 
ATOM     27  C40 ZIN A   1      18.179   1.911  16.803  0.00  0.00     0.120 C 
ATOM     28  C39 ZIN A   1      19.279   2.262  15.796  0.00  0.00     0.088 C 
BRANCH  25  29
ATOM     29  O51 ZIN A   1      19.761   0.815  18.268  0.00  0.00    -0.391 OA
ATOM     30  H82 ZIN A   1      19.667   1.426  19.010  0.00  0.00     0.210 HD
ENDBRANCH  25  29
BRANCH  27  31
ATOM     31  N42 ZIN A   1      18.043   2.996  17.779  0.00  0.00    -0.346 N 
ATOM     32  C43 ZIN A   1      17.730   4.239  17.365  0.00  0.00     0.325 C 
ATOM     33  O44 ZIN A   1      17.560   4.460  16.185  0.00  0.00    -0.263 OA
ATOM     34  H81 ZIN A   1      18.179   2.818  18.722  0.00  0.00     0.163 HD
BRANCH  32  35
ATOM     35  C45 ZIN A   1      17.591   5.354  18.369  0.00  0.00     0.472 C 
ATOM     36  F46 ZIN A   1      17.871   4.866  19.650  0.00  0.00    -0.162 F 
ATOM     37  F47 ZIN A   1      18.488   6.380  18.055  0.00  0.00    -0.162 F 
ATOM     38  F48 ZIN A   1      16.283   5.851  18.336  0.00  0.00    -0.162 F 
ENDBRANCH  32  35
ENDBRANCH  27  31
ENDBRANCH  21  22
ENDBRANCH  19  21
BRANCH  17  39
ATOM     39  O32 ZIN A   1      17.231  -0.763  12.511  0.00  0.00    -0.359 OA
ATOM     40  H78 ZIN A   1      17.353  -1.722  12.512  0.00  0.00     0.217 HD
ENDBRANCH  17  39
BRANCH   1  41
ATOM     41  C9  ZIN A   1      17.400   4.197  11.696  0.00  0.00     0.185 C 
ATOM     42  O10 ZIN A   1      16.990   3.920  10.595  0.00  0.00    -0.292 OA
BRANCH  41  43
ATOM     43  C8  ZIN A   1      16.465   4.785  12.722  0.00  0.00     0.260 C 
BRANCH  43  44
ATOM     44  O7  ZIN A   1      16.772   6.193  12.904  0.00  0.00    -0.314 OA
BRANCH  44  45
ATOM     45  C5  ZIN A   1      16.337   6.770  14.035  0.00  0.00     0.259 C 
ATOM     46  O6  ZIN A   1      15.221   6.540  14.440  0.00  0.00    -0.265 OA
BRANCH  45  47
ATOM     47  C4  ZIN A   1      17.238   7.704  14.800  0.00  0.00     0.111 C 
BRANCH  47  48
ATOM     48  C3  ZIN A   1      16.410   8.856  15.374  0.00  0.00     0.009 C 
BRANCH  48  49
ATOM     49  C2  ZIN A   1      16.574   8.894  16.894  0.00  0.00    -0.004 C 
ATOM     50  C1  ZIN A   1      15.371   9.604  17.520  0.00  0.00     0.005 C 
ENDBRANCH  48  49
ENDBRANCH  47  48
ENDBRANCH  45  47
ENDBRANCH  44  45
ENDBRANCH  43  44
ENDBRANCH  41  43
ENDBRANCH   1  41
BRANCH   1  51
ATOM     51  O12 ZIN A   1      19.492   5.200  12.316  0.00  0.00    -0.382 OA
ATOM     52  H68 ZIN A   1      18.935   5.974  12.155  0.00  0.00     0.211 HD
ENDBRANCH   1  51
BRANCH   4  53
ATOM     53  O16 ZIN A   1      19.949   1.856   8.524  0.00  0.00    -0.359 OA
ATOM     54  H71 ZIN A   1      19.729   2.796   8.455  0.00  0.00     0.217 HD
ENDBRANCH   4  53
BRANCH  10  55
ATOM     55  O23 ZIN A   1      17.354  -4.959   9.849  0.00  0.00    -0.355 OA
ATOM     56  C24 ZIN A   1      16.225  -5.741   9.454  0.00  0.00     0.210 C 
ENDBRANCH  10  55
TORSDOF 16
ENDMDL
MODEL 3
REMARK VINA RESULT:      -6.9      4.907      8.650
REMARK  16 active torsions:
REMARK  status: ('A' for Active; 'I' for Inactive)
REMARK    1  A    between atoms: C2_2  and  C3_3 
REMARK    2  A    between atoms: C3_3  and  C4_4 
REMARK    3  A    between atoms: C4_4  and  C5_5 
REMARK    4  A    between atoms: C5_5  and  O7_7 
REMARK    5  A    between atoms: O7_7  and  C8_8 
REMARK    6  A    between atoms: C8_8  and  C9_9 
REMARK    7  A    between atoms: C9_9  and  C11_11 
REMARK    8  A    between atoms: C11_11  and  O12_12 
REMARK    9  A    between atoms: C15_15  and  O16_16 
REMARK   10  A    between atoms: C22_22  and  O23_23 
REMARK   11  A    between atoms: C31_31  and  O32_32 
REMARK   12  A    between atoms: C34_34  and  O36_35 
REMARK   13  A    between atoms: O36_35  and  C37_36 
REMARK   14  A    between atoms: C40_38  and  N42_39 
REMARK       I    between atoms: N42_39  and  C43_40 
REMARK   15  A    between atoms: C43_40  and  C45_42 
REMARK   16  A    between atoms: C49_46  and  O51_47 
ROOT
ATOM      1  C11 ZIN A   1      19.034  -1.755   5.234  0.00  0.00     0.127 C 
ATOM      2  C13 ZIN A   1      19.069  -2.980   4.325  0.00  0.00     0.088 C 
ATOM      3  C14 ZIN A   1      18.123  -4.041   4.824  0.00  0.00    -0.009 A 
ATOM      4  C15 ZIN A   1      17.753  -5.049   3.923  0.00  0.00     0.088 A 
ATOM      5  C17 ZIN A   1      16.885  -6.064   4.318  0.00  0.00     0.066 A 
ATOM      6  C18 ZIN A   1      16.382  -6.073   5.636  0.00  0.00     0.066 A 
ATOM      7  C19 ZIN A   1      15.469  -7.150   6.062  0.00  0.00     0.200 C 
ATOM      8  O20 ZIN A   1      14.834  -7.045   7.094  0.00  0.00    -0.286 OA
ATOM      9  C21 ZIN A   1      15.333  -8.354   5.220  0.00  0.00     0.062 A 
ATOM     10  C22 ZIN A   1      14.715  -9.503   5.718  0.00  0.00     0.083 A 
ATOM     11  C25 ZIN A   1      14.599 -10.629   4.906  0.00  0.00     0.038 A 
ATOM     12  C26 ZIN A   1      15.090 -10.614   3.616  0.00  0.00     0.004 A 
ATOM     13  C27 ZIN A   1      15.706  -9.479   3.110  0.00  0.00     0.017 A 
ATOM     14  C28 ZIN A   1      15.834  -8.346   3.903  0.00  0.00     0.032 A 
ATOM     15  C29 ZIN A   1      16.491  -7.130   3.378  0.00  0.00     0.197 C 
ATOM     16  O30 ZIN A   1      16.702  -7.009   2.187  0.00  0.00    -0.286 OA
ATOM     17  C31 ZIN A   1      16.757  -5.064   6.518  0.00  0.00     0.090 A 
ATOM     18  C33 ZIN A   1      17.629  -4.046   6.104  0.00  0.00     0.014 A 
ATOM     19  C34 ZIN A   1      17.977  -2.982   7.113  0.00  0.00     0.164 C 
ATOM     20  C56 ZIN A   1      19.228  -2.221   6.683  0.00  0.00     0.083 C 
ENDROOT
BRANCH  19  21
ATOM     21  O36 ZIN A   1      18.213  -3.595   8.382  0.00  0.00    -0.351 OA
BRANCH  21  22
ATOM     22  C37 ZIN A   1      19.532  -3.391   8.891  0.00  0.00     0.263 C 
ATOM     23  O55 ZIN A   1      19.867  -4.452   9.788  0.00  0.00    -0.354 OA
ATOM     24  C52 ZIN A   1      18.979  -4.578  10.901  0.00  0.00     0.151 C 
ATOM     25  C49 ZIN A   1      19.015  -3.291  11.728  0.00  0.00     0.169 C 
ATOM     26  C54 ZIN A   1      19.417  -5.758  11.771  0.00  0.00     0.042 C 
ATOM     27  C40 ZIN A   1      18.634  -2.107  10.834  0.00  0.00     0.120 C 
ATOM     28  C39 ZIN A   1      19.590  -2.056   9.639  0.00  0.00     0.088 C 
BRANCH  25  29
ATOM     29  O51 ZIN A   1      20.330  -3.093  12.249  0.00  0.00    -0.391 OA
ATOM     30  H82 ZIN A   1      20.360  -2.545  13.045  0.00  0.00     0.210 HD
ENDBRANCH  25  29
BRANCH  27  31
ATOM     31  N42 ZIN A   1      18.736  -0.861  11.598  0.00  0.00    -0.346 N 
ATOM     32  C43 ZIN A   1      17.643  -0.343  12.192  0.00  0.00     0.325 C 
ATOM     33  O44 ZIN A   1      16.575  -0.909  12.095  0.00  0.00    -0.263 OA
ATOM     34  H81 ZIN A   1      19.591  -0.409  11.675  0.00  0.00     0.163 HD
BRANCH  32  35
ATOM     35  C45 ZIN A   1      17.749   0.939  12.977  0.00  0.00     0.472 C 
ATOM     36  F46 ZIN A   1      19.077   1.382  12.970  0.00  0.00    -0.162 F 
ATOM     37  F47 ZIN A   1      16.930   1.912  12.396  0.00  0.00    -0.162 F 
ATOM     38  F48 ZIN A   1      17.341   0.713  14.297  0.00  0.00    -0.162 F 
ENDBRANCH  32  35
ENDBRANCH  27  31
ENDBRANCH  21  22
ENDBRANCH  19  21
BRANCH  17  39
ATOM     39  O32 ZIN A   1      16.276  -5.064   7.785  0.00  0.00    -0.359 OA
ATOM     40  H78 ZIN A   1      15.387  -5.435   7.869  0.00  0.00     0.217 HD
ENDBRANCH  17  39
BRANCH   1  41
ATOM     41  C9  ZIN A   1      17.704  -1.060   5.099  0.00  0.00     0.185 C 
ATOM     42  O10 ZIN A   1      16.923  -1.412   4.249  0.00  0.00    -0.292 OA
BRANCH  41  43
ATOM     43  C8  ZIN A   1      17.349   0.074   6.025  0.00  0.00     0.260 C 
BRANCH  43  44
ATOM     44  O7  ZIN A   1      18.545   0.536   6.706  0.00  0.00    -0.314 OA
BRANCH  44  45
ATOM     45  C5  ZIN A   1      18.394   1.004   7.955  0.00  0.00     0.259 C 
ATOM     46  O6  ZIN A   1      17.578   0.505   8.693  0.00  0.00    -0.265 OA
BRANCH  45  47
ATOM     47  C4  ZIN A   1      19.242   2.153   8.438  0.00  0.00     0.111 C 
BRANCH  47  48
ATOM     48  C3  ZIN A   1      18.808   2.549   9.850  0.00  0.00     0.009 C 
BRANCH  48  49
ATOM     49  C2  ZIN A   1      18.110   3.909   9.806  0.00  0.00    -0.004 C 
ATOM     50  C1  ZIN A   1      18.125   4.536  11.202  0.00  0.00     0.005 C 
ENDBRANCH  48  49
ENDBRANCH  47  48
ENDBRANCH  45  47
ENDBRANCH  44  45
ENDBRANCH  43  44
ENDBRANCH  41  43
ENDBRANCH   1  41
BRANCH   1  51
ATOM     51  O12 ZIN A   1      20.086  -0.857   4.874  0.00  0.00    -0.382 OA
ATOM     52  H68 ZIN A   1      20.936  -1.059   5.289  0.00  0.00     0.211 HD
ENDBRANCH   1  51
BRANCH   4  53
ATOM     53  O16 ZIN A   1      18.240  -5.034   2.658  0.00  0.00    -0.359 OA
ATOM     54  H71 ZIN A   1      18.084  -5.853   2.167  0.00  0.00     0.217 HD
ENDBRANCH   4  53
BRANCH  10  55
ATOM     55  O23 ZIN A   1      14.229  -9.523   6.984  0.00  0.00    -0.355 OA
ATOM     56  C24 ZIN A   1      12.836  -9.797   7.139  0.00  0.00     0.210 C 
ENDBRANCH  10  55
TORSDOF 16
ENDMDL
MODEL 4
REMARK VINA RESULT:      -6.4      2.542      5.981
REMARK  16 active torsions:
REMARK  status: ('A' for Active; 'I' for Inactive)
REMARK    1  A    between atoms: C2_2  and  C3_3 
REMARK    2  A    between atoms: C3_3  and  C4_4 
REMARK    3  A    between atoms: C4_4  and  C5_5 
REMARK    4  A    between atoms: C5_5  and  O7_7 
REMARK    5  A    between atoms: O7_7  and  C8_8 
REMARK    6  A    between atoms: C8_8  and  C9_9 
REMARK    7  A    between atoms: C9_9  and  C11_11 
REMARK    8  A    between atoms: C11_11  and  O12_12 
REMARK    9  A    between atoms: C15_15  and  O16_16 
REMARK   10  A    between atoms: C22_22  and  O23_23 
REMARK   11  A    between atoms: C31_31  and  O32_32 
REMARK   12  A    between atoms: C34_34  and  O36_35 
REMARK   13  A    between atoms: O36_35  and  C37_36 
REMARK   14  A    between atoms: C40_38  and  N42_39 
REMARK       I    between atoms: N42_39  and  C43_40 
REMARK   15  A    between atoms: C43_40  and  C45_42 
REMARK   16  A    between atoms: C49_46  and  O51_47 
ROOT
ATOM      1  C11 ZIN A   1      17.944  -1.467  13.585  0.00  0.00     0.127 C 
ATOM      2  C13 ZIN A   1      17.355  -2.482  12.608  0.00  0.00     0.088 C 
ATOM      3  C14 ZIN A   1      17.858  -2.230  11.210  0.00  0.00    -0.009 A 
ATOM      4  C15 ZIN A   1      17.726  -3.272  10.282  0.00  0.00     0.088 A 
ATOM      5  C17 ZIN A   1      18.164  -3.107   8.970  0.00  0.00     0.066 A 
ATOM      6  C18 ZIN A   1      18.743  -1.881   8.581  0.00  0.00     0.066 A 
ATOM      7  C19 ZIN A   1      19.203  -1.698   7.192  0.00  0.00     0.200 C 
ATOM      8  O20 ZIN A   1      19.921  -0.760   6.900  0.00  0.00    -0.286 OA
ATOM      9  C21 ZIN A   1      18.785  -2.668   6.162  0.00  0.00     0.062 A 
ATOM     10  C22 ZIN A   1      18.953  -2.381   4.805  0.00  0.00     0.083 A 
ATOM     11  C25 ZIN A   1      18.549  -3.310   3.849  0.00  0.00     0.038 A 
ATOM     12  C26 ZIN A   1      17.987  -4.510   4.236  0.00  0.00     0.004 A 
ATOM     13  C27 ZIN A   1      17.815  -4.807   5.579  0.00  0.00     0.017 A 
ATOM     14  C28 ZIN A   1      18.208  -3.894   6.548  0.00  0.00     0.032 A 
ATOM     15  C29 ZIN A   1      18.028  -4.196   7.985  0.00  0.00     0.197 C 
ATOM     16  O30 ZIN A   1      17.772  -5.327   8.349  0.00  0.00    -0.286 OA
ATOM     17  C31 ZIN A   1      18.870  -0.857   9.516  0.00  0.00     0.090 A 
ATOM     18  C33 ZIN A   1      18.426  -1.040  10.834  0.00  0.00     0.014 A 
ATOM     19  C34 ZIN A   1      18.611   0.111  11.790  0.00  0.00     0.164 C 
ATOM     20  C56 ZIN A   1      17.718  -0.061  13.016  0.00  0.00     0.083 C 
ENDROOT
BRANCH  19  21
ATOM     21  O36 ZIN A   1      18.273   1.332  11.129  0.00  0.00    -0.351 OA
BRANCH  21  22
ATOM     22  C37 ZIN A   1      17.338   2.141  11.845  0.00  0.00     0.263 C 
ATOM     23  O55 ZIN A   1      16.940   3.244  11.028  0.00  0.00    -0.354 OA
ATOM     24  C52 ZIN A   1      18.021   4.082  10.611  0.00  0.00     0.151 C 
ATOM     25  C49 ZIN A   1      18.702   4.684  11.842  0.00  0.00     0.169 C 
ATOM     26  C54 ZIN A   1      17.482   5.206   9.724  0.00  0.00     0.042 C 
ATOM     27  C40 ZIN A   1      19.185   3.553  12.754  0.00  0.00     0.120 C 
ATOM     28  C39 ZIN A   1      17.992   2.666  13.125  0.00  0.00     0.088 C 
BRANCH  25  29
ATOM     29  O51 ZIN A   1      17.771   5.505  12.551  0.00  0.00    -0.391 OA
ATOM     30  H82 ZIN A   1      17.367   5.071  13.315  0.00  0.00     0.210 HD
ENDBRANCH  25  29
BRANCH  27  31
ATOM     31  N42 ZIN A   1      19.772   4.118  13.972  0.00  0.00    -0.346 N 
ATOM     32  C43 ZIN A   1      18.995   4.358  15.046  0.00  0.00     0.325 C 
ATOM     33  O44 ZIN A   1      17.810   4.105  15.006  0.00  0.00    -0.263 OA
ATOM     34  H81 ZIN A   1      20.720   4.320  14.003  0.00  0.00     0.163 HD
BRANCH  32  35
ATOM     35  C45 ZIN A   1      19.600   4.939  16.298  0.00  0.00     0.472 C 
ATOM     36  F46 ZIN A   1      20.212   3.920  17.037  0.00  0.00    -0.162 F 
ATOM     37  F47 ZIN A   1      20.554   5.902  15.952  0.00  0.00    -0.162 F 
ATOM     38  F48 ZIN A   1      18.596   5.534  17.069  0.00  0.00    -0.162 F 
ENDBRANCH  32  35
ENDBRANCH  27  31
ENDBRANCH  21  22
ENDBRANCH  19  21
BRANCH  17  39
ATOM     39  O32 ZIN A   1      19.427   0.323   9.150  0.00  0.00    -0.359 OA
ATOM     40  H78 ZIN A   1      20.338   0.440   9.454  0.00  0.00     0.217 HD
ENDBRANCH  17  39
BRANCH   1  41
ATOM     41  C9  ZIN A   1      19.421  -1.718  13.747  0.00  0.00     0.185 C 
ATOM     42  O10 ZIN A   1      19.965  -2.571  13.087  0.00  0.00    -0.292 OA
BRANCH  41  43
ATOM     43  C8  ZIN A   1      20.220  -0.903  14.731  0.00  0.00     0.260 C 
BRANCH  43  44
ATOM     44  O7  ZIN A   1      19.641  -1.041  16.056  0.00  0.00    -0.314 OA
BRANCH  44  45
ATOM     45  C5  ZIN A   1      19.271   0.087  16.681  0.00  0.00     0.259 C 
ATOM     46  O6  ZIN A   1      19.165   1.116  16.056  0.00  0.00    -0.265 OA
BRANCH  45  47
ATOM     47  C4  ZIN A   1      18.986   0.072  18.160  0.00  0.00     0.111 C 
BRANCH  47  48
ATOM     48  C3  ZIN A   1      18.777   1.505  18.655  0.00  0.00     0.009 C 
BRANCH  48  49
ATOM     49  C2  ZIN A   1      17.286   1.747  18.898  0.00  0.00    -0.004 C 
ATOM     50  C1  ZIN A   1      17.060   3.218  19.255  0.00  0.00     0.005 C 
ENDBRANCH  48  49
ENDBRANCH  47  48
ENDBRANCH  45  47
ENDBRANCH  44  45
ENDBRANCH  43  44
ENDBRANCH  41  43
ENDBRANCH   1  41
BRANCH   1  51
ATOM     51  O12 ZIN A   1      17.294  -1.584  14.852  0.00  0.00    -0.382 OA
ATOM     52  H68 ZIN A   1      16.395  -1.938  14.802  0.00  0.00     0.211 HD
ENDBRANCH   1  51
BRANCH   4  53
ATOM     53  O16 ZIN A   1      17.168  -4.447  10.662  0.00  0.00    -0.359 OA
ATOM     54  H71 ZIN A   1      16.692  -4.403  11.503  0.00  0.00     0.217 HD
ENDBRANCH   4  53
BRANCH  10  55
ATOM     55  O23 ZIN A   1      19.507  -1.204   4.420  0.00  0.00    -0.355 OA
ATOM     56  C24 ZIN A   1      18.609  -0.146   4.080  0.00  0.00     0.210 C 
ENDBRANCH  10  55
TORSDOF 16
ENDMDL
MODEL 5
REMARK VINA RESULT:      -6.4      5.067      9.683
REMARK  16 active torsions:
REMARK  status: ('A' for Active; 'I' for Inactive)
REMARK    1  A    between atoms: C2_2  and  C3_3 
REMARK    2  A    between atoms: C3_3  and  C4_4 
REMARK    3  A    between atoms: C4_4  and  C5_5 
REMARK    4  A    between atoms: C5_5  and  O7_7 
REMARK    5  A    between atoms: O7_7  and  C8_8 
REMARK    6  A    between atoms: C8_8  and  C9_9 
REMARK    7  A    between atoms: C9_9  and  C11_11 
REMARK    8  A    between atoms: C11_11  and  O12_12 
REMARK    9  A    between atoms: C15_15  and  O16_16 
REMARK   10  A    between atoms: C22_22  and  O23_23 
REMARK   11  A    between atoms: C31_31  and  O32_32 
REMARK   12  A    between atoms: C34_34  and  O36_35 
REMARK   13  A    between atoms: O36_35  and  C37_36 
REMARK   14  A    between atoms: C40_38  and  N42_39 
REMARK       I    between atoms: N42_39  and  C43_40 
REMARK   15  A    between atoms: C43_40  and  C45_42 
REMARK   16  A    between atoms: C49_46  and  O51_47 
ROOT
ATOM      1  C11 ZIN A   1      17.215  -4.133  10.608  0.00  0.00     0.127 C 
ATOM      2  C13 ZIN A   1      16.081  -4.835   9.866  0.00  0.00     0.088 C 
ATOM      3  C14 ZIN A   1      16.490  -5.163   8.454  0.00  0.00    -0.009 A 
ATOM      4  C15 ZIN A   1      15.733  -6.124   7.770  0.00  0.00     0.088 A 
ATOM      5  C17 ZIN A   1      16.051  -6.472   6.460  0.00  0.00     0.066 A 
ATOM      6  C18 ZIN A   1      17.143  -5.848   5.823  0.00  0.00     0.066 A 
ATOM      7  C19 ZIN A   1      17.481  -6.207   4.433  0.00  0.00     0.200 C 
ATOM      8  O20 ZIN A   1      18.550  -5.876   3.954  0.00  0.00    -0.286 OA
ATOM      9  C21 ZIN A   1      16.509  -6.975   3.631  0.00  0.00     0.062 A 
ATOM     10  C22 ZIN A   1      16.660  -7.086   2.247  0.00  0.00     0.083 A 
ATOM     11  C25 ZIN A   1      15.729  -7.814   1.510  0.00  0.00     0.038 A 
ATOM     12  C26 ZIN A   1      14.664  -8.426   2.139  0.00  0.00     0.004 A 
ATOM     13  C27 ZIN A   1      14.504  -8.324   3.513  0.00  0.00     0.017 A 
ATOM     14  C28 ZIN A   1      15.419  -7.601   4.267  0.00  0.00     0.032 A 
ATOM     15  C29 ZIN A   1      15.259  -7.481   5.732  0.00  0.00     0.197 C 
ATOM     16  O30 ZIN A   1      14.486  -8.205   6.329  0.00  0.00    -0.286 OA
ATOM     17  C31 ZIN A   1      17.888  -4.897   6.516  0.00  0.00     0.090 A 
ATOM     18  C33 ZIN A   1      17.556  -4.560   7.836  0.00  0.00     0.014 A 
ATOM     19  C34 ZIN A   1      18.419  -3.532   8.524  0.00  0.00     0.164 C 
ATOM     20  C56 ZIN A   1      17.704  -2.962   9.746  0.00  0.00     0.083 C 
ENDROOT
BRANCH  19  21
ATOM     21  O36 ZIN A   1      18.707  -2.472   7.610  0.00  0.00    -0.351 OA
BRANCH  21  22
ATOM     22  C37 ZIN A   1      17.563  -1.703   7.232  0.00  0.00     0.263 C 
ATOM     23  O55 ZIN A   1      17.698  -1.285   5.872  0.00  0.00    -0.354 OA
ATOM     24  C52 ZIN A   1      18.863  -0.498   5.616  0.00  0.00     0.151 C 
ATOM     25  C49 ZIN A   1      18.807   0.781   6.454  0.00  0.00     0.169 C 
ATOM     26  C54 ZIN A   1      18.917  -0.135   4.131  0.00  0.00     0.042 C 
ATOM     27  C40 ZIN A   1      18.693   0.409   7.935  0.00  0.00     0.120 C 
ATOM     28  C39 ZIN A   1      17.455  -0.471   8.134  0.00  0.00     0.088 C 
BRANCH  25  29
ATOM     29  O51 ZIN A   1      17.672   1.558   6.067  0.00  0.00    -0.391 OA
ATOM     30  H82 ZIN A   1      17.500   1.557   5.116  0.00  0.00     0.210 HD
ENDBRANCH  25  29
BRANCH  27  31
ATOM     31  N42 ZIN A   1      18.564   1.626   8.740  0.00  0.00    -0.346 N 
ATOM     32  C43 ZIN A   1      19.158   1.701   9.948  0.00  0.00     0.325 C 
ATOM     33  O44 ZIN A   1      19.798   0.761  10.368  0.00  0.00    -0.263 OA
ATOM     34  H81 ZIN A   1      18.052   2.378   8.404  0.00  0.00     0.163 HD
BRANCH  32  35
ATOM     35  C45 ZIN A   1      19.025   2.953  10.776  0.00  0.00     0.472 C 
ATOM     36  F46 ZIN A   1      18.212   2.695  11.885  0.00  0.00    -0.162 F 
ATOM     37  F47 ZIN A   1      20.290   3.361  11.210  0.00  0.00    -0.162 F 
ATOM     38  F48 ZIN A   1      18.449   3.966  10.001  0.00  0.00    -0.162 F 
ENDBRANCH  32  35
ENDBRANCH  27  31
ENDBRANCH  21  22
ENDBRANCH  19  21
BRANCH  17  39
ATOM     39  O32 ZIN A   1      18.941  -4.294   5.911  0.00  0.00    -0.359 OA
ATOM     40  H78 ZIN A   1      19.665  -4.070   6.511  0.00  0.00     0.217 HD
ENDBRANCH  17  39
BRANCH   1  41
ATOM     41  C9  ZIN A   1      18.346  -5.100  10.839  0.00  0.00     0.185 C 
ATOM     42  O10 ZIN A   1      18.167  -6.285  10.693  0.00  0.00    -0.292 OA
BRANCH  41  43
ATOM     43  C8  ZIN A   1      19.702  -4.589  11.252  0.00  0.00     0.260 C 
BRANCH  43  44
ATOM     44  O7  ZIN A   1      19.554  -3.665  12.363  0.00  0.00    -0.314 OA
BRANCH  44  45
ATOM     45  C5  ZIN A   1      19.845  -2.376  12.127  0.00  0.00     0.259 C 
ATOM     46  O6  ZIN A   1      20.627  -2.084  11.254  0.00  0.00    -0.265 OA
BRANCH  45  47
ATOM     47  C4  ZIN A   1      19.196  -1.294  12.950  0.00  0.00     0.111 C 
BRANCH  47  48
ATOM     48  C3  ZIN A   1      19.624  -1.439  14.412  0.00  0.00     0.009 C 
BRANCH  48  49
ATOM     49  C2  ZIN A   1      18.394  -1.334  15.315  0.00  0.00    -0.004 C 
ATOM     50  C1  ZIN A   1      18.841  -1.174  16.770  0.00  0.00     0.005 C 
ENDBRANCH  48  49
ENDBRANCH  47  48
ENDBRANCH  45  47
ENDBRANCH  44  45
ENDBRANCH  43  44
ENDBRANCH  41  43
ENDBRANCH   1  41
BRANCH   1  51
ATOM     51  O12 ZIN A   1      16.738  -3.640  11.862  0.00  0.00    -0.382 OA
ATOM     52  H68 ZIN A   1      16.896  -4.239  12.605  0.00  0.00     0.211 HD
ENDBRANCH   1  51
BRANCH   4  53
ATOM     53  O16 ZIN A   1      14.684  -6.720   8.389  0.00  0.00    -0.359 OA
ATOM     54  H71 ZIN A   1      14.340  -6.224   9.145  0.00  0.00     0.217 HD
ENDBRANCH   4  53
BRANCH  10  55
ATOM     55  O23 ZIN A   1      17.705  -6.488   1.624  0.00  0.00    -0.355 OA
ATOM     56  C24 ZIN A   1      18.657  -7.344   0.990  0.00  0.00     0.210 C 
ENDBRANCH  10  55
TORSDOF 16
ENDMDL
MODEL 6
REMARK VINA RESULT:      -6.3      5.729     10.731
REMARK  16 active torsions:
REMARK  status: ('A' for Active; 'I' for Inactive)
REMARK    1  A    between atoms: C2_2  and  C3_3 
REMARK    2  A    between atoms: C3_3  and  C4_4 
REMARK    3  A    between atoms: C4_4  and  C5_5 
REMARK    4  A    between atoms: C5_5  and  O7_7 
REMARK    5  A    between atoms: O7_7  and  C8_8 
REMARK    6  A    between atoms: C8_8  and  C9_9 
REMARK    7  A    between atoms: C9_9  and  C11_11 
REMARK    8  A    between atoms: C11_11  and  O12_12 
REMARK    9  A    between atoms: C15_15  and  O16_16 
REMARK   10  A    between atoms: C22_22  and  O23_23 
REMARK   11  A    between atoms: C31_31  and  O32_32 
REMARK   12  A    between atoms: C34_34  and  O36_35 
REMARK   13  A    between atoms: O36_35  and  C37_36 
REMARK   14  A    between atoms: C40_38  and  N42_39 
REMARK       I    between atoms: N42_39  and  C43_40 
REMARK   15  A    between atoms: C43_40  and  C45_42 
REMARK   16  A    between atoms: C49_46  and  O51_47 
ROOT
ATOM      1  C11 ZIN A   1      17.755  -0.209   7.694  0.00  0.00     0.127 C 
ATOM      2  C13 ZIN A   1      17.471   0.884   8.721  0.00  0.00     0.088 C 
ATOM      3  C14 ZIN A   1      17.902   0.448  10.097  0.00  0.00    -0.009 A 
ATOM      4  C15 ZIN A   1      18.064   1.447  11.067  0.00  0.00     0.088 A 
ATOM      5  C17 ZIN A   1      18.457   1.116  12.361  0.00  0.00     0.066 A 
ATOM      6  C18 ZIN A   1      18.688  -0.236  12.691  0.00  0.00     0.066 A 
ATOM      7  C19 ZIN A   1      19.097  -0.594  14.063  0.00  0.00     0.200 C 
ATOM      8  O20 ZIN A   1      19.538  -1.701  14.304  0.00  0.00    -0.286 OA
ATOM      9  C21 ZIN A   1      18.965   0.408  15.137  0.00  0.00     0.062 A 
ATOM     10  C22 ZIN A   1      19.064   0.030  16.478  0.00  0.00     0.083 A 
ATOM     11  C25 ZIN A   1      18.935   0.993  17.477  0.00  0.00     0.038 A 
ATOM     12  C26 ZIN A   1      18.712   2.315  17.148  0.00  0.00     0.004 A 
ATOM     13  C27 ZIN A   1      18.613   2.703  15.821  0.00  0.00     0.017 A 
ATOM     14  C28 ZIN A   1      18.736   1.759  14.809  0.00  0.00     0.032 A 
ATOM     15  C29 ZIN A   1      18.629   2.159  13.390  0.00  0.00     0.197 C 
ATOM     16  O30 ZIN A   1      18.683   3.332  13.074  0.00  0.00    -0.286 OA
ATOM     17  C31 ZIN A   1      18.525  -1.216  11.716  0.00  0.00     0.090 A 
ATOM     18  C33 ZIN A   1      18.133  -0.866  10.416  0.00  0.00     0.014 A 
ATOM     19  C34 ZIN A   1      17.991  -1.982   9.413  0.00  0.00     0.164 C 
ATOM     20  C56 ZIN A   1      17.165  -1.526   8.214  0.00  0.00     0.083 C 
ENDROOT
BRANCH  19  21
ATOM     21  O36 ZIN A   1      17.345  -3.095  10.035  0.00  0.00    -0.351 OA
BRANCH  21  22
ATOM     22  C37 ZIN A   1      18.200  -4.218  10.251  0.00  0.00     0.263 C 
ATOM     23  O55 ZIN A   1      19.235  -4.226   9.265  0.00  0.00    -0.354 OA
ATOM     24  C52 ZIN A   1      18.758  -4.287   7.919  0.00  0.00     0.151 C 
ATOM     25  C49 ZIN A   1      17.965  -5.581   7.718  0.00  0.00     0.169 C 
ATOM     26  C54 ZIN A   1      19.946  -4.262   6.955  0.00  0.00     0.042 C 
ATOM     27  C40 ZIN A   1      16.813  -5.627   8.727  0.00  0.00     0.120 C 
ATOM     28  C39 ZIN A   1      17.385  -5.509  10.143  0.00  0.00     0.088 C 
BRANCH  25  29
ATOM     29  O51 ZIN A   1      18.822  -6.705   7.921  0.00  0.00    -0.391 OA
ATOM     30  H82 ZIN A   1      18.368  -7.558   7.885  0.00  0.00     0.210 HD
ENDBRANCH  25  29
BRANCH  27  31
ATOM     31  N42 ZIN A   1      16.091  -6.895   8.593  0.00  0.00    -0.346 N 
ATOM     32  C43 ZIN A   1      15.121  -7.023   7.667  0.00  0.00     0.325 C 
ATOM     33  O44 ZIN A   1      14.845  -6.090   6.945  0.00  0.00    -0.263 OA
ATOM     34  H81 ZIN A   1      16.313  -7.642   9.171  0.00  0.00     0.163 HD
BRANCH  32  35
ATOM     35  C45 ZIN A   1      14.379  -8.328   7.530  0.00  0.00     0.472 C 
ATOM     36  F46 ZIN A   1      14.071  -8.550   6.183  0.00  0.00    -0.162 F 
ATOM     37  F47 ZIN A   1      15.180  -9.372   8.003  0.00  0.00    -0.162 F 
ATOM     38  F48 ZIN A   1      13.196  -8.273   8.275  0.00  0.00    -0.162 F 
ENDBRANCH  32  35
ENDBRANCH  27  31
ENDBRANCH  21  22
ENDBRANCH  19  21
BRANCH  17  39
ATOM     39  O32 ZIN A   1      18.748  -2.517  12.025  0.00  0.00    -0.359 OA
ATOM     40  H78 ZIN A   1      17.958  -3.073  11.980  0.00  0.00     0.217 HD
ENDBRANCH  17  39
BRANCH   1  41
ATOM     41  C9  ZIN A   1      19.243  -0.358   7.510  0.00  0.00     0.185 C 
ATOM     42  O10 ZIN A   1      20.002   0.343   8.136  0.00  0.00    -0.292 OA
BRANCH  41  43
ATOM     43  C8  ZIN A   1      19.784  -1.382   6.546  0.00  0.00     0.260 C 
BRANCH  43  44
ATOM     44  O7  ZIN A   1      19.868  -0.800   5.218  0.00  0.00    -0.314 OA
BRANCH  44  45
ATOM     45  C5  ZIN A   1      18.861  -1.064   4.372  0.00  0.00     0.259 C 
ATOM     46  O6  ZIN A   1      18.314  -0.161   3.783  0.00  0.00    -0.265 OA
BRANCH  45  47
ATOM     47  C4  ZIN A   1      18.410  -2.485   4.155  0.00  0.00     0.111 C 
BRANCH  47  48
ATOM     48  C3  ZIN A   1      16.886  -2.525   4.031  0.00  0.00     0.009 C 
BRANCH  48  49
ATOM     49  C2  ZIN A   1      16.452  -3.898   3.515  0.00  0.00    -0.004 C 
ATOM     50  C1  ZIN A   1      17.377  -4.974   4.087  0.00  0.00     0.005 C 
ENDBRANCH  48  49
ENDBRANCH  47  48
ENDBRANCH  45  47
ENDBRANCH  44  45
ENDBRANCH  43  44
ENDBRANCH  41  43
ENDBRANCH   1  41
BRANCH   1  51
ATOM     51  O12 ZIN A   1      17.147   0.131   6.446  0.00  0.00    -0.382 OA
ATOM     52  H68 ZIN A   1      17.479   0.952   6.058  0.00  0.00     0.211 HD
ENDBRANCH   1  51
BRANCH   4  53
ATOM     53  O16 ZIN A   1      17.840   2.744  10.743  0.00  0.00    -0.359 OA
ATOM     54  H71 ZIN A   1      18.178   3.376  11.392  0.00  0.00     0.217 HD
ENDBRANCH   4  53
BRANCH  10  55
ATOM     55  O23 ZIN A   1      19.285  -1.267  16.806  0.00  0.00    -0.355 OA
ATOM     56  C24 ZIN A   1      18.138  -2.063  17.110  0.00  0.00     0.210 C 
ENDBRANCH  10  55
TORSDOF 16
ENDMDL
MODEL 7
REMARK VINA RESULT:      -6.2      5.486     10.561
REMARK  16 active torsions:
REMARK  status: ('A' for Active; 'I' for Inactive)
REMARK    1  A    between atoms: C2_2  and  C3_3 
REMARK    2  A    between atoms: C3_3  and  C4_4 
REMARK    3  A    between atoms: C4_4  and  C5_5 
REMARK    4  A    between atoms: C5_5  and  O7_7 
REMARK    5  A    between atoms: O7_7  and  C8_8 
REMARK    6  A    between atoms: C8_8  and  C9_9 
REMARK    7  A    between atoms: C9_9  and  C11_11 
REMARK    8  A    between atoms: C11_11  and  O12_12 
REMARK    9  A    between atoms: C15_15  and  O16_16 
REMARK   10  A    between atoms: C22_22  and  O23_23 
REMARK   11  A    between atoms: C31_31  and  O32_32 
REMARK   12  A    between atoms: C34_34  and  O36_35 
REMARK   13  A    between atoms: O36_35  and  C37_36 
REMARK   14  A    between atoms: C40_38  and  N42_39 
REMARK       I    between atoms: N42_39  and  C43_40 
REMARK   15  A    between atoms: C43_40  and  C45_42 
REMARK   16  A    between atoms: C49_46  and  O51_47 
ROOT
ATOM      1  C11 ZIN A   1      17.679  -0.009   8.157  0.00  0.00     0.127 C 
ATOM      2  C13 ZIN A   1      17.142   1.125   9.027  0.00  0.00     0.088 C 
ATOM      3  C14 ZIN A   1      17.734   1.061  10.411  0.00  0.00    -0.009 A 
ATOM      4  C15 ZIN A   1      17.650   2.216  11.201  0.00  0.00     0.088 A 
ATOM      5  C17 ZIN A   1      18.171   2.226  12.493  0.00  0.00     0.066 A 
ATOM      6  C18 ZIN A   1      18.783   1.062  13.002  0.00  0.00     0.066 A 
ATOM      7  C19 ZIN A   1      19.330   1.065  14.372  0.00  0.00     0.200 C 
ATOM      8  O20 ZIN A   1      20.073   0.174  14.740  0.00  0.00    -0.286 OA
ATOM      9  C21 ZIN A   1      18.968   2.162  15.290  0.00  0.00     0.062 A 
ATOM     10  C22 ZIN A   1      19.222   2.056  16.659  0.00  0.00     0.083 A 
ATOM     11  C25 ZIN A   1      18.871   3.104  17.508  0.00  0.00     0.038 A 
ATOM     12  C26 ZIN A   1      18.275   4.242  17.003  0.00  0.00     0.004 A 
ATOM     13  C27 ZIN A   1      18.017   4.359  15.645  0.00  0.00     0.017 A 
ATOM     14  C28 ZIN A   1      18.358   3.326  14.782  0.00  0.00     0.032 A 
ATOM     15  C29 ZIN A   1      18.086   3.435  13.333  0.00  0.00     0.197 C 
ATOM     16  O30 ZIN A   1      17.798   4.508  12.839  0.00  0.00    -0.286 OA
ATOM     17  C31 ZIN A   1      18.861  -0.076  12.204  0.00  0.00     0.090 A 
ATOM     18  C33 ZIN A   1      18.334  -0.069  10.905  0.00  0.00     0.014 A 
ATOM     19  C34 ZIN A   1      18.469  -1.336  10.099  0.00  0.00     0.164 C 
ATOM     20  C56 ZIN A   1      17.500  -1.328   8.919  0.00  0.00     0.083 C 
ENDROOT
BRANCH  19  21
ATOM     21  O36 ZIN A   1      18.184  -2.459  10.934  0.00  0.00    -0.351 OA
BRANCH  21  22
ATOM     22  C37 ZIN A   1      17.022  -3.193  10.546  0.00  0.00     0.263 C 
ATOM     23  O55 ZIN A   1      16.719  -4.169  11.545  0.00  0.00    -0.354 OA
ATOM     24  C52 ZIN A   1      17.772  -5.105  11.785  0.00  0.00     0.151 C 
ATOM     25  C49 ZIN A   1      18.063  -5.883  10.500  0.00  0.00     0.169 C 
ATOM     26  C54 ZIN A   1      17.348  -6.078  12.887  0.00  0.00     0.042 C 
ATOM     27  C40 ZIN A   1      18.428  -4.898   9.386  0.00  0.00     0.120 C 
ATOM     28  C39 ZIN A   1      17.283  -3.895   9.211  0.00  0.00     0.088 C 
BRANCH  25  29
ATOM     29  O51 ZIN A   1      16.906  -6.628  10.117  0.00  0.00    -0.391 OA
ATOM     30  H82 ZIN A   1      16.798  -7.461  10.595  0.00  0.00     0.210 HD
ENDBRANCH  25  29
BRANCH  27  31
ATOM     31  N42 ZIN A   1      18.637  -5.627   8.132  0.00  0.00    -0.346 N 
ATOM     32  C43 ZIN A   1      17.589  -5.904   7.332  0.00  0.00     0.325 C 
ATOM     33  O44 ZIN A   1      16.474  -5.551   7.649  0.00  0.00    -0.263 OA
ATOM     34  H81 ZIN A   1      19.530  -5.908   7.879  0.00  0.00     0.163 HD
BRANCH  32  35
ATOM     35  C45 ZIN A   1      17.805  -6.654   6.042  0.00  0.00     0.472 C 
ATOM     36  F46 ZIN A   1      17.907  -8.023   6.310  0.00  0.00    -0.162 F 
ATOM     37  F47 ZIN A   1      16.725  -6.426   5.183  0.00  0.00    -0.162 F 
ATOM     38  F48 ZIN A   1      18.985  -6.209   5.435  0.00  0.00    -0.162 F 
ENDBRANCH  32  35
ENDBRANCH  27  31
ENDBRANCH  21  22
ENDBRANCH  19  21
BRANCH  17  39
ATOM     39  O32 ZIN A   1      19.450  -1.197  12.687  0.00  0.00    -0.359 OA
ATOM     40  H78 ZIN A   1      20.194  -1.027  13.280  0.00  0.00     0.217 HD
ENDBRANCH  17  39
BRANCH   1  41
ATOM     41  C9  ZIN A   1      19.140   0.219   7.871  0.00  0.00     0.185 C 
ATOM     42  O10 ZIN A   1      19.643   1.290   8.112  0.00  0.00    -0.292 OA
BRANCH  41  43
ATOM     43  C8  ZIN A   1      19.975  -0.891   7.286  0.00  0.00     0.260 C 
BRANCH  43  44
ATOM     44  O7  ZIN A   1      19.436  -1.272   5.993  0.00  0.00    -0.314 OA
BRANCH  44  45
ATOM     45  C5  ZIN A   1      19.458  -2.578   5.683  0.00  0.00     0.259 C 
ATOM     46  O6  ZIN A   1      19.983  -3.367   6.434  0.00  0.00    -0.265 OA
BRANCH  45  47
ATOM     47  C4  ZIN A   1      18.831  -3.061   4.401  0.00  0.00     0.111 C 
BRANCH  47  48
ATOM     48  C3  ZIN A   1      17.317  -2.849   4.462  0.00  0.00     0.009 C 
BRANCH  48  49
ATOM     49  C2  ZIN A   1      16.647  -3.637   3.335  0.00  0.00    -0.004 C 
ATOM     50  C1  ZIN A   1      17.666  -4.584   2.698  0.00  0.00     0.005 C 
ENDBRANCH  48  49
ENDBRANCH  47  48
ENDBRANCH  45  47
ENDBRANCH  44  45
ENDBRANCH  43  44
ENDBRANCH  41  43
ENDBRANCH   1  41
BRANCH   1  51
ATOM     51  O12 ZIN A   1      16.950  -0.061   6.929  0.00  0.00    -0.382 OA
ATOM     52  H68 ZIN A   1      17.126   0.683   6.336  0.00  0.00     0.211 HD
ENDBRANCH   1  51
BRANCH   4  53
ATOM     53  O16 ZIN A   1      17.059   3.330  10.704  0.00  0.00    -0.359 OA
ATOM     54  H71 ZIN A   1      16.535   3.176   9.907  0.00  0.00     0.217 HD
ENDBRANCH   4  53
BRANCH  10  55
ATOM     55  O23 ZIN A   1      19.809   0.941  17.160  0.00  0.00    -0.355 OA
ATOM     56  C24 ZIN A   1      19.168   0.316  18.274  0.00  0.00     0.210 C 
ENDBRANCH  10  55
TORSDOF 16
ENDMDL
MODEL 8
REMARK VINA RESULT:      -5.8      4.079      8.128
REMARK  16 active torsions:
REMARK  status: ('A' for Active; 'I' for Inactive)
REMARK    1  A    between atoms: C2_2  and  C3_3 
REMARK    2  A    between atoms: C3_3  and  C4_4 
REMARK    3  A    between atoms: C4_4  and  C5_5 
REMARK    4  A    between atoms: C5_5  and  O7_7 
REMARK    5  A    between atoms: O7_7  and  C8_8 
REMARK    6  A    between atoms: C8_8  and  C9_9 
REMARK    7  A    between atoms: C9_9  and  C11_11 
REMARK    8  A    between atoms: C11_11  and  O12_12 
REMARK    9  A    between atoms: C15_15  and  O16_16 
REMARK   10  A    between atoms: C22_22  and  O23_23 
REMARK   11  A    between atoms: C31_31  and  O32_32 
REMARK   12  A    between atoms: C34_34  and  O36_35 
REMARK   13  A    between atoms: O36_35  and  C37_36 
REMARK   14  A    between atoms: C40_38  and  N42_39 
REMARK       I    between atoms: N42_39  and  C43_40 
REMARK   15  A    between atoms: C43_40  and  C45_42 
REMARK   16  A    between atoms: C49_46  and  O51_47 
ROOT
ATOM      1  C11 ZIN A   1      17.818  -3.560  11.806  0.00  0.00     0.127 C 
ATOM      2  C13 ZIN A   1      17.219  -4.798  11.143  0.00  0.00     0.088 C 
ATOM      3  C14 ZIN A   1      17.453  -4.772   9.655  0.00  0.00    -0.009 A 
ATOM      4  C15 ZIN A   1      17.312  -5.981   8.961  0.00  0.00     0.088 A 
ATOM      5  C17 ZIN A   1      17.509  -6.031   7.583  0.00  0.00     0.066 A 
ATOM      6  C18 ZIN A   1      17.851  -4.851   6.889  0.00  0.00     0.066 A 
ATOM      7  C19 ZIN A   1      18.054  -4.896   5.428  0.00  0.00     0.200 C 
ATOM      8  O20 ZIN A   1      18.585  -3.965   4.853  0.00  0.00    -0.286 OA
ATOM      9  C21 ZIN A   1      17.607  -6.083   4.675  0.00  0.00     0.062 A 
ATOM     10  C22 ZIN A   1      17.516  -6.048   3.282  0.00  0.00     0.083 A 
ATOM     11  C25 ZIN A   1      17.090  -7.181   2.592  0.00  0.00     0.038 A 
ATOM     12  C26 ZIN A   1      16.760  -8.333   3.276  0.00  0.00     0.004 A 
ATOM     13  C27 ZIN A   1      16.846  -8.380   4.659  0.00  0.00     0.017 A 
ATOM     14  C28 ZIN A   1      17.267  -7.262   5.367  0.00  0.00     0.032 A 
ATOM     15  C29 ZIN A   1      17.361  -7.297   6.842  0.00  0.00     0.197 C 
ATOM     16  O30 ZIN A   1      17.318  -8.357   7.438  0.00  0.00    -0.286 OA
ATOM     17  C31 ZIN A   1      17.991  -3.659   7.594  0.00  0.00     0.090 A 
ATOM     18  C33 ZIN A   1      17.792  -3.626   8.981  0.00  0.00     0.014 A 
ATOM     19  C34 ZIN A   1      17.975  -2.300   9.674  0.00  0.00     0.164 C 
ATOM     20  C56 ZIN A   1      17.320  -2.320  11.053  0.00  0.00     0.083 C 
ENDROOT
BRANCH  19  21
ATOM     21  O36 ZIN A   1      17.377  -1.270   8.885  0.00  0.00    -0.351 OA
BRANCH  21  22
ATOM     22  C37 ZIN A   1      18.317  -0.476   8.157  0.00  0.00     0.263 C 
ATOM     23  O55 ZIN A   1      19.624  -0.664   8.704  0.00  0.00    -0.354 OA
ATOM     24  C52 ZIN A   1      19.733  -0.319  10.086  0.00  0.00     0.151 C 
ATOM     25  C49 ZIN A   1      19.400   1.164  10.269  0.00  0.00     0.169 C 
ATOM     26  C54 ZIN A   1      21.160  -0.585  10.568  0.00  0.00     0.042 C 
ATOM     27  C40 ZIN A   1      17.993   1.434   9.729  0.00  0.00     0.120 C 
ATOM     28  C39 ZIN A   1      17.928   1.000   8.262  0.00  0.00     0.088 C 
BRANCH  25  29
ATOM     29  O51 ZIN A   1      20.347   1.959   9.552  0.00  0.00    -0.391 OA
ATOM     30  H82 ZIN A   1      21.080   1.454   9.176  0.00  0.00     0.210 HD
ENDBRANCH  25  29
BRANCH  27  31
ATOM     31  N42 ZIN A   1      17.692   2.865   9.831  0.00  0.00    -0.346 N 
ATOM     32  C43 ZIN A   1      17.372   3.403  11.024  0.00  0.00     0.325 C 
ATOM     33  O44 ZIN A   1      17.332   2.703  12.013  0.00  0.00    -0.263 OA
ATOM     34  H81 ZIN A   1      17.725   3.424   9.039  0.00  0.00     0.163 HD
BRANCH  32  35
ATOM     35  C45 ZIN A   1      17.064   4.875  11.128  0.00  0.00     0.472 C 
ATOM     36  F46 ZIN A   1      17.587   5.540  10.014  0.00  0.00    -0.162 F 
ATOM     37  F47 ZIN A   1      15.678   5.059  11.173  0.00  0.00    -0.162 F 
ATOM     38  F48 ZIN A   1      17.641   5.391  12.293  0.00  0.00    -0.162 F 
ENDBRANCH  32  35
ENDBRANCH  27  31
ENDBRANCH  21  22
ENDBRANCH  19  21
BRANCH  17  39
ATOM     39  O32 ZIN A   1      18.321  -2.522   6.933  0.00  0.00    -0.359 OA
ATOM     40  H78 ZIN A   1      17.562  -2.035   6.583  0.00  0.00     0.217 HD
ENDBRANCH  17  39
BRANCH   1  41
ATOM     41  C9  ZIN A   1      19.322  -3.626  11.737  0.00  0.00     0.185 C 
ATOM     42  O10 ZIN A   1      19.861  -4.552  11.180  0.00  0.00    -0.292 OA
BRANCH  41  43
ATOM     43  C8  ZIN A   1      20.153  -2.535  12.362  0.00  0.00     0.260 C 
BRANCH  43  44
ATOM     44  O7  ZIN A   1      19.591  -2.178  13.652  0.00  0.00    -0.314 OA
BRANCH  44  45
ATOM     45  C5  ZIN A   1      19.352  -0.876  13.873  0.00  0.00     0.259 C 
ATOM     46  O6  ZIN A   1      20.216  -0.058  13.660  0.00  0.00    -0.265 OA
BRANCH  45  47
ATOM     47  C4  ZIN A   1      18.006  -0.433  14.387  0.00  0.00     0.111 C 
BRANCH  47  48
ATOM     48  C3  ZIN A   1      18.166   0.166  15.786  0.00  0.00     0.009 C 
BRANCH  48  49
ATOM     49  C2  ZIN A   1      18.489  -0.947  16.783  0.00  0.00    -0.004 C 
ATOM     50  C1  ZIN A   1      19.182  -0.349  18.010  0.00  0.00     0.005 C 
ENDBRANCH  48  49
ENDBRANCH  47  48
ENDBRANCH  45  47
ENDBRANCH  44  45
ENDBRANCH  43  44
ENDBRANCH  41  43
ENDBRANCH   1  41
BRANCH   1  51
ATOM     51  O12 ZIN A   1      17.401  -3.494  13.171  0.00  0.00    -0.382 OA
ATOM     52  H68 ZIN A   1      17.808  -4.163  13.739  0.00  0.00     0.211 HD
ENDBRANCH   1  51
BRANCH   4  53
ATOM     53  O16 ZIN A   1      16.982  -7.111   9.634  0.00  0.00    -0.359 OA
ATOM     54  H71 ZIN A   1      16.072  -7.404   9.490  0.00  0.00     0.217 HD
ENDBRANCH   4  53
BRANCH  10  55
ATOM     55  O23 ZIN A   1      17.840  -4.919   2.605  0.00  0.00    -0.355 OA
ATOM     56  C24 ZIN A   1      16.816  -4.325   1.806  0.00  0.00     0.210 C 
ENDBRANCH  10  55
TORSDOF 16
ENDMDL
MODEL 9
REMARK VINA RESULT:      -5.7      2.489      5.847
REMARK  16 active torsions:
REMARK  status: ('A' for Active; 'I' for Inactive)
REMARK    1  A    between atoms: C2_2  and  C3_3 
REMARK    2  A    between atoms: C3_3  and  C4_4 
REMARK    3  A    between atoms: C4_4  and  C5_5 
REMARK    4  A    between atoms: C5_5  and  O7_7 
REMARK    5  A    between atoms: O7_7  and  C8_8 
REMARK    6  A    between atoms: C8_8  and  C9_9 
REMARK    7  A    between atoms: C9_9  and  C11_11 
REMARK    8  A    between atoms: C11_11  and  O12_12 
REMARK    9  A    between atoms: C15_15  and  O16_16 
REMARK   10  A    between atoms: C22_22  and  O23_23 
REMARK   11  A    between atoms: C31_31  and  O32_32 
REMARK   12  A    between atoms: C34_34  and  O36_35 
REMARK   13  A    between atoms: O36_35  and  C37_36 
REMARK   14  A    between atoms: C40_38  and  N42_39 
REMARK       I    between atoms: N42_39  and  C43_40 
REMARK   15  A    between atoms: C43_40  and  C45_42 
REMARK   16  A    between atoms: C49_46  and  O51_47 
ROOT
ATOM      1  C11 ZIN A   1      17.773  -0.459  14.653  0.00  0.00     0.127 C 
ATOM      2  C13 ZIN A   1      17.097  -1.434  13.693  0.00  0.00     0.088 C 
ATOM      3  C14 ZIN A   1      17.735  -1.369  12.330  0.00  0.00    -0.009 A 
ATOM      4  C15 ZIN A   1      17.500  -2.441  11.458  0.00  0.00     0.088 A 
ATOM      5  C17 ZIN A   1      18.054  -2.445  10.180  0.00  0.00     0.066 A 
ATOM      6  C18 ZIN A   1      18.855  -1.360   9.768  0.00  0.00     0.066 A 
ATOM      7  C19 ZIN A   1      19.439  -1.356   8.414  0.00  0.00     0.200 C 
ATOM      8  O20 ZIN A   1      20.322  -0.569   8.127  0.00  0.00    -0.286 OA
ATOM      9  C21 ZIN A   1      18.942  -2.318   7.412  0.00  0.00     0.062 A 
ATOM     10  C22 ZIN A   1      19.254  -2.162   6.060  0.00  0.00     0.083 A 
ATOM     11  C25 ZIN A   1      18.772  -3.082   5.131  0.00  0.00     0.038 A 
ATOM     12  C26 ZIN A   1      17.992  -4.144   5.540  0.00  0.00     0.004 A 
ATOM     13  C27 ZIN A   1      17.675  -4.310   6.880  0.00  0.00     0.017 A 
ATOM     14  C28 ZIN A   1      18.143  -3.404   7.822  0.00  0.00     0.032 A 
ATOM     15  C29 ZIN A   1      17.811  -3.567   9.254  0.00  0.00     0.197 C 
ATOM     16  O30 ZIN A   1      17.345  -4.613   9.663  0.00  0.00    -0.286 OA
ATOM     17  C31 ZIN A   1      19.082  -0.305  10.647  0.00  0.00     0.090 A 
ATOM     18  C33 ZIN A   1      18.519  -0.316  11.931  0.00  0.00     0.014 A 
ATOM     19  C34 ZIN A   1      18.822   0.856  12.829  0.00  0.00     0.164 C 
ATOM     20  C56 ZIN A   1      17.826   0.921  13.984  0.00  0.00     0.083 C 
ENDROOT
BRANCH  19  21
ATOM     21  O36 ZIN A   1      18.741   2.064  12.070  0.00  0.00    -0.351 OA
BRANCH  21  22
ATOM     22  C37 ZIN A   1      17.409   2.440  11.716  0.00  0.00     0.263 C 
ATOM     23  O55 ZIN A   1      17.365   2.793  10.332  0.00  0.00    -0.354 OA
ATOM     24  C52 ZIN A   1      18.237   3.868   9.975  0.00  0.00     0.151 C 
ATOM     25  C49 ZIN A   1      17.837   5.125  10.750  0.00  0.00     0.169 C 
ATOM     26  C54 ZIN A   1      18.127   4.137   8.473  0.00  0.00     0.042 C 
ATOM     27  C40 ZIN A   1      17.891   4.830  12.252  0.00  0.00     0.120 C 
ATOM     28  C39 ZIN A   1      16.976   3.641  12.561  0.00  0.00     0.088 C 
BRANCH  25  29
ATOM     29  O51 ZIN A   1      16.510   5.510  10.387  0.00  0.00    -0.391 OA
ATOM     30  H82 ZIN A   1      16.229   5.185   9.522  0.00  0.00     0.210 HD
ENDBRANCH  25  29
BRANCH  27  31
ATOM     31  N42 ZIN A   1      17.439   6.005  13.002  0.00  0.00    -0.346 N 
ATOM     32  C43 ZIN A   1      18.044   6.339  14.159  0.00  0.00     0.325 C 
ATOM     33  O44 ZIN A   1      18.962   5.667  14.580  0.00  0.00    -0.263 OA
ATOM     34  H81 ZIN A   1      16.705   6.541  12.665  0.00  0.00     0.163 HD
BRANCH  32  35
ATOM     35  C45 ZIN A   1      17.578   7.547  14.930  0.00  0.00     0.472 C 
ATOM     36  F46 ZIN A   1      17.701   8.687  14.128  0.00  0.00    -0.162 F 
ATOM     37  F47 ZIN A   1      16.240   7.378  15.300  0.00  0.00    -0.162 F 
ATOM     38  F48 ZIN A   1      18.364   7.699  16.078  0.00  0.00    -0.162 F 
ENDBRANCH  32  35
ENDBRANCH  27  31
ENDBRANCH  21  22
ENDBRANCH  19  21
BRANCH  17  39
ATOM     39  O32 ZIN A   1      19.852   0.741  10.259  0.00  0.00    -0.359 OA
ATOM     40  H78 ZIN A   1      19.380   1.407   9.741  0.00  0.00     0.217 HD
ENDBRANCH  17  39
BRANCH   1  41
ATOM     41  C9  ZIN A   1      19.172  -0.931  14.953  0.00  0.00     0.185 C 
ATOM     42  O10 ZIN A   1      19.621  -1.893  14.379  0.00  0.00    -0.292 OA
BRANCH  41  43
ATOM     43  C8  ZIN A   1      20.012  -0.201  15.970  0.00  0.00     0.260 C 
BRANCH  43  44
ATOM     44  O7  ZIN A   1      19.279   0.950  16.466  0.00  0.00    -0.314 OA
BRANCH  44  45
ATOM     45  C5  ZIN A   1      19.153   1.066  17.797  0.00  0.00     0.259 C 
ATOM     46  O6  ZIN A   1      20.003   0.609  18.526  0.00  0.00    -0.265 OA
BRANCH  45  47
ATOM     47  C4  ZIN A   1      17.955   1.765  18.384  0.00  0.00     0.111 C 
BRANCH  47  48
ATOM     48  C3  ZIN A   1      18.340   3.190  18.785  0.00  0.00     0.009 C 
BRANCH  48  49
ATOM     49  C2  ZIN A   1      18.088   4.136  17.610  0.00  0.00    -0.004 C 
ATOM     50  C1  ZIN A   1      17.394   5.403  18.115  0.00  0.00     0.005 C 
ENDBRANCH  48  49
ENDBRANCH  47  48
ENDBRANCH  45  47
ENDBRANCH  44  45
ENDBRANCH  43  44
ENDBRANCH  41  43
ENDBRANCH   1  41
BRANCH   1  51
ATOM     51  O12 ZIN A   1      17.022  -0.377  15.866  0.00  0.00    -0.382 OA
ATOM     52  H68 ZIN A   1      17.324  -0.982  16.557  0.00  0.00     0.211 HD
ENDBRANCH   1  51
BRANCH   4  53
ATOM     53  O16 ZIN A   1      16.728  -3.480  11.860  0.00  0.00    -0.359 OA
ATOM     54  H71 ZIN A   1      16.181  -3.288  12.634  0.00  0.00     0.217 HD
ENDBRANCH   4  53
BRANCH  10  55
ATOM     55  O23 ZIN A   1      20.022  -1.121   5.653  0.00  0.00    -0.355 OA
ATOM     56  C24 ZIN A   1      19.403  -0.151   4.806  0.00  0.00     0.210 C 
ENDBRANCH  10  55
TORSDOF 16
ENDMDL
