MODEL 1
REMARK VINA RESULT:      -6.5      0.000      0.000
REMARK  7 active torsions:
REMARK  status: ('A' for Active; 'I' for Inactive)
REMARK    1  A    between atoms: C2_2  and  N4_4 
REMARK    2  A    between atoms: N4_4  and  C7_7 
REMARK    3  A    between atoms: C7_7  and  C8_8 
REMARK    4  A    between atoms: C8_8  and  O10_9 
REMARK    5  A    between atoms: C8_8  and  C11_10 
REMARK    6  A    between atoms: C11_10  and  O12_11 
REMARK    7  A    between atoms: O12_11  and  C13_12 
ROOT
ATOM      1  C11 <0> d   1      19.420   0.671  12.745  0.00  0.00     0.209 C 
ENDROOT
BRANCH   1   2
ATOM      2  C8  <0> d   1      20.454   0.601  11.619  0.00  0.00     0.168 C 
BRANCH   2   3
ATOM      3  C7  <0> d   1      20.278  -0.708  10.847  0.00  0.00     0.266 C 
BRANCH   3   4
ATOM      4  N4  <0> d   1      20.159  -1.823  11.796  0.00  0.00    -0.069 N 
ATOM      5  H5  <0> d   1      19.735  -1.494  12.650  0.00  0.00     0.277 HD
ATOM      6  H6  <0> d   1      21.075  -2.195  11.995  0.00  0.00     0.277 HD
BRANCH   4   7
ATOM      7  C2  <0> d   1      19.320  -2.877  11.208  0.00  0.00     0.178 C 
ATOM      8  C1  <0> d   1      19.982  -4.239  11.427  0.00  0.00     0.039 C 
ATOM      9  C3  <0> d   1      17.944  -2.866  11.878  0.00  0.00     0.039 C 
ENDBRANCH   4   7
ENDBRANCH   3   4
ENDBRANCH   2   3
BRANCH   2  10
ATOM     10  O10 <0> d   1      21.769   0.653  12.176  0.00  0.00    -0.392 OA
ATOM     11  H31 <0> d   1      22.282  -0.156  12.049  0.00  0.00     0.210 HD
ENDBRANCH   2  10
ENDBRANCH   1   2
BRANCH   1  12
ATOM     12  O12 <0> d   1      20.048   0.354  13.989  0.00  0.00    -0.348 OA
BRANCH  12  13
ATOM     13  C13 <0> d   1      19.233   0.058  15.035  0.00  0.00     0.081 A 
ATOM     14  C21 <0> d   1      18.743  -1.224  15.192  0.00  0.00     0.038 A 
ATOM     15  C20 <0> d   1      17.916  -1.530  16.264  0.00  0.00     0.005 A 
ATOM     16  C19 <0> d   1      17.559  -0.564  17.177  0.00  0.00     0.030 A 
ATOM     17  C18 <0> d   1      18.034   0.737  17.035  0.00  0.00     0.045 A 
ATOM     18  C14 <0> d   1      18.879   1.051  15.956  0.00  0.00     0.025 A 
ATOM     19  N17 <0> d   1      17.861   1.892  17.765  0.00  0.00    -0.365 N 
ATOM     20  C15 <0> d   1      19.198   2.474  16.091  0.00  0.00     0.033 A 
ATOM     21  C16 <0> d   1      18.562   2.917  17.187  0.00  0.00     0.089 A 
ATOM     22  H36 <0> d   1      17.322   1.968  18.568  0.00  0.00     0.165 HD
ENDBRANCH  12  13
ENDBRANCH   1  12
TORSDOF 7
ENDMDL
MODEL 2
REMARK VINA RESULT:      -6.4      3.956      7.884
REMARK  7 active torsions:
REMARK  status: ('A' for Active; 'I' for Inactive)
REMARK    1  A    between atoms: C2_2  and  N4_4 
REMARK    2  A    between atoms: N4_4  and  C7_7 
REMARK    3  A    between atoms: C7_7  and  C8_8 
REMARK    4  A    between atoms: C8_8  and  O10_9 
REMARK    5  A    between atoms: C8_8  and  C11_10 
REMARK    6  A    between atoms: C11_10  and  O12_11 
REMARK    7  A    between atoms: O12_11  and  C13_12 
ROOT
ATOM      1  C11 <0> d   1      20.373  -0.412  10.576  0.00  0.00     0.209 C 
ENDROOT
BRANCH   1   2
ATOM      2  C8  <0> d   1      20.489   0.201  11.973  0.00  0.00     0.168 C 
BRANCH   2   3
ATOM      3  C7  <0> d   1      19.563   1.414  12.076  0.00  0.00     0.266 C 
BRANCH   3   4
ATOM      4  N4  <0> d   1      20.255   2.603  11.558  0.00  0.00    -0.069 N 
ATOM      5  H5  <0> d   1      20.689   2.382  10.675  0.00  0.00     0.277 HD
ATOM      6  H6  <0> d   1      20.961   2.895  12.218  0.00  0.00     0.277 HD
BRANCH   4   7
ATOM      7  C2  <0> d   1      19.284   3.690  11.368  0.00  0.00     0.178 C 
ATOM      8  C1  <0> d   1      17.883   3.099  11.202  0.00  0.00     0.039 C 
ATOM      9  C3  <0> d   1      19.307   4.613  12.588  0.00  0.00     0.039 C 
ENDBRANCH   4   7
ENDBRANCH   3   4
ENDBRANCH   2   3
BRANCH   2  10
ATOM     10  O10 <0> d   1      21.838   0.611  12.203  0.00  0.00    -0.392 OA
ATOM     11  H31 <0> d   1      22.460  -0.121  12.311  0.00  0.00     0.210 HD
ENDBRANCH   2  10
ENDBRANCH   1   2
BRANCH   1  12
ATOM     12  O12 <0> d   1      19.117  -0.048   9.999  0.00  0.00    -0.348 OA
BRANCH  12  13
ATOM     13  C13 <0> d   1      19.084   0.121   8.651  0.00  0.00     0.081 A 
ATOM     14  C21 <0> d   1      19.057   1.392   8.110  0.00  0.00     0.038 A 
ATOM     15  C20 <0> d   1      19.031   1.566   6.734  0.00  0.00     0.005 A 
ATOM     16  C19 <0> d   1      19.015   0.481   5.886  0.00  0.00     0.030 A 
ATOM     17  C18 <0> d   1      19.035  -0.810   6.408  0.00  0.00     0.045 A 
ATOM     18  C14 <0> d   1      19.070  -0.992   7.802  0.00  0.00     0.025 A 
ATOM     19  N17 <0> d   1      19.028  -2.062   5.835  0.00  0.00    -0.365 N 
ATOM     20  C15 <0> d   1      19.084  -2.440   8.021  0.00  0.00     0.033 A 
ATOM     21  C16 <0> d   1      19.058  -3.021   6.812  0.00  0.00     0.089 A 
ATOM     22  H36 <0> d   1      19.005  -2.238   4.881  0.00  0.00     0.165 HD
ENDBRANCH  12  13
ENDBRANCH   1  12
TORSDOF 7
ENDMDL
MODEL 3
REMARK VINA RESULT:      -6.3      4.484      7.883
REMARK  7 active torsions:
REMARK  status: ('A' for Active; 'I' for Inactive)
REMARK    1  A    between atoms: C2_2  and  N4_4 
REMARK    2  A    between atoms: N4_4  and  C7_7 
REMARK    3  A    between atoms: C7_7  and  C8_8 
REMARK    4  A    between atoms: C8_8  and  O10_9 
REMARK    5  A    between atoms: C8_8  and  C11_10 
REMARK    6  A    between atoms: C11_10  and  O12_11 
REMARK    7  A    between atoms: O12_11  and  C13_12 
ROOT
ATOM      1  C11 <0> d   1      19.710   0.246  10.026  0.00  0.00     0.209 C 
ENDROOT
BRANCH   1   2
ATOM      2  C8  <0> d   1      20.710  -0.692  10.707  0.00  0.00     0.168 C 
BRANCH   2   3
ATOM      3  C7  <0> d   1      19.952  -1.797  11.444  0.00  0.00     0.266 C 
BRANCH   3   4
ATOM      4  N4  <0> d   1      20.718  -3.049  11.371  0.00  0.00    -0.069 N 
ATOM      5  H5  <0> d   1      21.379  -3.084  12.132  0.00  0.00     0.277 HD
ATOM      6  H6  <0> d   1      21.213  -3.089  10.493  0.00  0.00     0.277 HD
BRANCH   4   7
ATOM      7  C2  <0> d   1      19.799  -4.191  11.468  0.00  0.00     0.178 C 
ATOM      8  C1  <0> d   1      18.397  -3.690  11.820  0.00  0.00     0.039 C 
ATOM      9  C3  <0> d   1      19.756  -4.926  10.127  0.00  0.00     0.039 C 
ENDBRANCH   4   7
ENDBRANCH   3   4
ENDBRANCH   2   3
BRANCH   2  10
ATOM     10  O10 <0> d   1      21.499   0.049  11.640  0.00  0.00    -0.392 OA
ATOM     11  H31 <0> d   1      21.007   0.731  12.117  0.00  0.00     0.210 HD
ENDBRANCH   2  10
ENDBRANCH   1   2
BRANCH   1  12
ATOM     12  O12 <0> d   1      18.841  -0.515   9.184  0.00  0.00    -0.348 OA
BRANCH  12  13
ATOM     13  C13 <0> d   1      18.956  -0.323   7.845  0.00  0.00     0.081 A 
ATOM     14  C21 <0> d   1      18.925   0.954   7.320  0.00  0.00     0.038 A 
ATOM     15  C20 <0> d   1      19.051   1.152   5.952  0.00  0.00     0.005 A 
ATOM     16  C19 <0> d   1      19.193   0.083   5.096  0.00  0.00     0.030 A 
ATOM     17  C18 <0> d   1      19.220  -1.214   5.600  0.00  0.00     0.045 A 
ATOM     18  C14 <0> d   1      19.102  -1.420   6.986  0.00  0.00     0.025 A 
ATOM     19  N17 <0> d   1      19.347  -2.454   5.015  0.00  0.00    -0.365 N 
ATOM     20  C15 <0> d   1      19.166  -2.869   7.188  0.00  0.00     0.033 A 
ATOM     21  C16 <0> d   1      19.313  -3.428   5.977  0.00  0.00     0.089 A 
ATOM     22  H36 <0> d   1      19.446  -2.613   4.063  0.00  0.00     0.165 HD
ENDBRANCH  12  13
ENDBRANCH   1  12
TORSDOF 7
ENDMDL
MODEL 4
REMARK VINA RESULT:      -6.3      1.709      2.413
REMARK  7 active torsions:
REMARK  status: ('A' for Active; 'I' for Inactive)
REMARK    1  A    between atoms: C2_2  and  N4_4 
REMARK    2  A    between atoms: N4_4  and  C7_7 
REMARK    3  A    between atoms: C7_7  and  C8_8 
REMARK    4  A    between atoms: C8_8  and  O10_9 
REMARK    5  A    between atoms: C8_8  and  C11_10 
REMARK    6  A    between atoms: C11_10  and  O12_11 
REMARK    7  A    between atoms: O12_11  and  C13_12 
ROOT
ATOM      1  C11 <0> d   1      19.401   0.003  12.920  0.00  0.00     0.209 C 
ENDROOT
BRANCH   1   2
ATOM      2  C8  <0> d   1      20.329   0.477  11.799  0.00  0.00     0.168 C 
BRANCH   2   3
ATOM      3  C7  <0> d   1      20.331  -0.553  10.669  0.00  0.00     0.266 C 
BRANCH   3   4
ATOM      4  N4  <0> d   1      20.248   0.139   9.375  0.00  0.00    -0.069 N 
ATOM      5  H5  <0> d   1      20.210  -0.542   8.632  0.00  0.00     0.277 HD
ATOM      6  H6  <0> d   1      21.060   0.725   9.255  0.00  0.00     0.277 HD
BRANCH   4   7
ATOM      7  C2  <0> d   1      19.036   0.969   9.342  0.00  0.00     0.178 C 
ATOM      8  C1  <0> d   1      19.153   1.998   8.216  0.00  0.00     0.039 C 
ATOM      9  C3  <0> d   1      17.816   0.079   9.094  0.00  0.00     0.039 C 
ENDBRANCH   4   7
ENDBRANCH   3   4
ENDBRANCH   2   3
BRANCH   2  10
ATOM     10  O10 <0> d   1      21.655   0.627  12.310  0.00  0.00    -0.392 OA
ATOM     11  H31 <0> d   1      22.141   1.372  11.931  0.00  0.00     0.210 HD
ENDBRANCH   2  10
ENDBRANCH   1   2
BRANCH   1  12
ATOM     12  O12 <0> d   1      19.404   0.962  13.979  0.00  0.00    -0.348 OA
BRANCH  12  13
ATOM     13  C13 <0> d   1      19.250   0.487  15.243  0.00  0.00     0.081 A 
ATOM     14  C21 <0> d   1      19.127  -0.871  15.464  0.00  0.00     0.038 A 
ATOM     15  C20 <0> d   1      18.977  -1.359  16.754  0.00  0.00     0.005 A 
ATOM     16  C19 <0> d   1      18.933  -0.501  17.831  0.00  0.00     0.030 A 
ATOM     17  C18 <0> d   1      19.047   0.872  17.632  0.00  0.00     0.045 A 
ATOM     18  C14 <0> d   1      19.208   1.370  16.328  0.00  0.00     0.025 A 
ATOM     19  N17 <0> d   1      19.041   1.954  18.483  0.00  0.00    -0.365 N 
ATOM     20  C15 <0> d   1      19.297   2.827  16.458  0.00  0.00     0.033 A 
ATOM     21  C16 <0> d   1      19.191   3.111  17.766  0.00  0.00     0.089 A 
ATOM     22  H36 <0> d   1      18.945   1.905  19.447  0.00  0.00     0.165 HD
ENDBRANCH  12  13
ENDBRANCH   1  12
TORSDOF 7
ENDMDL
MODEL 5
REMARK VINA RESULT:      -6.2      4.055      8.351
REMARK  7 active torsions:
REMARK  status: ('A' for Active; 'I' for Inactive)
REMARK    1  A    between atoms: C2_2  and  N4_4 
REMARK    2  A    between atoms: N4_4  and  C7_7 
REMARK    3  A    between atoms: C7_7  and  C8_8 
REMARK    4  A    between atoms: C8_8  and  O10_9 
REMARK    5  A    between atoms: C8_8  and  C11_10 
REMARK    6  A    between atoms: C11_10  and  O12_11 
REMARK    7  A    between atoms: O12_11  and  C13_12 
ROOT
ATOM      1  C11 <0> d   1      19.124  -0.393  10.378  0.00  0.00     0.209 C 
ENDROOT
BRANCH   1   2
ATOM      2  C8  <0> d   1      20.212  -0.450  11.452  0.00  0.00     0.168 C 
BRANCH   2   3
ATOM      3  C7  <0> d   1      20.072   0.755  12.384  0.00  0.00     0.266 C 
BRANCH   3   4
ATOM      4  N4  <0> d   1      20.466   1.976  11.667  0.00  0.00    -0.069 N 
ATOM      5  H5  <0> d   1      20.600   1.764  10.690  0.00  0.00     0.277 HD
ATOM      6  H6  <0> d   1      21.326   2.332  12.056  0.00  0.00     0.277 HD
BRANCH   4   7
ATOM      7  C2  <0> d   1      19.409   2.987  11.807  0.00  0.00     0.178 C 
ATOM      8  C1  <0> d   1      20.020   4.299  12.305  0.00  0.00     0.039 C 
ATOM      9  C3  <0> d   1      18.741   3.218  10.450  0.00  0.00     0.039 C 
ENDBRANCH   4   7
ENDBRANCH   3   4
ENDBRANCH   2   3
BRANCH   2  10
ATOM     10  O10 <0> d   1      21.498  -0.424  10.830  0.00  0.00    -0.392 OA
ATOM     11  H31 <0> d   1      22.052  -1.189  11.037  0.00  0.00     0.210 HD
ENDBRANCH   2  10
ENDBRANCH   1   2
BRANCH   1  12
ATOM     12  O12 <0> d   1      19.510  -1.201   9.264  0.00  0.00    -0.348 OA
BRANCH  12  13
ATOM     13  C13 <0> d   1      19.305  -0.683   8.025  0.00  0.00     0.081 A 
ATOM     14  C21 <0> d   1      19.143   0.679   7.860  0.00  0.00     0.038 A 
ATOM     15  C20 <0> d   1      18.941   1.211   6.594  0.00  0.00     0.005 A 
ATOM     16  C19 <0> d   1      18.885   0.394   5.487  0.00  0.00     0.030 A 
ATOM     17  C18 <0> d   1      19.039  -0.982   5.630  0.00  0.00     0.045 A 
ATOM     18  C14 <0> d   1      19.252  -1.526   6.909  0.00  0.00     0.025 A 
ATOM     19  N17 <0> d   1      19.033  -2.032   4.738  0.00  0.00    -0.365 N 
ATOM     20  C15 <0> d   1      19.373  -2.973   6.720  0.00  0.00     0.033 A 
ATOM     21  C16 <0> d   1      19.234  -3.211   5.406  0.00  0.00     0.089 A 
ATOM     22  H36 <0> d   1      18.906  -1.949   3.780  0.00  0.00     0.165 HD
ENDBRANCH  12  13
ENDBRANCH   1  12
TORSDOF 7
ENDMDL
MODEL 6
REMARK VINA RESULT:      -6.2      3.027      4.632
REMARK  7 active torsions:
REMARK  status: ('A' for Active; 'I' for Inactive)
REMARK    1  A    between atoms: C2_2  and  N4_4 
REMARK    2  A    between atoms: N4_4  and  C7_7 
REMARK    3  A    between atoms: C7_7  and  C8_8 
REMARK    4  A    between atoms: C8_8  and  O10_9 
REMARK    5  A    between atoms: C8_8  and  C11_10 
REMARK    6  A    between atoms: C11_10  and  O12_11 
REMARK    7  A    between atoms: O12_11  and  C13_12 
ROOT
ATOM      1  C11 <0> d   1      19.663   1.278  11.209  0.00  0.00     0.209 C 
ENDROOT
BRANCH   1   2
ATOM      2  C8  <0> d   1      20.391   0.288  12.121  0.00  0.00     0.168 C 
BRANCH   2   3
ATOM      3  C7  <0> d   1      19.767   0.328  13.517  0.00  0.00     0.266 C 
BRANCH   3   4
ATOM      4  N4  <0> d   1      19.839  -1.009  14.123  0.00  0.00    -0.069 N 
ATOM      5  H5  <0> d   1      20.673  -1.078  14.687  0.00  0.00     0.277 HD
ATOM      6  H6  <0> d   1      19.864  -1.707  13.396  0.00  0.00     0.277 HD
BRANCH   4   7
ATOM      7  C2  <0> d   1      18.657  -1.226  14.969  0.00  0.00     0.178 C 
ATOM      8  C1  <0> d   1      19.104  -1.554  16.396  0.00  0.00     0.039 C 
ATOM      9  C3  <0> d   1      17.800   0.042  14.983  0.00  0.00     0.039 C 
ENDBRANCH   4   7
ENDBRANCH   3   4
ENDBRANCH   2   3
BRANCH   2  10
ATOM     10  O10 <0> d   1      21.772   0.645  12.205  0.00  0.00    -0.392 OA
ATOM     11  H31 <0> d   1      21.928   1.535  12.547  0.00  0.00     0.210 HD
ENDBRANCH   2  10
ENDBRANCH   1   2
BRANCH   1  12
ATOM     12  O12 <0> d   1      19.891   2.610  11.673  0.00  0.00    -0.348 OA
BRANCH  12  13
ATOM     13  C13 <0> d   1      18.818   3.442  11.715  0.00  0.00     0.081 A 
ATOM     14  C21 <0> d   1      18.190   3.827  10.547  0.00  0.00     0.038 A 
ATOM     15  C20 <0> d   1      17.089   4.669  10.589  0.00  0.00     0.005 A 
ATOM     16  C19 <0> d   1      16.612   5.147  11.789  0.00  0.00     0.030 A 
ATOM     17  C18 <0> d   1      17.232   4.779  12.980  0.00  0.00     0.045 A 
ATOM     18  C14 <0> d   1      18.344   3.918  12.943  0.00  0.00     0.025 A 
ATOM     19  N17 <0> d   1      16.996   5.082  14.303  0.00  0.00    -0.365 N 
ATOM     20  C15 <0> d   1      18.756   3.728  14.337  0.00  0.00     0.033 A 
ATOM     21  C16 <0> d   1      17.914   4.446  15.096  0.00  0.00     0.089 A 
ATOM     22  H36 <0> d   1      16.286   5.659  14.624  0.00  0.00     0.165 HD
ENDBRANCH  12  13
ENDBRANCH   1  12
TORSDOF 7
ENDMDL
MODEL 7
REMARK VINA RESULT:      -6.2      4.377      6.925
REMARK  7 active torsions:
REMARK  status: ('A' for Active; 'I' for Inactive)
REMARK    1  A    between atoms: C2_2  and  N4_4 
REMARK    2  A    between atoms: N4_4  and  C7_7 
REMARK    3  A    between atoms: C7_7  and  C8_8 
REMARK    4  A    between atoms: C8_8  and  O10_9 
REMARK    5  A    between atoms: C8_8  and  C11_10 
REMARK    6  A    between atoms: C11_10  and  O12_11 
REMARK    7  A    between atoms: O12_11  and  C13_12 
ROOT
ATOM      1  C11 <0> d   1      19.612  -1.621  11.702  0.00  0.00     0.209 C 
ENDROOT
BRANCH   1   2
ATOM      2  C8  <0> d   1      20.394  -0.317  11.522  0.00  0.00     0.168 C 
BRANCH   2   3
ATOM      3  C7  <0> d   1      19.605   0.629  10.615  0.00  0.00     0.266 C 
BRANCH   3   4
ATOM      4  N4  <0> d   1      20.021   0.429   9.220  0.00  0.00    -0.069 N 
ATOM      5  H5  <0> d   1      19.595  -0.411   8.858  0.00  0.00     0.277 HD
ATOM      6  H6  <0> d   1      21.026   0.343   9.177  0.00  0.00     0.277 HD
BRANCH   4   7
ATOM      7  C2  <0> d   1      19.594   1.580   8.413  0.00  0.00     0.178 C 
ATOM      8  C1  <0> d   1      18.806   1.088   7.197  0.00  0.00     0.039 C 
ATOM      9  C3  <0> d   1      18.706   2.495   9.259  0.00  0.00     0.039 C 
ENDBRANCH   4   7
ENDBRANCH   3   4
ENDBRANCH   2   3
BRANCH   2  10
ATOM     10  O10 <0> d   1      21.662  -0.600  10.927  0.00  0.00    -0.392 OA
ATOM     11  H31 <0> d   1      22.306  -0.985  11.537  0.00  0.00     0.210 HD
ENDBRANCH   2  10
ENDBRANCH   1   2
BRANCH   1  12
ATOM     12  O12 <0> d   1      18.425  -1.578  10.908  0.00  0.00    -0.348 OA
BRANCH  12  13
ATOM     13  C13 <0> d   1      17.890  -2.769  10.532  0.00  0.00     0.081 A 
ATOM     14  C21 <0> d   1      17.274  -3.579  11.466  0.00  0.00     0.038 A 
ATOM     15  C20 <0> d   1      16.720  -4.792  11.082  0.00  0.00     0.005 A 
ATOM     16  C19 <0> d   1      16.789  -5.216   9.774  0.00  0.00     0.030 A 
ATOM     17  C18 <0> d   1      17.411  -4.420   8.817  0.00  0.00     0.045 A 
ATOM     18  C14 <0> d   1      17.966  -3.186   9.198  0.00  0.00     0.025 A 
ATOM     19  N17 <0> d   1      17.632  -4.565   7.465  0.00  0.00    -0.365 N 
ATOM     20  C15 <0> d   1      18.535  -2.603   7.980  0.00  0.00     0.033 A 
ATOM     21  C16 <0> d   1      18.303  -3.472   6.984  0.00  0.00     0.089 A 
ATOM     22  H36 <0> d   1      17.355  -5.327   6.933  0.00  0.00     0.165 HD
ENDBRANCH  12  13
ENDBRANCH   1  12
TORSDOF 7
ENDMDL
MODEL 8
REMARK VINA RESULT:      -5.9      4.399      8.453
REMARK  7 active torsions:
REMARK  status: ('A' for Active; 'I' for Inactive)
REMARK    1  A    between atoms: C2_2  and  N4_4 
REMARK    2  A    between atoms: N4_4  and  C7_7 
REMARK    3  A    between atoms: C7_7  and  C8_8 
REMARK    4  A    between atoms: C8_8  and  O10_9 
REMARK    5  A    between atoms: C8_8  and  C11_10 
REMARK    6  A    between atoms: C11_10  and  O12_11 
REMARK    7  A    between atoms: O12_11  and  C13_12 
ROOT
ATOM      1  C11 <0> d   1      19.290  -1.542   9.899  0.00  0.00     0.209 C 
ENDROOT
BRANCH   1   2
ATOM      2  C8  <0> d   1      20.095  -0.773  10.950  0.00  0.00     0.168 C 
BRANCH   2   3
ATOM      3  C7  <0> d   1      19.419   0.571  11.227  0.00  0.00     0.266 C 
BRANCH   3   4
ATOM      4  N4  <0> d   1      18.095   0.593  10.590  0.00  0.00    -0.069 N 
ATOM      5  H5  <0> d   1      17.387   0.386  11.278  0.00  0.00     0.277 HD
ATOM      6  H6  <0> d   1      18.063  -0.099   9.856  0.00  0.00     0.277 HD
BRANCH   4   7
ATOM      7  C2  <0> d   1      17.849   1.924  10.019  0.00  0.00     0.178 C 
ATOM      8  C1  <0> d   1      17.768   2.956  11.145  0.00  0.00     0.039 C 
ATOM      9  C3  <0> d   1      18.993   2.292   9.072  0.00  0.00     0.039 C 
ENDBRANCH   4   7
ENDBRANCH   3   4
ENDBRANCH   2   3
BRANCH   2  10
ATOM     10  O10 <0> d   1      21.420  -0.548  10.464  0.00  0.00    -0.392 OA
ATOM     11  H31 <0> d   1      21.456  -0.212   9.559  0.00  0.00     0.210 HD
ENDBRANCH   2  10
ENDBRANCH   1   2
BRANCH   1  12
ATOM     12  O12 <0> d   1      19.606  -1.042   8.598  0.00  0.00    -0.348 OA
BRANCH  12  13
ATOM     13  C13 <0> d   1      19.341  -1.857   7.544  0.00  0.00     0.081 A 
ATOM     14  C21 <0> d   1      19.291  -3.226   7.718  0.00  0.00     0.038 A 
ATOM     15  C20 <0> d   1      19.012  -4.059   6.644  0.00  0.00     0.005 A 
ATOM     16  C19 <0> d   1      18.797  -3.539   5.387  0.00  0.00     0.030 A 
ATOM     17  C18 <0> d   1      18.850  -2.163   5.185  0.00  0.00     0.045 A 
ATOM     18  C14 <0> d   1      19.123  -1.314   6.272  0.00  0.00     0.025 A 
ATOM     19  N17 <0> d   1      18.682  -1.363   4.076  0.00  0.00    -0.365 N 
ATOM     20  C15 <0> d   1      19.107   0.049   5.735  0.00  0.00     0.033 A 
ATOM     21  C16 <0> d   1      18.839  -0.048   4.424  0.00  0.00     0.089 A 
ATOM     22  H36 <0> d   1      18.483  -1.684   3.183  0.00  0.00     0.165 HD
ENDBRANCH  12  13
ENDBRANCH   1  12
TORSDOF 7
ENDMDL
MODEL 9
REMARK VINA RESULT:      -5.9      2.312      6.199
REMARK  7 active torsions:
REMARK  status: ('A' for Active; 'I' for Inactive)
REMARK    1  A    between atoms: C2_2  and  N4_4 
REMARK    2  A    between atoms: N4_4  and  C7_7 
REMARK    3  A    between atoms: C7_7  and  C8_8 
REMARK    4  A    between atoms: C8_8  and  O10_9 
REMARK    5  A    between atoms: C8_8  and  C11_10 
REMARK    6  A    between atoms: C11_10  and  O12_11 
REMARK    7  A    between atoms: O12_11  and  C13_12 
ROOT
ATOM      1  C11 <0> d   1      18.838   2.723  13.662  0.00  0.00     0.209 C 
ENDROOT
BRANCH   1   2
ATOM      2  C8  <0> d   1      18.613   2.136  15.057  0.00  0.00     0.168 C 
BRANCH   2   3
ATOM      3  C7  <0> d   1      17.879   0.799  14.935  0.00  0.00     0.266 C 
BRANCH   3   4
ATOM      4  N4  <0> d   1      17.009   0.611  16.105  0.00  0.00    -0.069 N 
ATOM      5  H5  <0> d   1      16.062   0.449  15.797  0.00  0.00     0.277 HD
ATOM      6  H6  <0> d   1      17.039   1.437  16.683  0.00  0.00     0.277 HD
BRANCH   4   7
ATOM      7  C2  <0> d   1      17.476  -0.547  16.880  0.00  0.00     0.178 C 
ATOM      8  C1  <0> d   1      18.340  -1.442  15.990  0.00  0.00     0.039 C 
ATOM      9  C3  <0> d   1      18.304  -0.061  18.072  0.00  0.00     0.039 C 
ENDBRANCH   4   7
ENDBRANCH   3   4
ENDBRANCH   2   3
BRANCH   2  10
ATOM     10  O10 <0> d   1      17.828   3.041  15.835  0.00  0.00    -0.392 OA
ATOM     11  H31 <0> d   1      17.143   2.613  16.365  0.00  0.00     0.210 HD
ENDBRANCH   2  10
ENDBRANCH   1   2
BRANCH   1  12
ATOM     12  O12 <0> d   1      17.975   2.072  12.727  0.00  0.00    -0.348 OA
BRANCH  12  13
ATOM     13  C13 <0> d   1      18.415   1.977  11.445  0.00  0.00     0.081 A 
ATOM     14  C21 <0> d   1      18.041   2.922  10.510  0.00  0.00     0.038 A 
ATOM     15  C20 <0> d   1      18.496   2.831   9.202  0.00  0.00     0.005 A 
ATOM     16  C19 <0> d   1      19.311   1.792   8.810  0.00  0.00     0.030 A 
ATOM     17  C18 <0> d   1      19.695   0.823   9.733  0.00  0.00     0.045 A 
ATOM     18  C14 <0> d   1      19.244   0.916  11.061  0.00  0.00     0.025 A 
ATOM     19  N17 <0> d   1      20.482  -0.304   9.648  0.00  0.00    -0.365 N 
ATOM     20  C15 <0> d   1      19.816  -0.235  11.765  0.00  0.00     0.033 A 
ATOM     21  C16 <0> d   1      20.542  -0.922  10.869  0.00  0.00     0.089 A 
ATOM     22  H36 <0> d   1      20.926  -0.614   8.844  0.00  0.00     0.165 HD
ENDBRANCH  12  13
ENDBRANCH   1  12
TORSDOF 7
ENDMDL
