MODEL 1
REMARK VINA RESULT:      -9.6      0.000      0.000
REMARK  8 active torsions:
REMARK  status: ('A' for Active; 'I' for Inactive)
REMARK    1  A    between atoms: O2_2  and  C3_3 
REMARK    2  A    between atoms: C5_5  and  C6_6 
REMARK    3  A    between atoms: C14_13  and  O16_14 
REMARK    4  A    between atoms: O16_14  and  C17_15 
REMARK    5  A    between atoms: C30_24  and  O32_25 
REMARK    6  A    between atoms: C33_26  and  O35_27 
REMARK    7  A    between atoms: C48_38  and  O49_39 
REMARK    8  A    between atoms: C51_41  and  O52_42 
ROOT
ATOM      1  C6  ZIN A   1      19.426  -1.805  10.116  0.00  0.00     0.066 C 
ATOM      2  C8  ZIN A   1      18.862  -1.350  11.451  0.00  0.00    -0.037 A 
ATOM      3  C9  ZIN A   1      19.492  -1.857  12.588  0.00  0.00     0.048 A 
ATOM      4  C10 ZIN A   1      19.017  -1.459  13.827  0.00  0.00     0.105 A 
ATOM      5  C11 ZIN A   1      17.935  -0.570  13.930  0.00  0.00     0.105 A 
ATOM      6  C12 ZIN A   1      17.314  -0.074  12.798  0.00  0.00     0.050 A 
ATOM      7  C13 ZIN A   1      17.793  -0.485  11.553  0.00  0.00    -0.019 A 
ATOM      8  C14 ZIN A   1      17.059   0.060  10.341  0.00  0.00     0.165 C 
ATOM      9  C36 ZIN A   1      17.380  -0.834   9.158  0.00  0.00     0.058 C 
ATOM     10  C38 ZIN A   1      17.047  -0.241   7.780  0.00  0.00     0.187 C 
ATOM     11  O39 ZIN A   1      18.051  -0.861   6.903  0.00  0.00    -0.321 OA
ATOM     12  C40 ZIN A   1      19.136  -1.247   7.614  0.00  0.00     0.264 C 
ATOM     13  O41 ZIN A   1      20.100  -1.828   7.174  0.00  0.00    -0.265 OA
ATOM     14  C42 ZIN A   1      18.940  -0.844   9.050  0.00  0.00     0.107 C 
ATOM     15  O44 ZIN A   1      17.680  -0.347  15.239  0.00  0.00    -0.323 OA
ATOM     16  C45 ZIN A   1      18.352  -1.407  15.951  0.00  0.00     0.352 C 
ATOM     17  O46 ZIN A   1      19.430  -1.790  15.071  0.00  0.00    -0.323 OA
ENDROOT
BRANCH   8  18
ATOM     18  O16 ZIN A   1      17.492   1.395  10.072  0.00  0.00    -0.348 OA
BRANCH  18  19
ATOM     19  C17 ZIN A   1      17.893   2.122  11.234  0.00  0.00     0.292 C 
ATOM     20  C33 ZIN A   1      19.307   2.668  11.030  0.00  0.00     0.204 C 
ATOM     21  C30 ZIN A   1      19.709   3.519  12.237  0.00  0.00     0.183 C 
ATOM     22  C28 ZIN A   1      18.670   4.627  12.417  0.00  0.00     0.187 C 
ATOM     23  C20 ZIN A   1      17.294   3.976  12.613  0.00  0.00     0.180 C 
ATOM     24  O27 ZIN A   1      18.963   5.426  13.563  0.00  0.00    -0.351 OA
ATOM     25  O19 ZIN A   1      16.981   3.202  11.458  0.00  0.00    -0.348 OA
ATOM     26  C22 ZIN A   1      16.265   5.086  12.832  0.00  0.00     0.205 C 
ATOM     27  O23 ZIN A   1      16.695   5.887  13.940  0.00  0.00    -0.359 OA
ATOM     28  C24 ZIN A   1      17.996   6.457  13.786  0.00  0.00     0.256 C 
ATOM     29  C26 ZIN A   1      18.364   7.229  15.055  0.00  0.00     0.070 C 
BRANCH  20  30
ATOM     30  O35 ZIN A   1      20.219   1.576  10.895  0.00  0.00    -0.388 OA
ATOM     31  H65 ZIN A   1      21.129   1.843  10.706  0.00  0.00     0.210 HD
ENDBRANCH  20  30
BRANCH  21  32
ATOM     32  O32 ZIN A   1      20.995   4.100  12.011  0.00  0.00    -0.390 OA
ATOM     33  H64 ZIN A   1      21.128   4.947  12.459  0.00  0.00     0.210 HD
ENDBRANCH  21  32
ENDBRANCH  18  19
ENDBRANCH   8  18
BRANCH   1  34
ATOM     34  C5  ZIN A   1      18.940  -3.198   9.806  0.00  0.00    -0.043 A 
ATOM     35  C4  ZIN A   1      19.825  -4.146   9.329  0.00  0.00     0.047 A 
ATOM     36  C3  ZIN A   1      19.382  -5.429   9.043  0.00  0.00     0.104 A 
ATOM     37  C51 ZIN A   1      18.044  -5.758   9.231  0.00  0.00     0.132 A 
ATOM     38  C48 ZIN A   1      17.159  -4.803   9.715  0.00  0.00     0.104 A 
ATOM     39  C47 ZIN A   1      17.610  -3.523   9.998  0.00  0.00     0.047 A 
BRANCH  36  40
ATOM     40  O2  ZIN A   1      20.253  -6.362   8.575  0.00  0.00    -0.353 OA
ATOM     41  C1  ZIN A   1      21.394  -5.882   7.860  0.00  0.00     0.210 C 
ENDBRANCH  36  40
BRANCH  37  42
ATOM     42  O52 ZIN A   1      17.606  -7.015   8.951  0.00  0.00    -0.356 OA
ATOM     43  H74 ZIN A   1      16.937  -7.345   9.565  0.00  0.00     0.218 HD
ENDBRANCH  37  42
BRANCH  38  44
ATOM     44  O49 ZIN A   1      15.851  -5.121   9.905  0.00  0.00    -0.353 OA
ATOM     45  C50 ZIN A   1      15.136  -5.626   8.774  0.00  0.00     0.210 C 
ENDBRANCH  38  44
ENDBRANCH   1  34
TORSDOF 8
ENDMDL
MODEL 2
REMARK VINA RESULT:      -9.2      1.927      9.217
REMARK  8 active torsions:
REMARK  status: ('A' for Active; 'I' for Inactive)
REMARK    1  A    between atoms: O2_2  and  C3_3 
REMARK    2  A    between atoms: C5_5  and  C6_6 
REMARK    3  A    between atoms: C14_13  and  O16_14 
REMARK    4  A    between atoms: O16_14  and  C17_15 
REMARK    5  A    between atoms: C30_24  and  O32_25 
REMARK    6  A    between atoms: C33_26  and  O35_27 
REMARK    7  A    between atoms: C48_38  and  O49_39 
REMARK    8  A    between atoms: C51_41  and  O52_42 
ROOT
ATOM      1  C6  ZIN A   1      19.417   2.119  13.234  0.00  0.00     0.066 C 
ATOM      2  C8  ZIN A   1      18.899   1.661  11.882  0.00  0.00    -0.037 A 
ATOM      3  C9  ZIN A   1      19.557   2.178  10.765  0.00  0.00     0.048 A 
ATOM      4  C10 ZIN A   1      19.124   1.777   9.512  0.00  0.00     0.105 A 
ATOM      5  C11 ZIN A   1      18.057   0.876   9.374  0.00  0.00     0.105 A 
ATOM      6  C12 ZIN A   1      17.407   0.369  10.486  0.00  0.00     0.050 A 
ATOM      7  C13 ZIN A   1      17.844   0.784  11.746  0.00  0.00    -0.019 A 
ATOM      8  C14 ZIN A   1      17.080   0.227  12.934  0.00  0.00     0.165 C 
ATOM      9  C36 ZIN A   1      17.354   1.122  14.128  0.00  0.00     0.058 C 
ATOM     10  C38 ZIN A   1      16.987   0.522  15.494  0.00  0.00     0.187 C 
ATOM     11  O39 ZIN A   1      17.957   1.152  16.402  0.00  0.00    -0.321 OA
ATOM     12  C40 ZIN A   1      19.059   1.552  15.725  0.00  0.00     0.264 C 
ATOM     13  O41 ZIN A   1      20.001   2.143  16.195  0.00  0.00    -0.265 OA
ATOM     14  C42 ZIN A   1      18.911   1.151  14.283  0.00  0.00     0.107 C 
ATOM     15  O44 ZIN A   1      17.843   0.652   8.058  0.00  0.00    -0.323 OA
ATOM     16  C45 ZIN A   1      18.525   1.722   7.369  0.00  0.00     0.352 C 
ATOM     17  O46 ZIN A   1      19.571   2.116   8.281  0.00  0.00    -0.323 OA
ENDROOT
BRANCH   8  18
ATOM     18  O16 ZIN A   1      17.521  -1.103  13.213  0.00  0.00    -0.348 OA
BRANCH  18  19
ATOM     19  C17 ZIN A   1      17.972  -1.820  12.063  0.00  0.00     0.292 C 
ATOM     20  C33 ZIN A   1      19.372  -2.377  12.329  0.00  0.00     0.204 C 
ATOM     21  C30 ZIN A   1      19.826  -3.218  11.133  0.00  0.00     0.183 C 
ATOM     22  C28 ZIN A   1      18.791  -4.316  10.892  0.00  0.00     0.187 C 
ATOM     23  C20 ZIN A   1      17.430  -3.655  10.637  0.00  0.00     0.180 C 
ATOM     24  O27 ZIN A   1      19.133  -5.105   9.752  0.00  0.00    -0.351 OA
ATOM     25  O19 ZIN A   1      17.066  -2.891  11.784  0.00  0.00    -0.348 OA
ATOM     26  C22 ZIN A   1      16.406  -4.755  10.356  0.00  0.00     0.205 C 
ATOM     27  O23 ZIN A   1      16.883  -5.547   9.261  0.00  0.00    -0.359 OA
ATOM     28  C24 ZIN A   1      18.171  -6.128   9.471  0.00  0.00     0.256 C 
ATOM     29  C26 ZIN A   1      18.595  -6.888   8.213  0.00  0.00     0.070 C 
BRANCH  20  30
ATOM     30  O35 ZIN A   1      20.282  -1.292  12.521  0.00  0.00    -0.388 OA
ATOM     31  H65 ZIN A   1      20.097  -0.521  11.968  0.00  0.00     0.210 HD
ENDBRANCH  20  30
BRANCH  21  32
ATOM     32  O32 ZIN A   1      21.096  -3.809  11.414  0.00  0.00    -0.390 OA
ATOM     33  H64 ZIN A   1      21.813  -3.487  10.850  0.00  0.00     0.210 HD
ENDBRANCH  21  32
ENDBRANCH  18  19
ENDBRANCH   8  18
BRANCH   1  34
ATOM     34  C5  ZIN A   1      18.905   3.506  13.532  0.00  0.00    -0.043 A 
ATOM     35  C4  ZIN A   1      17.605   3.843  13.209  0.00  0.00     0.047 A 
ATOM     36  C3  ZIN A   1      17.129   5.117  13.480  0.00  0.00     0.104 A 
ATOM     37  C51 ZIN A   1      17.965   6.057  14.073  0.00  0.00     0.132 A 
ATOM     38  C48 ZIN A   1      19.270   5.711  14.401  0.00  0.00     0.104 A 
ATOM     39  C47 ZIN A   1      19.738   4.436  14.125  0.00  0.00     0.047 A 
BRANCH  36  40
ATOM     40  O2  ZIN A   1      15.849   5.449  13.163  0.00  0.00    -0.353 OA
ATOM     41  C1  ZIN A   1      14.984   5.803  14.244  0.00  0.00     0.210 C 
ENDBRANCH  36  40
BRANCH  37  42
ATOM     42  O52 ZIN A   1      17.503   7.308  14.341  0.00  0.00    -0.356 OA
ATOM     43  H74 ZIN A   1      16.875   7.348  15.074  0.00  0.00     0.218 HD
ENDBRANCH  37  42
BRANCH  38  44
ATOM     44  O49 ZIN A   1      20.090   6.626  14.984  0.00  0.00    -0.353 OA
ATOM     45  C50 ZIN A   1      21.404   6.186  15.340  0.00  0.00     0.210 C 
ENDBRANCH  38  44
ENDBRANCH   1  34
TORSDOF 8
ENDMDL
MODEL 3
REMARK VINA RESULT:      -9.2      1.922      9.060
REMARK  8 active torsions:
REMARK  status: ('A' for Active; 'I' for Inactive)
REMARK    1  A    between atoms: O2_2  and  C3_3 
REMARK    2  A    between atoms: C5_5  and  C6_6 
REMARK    3  A    between atoms: C14_13  and  O16_14 
REMARK    4  A    between atoms: O16_14  and  C17_15 
REMARK    5  A    between atoms: C30_24  and  O32_25 
REMARK    6  A    between atoms: C33_26  and  O35_27 
REMARK    7  A    between atoms: C48_38  and  O49_39 
REMARK    8  A    between atoms: C51_41  and  O52_42 
ROOT
ATOM      1  C6  ZIN A   1      19.403   2.129  13.222  0.00  0.00     0.066 C 
ATOM      2  C8  ZIN A   1      18.886   1.663  11.872  0.00  0.00    -0.037 A 
ATOM      3  C9  ZIN A   1      19.539   2.182  10.753  0.00  0.00     0.048 A 
ATOM      4  C10 ZIN A   1      19.107   1.775   9.501  0.00  0.00     0.105 A 
ATOM      5  C11 ZIN A   1      18.045   0.866   9.368  0.00  0.00     0.105 A 
ATOM      6  C12 ZIN A   1      17.402   0.358  10.482  0.00  0.00     0.050 A 
ATOM      7  C13 ZIN A   1      17.838   0.778  11.740  0.00  0.00    -0.019 A 
ATOM      8  C14 ZIN A   1      17.079   0.219  12.931  0.00  0.00     0.165 C 
ATOM      9  C36 ZIN A   1      17.350   1.119  14.122  0.00  0.00     0.058 C 
ATOM     10  C38 ZIN A   1      16.989   0.520  15.491  0.00  0.00     0.187 C 
ATOM     11  O39 ZIN A   1      17.956   1.159  16.395  0.00  0.00    -0.321 OA
ATOM     12  C40 ZIN A   1      19.053   1.565  15.716  0.00  0.00     0.264 C 
ATOM     13  O41 ZIN A   1      19.993   2.164  16.182  0.00  0.00    -0.265 OA
ATOM     14  C42 ZIN A   1      18.906   1.159  14.274  0.00  0.00     0.107 C 
ATOM     15  O44 ZIN A   1      17.832   0.638   8.052  0.00  0.00    -0.323 OA
ATOM     16  C45 ZIN A   1      18.504   1.711   7.360  0.00  0.00     0.352 C 
ATOM     17  O46 ZIN A   1      19.548   2.114   8.269  0.00  0.00    -0.323 OA
ENDROOT
BRANCH   8  18
ATOM     18  O16 ZIN A   1      17.531  -1.107  13.213  0.00  0.00    -0.348 OA
BRANCH  18  19
ATOM     19  C17 ZIN A   1      17.974  -1.828  12.062  0.00  0.00     0.292 C 
ATOM     20  C33 ZIN A   1      19.377  -2.381  12.318  0.00  0.00     0.204 C 
ATOM     21  C30 ZIN A   1      19.823  -3.226  11.122  0.00  0.00     0.183 C 
ATOM     22  C28 ZIN A   1      18.788  -4.328  10.894  0.00  0.00     0.187 C 
ATOM     23  C20 ZIN A   1      17.423  -3.670  10.648  0.00  0.00     0.180 C 
ATOM     24  O27 ZIN A   1      19.123  -5.120   9.754  0.00  0.00    -0.351 OA
ATOM     25  O19 ZIN A   1      17.068  -2.903  11.795  0.00  0.00    -0.348 OA
ATOM     26  C22 ZIN A   1      16.400  -4.774  10.381  0.00  0.00     0.205 C 
ATOM     27  O23 ZIN A   1      16.870  -5.569   9.285  0.00  0.00    -0.359 OA
ATOM     28  C24 ZIN A   1      18.161  -6.146   9.486  0.00  0.00     0.256 C 
ATOM     29  C26 ZIN A   1      18.576  -6.911   8.227  0.00  0.00     0.070 C 
BRANCH  20  30
ATOM     30  O35 ZIN A   1      20.287  -1.293  12.497  0.00  0.00    -0.388 OA
ATOM     31  H65 ZIN A   1      20.686  -1.255  13.377  0.00  0.00     0.210 HD
ENDBRANCH  20  30
BRANCH  21  32
ATOM     32  O32 ZIN A   1      21.097  -3.813  11.395  0.00  0.00    -0.390 OA
ATOM     33  H64 ZIN A   1      21.796  -3.536  10.785  0.00  0.00     0.210 HD
ENDBRANCH  21  32
ENDBRANCH  18  19
ENDBRANCH   8  18
BRANCH   1  34
ATOM     34  C5  ZIN A   1      18.882   3.512  13.517  0.00  0.00    -0.043 A 
ATOM     35  C4  ZIN A   1      19.707   4.446  14.115  0.00  0.00     0.047 A 
ATOM     36  C3  ZIN A   1      19.232   5.720  14.388  0.00  0.00     0.104 A 
ATOM     37  C51 ZIN A   1      17.921   6.055  14.065  0.00  0.00     0.132 A 
ATOM     38  C48 ZIN A   1      17.097   5.114  13.461  0.00  0.00     0.104 A 
ATOM     39  C47 ZIN A   1      17.580   3.842  13.192  0.00  0.00     0.047 A 
BRANCH  36  40
ATOM     40  O2  ZIN A   1      20.044   6.639  14.975  0.00  0.00    -0.353 OA
ATOM     41  C1  ZIN A   1      21.356   6.205  15.342  0.00  0.00     0.210 C 
ENDBRANCH  36  40
BRANCH  37  42
ATOM     42  O52 ZIN A   1      17.451   7.303  14.333  0.00  0.00    -0.356 OA
ATOM     43  H74 ZIN A   1      17.682   7.631  15.212  0.00  0.00     0.218 HD
ENDBRANCH  37  42
BRANCH  38  44
ATOM     44  O49 ZIN A   1      15.816   5.438  13.140  0.00  0.00    -0.353 OA
ATOM     45  C50 ZIN A   1      14.952   5.811  14.216  0.00  0.00     0.210 C 
ENDBRANCH  38  44
ENDBRANCH   1  34
TORSDOF 8
ENDMDL
MODEL 4
REMARK VINA RESULT:      -9.0      2.347      9.315
REMARK  8 active torsions:
REMARK  status: ('A' for Active; 'I' for Inactive)
REMARK    1  A    between atoms: O2_2  and  C3_3 
REMARK    2  A    between atoms: C5_5  and  C6_6 
REMARK    3  A    between atoms: C14_13  and  O16_14 
REMARK    4  A    between atoms: O16_14  and  C17_15 
REMARK    5  A    between atoms: C30_24  and  O32_25 
REMARK    6  A    between atoms: C33_26  and  O35_27 
REMARK    7  A    between atoms: C48_38  and  O49_39 
REMARK    8  A    between atoms: C51_41  and  O52_42 
ROOT
ATOM      1  C6  ZIN A   1      19.210   2.074  14.715  0.00  0.00     0.066 C 
ATOM      2  C8  ZIN A   1      18.815   1.816  13.271  0.00  0.00    -0.037 A 
ATOM      3  C9  ZIN A   1      19.424   2.630  12.313  0.00  0.00     0.048 A 
ATOM      4  C10 ZIN A   1      19.101   2.421  10.983  0.00  0.00     0.105 A 
ATOM      5  C11 ZIN A   1      18.189   1.420  10.612  0.00  0.00     0.105 A 
ATOM      6  C12 ZIN A   1      17.587   0.620  11.568  0.00  0.00     0.050 A 
ATOM      7  C13 ZIN A   1      17.912   0.841  12.907  0.00  0.00    -0.019 A 
ATOM      8  C14 ZIN A   1      17.201  -0.040  13.920  0.00  0.00     0.165 C 
ATOM      9  C36 ZIN A   1      17.294   0.637  15.275  0.00  0.00     0.058 C 
ATOM     10  C38 ZIN A   1      16.977  -0.262  16.480  0.00  0.00     0.187 C 
ATOM     11  O39 ZIN A   1      17.807   0.312  17.548  0.00  0.00    -0.321 OA
ATOM     12  C40 ZIN A   1      18.857   0.990  17.029  0.00  0.00     0.264 C 
ATOM     13  O41 ZIN A   1      19.681   1.608  17.659  0.00  0.00    -0.265 OA
ATOM     14  C42 ZIN A   1      18.822   0.858  15.530  0.00  0.00     0.107 C 
ATOM     15  O44 ZIN A   1      18.058   1.428   9.267  0.00  0.00    -0.323 OA
ATOM     16  C45 ZIN A   1      18.591   2.697   8.834  0.00  0.00     0.352 C 
ATOM     17  O46 ZIN A   1      19.533   3.052   9.868  0.00  0.00    -0.323 OA
ENDROOT
BRANCH   8  18
ATOM     18  O16 ZIN A   1      17.830  -1.321  13.974  0.00  0.00    -0.348 OA
BRANCH  18  19
ATOM     19  C17 ZIN A   1      18.096  -1.893  12.692  0.00  0.00     0.292 C 
ATOM     20  C33 ZIN A   1      19.564  -2.319  12.620  0.00  0.00     0.204 C 
ATOM     21  C30 ZIN A   1      19.834  -3.009  11.281  0.00  0.00     0.183 C 
ATOM     22  C28 ZIN A   1      18.870  -4.189  11.141  0.00  0.00     0.187 C 
ATOM     23  C20 ZIN A   1      17.434  -3.656  11.226  0.00  0.00     0.180 C 
ATOM     24  O27 ZIN A   1      19.038  -4.844   9.884  0.00  0.00    -0.351 OA
ATOM     25  O19 ZIN A   1      17.249  -3.029  12.493  0.00  0.00    -0.348 OA
ATOM     26  C22 ZIN A   1      16.474  -4.833  11.046  0.00  0.00     0.205 C 
ATOM     27  O23 ZIN A   1      16.783  -5.481   9.805  0.00  0.00    -0.359 OA
ATOM     28  C24 ZIN A   1      18.133  -5.937   9.698  0.00  0.00     0.256 C 
ATOM     29  C26 ZIN A   1      18.353  -6.546   8.312  0.00  0.00     0.070 C 
BRANCH  20  30
ATOM     30  O35 ZIN A   1      20.396  -1.163  12.735  0.00  0.00    -0.388 OA
ATOM     31  H65 ZIN A   1      20.912  -0.969  11.940  0.00  0.00     0.210 HD
ENDBRANCH  20  30
BRANCH  21  32
ATOM     32  O32 ZIN A   1      21.181  -3.484  11.246  0.00  0.00    -0.390 OA
ATOM     33  H64 ZIN A   1      21.545  -3.569  10.354  0.00  0.00     0.210 HD
ENDBRANCH  21  32
ENDBRANCH  18  19
ENDBRANCH   8  18
BRANCH   1  34
ATOM     34  C5  ZIN A   1      18.482   3.288  15.232  0.00  0.00    -0.043 A 
ATOM     35  C4  ZIN A   1      18.618   3.660  16.557  0.00  0.00     0.047 A 
ATOM     36  C3  ZIN A   1      17.951   4.776  17.038  0.00  0.00     0.104 A 
ATOM     37  C51 ZIN A   1      17.139   5.519  16.187  0.00  0.00     0.132 A 
ATOM     38  C48 ZIN A   1      17.010   5.144  14.855  0.00  0.00     0.104 A 
ATOM     39  C47 ZIN A   1      17.680   4.026  14.383  0.00  0.00     0.047 A 
BRANCH  36  40
ATOM     40  O2  ZIN A   1      18.085   5.142  18.340  0.00  0.00    -0.353 OA
ATOM     41  C1  ZIN A   1      17.764   4.158  19.326  0.00  0.00     0.210 C 
ENDBRANCH  36  40
BRANCH  37  42
ATOM     42  O52 ZIN A   1      16.482   6.614  16.655  0.00  0.00    -0.356 OA
ATOM     43  H74 ZIN A   1      16.482   6.691  17.618  0.00  0.00     0.218 HD
ENDBRANCH  37  42
BRANCH  38  44
ATOM     44  O49 ZIN A   1      16.220   5.869  14.018  0.00  0.00    -0.353 OA
ATOM     45  C50 ZIN A   1      16.278   5.543  12.627  0.00  0.00     0.210 C 
ENDBRANCH  38  44
ENDBRANCH   1  34
TORSDOF 8
ENDMDL
MODEL 5
REMARK VINA RESULT:      -8.9      1.798      9.080
REMARK  8 active torsions:
REMARK  status: ('A' for Active; 'I' for Inactive)
REMARK    1  A    between atoms: O2_2  and  C3_3 
REMARK    2  A    between atoms: C5_5  and  C6_6 
REMARK    3  A    between atoms: C14_13  and  O16_14 
REMARK    4  A    between atoms: O16_14  and  C17_15 
REMARK    5  A    between atoms: C30_24  and  O32_25 
REMARK    6  A    between atoms: C33_26  and  O35_27 
REMARK    7  A    between atoms: C48_38  and  O49_39 
REMARK    8  A    between atoms: C51_41  and  O52_42 
ROOT
ATOM      1  C6  ZIN A   1      19.615   0.406  11.525  0.00  0.00     0.066 C 
ATOM      2  C8  ZIN A   1      19.005   0.048  10.181  0.00  0.00    -0.037 A 
ATOM      3  C9  ZIN A   1      19.456   0.786   9.086  0.00  0.00     0.048 A 
ATOM      4  C10 ZIN A   1      18.934   0.485   7.839  0.00  0.00     0.105 A 
ATOM      5  C11 ZIN A   1      17.981  -0.534   7.685  0.00  0.00     0.105 A 
ATOM      6  C12 ZIN A   1      17.536  -1.260   8.777  0.00  0.00     0.050 A 
ATOM      7  C13 ZIN A   1      18.061  -0.946  10.032  0.00  0.00    -0.019 A 
ATOM      8  C14 ZIN A   1      17.518  -1.746  11.202  0.00  0.00     0.165 C 
ATOM      9  C36 ZIN A   1      17.815  -0.975  12.474  0.00  0.00     0.058 C 
ATOM     10  C38 ZIN A   1      17.690  -1.783  13.775  0.00  0.00     0.187 C 
ATOM     11  O39 ZIN A   1      18.671  -1.139  14.660  0.00  0.00    -0.321 OA
ATOM     12  C40 ZIN A   1      19.626  -0.507  13.938  0.00  0.00     0.264 C 
ATOM     13  O41 ZIN A   1      20.535   0.149  14.389  0.00  0.00    -0.265 OA
ATOM     14  C42 ZIN A   1      19.362  -0.746  12.476  0.00  0.00     0.107 C 
ATOM     15  O44 ZIN A   1      17.645  -0.623   6.379  0.00  0.00    -0.323 OA
ATOM     16  C45 ZIN A   1      18.100   0.609   5.779  0.00  0.00     0.352 C 
ATOM     17  O46 ZIN A   1      19.187   1.031   6.628  0.00  0.00    -0.323 OA
ENDROOT
BRANCH   8  18
ATOM     18  O16 ZIN A   1      18.154  -3.025  11.251  0.00  0.00    -0.348 OA
BRANCH  18  19
ATOM     19  C17 ZIN A   1      18.024  -3.785  10.049  0.00  0.00     0.292 C 
ATOM     20  C33 ZIN A   1      19.104  -4.869  10.014  0.00  0.00     0.204 C 
ATOM     21  C30 ZIN A   1      18.918  -5.741   8.770  0.00  0.00     0.183 C 
ATOM     22  C28 ZIN A   1      17.502  -6.320   8.791  0.00  0.00     0.187 C 
ATOM     23  C20 ZIN A   1      16.501  -5.157   8.826  0.00  0.00     0.180 C 
ATOM     24  O27 ZIN A   1      17.249  -7.103   7.625  0.00  0.00    -0.351 OA
ATOM     25  O19 ZIN A   1      16.728  -4.388  10.005  0.00  0.00    -0.348 OA
ATOM     26  C22 ZIN A   1      15.088  -5.739   8.807  0.00  0.00     0.205 C 
ATOM     27  O23 ZIN A   1      14.963  -6.582   7.654  0.00  0.00    -0.359 OA
ATOM     28  C24 ZIN A   1      15.922  -7.639   7.590  0.00  0.00     0.256 C 
ATOM     29  C26 ZIN A   1      15.727  -8.422   6.290  0.00  0.00     0.070 C 
BRANCH  20  30
ATOM     30  O35 ZIN A   1      20.391  -4.250   9.971  0.00  0.00    -0.388 OA
ATOM     31  H65 ZIN A   1      21.109  -4.812  10.294  0.00  0.00     0.210 HD
ENDBRANCH  20  30
BRANCH  21  32
ATOM     32  O32 ZIN A   1      19.871  -6.805   8.779  0.00  0.00    -0.390 OA
ATOM     33  H64 ZIN A   1      20.371  -6.878   9.604  0.00  0.00     0.210 HD
ENDBRANCH  21  32
ENDBRANCH  18  19
ENDBRANCH   8  18
BRANCH   1  34
ATOM     34  C5  ZIN A   1      18.970   1.659  12.060  0.00  0.00    -0.043 A 
ATOM     35  C4  ZIN A   1      19.274   2.101  13.333  0.00  0.00     0.047 A 
ATOM     36  C3  ZIN A   1      18.684   3.253  13.829  0.00  0.00     0.104 A 
ATOM     37  C51 ZIN A   1      17.779   3.961  13.046  0.00  0.00     0.132 A 
ATOM     38  C48 ZIN A   1      17.479   3.515  11.764  0.00  0.00     0.104 A 
ATOM     39  C47 ZIN A   1      18.074   2.362  11.276  0.00  0.00     0.047 A 
BRANCH  36  40
ATOM     40  O2  ZIN A   1      18.984   3.688  15.082  0.00  0.00    -0.353 OA
ATOM     41  C1  ZIN A   1      18.924   2.723  16.135  0.00  0.00     0.210 C 
ENDBRANCH  36  40
BRANCH  37  42
ATOM     42  O52 ZIN A   1      17.196   5.091  13.529  0.00  0.00    -0.356 OA
ATOM     43  H74 ZIN A   1      16.401   4.930  14.053  0.00  0.00     0.218 HD
ENDBRANCH  37  42
BRANCH  38  44
ATOM     44  O49 ZIN A   1      16.598   4.206  10.992  0.00  0.00    -0.353 OA
ATOM     45  C50 ZIN A   1      17.140   5.208  10.128  0.00  0.00     0.210 C 
ENDBRANCH  38  44
ENDBRANCH   1  34
TORSDOF 8
ENDMDL
MODEL 6
REMARK VINA RESULT:      -8.9      1.804      9.119
REMARK  8 active torsions:
REMARK  status: ('A' for Active; 'I' for Inactive)
REMARK    1  A    between atoms: O2_2  and  C3_3 
REMARK    2  A    between atoms: C5_5  and  C6_6 
REMARK    3  A    between atoms: C14_13  and  O16_14 
REMARK    4  A    between atoms: O16_14  and  C17_15 
REMARK    5  A    between atoms: C30_24  and  O32_25 
REMARK    6  A    between atoms: C33_26  and  O35_27 
REMARK    7  A    between atoms: C48_38  and  O49_39 
REMARK    8  A    between atoms: C51_41  and  O52_42 
ROOT
ATOM      1  C6  ZIN A   1      19.627   0.448  11.492  0.00  0.00     0.066 C 
ATOM      2  C8  ZIN A   1      19.019   0.085  10.148  0.00  0.00    -0.037 A 
ATOM      3  C9  ZIN A   1      19.463   0.829   9.053  0.00  0.00     0.048 A 
ATOM      4  C10 ZIN A   1      18.943   0.523   7.806  0.00  0.00     0.105 A 
ATOM      5  C11 ZIN A   1      18.001  -0.506   7.652  0.00  0.00     0.105 A 
ATOM      6  C12 ZIN A   1      17.564  -1.238   8.743  0.00  0.00     0.050 A 
ATOM      7  C13 ZIN A   1      18.087  -0.919   9.998  0.00  0.00    -0.019 A 
ATOM      8  C14 ZIN A   1      17.553  -1.726  11.168  0.00  0.00     0.165 C 
ATOM      9  C36 ZIN A   1      17.842  -0.953  12.441  0.00  0.00     0.058 C 
ATOM     10  C38 ZIN A   1      17.726  -1.764  13.741  0.00  0.00     0.187 C 
ATOM     11  O39 ZIN A   1      18.701  -1.110  14.626  0.00  0.00    -0.321 OA
ATOM     12  C40 ZIN A   1      19.649  -0.467  13.904  0.00  0.00     0.264 C 
ATOM     13  O41 ZIN A   1      20.550   0.199  14.355  0.00  0.00    -0.265 OA
ATOM     14  C42 ZIN A   1      19.387  -0.707  12.442  0.00  0.00     0.107 C 
ATOM     15  O44 ZIN A   1      17.665  -0.597   6.346  0.00  0.00    -0.323 OA
ATOM     16  C45 ZIN A   1      18.106   0.640   5.747  0.00  0.00     0.352 C 
ATOM     17  O46 ZIN A   1      19.189   1.073   6.596  0.00  0.00    -0.323 OA
ENDROOT
BRANCH   8  18
ATOM     18  O16 ZIN A   1      18.203  -2.998  11.216  0.00  0.00    -0.348 OA
BRANCH  18  19
ATOM     19  C17 ZIN A   1      18.057  -3.770  10.023  0.00  0.00     0.292 C 
ATOM     20  C33 ZIN A   1      19.131  -4.860   9.989  0.00  0.00     0.204 C 
ATOM     21  C30 ZIN A   1      18.928  -5.743   8.755  0.00  0.00     0.183 C 
ATOM     22  C28 ZIN A   1      17.510  -6.315   8.798  0.00  0.00     0.187 C 
ATOM     23  C20 ZIN A   1      16.515  -5.148   8.830  0.00  0.00     0.180 C 
ATOM     24  O27 ZIN A   1      17.241  -7.110   7.643  0.00  0.00    -0.351 OA
ATOM     25  O19 ZIN A   1      16.757  -4.368   9.999  0.00  0.00    -0.348 OA
ATOM     26  C22 ZIN A   1      15.099  -5.724   8.832  0.00  0.00     0.205 C 
ATOM     27  O23 ZIN A   1      14.958  -6.578   7.690  0.00  0.00    -0.359 OA
ATOM     28  C24 ZIN A   1      15.912  -7.640   7.627  0.00  0.00     0.256 C 
ATOM     29  C26 ZIN A   1      15.700  -8.435   6.337  0.00  0.00     0.070 C 
BRANCH  20  30
ATOM     30  O35 ZIN A   1      20.421  -4.247   9.926  0.00  0.00    -0.388 OA
ATOM     31  H65 ZIN A   1      20.830  -4.101  10.791  0.00  0.00     0.210 HD
ENDBRANCH  20  30
BRANCH  21  32
ATOM     32  O32 ZIN A   1      19.877  -6.812   8.766  0.00  0.00    -0.390 OA
ATOM     33  H64 ZIN A   1      19.493  -7.680   8.582  0.00  0.00     0.210 HD
ENDBRANCH  21  32
ENDBRANCH  18  19
ENDBRANCH   8  18
BRANCH   1  34
ATOM     34  C5  ZIN A   1      18.968   1.694  12.028  0.00  0.00    -0.043 A 
ATOM     35  C4  ZIN A   1      18.087   2.403  11.234  0.00  0.00     0.047 A 
ATOM     36  C3  ZIN A   1      17.478   3.549  11.722  0.00  0.00     0.104 A 
ATOM     37  C51 ZIN A   1      17.761   3.988  13.011  0.00  0.00     0.132 A 
ATOM     38  C48 ZIN A   1      18.644   3.269  13.807  0.00  0.00     0.104 A 
ATOM     39  C47 ZIN A   1      19.248   2.125  13.311  0.00  0.00     0.047 A 
BRANCH  36  40
ATOM     40  O2  ZIN A   1      16.610   4.246  10.941  0.00  0.00    -0.353 OA
ATOM     41  C1  ZIN A   1      17.171   5.227  10.066  0.00  0.00     0.210 C 
ENDBRANCH  36  40
BRANCH  37  42
ATOM     42  O52 ZIN A   1      17.166   5.113  13.494  0.00  0.00    -0.356 OA
ATOM     43  H74 ZIN A   1      17.476   5.376  14.370  0.00  0.00     0.218 HD
ENDBRANCH  37  42
BRANCH  38  44
ATOM     44  O49 ZIN A   1      18.920   3.692  15.070  0.00  0.00    -0.353 OA
ATOM     45  C50 ZIN A   1      18.900   2.705  16.104  0.00  0.00     0.210 C 
ENDBRANCH  38  44
ENDBRANCH   1  34
TORSDOF 8
ENDMDL
MODEL 7
REMARK VINA RESULT:      -8.8      2.156      3.560
REMARK  8 active torsions:
REMARK  status: ('A' for Active; 'I' for Inactive)
REMARK    1  A    between atoms: O2_2  and  C3_3 
REMARK    2  A    between atoms: C5_5  and  C6_6 
REMARK    3  A    between atoms: C14_13  and  O16_14 
REMARK    4  A    between atoms: O16_14  and  C17_15 
REMARK    5  A    between atoms: C30_24  and  O32_25 
REMARK    6  A    between atoms: C33_26  and  O35_27 
REMARK    7  A    between atoms: C48_38  and  O49_39 
REMARK    8  A    between atoms: C51_41  and  O52_42 
ROOT
ATOM      1  C6  ZIN A   1      19.714   0.419  11.677  0.00  0.00     0.066 C 
ATOM      2  C8  ZIN A   1      19.206   0.328  13.106  0.00  0.00    -0.037 A 
ATOM      3  C9  ZIN A   1      19.773  -0.674  13.896  0.00  0.00     0.048 A 
ATOM      4  C10 ZIN A   1      19.348  -0.786  15.209  0.00  0.00     0.105 A 
ATOM      5  C11 ZIN A   1      18.376   0.086  15.727  0.00  0.00     0.105 A 
ATOM      6  C12 ZIN A   1      17.817   1.075  14.936  0.00  0.00     0.050 A 
ATOM      7  C13 ZIN A   1      18.245   1.177  13.612  0.00  0.00    -0.019 A 
ATOM      8  C14 ZIN A   1      17.578   2.255  12.775  0.00  0.00     0.165 C 
ATOM      9  C36 ZIN A   1      17.794   1.912  11.314  0.00  0.00     0.058 C 
ATOM     10  C38 ZIN A   1      17.532   3.061  10.327  0.00  0.00     0.187 C 
ATOM     11  O39 ZIN A   1      18.457   2.765   9.223  0.00  0.00    -0.321 OA
ATOM     12  C40 ZIN A   1      19.491   2.005   9.654  0.00  0.00     0.264 C 
ATOM     13  O41 ZIN A   1      20.380   1.565   8.965  0.00  0.00    -0.265 OA
ATOM     14  C42 ZIN A   1      19.342   1.784  11.135  0.00  0.00     0.107 C 
ATOM     15  O44 ZIN A   1      18.148  -0.236  17.020  0.00  0.00    -0.323 OA
ATOM     16  C45 ZIN A   1      18.694  -1.562  17.190  0.00  0.00     0.352 C 
ATOM     17  O46 ZIN A   1      19.720  -1.650  16.179  0.00  0.00    -0.323 OA
ENDROOT
BRANCH   8  18
ATOM     18  O16 ZIN A   1      18.164   3.525  13.068  0.00  0.00    -0.348 OA
BRANCH  18  19
ATOM     19  C17 ZIN A   1      17.706   4.109  14.288  0.00  0.00     0.292 C 
ATOM     20  C33 ZIN A   1      18.876   4.806  14.987  0.00  0.00     0.204 C 
ATOM     21  C30 ZIN A   1      18.374   5.506  16.253  0.00  0.00     0.183 C 
ATOM     22  C28 ZIN A   1      17.260   6.477  15.860  0.00  0.00     0.187 C 
ATOM     23  C20 ZIN A   1      16.143   5.682  15.171  0.00  0.00     0.180 C 
ATOM     24  O27 ZIN A   1      16.714   7.125  17.009  0.00  0.00    -0.351 OA
ATOM     25  O19 ZIN A   1      16.674   5.058  14.004  0.00  0.00    -0.348 OA
ATOM     26  C22 ZIN A   1      15.014   6.650  14.816  0.00  0.00     0.205 C 
ATOM     27  O23 ZIN A   1      14.599   7.318  16.014  0.00  0.00    -0.359 OA
ATOM     28  C24 ZIN A   1      15.644   8.021  16.689  0.00  0.00     0.256 C 
ATOM     29  C26 ZIN A   1      15.093   8.632  17.979  0.00  0.00     0.070 C 
BRANCH  20  30
ATOM     30  O35 ZIN A   1      19.860   3.832  15.342  0.00  0.00    -0.388 OA
ATOM     31  H65 ZIN A   1      19.644   3.326  16.138  0.00  0.00     0.210 HD
ENDBRANCH  20  30
BRANCH  21  32
ATOM     32  O32 ZIN A   1      19.447   6.228  16.861  0.00  0.00    -0.390 OA
ATOM     33  H64 ZIN A   1      19.818   6.925  16.303  0.00  0.00     0.210 HD
ENDBRANCH  21  32
ENDBRANCH  18  19
ENDBRANCH   8  18
BRANCH   1  34
ATOM     34  C5  ZIN A   1      19.069  -0.654  10.839  0.00  0.00    -0.043 A 
ATOM     35  C4  ZIN A   1      19.325  -0.715   9.482  0.00  0.00     0.047 A 
ATOM     36  C3  ZIN A   1      18.735  -1.701   8.706  0.00  0.00     0.104 A 
ATOM     37  C51 ZIN A   1      17.880  -2.626   9.294  0.00  0.00     0.132 A 
ATOM     38  C48 ZIN A   1      17.630  -2.564  10.660  0.00  0.00     0.104 A 
ATOM     39  C47 ZIN A   1      18.223  -1.575  11.428  0.00  0.00     0.047 A 
BRANCH  36  40
ATOM     40  O2  ZIN A   1      18.987  -1.760   7.371  0.00  0.00    -0.353 OA
ATOM     41  C1  ZIN A   1      18.785  -0.562   6.619  0.00  0.00     0.210 C 
ENDBRANCH  36  40
BRANCH  37  42
ATOM     42  O52 ZIN A   1      17.298  -3.595   8.536  0.00  0.00    -0.356 OA
ATOM     43  H74 ZIN A   1      16.378  -3.777   8.769  0.00  0.00     0.218 HD
ENDBRANCH  37  42
BRANCH  38  44
ATOM     44  O49 ZIN A   1      16.797  -3.470  11.240  0.00  0.00    -0.353 OA
ATOM     45  C50 ZIN A   1      17.402  -4.629  11.819  0.00  0.00     0.210 C 
ENDBRANCH  38  44
ENDBRANCH   1  34
TORSDOF 8
ENDMDL
MODEL 8
REMARK VINA RESULT:      -8.8      2.128      3.665
REMARK  8 active torsions:
REMARK  status: ('A' for Active; 'I' for Inactive)
REMARK    1  A    between atoms: O2_2  and  C3_3 
REMARK    2  A    between atoms: C5_5  and  C6_6 
REMARK    3  A    between atoms: C14_13  and  O16_14 
REMARK    4  A    between atoms: O16_14  and  C17_15 
REMARK    5  A    between atoms: C30_24  and  O32_25 
REMARK    6  A    between atoms: C33_26  and  O35_27 
REMARK    7  A    between atoms: C48_38  and  O49_39 
REMARK    8  A    between atoms: C51_41  and  O52_42 
ROOT
ATOM      1  C6  ZIN A   1      19.681   0.206  11.770  0.00  0.00     0.066 C 
ATOM      2  C8  ZIN A   1      19.173   0.167  13.200  0.00  0.00    -0.037 A 
ATOM      3  C9  ZIN A   1      19.709  -0.832  14.015  0.00  0.00     0.048 A 
ATOM      4  C10 ZIN A   1      19.281  -0.897  15.331  0.00  0.00     0.105 A 
ATOM      5  C11 ZIN A   1      18.338   0.017  15.827  0.00  0.00     0.105 A 
ATOM      6  C12 ZIN A   1      17.809   1.003  15.012  0.00  0.00     0.050 A 
ATOM      7  C13 ZIN A   1      18.239   1.057  13.685  0.00  0.00    -0.019 A 
ATOM      8  C14 ZIN A   1      17.606   2.135  12.822  0.00  0.00     0.165 C 
ATOM      9  C36 ZIN A   1      17.809   1.749  11.369  0.00  0.00     0.058 C 
ATOM     10  C38 ZIN A   1      17.582   2.879  10.353  0.00  0.00     0.187 C 
ATOM     11  O39 ZIN A   1      18.496   2.527   9.257  0.00  0.00    -0.321 OA
ATOM     12  C40 ZIN A   1      19.506   1.745   9.707  0.00  0.00     0.264 C 
ATOM     13  O41 ZIN A   1      20.380   1.260   9.030  0.00  0.00    -0.265 OA
ATOM     14  C42 ZIN A   1      19.352   1.567  11.194  0.00  0.00     0.107 C 
ATOM     15  O44 ZIN A   1      18.102  -0.265  17.128  0.00  0.00    -0.323 OA
ATOM     16  C45 ZIN A   1      18.605  -1.602  17.331  0.00  0.00     0.352 C 
ATOM     17  O46 ZIN A   1      19.627  -1.748  16.323  0.00  0.00    -0.323 OA
ENDROOT
BRANCH   8  18
ATOM     18  O16 ZIN A   1      18.231   3.393  13.082  0.00  0.00    -0.348 OA
BRANCH  18  19
ATOM     19  C17 ZIN A   1      17.809   4.012  14.297  0.00  0.00     0.292 C 
ATOM     20  C33 ZIN A   1      18.992   4.747  14.931  0.00  0.00     0.204 C 
ATOM     21  C30 ZIN A   1      18.526   5.484  16.189  0.00  0.00     0.183 C 
ATOM     22  C28 ZIN A   1      17.385   6.426  15.804  0.00  0.00     0.187 C 
ATOM     23  C20 ZIN A   1      16.255   5.594  15.181  0.00  0.00     0.180 C 
ATOM     24  O27 ZIN A   1      16.870   7.106  16.949  0.00  0.00    -0.351 OA
ATOM     25  O19 ZIN A   1      16.754   4.938  14.018  0.00  0.00    -0.348 OA
ATOM     26  C22 ZIN A   1      15.101   6.535  14.835  0.00  0.00     0.205 C 
ATOM     27  O23 ZIN A   1      14.719   7.238  16.024  0.00  0.00    -0.359 OA
ATOM     28  C24 ZIN A   1      15.777   7.977  16.637  0.00  0.00     0.256 C 
ATOM     29  C26 ZIN A   1      15.263   8.623  17.925  0.00  0.00     0.070 C 
BRANCH  20  30
ATOM     30  O35 ZIN A   1      20.001   3.799  15.282  0.00  0.00    -0.388 OA
ATOM     31  H65 ZIN A   1      20.745   4.178  15.771  0.00  0.00     0.210 HD
ENDBRANCH  20  30
BRANCH  21  32
ATOM     32  O32 ZIN A   1      19.609   6.239  16.734  0.00  0.00    -0.390 OA
ATOM     33  H64 ZIN A   1      20.428   6.177  16.224  0.00  0.00     0.210 HD
ENDBRANCH  21  32
ENDBRANCH  18  19
ENDBRANCH   8  18
BRANCH   1  34
ATOM     34  C5  ZIN A   1      19.002  -0.868  10.959  0.00  0.00    -0.043 A 
ATOM     35  C4  ZIN A   1      18.172  -1.781  11.582  0.00  0.00     0.047 A 
ATOM     36  C3  ZIN A   1      17.545  -2.770  10.841  0.00  0.00     0.104 A 
ATOM     37  C51 ZIN A   1      17.758  -2.848   9.468  0.00  0.00     0.132 A 
ATOM     38  C48 ZIN A   1      18.590  -1.925   8.846  0.00  0.00     0.104 A 
ATOM     39  C47 ZIN A   1      19.213  -0.940   9.595  0.00  0.00     0.047 A 
BRANCH  36  40
ATOM     40  O2  ZIN A   1      16.728  -3.667  11.454  0.00  0.00    -0.353 OA
ATOM     41  C1  ZIN A   1      17.336  -4.857  11.960  0.00  0.00     0.210 C 
ENDBRANCH  36  40
BRANCH  37  42
ATOM     42  O52 ZIN A   1      17.146  -3.818   8.737  0.00  0.00    -0.356 OA
ATOM     43  H74 ZIN A   1      16.912  -3.546   7.840  0.00  0.00     0.218 HD
ENDBRANCH  37  42
BRANCH  38  44
ATOM     44  O49 ZIN A   1      18.798  -1.995   7.503  0.00  0.00    -0.353 OA
ATOM     45  C50 ZIN A   1      18.646  -0.783   6.760  0.00  0.00     0.210 C 
ENDBRANCH  38  44
ENDBRANCH   1  34
TORSDOF 8
ENDMDL
MODEL 9
REMARK VINA RESULT:      -8.5      3.023      9.688
REMARK  8 active torsions:
REMARK  status: ('A' for Active; 'I' for Inactive)
REMARK    1  A    between atoms: O2_2  and  C3_3 
REMARK    2  A    between atoms: C5_5  and  C6_6 
REMARK    3  A    between atoms: C14_13  and  O16_14 
REMARK    4  A    between atoms: O16_14  and  C17_15 
REMARK    5  A    between atoms: C30_24  and  O32_25 
REMARK    6  A    between atoms: C33_26  and  O35_27 
REMARK    7  A    between atoms: C48_38  and  O49_39 
REMARK    8  A    between atoms: C51_41  and  O52_42 
ROOT
ATOM      1  C6  ZIN A   1      19.027   3.050  15.979  0.00  0.00     0.066 C 
ATOM      2  C8  ZIN A   1      18.549   3.076  14.538  0.00  0.00    -0.037 A 
ATOM      3  C9  ZIN A   1      18.853   4.229  13.811  0.00  0.00     0.048 A 
ATOM      4  C10 ZIN A   1      18.446   4.290  12.489  0.00  0.00     0.105 A 
ATOM      5  C11 ZIN A   1      17.751   3.222  11.900  0.00  0.00     0.105 A 
ATOM      6  C12 ZIN A   1      17.450   2.084  12.628  0.00  0.00     0.050 A 
ATOM      7  C13 ZIN A   1      17.857   2.032  13.962  0.00  0.00    -0.019 A 
ATOM      8  C14 ZIN A   1      17.476   0.777  14.728  0.00  0.00     0.165 C 
ATOM      9  C36 ZIN A   1      17.557   1.092  16.210  0.00  0.00     0.058 C 
ATOM     10  C38 ZIN A   1      17.581  -0.132  17.139  0.00  0.00     0.187 C 
ATOM     11  O39 ZIN A   1      18.368   0.340  18.287  0.00  0.00    -0.321 OA
ATOM     12  C40 ZIN A   1      19.176   1.364  17.927  0.00  0.00     0.264 C 
ATOM     13  O41 ZIN A   1      19.902   1.986  18.665  0.00  0.00    -0.265 OA
ATOM     14  C42 ZIN A   1      19.013   1.611  16.451  0.00  0.00     0.107 C 
ATOM     15  O44 ZIN A   1      17.479   3.536  10.614  0.00  0.00    -0.323 OA
ATOM     16  C45 ZIN A   1      17.662   4.965  10.518  0.00  0.00     0.352 C 
ATOM     17  O46 ZIN A   1      18.603   5.268  11.569  0.00  0.00    -0.323 OA
ENDROOT
BRANCH   8  18
ATOM     18  O16 ZIN A   1      18.381  -0.280  14.407  0.00  0.00    -0.348 OA
BRANCH  18  19
ATOM     19  C17 ZIN A   1      18.552  -0.493  13.005  0.00  0.00     0.292 C 
ATOM     20  C33 ZIN A   1      20.045  -0.495  12.669  0.00  0.00     0.204 C 
ATOM     21  C30 ZIN A   1      20.237  -0.807  11.183  0.00  0.00     0.183 C 
ATOM     22  C28 ZIN A   1      19.564  -2.146  10.878  0.00  0.00     0.187 C 
ATOM     23  C20 ZIN A   1      18.078  -2.038  11.248  0.00  0.00     0.180 C 
ATOM     24  O27 ZIN A   1      19.664  -2.468   9.491  0.00  0.00    -0.351 OA
ATOM     25  O19 ZIN A   1      17.969  -1.748  12.640  0.00  0.00    -0.348 OA
ATOM     26  C22 ZIN A   1      17.401  -3.365  10.904  0.00  0.00     0.205 C 
ATOM     27  O23 ZIN A   1      17.637  -3.647   9.519  0.00  0.00    -0.359 OA
ATOM     28  C24 ZIN A   1      19.018  -3.701   9.156  0.00  0.00     0.256 C 
ATOM     29  C26 ZIN A   1      19.136  -3.941   7.650  0.00  0.00     0.070 C 
BRANCH  20  30
ATOM     30  O35 ZIN A   1      20.594   0.793  12.959  0.00  0.00    -0.388 OA
ATOM     31  H65 ZIN A   1      21.094   1.180  12.227  0.00  0.00     0.210 HD
ENDBRANCH  20  30
BRANCH  21  32
ATOM     32  O32 ZIN A   1      21.632  -0.893  10.885  0.00  0.00    -0.390 OA
ATOM     33  H64 ZIN A   1      21.873  -0.529  10.023  0.00  0.00     0.210 HD
ENDBRANCH  21  32
ENDBRANCH  18  19
ENDBRANCH   8  18
BRANCH   1  34
ATOM     34  C5  ZIN A   1      18.102   3.876  16.837  0.00  0.00    -0.043 A 
ATOM     35  C4  ZIN A   1      17.243   4.784  16.246  0.00  0.00     0.047 A 
ATOM     36  C3  ZIN A   1      16.391   5.546  17.031  0.00  0.00     0.104 A 
ATOM     37  C51 ZIN A   1      16.406   5.400  18.414  0.00  0.00     0.132 A 
ATOM     38  C48 ZIN A   1      17.268   4.483  19.002  0.00  0.00     0.104 A 
ATOM     39  C47 ZIN A   1      18.117   3.725  18.210  0.00  0.00     0.047 A 
BRANCH  36  40
ATOM     40  O2  ZIN A   1      15.545   6.438  16.450  0.00  0.00    -0.353 OA
ATOM     41  C1  ZIN A   1      15.371   6.340  15.035  0.00  0.00     0.210 C 
ENDBRANCH  36  40
BRANCH  37  42
ATOM     42  O52 ZIN A   1      15.572   6.147  19.187  0.00  0.00    -0.356 OA
ATOM     43  H74 ZIN A   1      15.672   7.100  19.067  0.00  0.00     0.218 HD
ENDBRANCH  37  42
BRANCH  38  44
ATOM     44  O49 ZIN A   1      17.283   4.334  20.354  0.00  0.00    -0.353 OA
ATOM     45  C50 ZIN A   1      18.175   5.175  21.089  0.00  0.00     0.210 C 
ENDBRANCH  38  44
ENDBRANCH   1  34
TORSDOF 8
ENDMDL
