MODEL 1
REMARK VINA RESULT:      -7.6      0.000      0.000
REMARK  2 active torsions:
REMARK  status: ('A' for Active; 'I' for Inactive)
REMARK    1  A    between atoms: N2_2  and  C5_5 
REMARK    2  A    between atoms: C14_13  and  C15_14 
REMARK       I    between atoms: C15_14  and  N16_15 
ROOT
ATOM      1  C5  ZIN A   1      18.594  -3.121   5.668  0.00  0.00     0.190 C 
ATOM      2  C7  ZIN A   1      19.001  -2.244   4.480  0.00  0.00     0.039 C 
ATOM      3  C8  ZIN A   1      18.387  -0.849   4.641  0.00  0.00     0.059 C 
ATOM      4  C9  ZIN A   1      18.703  -0.343   6.029  0.00  0.00     0.017 A 
ATOM      5  C10 ZIN A   1      19.112  -1.135   7.042  0.00  0.00    -0.021 A 
ATOM      6  C11 ZIN A   1      19.310  -2.626   6.931  0.00  0.00     0.074 C 
ATOM      7  C12 ZIN A   1      19.310  -0.282   8.196  0.00  0.00    -0.000 A 
ATOM      8  C13 ZIN A   1      19.723  -0.539   9.502  0.00  0.00     0.031 A 
ATOM      9  C14 ZIN A   1      19.801   0.561  10.362  0.00  0.00     0.032 A 
ATOM     10  C18 ZIN A   1      19.480   1.851   9.930  0.00  0.00     0.019 A 
ATOM     11  C19 ZIN A   1      19.073   2.115   8.649  0.00  0.00     0.031 A 
ATOM     12  C20 ZIN A   1      18.986   1.034   7.770  0.00  0.00     0.043 A 
ATOM     13  N21 ZIN A   1      18.624   0.958   6.459  0.00  0.00    -0.358 N 
ATOM     14  H36 ZIN A   1      18.351   1.710   5.911  0.00  0.00     0.166 HD
ENDROOT
BRANCH   9  15
ATOM     15  C15 ZIN A   1      20.233   0.355  11.759  0.00  0.00     0.249 C 
ATOM     16  N16 ZIN A   1      21.504   0.623  12.119  0.00  0.00    -0.366 N 
ATOM     17  H32 ZIN A   1      22.134   0.952  11.460  0.00  0.00     0.159 HD
ATOM     18  H33 ZIN A   1      21.787   0.488  13.036  0.00  0.00     0.159 HD
ATOM     19  O17 ZIN A   1      19.442  -0.057  12.586  0.00  0.00    -0.268 OA
ENDBRANCH   9  15
BRANCH   1  20
ATOM     20  N2  ZIN A   1      18.976  -4.514   5.403  0.00  0.00    -0.074 N 
ATOM     21  C1  ZIN A   1      19.520  -5.114   6.629  0.00  0.00     0.267 C 
ATOM     22  H3  ZIN A   1      19.677  -4.538   4.677  0.00  0.00     0.277 HD
ATOM     23  H4  ZIN A   1      18.165  -5.035   5.105  0.00  0.00     0.277 HD
ENDBRANCH   1  20
TORSDOF 2
ENDMDL
MODEL 2
REMARK VINA RESULT:      -7.4      2.135      5.964
REMARK  2 active torsions:
REMARK  status: ('A' for Active; 'I' for Inactive)
REMARK    1  A    between atoms: N2_2  and  C5_5 
REMARK    2  A    between atoms: C14_13  and  C15_14 
REMARK       I    between atoms: C15_14  and  N16_15 
ROOT
ATOM      1  C5  ZIN A   1      20.520   0.909  12.081  0.00  0.00     0.190 C 
ATOM      2  C7  ZIN A   1      19.529   2.069  12.204  0.00  0.00     0.039 C 
ATOM      3  C8  ZIN A   1      19.534   2.885  10.907  0.00  0.00     0.059 C 
ATOM      4  C9  ZIN A   1      19.365   1.937   9.742  0.00  0.00     0.017 A 
ATOM      5  C10 ZIN A   1      19.561   0.604   9.826  0.00  0.00    -0.021 A 
ATOM      6  C11 ZIN A   1      19.975  -0.119  11.082  0.00  0.00     0.074 C 
ATOM      7  C12 ZIN A   1      19.300   0.053   8.512  0.00  0.00    -0.000 A 
ATOM      8  C13 ZIN A   1      19.340  -1.245   8.006  0.00  0.00     0.031 A 
ATOM      9  C14 ZIN A   1      19.015  -1.400   6.654  0.00  0.00     0.032 A 
ATOM     10  C18 ZIN A   1      18.669  -0.307   5.854  0.00  0.00     0.019 A 
ATOM     11  C19 ZIN A   1      18.627   0.972   6.342  0.00  0.00     0.031 A 
ATOM     12  C20 ZIN A   1      18.946   1.155   7.688  0.00  0.00     0.043 A 
ATOM     13  N21 ZIN A   1      18.998   2.274   8.465  0.00  0.00    -0.358 N 
ATOM     14  H36 ZIN A   1      18.804   3.174   8.160  0.00  0.00     0.166 HD
ENDROOT
BRANCH   9  15
ATOM     15  C15 ZIN A   1      19.039  -2.751   6.058  0.00  0.00     0.249 C 
ATOM     16  N16 ZIN A   1      17.911  -3.283   5.548  0.00  0.00    -0.366 N 
ATOM     17  H32 ZIN A   1      17.083  -2.778   5.572  0.00  0.00     0.159 HD
ATOM     18  H33 ZIN A   1      17.926  -4.170   5.155  0.00  0.00     0.159 HD
ATOM     19  O17 ZIN A   1      20.077  -3.384   6.027  0.00  0.00    -0.268 OA
ENDBRANCH   9  15
BRANCH   1  20
ATOM     20  N2  ZIN A   1      20.696   0.272  13.393  0.00  0.00    -0.074 N 
ATOM     21  C1  ZIN A   1      19.397  -0.211  13.880  0.00  0.00     0.267 C 
ATOM     22  H3  ZIN A   1      21.071   0.944  14.045  0.00  0.00     0.277 HD
ATOM     23  H4  ZIN A   1      21.333  -0.506  13.307  0.00  0.00     0.277 HD
ENDBRANCH   1  20
TORSDOF 2
ENDMDL
MODEL 3
REMARK VINA RESULT:      -7.4      4.645      7.332
REMARK  2 active torsions:
REMARK  status: ('A' for Active; 'I' for Inactive)
REMARK    1  A    between atoms: N2_2  and  C5_5 
REMARK    2  A    between atoms: C14_13  and  C15_14 
REMARK       I    between atoms: C15_14  and  N16_15 
ROOT
ATOM      1  C5  ZIN A   1      17.829  -0.652  15.347  0.00  0.00     0.190 C 
ATOM      2  C7  ZIN A   1      19.238  -1.238  15.221  0.00  0.00     0.039 C 
ATOM      3  C8  ZIN A   1      19.510  -1.605  13.758  0.00  0.00     0.059 C 
ATOM      4  C9  ZIN A   1      19.163  -0.417  12.892  0.00  0.00     0.017 A 
ATOM      5  C10 ZIN A   1      18.402   0.617  13.307  0.00  0.00    -0.021 A 
ATOM      6  C11 ZIN A   1      17.795   0.730  14.682  0.00  0.00     0.074 C 
ATOM      7  C12 ZIN A   1      18.305   1.545  12.198  0.00  0.00    -0.000 A 
ATOM      8  C13 ZIN A   1      17.659   2.771  12.045  0.00  0.00     0.031 A 
ATOM      9  C14 ZIN A   1      17.791   3.397  10.801  0.00  0.00     0.032 A 
ATOM     10  C18 ZIN A   1      18.533   2.819   9.767  0.00  0.00     0.019 A 
ATOM     11  C19 ZIN A   1      19.171   1.615   9.907  0.00  0.00     0.031 A 
ATOM     12  C20 ZIN A   1      19.055   0.969  11.139  0.00  0.00     0.043 A 
ATOM     13  N21 ZIN A   1      19.557  -0.214  11.594  0.00  0.00    -0.358 N 
ATOM     14  H36 ZIN A   1      20.109  -0.821  11.078  0.00  0.00     0.166 HD
ENDROOT
BRANCH   9  15
ATOM     15  C15 ZIN A   1      17.131   4.698  10.576  0.00  0.00     0.249 C 
ATOM     16  N16 ZIN A   1      17.638   5.564   9.676  0.00  0.00    -0.366 N 
ATOM     17  H32 ZIN A   1      18.436   5.332   9.176  0.00  0.00     0.159 HD
ATOM     18  H33 ZIN A   1      17.205   6.419   9.527  0.00  0.00     0.159 HD
ATOM     19  O17 ZIN A   1      16.131   4.990  11.202  0.00  0.00    -0.268 OA
ENDBRANCH   9  15
BRANCH   1  20
ATOM     20  N2  ZIN A   1      17.476  -0.521  16.766  0.00  0.00    -0.074 N 
ATOM     21  C1  ZIN A   1      18.694  -0.287  17.554  0.00  0.00     0.267 C 
ATOM     22  H3  ZIN A   1      17.030  -1.370  17.081  0.00  0.00     0.277 HD
ATOM     23  H4  ZIN A   1      16.844   0.256  16.886  0.00  0.00     0.277 HD
ENDBRANCH   1  20
TORSDOF 2
ENDMDL
MODEL 4
REMARK VINA RESULT:      -7.3      5.031      7.580
REMARK  2 active torsions:
REMARK  status: ('A' for Active; 'I' for Inactive)
REMARK    1  A    between atoms: N2_2  and  C5_5 
REMARK    2  A    between atoms: C14_13  and  C15_14 
REMARK       I    between atoms: C15_14  and  N16_15 
ROOT
ATOM      1  C5  ZIN A   1      18.026   1.685  11.217  0.00  0.00     0.190 C 
ATOM      2  C7  ZIN A   1      17.225   0.458  10.771  0.00  0.00     0.039 C 
ATOM      3  C8  ZIN A   1      17.868  -0.808  11.346  0.00  0.00     0.059 C 
ATOM      4  C9  ZIN A   1      18.080  -0.609  12.828  0.00  0.00     0.017 A 
ATOM      5  C10 ZIN A   1      18.058   0.597  13.434  0.00  0.00    -0.021 A 
ATOM      6  C11 ZIN A   1      17.821   1.904  12.721  0.00  0.00     0.074 C 
ATOM      7  C12 ZIN A   1      18.298   0.369  14.844  0.00  0.00    -0.000 A 
ATOM      8  C13 ZIN A   1      18.383   1.226  15.940  0.00  0.00     0.031 A 
ATOM      9  C14 ZIN A   1      18.631   0.633  17.182  0.00  0.00     0.032 A 
ATOM     10  C18 ZIN A   1      18.786  -0.750  17.314  0.00  0.00     0.019 A 
ATOM     11  C19 ZIN A   1      18.703  -1.602  16.244  0.00  0.00     0.031 A 
ATOM     12  C20 ZIN A   1      18.457  -1.035  14.992  0.00  0.00     0.043 A 
ATOM     13  N21 ZIN A   1      18.320  -1.591  13.756  0.00  0.00    -0.358 N 
ATOM     14  H36 ZIN A   1      18.383  -2.538  13.559  0.00  0.00     0.166 HD
ENDROOT
BRANCH   9  15
ATOM     15  C15 ZIN A   1      18.732   1.488  18.382  0.00  0.00     0.249 C 
ATOM     16  N16 ZIN A   1      17.651   1.686  19.161  0.00  0.00    -0.366 N 
ATOM     17  H32 ZIN A   1      16.807   1.266  18.934  0.00  0.00     0.159 HD
ATOM     18  H33 ZIN A   1      17.717   2.246  19.950  0.00  0.00     0.159 HD
ATOM     19  O17 ZIN A   1      19.791   2.013  18.666  0.00  0.00    -0.268 OA
ENDBRANCH   9  15
BRANCH   1  20
ATOM     20  N2  ZIN A   1      17.563   2.868  10.482  0.00  0.00    -0.074 N 
ATOM     21  C1  ZIN A   1      17.382   3.986  11.417  0.00  0.00     0.267 C 
ATOM     22  H3  ZIN A   1      16.684   2.661  10.031  0.00  0.00     0.277 HD
ATOM     23  H4  ZIN A   1      18.247   3.121   9.784  0.00  0.00     0.277 HD
ENDBRANCH   1  20
TORSDOF 2
ENDMDL
MODEL 5
REMARK VINA RESULT:      -7.2      3.230      6.721
REMARK  2 active torsions:
REMARK  status: ('A' for Active; 'I' for Inactive)
REMARK    1  A    between atoms: N2_2  and  C5_5 
REMARK    2  A    between atoms: C14_13  and  C15_14 
REMARK       I    between atoms: C15_14  and  N16_15 
ROOT
ATOM      1  C5  ZIN A   1      17.525   3.112  10.980  0.00  0.00     0.190 C 
ATOM      2  C7  ZIN A   1      17.895   2.311  12.232  0.00  0.00     0.039 C 
ATOM      3  C8  ZIN A   1      17.298   0.902  12.131  0.00  0.00     0.059 C 
ATOM      4  C9  ZIN A   1      17.669   0.318  10.788  0.00  0.00     0.017 A 
ATOM      5  C10 ZIN A   1      18.109   1.054   9.746  0.00  0.00    -0.021 A 
ATOM      6  C11 ZIN A   1      18.290   2.550   9.775  0.00  0.00     0.074 C 
ATOM      7  C12 ZIN A   1      18.356   0.136   8.653  0.00  0.00    -0.000 A 
ATOM      8  C13 ZIN A   1      18.816   0.320   7.349  0.00  0.00     0.031 A 
ATOM      9  C14 ZIN A   1      18.934  -0.828   6.560  0.00  0.00     0.032 A 
ATOM     10  C18 ZIN A   1      18.608  -2.094   7.055  0.00  0.00     0.019 A 
ATOM     11  C19 ZIN A   1      18.156  -2.286   8.334  0.00  0.00     0.031 A 
ATOM     12  C20 ZIN A   1      18.028  -1.156   9.144  0.00  0.00     0.043 A 
ATOM     13  N21 ZIN A   1      17.617  -1.006  10.434  0.00  0.00    -0.358 N 
ATOM     14  H36 ZIN A   1      17.330  -1.727  11.016  0.00  0.00     0.166 HD
ENDROOT
BRANCH   9  15
ATOM     15  C15 ZIN A   1      19.416  -0.700   5.169  0.00  0.00     0.249 C 
ATOM     16  N16 ZIN A   1      19.479   0.513   4.587  0.00  0.00    -0.366 N 
ATOM     17  H32 ZIN A   1      19.209   1.303   5.082  0.00  0.00     0.159 HD
ATOM     18  H33 ZIN A   1      19.795   0.598   3.674  0.00  0.00     0.159 HD
ATOM     19  O17 ZIN A   1      19.754  -1.690   4.549  0.00  0.00    -0.268 OA
ENDBRANCH   9  15
BRANCH   1  20
ATOM     20  N2  ZIN A   1      17.885   4.522  11.176  0.00  0.00    -0.074 N 
ATOM     21  C1  ZIN A   1      16.884   5.168  12.034  0.00  0.00     0.267 C 
ATOM     22  H3  ZIN A   1      17.914   4.988  10.281  0.00  0.00     0.277 HD
ATOM     23  H4  ZIN A   1      18.792   4.580  11.615  0.00  0.00     0.277 HD
ENDBRANCH   1  20
TORSDOF 2
ENDMDL
MODEL 6
REMARK VINA RESULT:      -7.0      3.301      5.374
REMARK  2 active torsions:
REMARK  status: ('A' for Active; 'I' for Inactive)
REMARK    1  A    between atoms: N2_2  and  C5_5 
REMARK    2  A    between atoms: C14_13  and  C15_14 
REMARK       I    between atoms: C15_14  and  N16_15 
ROOT
ATOM      1  C5  ZIN A   1      19.025  -3.280  11.515  0.00  0.00     0.190 C 
ATOM      2  C7  ZIN A   1      18.220  -2.328  12.404  0.00  0.00     0.039 C 
ATOM      3  C8  ZIN A   1      18.762  -0.903  12.248  0.00  0.00     0.059 C 
ATOM      4  C9  ZIN A   1      18.852  -0.581  10.775  0.00  0.00     0.017 A 
ATOM      5  C10 ZIN A   1      18.823  -1.514   9.800  0.00  0.00    -0.021 A 
ATOM      6  C11 ZIN A   1      18.698  -2.997  10.043  0.00  0.00     0.074 C 
ATOM      7  C12 ZIN A   1      18.931  -0.813   8.537  0.00  0.00    -0.000 A 
ATOM      8  C13 ZIN A   1      18.953  -1.248   7.213  0.00  0.00     0.031 A 
ATOM      9  C14 ZIN A   1      19.069  -0.259   6.231  0.00  0.00     0.032 A 
ATOM     10  C18 ZIN A   1      19.160   1.096   6.565  0.00  0.00     0.019 A 
ATOM     11  C19 ZIN A   1      19.139   1.534   7.862  0.00  0.00     0.031 A 
ATOM     12  C20 ZIN A   1      19.023   0.567   8.862  0.00  0.00     0.043 A 
ATOM     13  N21 ZIN A   1      18.973   0.667  10.220  0.00  0.00    -0.358 N 
ATOM     14  H36 ZIN A   1      19.017   1.497  10.721  0.00  0.00     0.166 HD
ENDROOT
BRANCH   9  15
ATOM     15  C15 ZIN A   1      19.098  -0.655   4.809  0.00  0.00     0.249 C 
ATOM     16  N16 ZIN A   1      18.123  -0.244   3.975  0.00  0.00    -0.366 N 
ATOM     17  H32 ZIN A   1      17.402   0.312   4.309  0.00  0.00     0.159 HD
ATOM     18  H33 ZIN A   1      18.141  -0.504   3.041  0.00  0.00     0.159 HD
ATOM     19  O17 ZIN A   1      20.002  -1.352   4.390  0.00  0.00    -0.268 OA
ENDBRANCH   9  15
BRANCH   1  20
ATOM     20  N2  ZIN A   1      18.672  -4.669  11.837  0.00  0.00    -0.074 N 
ATOM     21  C1  ZIN A   1      17.244  -4.885  11.568  0.00  0.00     0.267 C 
ATOM     22  H3  ZIN A   1      18.861  -4.846  12.812  0.00  0.00     0.277 HD
ATOM     23  H4  ZIN A   1      19.220  -5.297  11.267  0.00  0.00     0.277 HD
ENDBRANCH   1  20
TORSDOF 2
ENDMDL
MODEL 7
REMARK VINA RESULT:      -6.9      2.411      5.866
REMARK  2 active torsions:
REMARK  status: ('A' for Active; 'I' for Inactive)
REMARK    1  A    between atoms: N2_2  and  C5_5 
REMARK    2  A    between atoms: C14_13  and  C15_14 
REMARK       I    between atoms: C15_14  and  N16_15 
ROOT
ATOM      1  C5  ZIN A   1      18.933   0.465  10.775  0.00  0.00     0.190 C 
ATOM      2  C7  ZIN A   1      18.262   1.807  10.465  0.00  0.00     0.039 C 
ATOM      3  C8  ZIN A   1      18.901   2.419   9.213  0.00  0.00     0.059 C 
ATOM      4  C9  ZIN A   1      18.919   1.373   8.123  0.00  0.00     0.017 A 
ATOM      5  C10 ZIN A   1      18.755   0.053   8.347  0.00  0.00    -0.021 A 
ATOM      6  C11 ZIN A   1      18.533  -0.560   9.707  0.00  0.00     0.074 C 
ATOM      7  C12 ZIN A   1      18.834  -0.610   7.061  0.00  0.00    -0.000 A 
ATOM      8  C13 ZIN A   1      18.735  -1.947   6.678  0.00  0.00     0.031 A 
ATOM      9  C14 ZIN A   1      18.863  -2.218   5.312  0.00  0.00     0.032 A 
ATOM     10  C18 ZIN A   1      19.079  -1.198   4.381  0.00  0.00     0.019 A 
ATOM     11  C19 ZIN A   1      19.176   0.119   4.746  0.00  0.00     0.031 A 
ATOM     12  C20 ZIN A   1      19.053   0.417   6.104  0.00  0.00     0.043 A 
ATOM     13  N21 ZIN A   1      19.099   1.598   6.782  0.00  0.00    -0.358 N 
ATOM     14  H36 ZIN A   1      19.239   2.469   6.377  0.00  0.00     0.166 HD
ENDROOT
BRANCH   9  15
ATOM     15  C15 ZIN A   1      18.768  -3.615   4.843  0.00  0.00     0.249 C 
ATOM     16  N16 ZIN A   1      18.561  -3.874   3.537  0.00  0.00    -0.366 N 
ATOM     17  H32 ZIN A   1      18.474  -3.143   2.905  0.00  0.00     0.159 HD
ATOM     18  H33 ZIN A   1      18.499  -4.791   3.228  0.00  0.00     0.159 HD
ATOM     19  O17 ZIN A   1      18.877  -4.531   5.634  0.00  0.00    -0.268 OA
ENDBRANCH   9  15
BRANCH   1  20
ATOM     20  N2  ZIN A   1      18.496  -0.008  12.095  0.00  0.00    -0.074 N 
ATOM     21  C1  ZIN A   1      17.038  -0.191  12.092  0.00  0.00     0.267 C 
ATOM     22  H3  ZIN A   1      18.748   0.673  12.796  0.00  0.00     0.277 HD
ATOM     23  H4  ZIN A   1      18.944  -0.888  12.304  0.00  0.00     0.277 HD
ENDBRANCH   1  20
TORSDOF 2
ENDMDL
MODEL 8
REMARK VINA RESULT:      -6.9      4.990      9.800
REMARK  2 active torsions:
REMARK  status: ('A' for Active; 'I' for Inactive)
REMARK    1  A    between atoms: N2_2  and  C5_5 
REMARK    2  A    between atoms: C14_13  and  C15_14 
REMARK       I    between atoms: C15_14  and  N16_15 
ROOT
ATOM      1  C5  ZIN A   1      18.443   3.709  17.301  0.00  0.00     0.190 C 
ATOM      2  C7  ZIN A   1      18.747   2.857  18.537  0.00  0.00     0.039 C 
ATOM      3  C8  ZIN A   1      18.088   1.482  18.383  0.00  0.00     0.059 C 
ATOM      4  C9  ZIN A   1      18.461   0.919  17.032  0.00  0.00     0.017 A 
ATOM      5  C10 ZIN A   1      18.959   1.661  16.021  0.00  0.00    -0.021 A 
ATOM      6  C11 ZIN A   1      19.209   3.146  16.098  0.00  0.00     0.074 C 
ATOM      7  C12 ZIN A   1      19.188   0.764  14.907  0.00  0.00    -0.000 A 
ATOM      8  C13 ZIN A   1      19.685   0.963  13.620  0.00  0.00     0.031 A 
ATOM      9  C14 ZIN A   1      19.768  -0.168  12.800  0.00  0.00     0.032 A 
ATOM     10  C18 ZIN A   1      19.372  -1.430  13.252  0.00  0.00     0.019 A 
ATOM     11  C19 ZIN A   1      18.883  -1.636  14.515  0.00  0.00     0.031 A 
ATOM     12  C20 ZIN A   1      18.789  -0.524  15.353  0.00  0.00     0.043 A 
ATOM     13  N21 ZIN A   1      18.356  -0.391  16.639  0.00  0.00    -0.358 N 
ATOM     14  H36 ZIN A   1      18.023  -1.114  17.193  0.00  0.00     0.166 HD
ENDROOT
BRANCH   9  15
ATOM     15  C15 ZIN A   1      20.286  -0.024  11.425  0.00  0.00     0.249 C 
ATOM     16  N16 ZIN A   1      21.502  -0.510  11.108  0.00  0.00    -0.366 N 
ATOM     17  H32 ZIN A   1      22.037  -0.955  11.784  0.00  0.00     0.159 HD
ATOM     18  H33 ZIN A   1      21.843  -0.416  10.205  0.00  0.00     0.159 HD
ATOM     19  O17 ZIN A   1      19.616   0.534  10.577  0.00  0.00    -0.268 OA
ENDBRANCH   9  15
BRANCH   1  20
ATOM     20  N2  ZIN A   1      18.864   5.095  17.546  0.00  0.00    -0.074 N 
ATOM     21  C1  ZIN A   1      17.684   5.971  17.552  0.00  0.00     0.267 C 
ATOM     22  H3  ZIN A   1      19.497   5.387  16.816  0.00  0.00     0.277 HD
ATOM     23  H4  ZIN A   1      19.331   5.153  18.439  0.00  0.00     0.277 HD
ENDBRANCH   1  20
TORSDOF 2
ENDMDL
MODEL 9
REMARK VINA RESULT:      -6.9      5.135      8.882
REMARK  2 active torsions:
REMARK  status: ('A' for Active; 'I' for Inactive)
REMARK    1  A    between atoms: N2_2  and  C5_5 
REMARK    2  A    between atoms: C14_13  and  C15_14 
REMARK       I    between atoms: C15_14  and  N16_15 
ROOT
ATOM      1  C5  ZIN A   1      18.453   0.891  17.664  0.00  0.00     0.190 C 
ATOM      2  C7  ZIN A   1      19.254  -0.415  17.670  0.00  0.00     0.039 C 
ATOM      3  C8  ZIN A   1      18.603  -1.418  16.713  0.00  0.00     0.059 C 
ATOM      4  C9  ZIN A   1      18.378  -0.737  15.383  0.00  0.00     0.017 A 
ATOM      5  C10 ZIN A   1      18.399   0.601  15.212  0.00  0.00    -0.021 A 
ATOM      6  C11 ZIN A   1      18.647   1.597  16.317  0.00  0.00     0.074 C 
ATOM      7  C12 ZIN A   1      18.146   0.854  13.809  0.00  0.00    -0.000 A 
ATOM      8  C13 ZIN A   1      18.055   2.028  13.061  0.00  0.00     0.031 A 
ATOM      9  C14 ZIN A   1      17.794   1.881  11.695  0.00  0.00     0.032 A 
ATOM     10  C18 ZIN A   1      17.634   0.620  11.112  0.00  0.00     0.019 A 
ATOM     11  C19 ZIN A   1      17.722  -0.539  11.838  0.00  0.00     0.031 A 
ATOM     12  C20 ZIN A   1      17.981  -0.420  13.204  0.00  0.00     0.043 A 
ATOM     13  N21 ZIN A   1      18.127  -1.355  14.184  0.00  0.00    -0.358 N 
ATOM     14  H36 ZIN A   1      18.063  -2.314  14.055  0.00  0.00     0.166 HD
ENDROOT
BRANCH   9  15
ATOM     15  C15 ZIN A   1      17.685   3.086  10.848  0.00  0.00     0.249 C 
ATOM     16  N16 ZIN A   1      18.503   3.240   9.788  0.00  0.00    -0.366 N 
ATOM     17  H32 ZIN A   1      19.162   2.560   9.581  0.00  0.00     0.159 HD
ATOM     18  H33 ZIN A   1      18.431   4.031   9.231  0.00  0.00     0.159 HD
ATOM     19  O17 ZIN A   1      16.859   3.939  11.107  0.00  0.00    -0.268 OA
ENDBRANCH   9  15
BRANCH   1  20
ATOM     20  N2  ZIN A   1      18.927   1.762  18.747  0.00  0.00    -0.074 N 
ATOM     21  C1  ZIN A   1      18.742   3.168  18.361  0.00  0.00     0.267 C 
ATOM     22  H3  ZIN A   1      19.906   1.586  18.916  0.00  0.00     0.277 HD
ATOM     23  H4  ZIN A   1      18.401   1.572  19.587  0.00  0.00     0.277 HD
ENDBRANCH   1  20
TORSDOF 2
ENDMDL
