MODEL 1
REMARK VINA RESULT:      -7.4      0.000      0.000
REMARK  3 active torsions:
REMARK  status: ('A' for Active; 'I' for Inactive)
REMARK    1  A    between atoms: C8_8  and  O9_9 
REMARK    2  A    between atoms: C10_10  and  C12_11 
REMARK    3  A    between atoms: C15_14  and  O16_15 
ROOT
ATOM      1  O1  ZIN A   1      18.879   2.797   8.849  0.00  0.00    -0.187 OA
ATOM      2  C2  ZIN A   1      19.070   1.842   9.800  0.00  0.00     0.162 A 
ATOM      3  C3  ZIN A   1      18.514   0.585   9.645  0.00  0.00     0.080 A 
ATOM      4 Cl4  ZIN A   1      17.575   0.237   8.226  0.00  0.00    -0.081 Cl
ATOM      5  C5  ZIN A   1      18.702  -0.399  10.612  0.00  0.00    -0.025 A 
ATOM      6  C6  ZIN A   1      19.453  -0.125  11.728  0.00  0.00    -0.037 A 
ATOM      7  C7  ZIN A   1      20.011   1.142  11.887  0.00  0.00     0.048 A 
ATOM      8  C8  ZIN A   1      19.819   2.126  10.936  0.00  0.00     0.104 A 
ATOM      9  C10 ZIN A   1      19.738  -1.119  12.821  0.00  0.00     0.078 C 
ATOM     10  C19 ZIN A   1      19.583  -2.563  12.373  0.00  0.00     0.246 C 
ATOM     11  N20 ZIN A   1      18.205  -3.018  12.430  0.00  0.00    -0.074 N 
ATOM     12  H21 ZIN A   1      18.178  -3.981  12.080  0.00  0.00     0.277 HD
ATOM     13  H22 ZIN A   1      17.866  -3.063  13.377  0.00  0.00     0.277 HD
ATOM     14  C23 ZIN A   1      17.303  -2.222  11.601  0.00  0.00     0.237 C 
ATOM     15  C24 ZIN A   1      18.047  -1.735  10.360  0.00  0.00     0.068 C 
ENDROOT
BRANCH   9  16
ATOM     16  C12 ZIN A   1      18.900  -0.812  14.035  0.00  0.00    -0.048 A 
ATOM     17  C18 ZIN A   1      17.914   0.154  13.967  0.00  0.00     0.011 A 
ATOM     18  C17 ZIN A   1      17.140   0.434  15.077  0.00  0.00     0.037 A 
ATOM     19  C15 ZIN A   1      17.361  -0.248  16.264  0.00  0.00     0.065 A 
ATOM     20  C14 ZIN A   1      18.355  -1.215  16.332  0.00  0.00     0.037 A 
ATOM     21  C13 ZIN A   1      19.122  -1.494  15.217  0.00  0.00     0.011 A 
BRANCH  19  22
ATOM     22  O16 ZIN A   1      16.605   0.028  17.359  0.00  0.00    -0.361 OA
ATOM     23  H29 ZIN A   1      15.675   0.199  17.161  0.00  0.00     0.217 HD
ENDBRANCH  19  22
ENDBRANCH   9  16
BRANCH   8  24
ATOM     24  O9  ZIN A   1      20.365   3.359  11.106  0.00  0.00    -0.358 OA
ATOM     25  H26 ZIN A   1      19.727   4.041  11.360  0.00  0.00     0.217 HD
ENDBRANCH   8  24
TORSDOF 3
ENDMDL
MODEL 2
REMARK VINA RESULT:      -7.3      3.341      4.804
REMARK  3 active torsions:
REMARK  status: ('A' for Active; 'I' for Inactive)
REMARK    1  A    between atoms: C8_8  and  O9_9 
REMARK    2  A    between atoms: C10_10  and  C12_11 
REMARK    3  A    between atoms: C15_14  and  O16_15 
ROOT
ATOM      1  O1  ZIN A   1      19.716   2.640  12.496  0.00  0.00    -0.187 OA
ATOM      2  C2  ZIN A   1      19.695   1.624  11.592  0.00  0.00     0.162 A 
ATOM      3  C3  ZIN A   1      18.860   1.688  10.492  0.00  0.00     0.080 A 
ATOM      4 Cl4  ZIN A   1      17.841   3.077  10.274  0.00  0.00    -0.081 Cl
ATOM      5  C5  ZIN A   1      18.830   0.652   9.561  0.00  0.00    -0.025 A 
ATOM      6  C6  ZIN A   1      19.642  -0.441   9.729  0.00  0.00    -0.037 A 
ATOM      7  C7  ZIN A   1      20.483  -0.509  10.840  0.00  0.00     0.048 A 
ATOM      8  C8  ZIN A   1      20.509   0.510  11.772  0.00  0.00     0.104 A 
ATOM      9  C10 ZIN A   1      19.707  -1.603   8.775  0.00  0.00     0.078 C 
ATOM     10  C19 ZIN A   1      19.213  -1.260   7.379  0.00  0.00     0.246 C 
ATOM     11  N20 ZIN A   1      17.768  -1.350   7.264  0.00  0.00    -0.074 N 
ATOM     12  H21 ZIN A   1      17.511  -1.070   6.311  0.00  0.00     0.277 HD
ATOM     13  H22 ZIN A   1      17.444  -2.297   7.365  0.00  0.00     0.277 HD
ATOM     14  C23 ZIN A   1      17.062  -0.465   8.188  0.00  0.00     0.237 C 
ATOM     15  C24 ZIN A   1      17.878   0.807   8.400  0.00  0.00     0.068 C 
ENDROOT
BRANCH   9  16
ATOM     16  C12 ZIN A   1      18.984  -2.792   9.353  0.00  0.00    -0.048 A 
ATOM     17  C18 ZIN A   1      18.168  -2.633  10.457  0.00  0.00     0.011 A 
ATOM     18  C17 ZIN A   1      17.499  -3.721  10.987  0.00  0.00     0.037 A 
ATOM     19  C15 ZIN A   1      17.656  -4.975  10.415  0.00  0.00     0.065 A 
ATOM     20  C14 ZIN A   1      18.481  -5.132   9.309  0.00  0.00     0.037 A 
ATOM     21  C13 ZIN A   1      19.142  -4.040   8.782  0.00  0.00     0.011 A 
BRANCH  19  22
ATOM     22  O16 ZIN A   1      17.004  -6.047  10.935  0.00  0.00    -0.361 OA
ATOM     23  H29 ZIN A   1      17.475  -6.884  10.826  0.00  0.00     0.217 HD
ENDBRANCH  19  22
ENDBRANCH   9  16
BRANCH   8  24
ATOM     24  O9  ZIN A   1      21.329   0.430  12.853  0.00  0.00    -0.358 OA
ATOM     25  H26 ZIN A   1      22.101  -0.138  12.720  0.00  0.00     0.217 HD
ENDBRANCH   8  24
TORSDOF 3
ENDMDL
MODEL 3
REMARK VINA RESULT:      -7.3      3.197      6.263
REMARK  3 active torsions:
REMARK  status: ('A' for Active; 'I' for Inactive)
REMARK    1  A    between atoms: C8_8  and  O9_9 
REMARK    2  A    between atoms: C10_10  and  C12_11 
REMARK    3  A    between atoms: C15_14  and  O16_15 
ROOT
ATOM      1  O1  ZIN A   1      18.574  -1.689  14.811  0.00  0.00    -0.187 OA
ATOM      2  C2  ZIN A   1      18.824  -0.920  13.718  0.00  0.00     0.162 A 
ATOM      3  C3  ZIN A   1      18.288   0.351  13.623  0.00  0.00     0.080 A 
ATOM      4 Cl4  ZIN A   1      17.296   0.957  14.913  0.00  0.00    -0.081 Cl
ATOM      5  C5  ZIN A   1      18.537   1.146  12.507  0.00  0.00    -0.025 A 
ATOM      6  C6  ZIN A   1      19.329   0.671  11.492  0.00  0.00    -0.037 A 
ATOM      7  C7  ZIN A   1      19.868  -0.612  11.585  0.00  0.00     0.048 A 
ATOM      8  C8  ZIN A   1      19.616  -1.410  12.684  0.00  0.00     0.104 A 
ATOM      9  C10 ZIN A   1      19.682   1.451  10.255  0.00  0.00     0.078 C 
ATOM     10  C19 ZIN A   1      19.537   2.954  10.435  0.00  0.00     0.246 C 
ATOM     11  N20 ZIN A   1      18.172   3.408  10.235  0.00  0.00    -0.074 N 
ATOM     12  H21 ZIN A   1      18.149   4.419  10.409  0.00  0.00     0.277 HD
ATOM     13  H22 ZIN A   1      17.875   3.289   9.281  0.00  0.00     0.277 HD
ATOM     14  C23 ZIN A   1      17.219   2.783  11.149  0.00  0.00     0.237 C 
ATOM     15  C24 ZIN A   1      17.899   2.514  12.489  0.00  0.00     0.068 C 
ENDROOT
BRANCH   9  16
ATOM     16  C12 ZIN A   1      18.890   0.945   9.077  0.00  0.00    -0.048 A 
ATOM     17  C18 ZIN A   1      17.841   0.068   9.277  0.00  0.00     0.011 A 
ATOM     18  C17 ZIN A   1      17.110  -0.394   8.199  0.00  0.00     0.037 A 
ATOM     19  C15 ZIN A   1      17.437   0.015   6.914  0.00  0.00     0.065 A 
ATOM     20  C14 ZIN A   1      18.495   0.893   6.717  0.00  0.00     0.037 A 
ATOM     21  C13 ZIN A   1      19.218   1.355   7.799  0.00  0.00     0.011 A 
BRANCH  19  22
ATOM     22  O16 ZIN A   1      16.724  -0.441   5.852  0.00  0.00    -0.361 OA
ATOM     23  H29 ZIN A   1      16.613   0.210   5.145  0.00  0.00     0.217 HD
ENDBRANCH  19  22
ENDBRANCH   9  16
BRANCH   8  24
ATOM     24  O9  ZIN A   1      20.143  -2.661  12.759  0.00  0.00    -0.358 OA
ATOM     25  H26 ZIN A   1      20.138  -3.037  13.651  0.00  0.00     0.217 HD
ENDBRANCH   8  24
TORSDOF 3
ENDMDL
MODEL 4
REMARK VINA RESULT:      -7.2      2.971      4.736
REMARK  3 active torsions:
REMARK  status: ('A' for Active; 'I' for Inactive)
REMARK    1  A    between atoms: C8_8  and  O9_9 
REMARK    2  A    between atoms: C10_10  and  C12_11 
REMARK    3  A    between atoms: C15_14  and  O16_15 
ROOT
ATOM      1  O1  ZIN A   1      17.877  -3.457   8.555  0.00  0.00    -0.187 OA
ATOM      2  C2  ZIN A   1      18.396  -2.467   9.330  0.00  0.00     0.162 A 
ATOM      3  C3  ZIN A   1      18.143  -2.441  10.689  0.00  0.00     0.080 A 
ATOM      4 Cl4  ZIN A   1      17.158  -3.684  11.397  0.00  0.00    -0.081 Cl
ATOM      5  C5  ZIN A   1      18.669  -1.431  11.491  0.00  0.00    -0.025 A 
ATOM      6  C6  ZIN A   1      19.455  -0.455  10.932  0.00  0.00    -0.037 A 
ATOM      7  C7  ZIN A   1      19.709  -0.478   9.561  0.00  0.00     0.048 A 
ATOM      8  C8  ZIN A   1      19.181  -1.471   8.759  0.00  0.00     0.104 A 
ATOM      9  C10 ZIN A   1      20.092   0.667  11.707  0.00  0.00     0.078 C 
ATOM     10  C19 ZIN A   1      20.236   0.364  13.189  0.00  0.00     0.246 C 
ATOM     11  N20 ZIN A   1      19.022   0.647  13.934  0.00  0.00    -0.074 N 
ATOM     12  H21 ZIN A   1      19.186   0.383  14.912  0.00  0.00     0.277 HD
ATOM     13  H22 ZIN A   1      18.814   1.631  13.949  0.00  0.00     0.277 HD
ATOM     14  C23 ZIN A   1      17.868  -0.114  13.461  0.00  0.00     0.237 C 
ATOM     15  C24 ZIN A   1      18.328  -1.481  12.960  0.00  0.00     0.068 C 
ENDROOT
BRANCH   9  16
ATOM     16  C12 ZIN A   1      19.349   1.955  11.464  0.00  0.00    -0.048 A 
ATOM     17  C18 ZIN A   1      18.217   1.960  10.670  0.00  0.00     0.011 A 
ATOM     18  C17 ZIN A   1      17.530   3.139  10.450  0.00  0.00     0.037 A 
ATOM     19  C15 ZIN A   1      17.984   4.320  11.017  0.00  0.00     0.065 A 
ATOM     20  C14 ZIN A   1      19.124   4.313  11.810  0.00  0.00     0.037 A 
ATOM     21  C13 ZIN A   1      19.803   3.131  12.030  0.00  0.00     0.011 A 
BRANCH  19  22
ATOM     22  O16 ZIN A   1      17.314   5.482  10.799  0.00  0.00    -0.361 OA
ATOM     23  H29 ZIN A   1      17.077   5.956  11.608  0.00  0.00     0.217 HD
ENDBRANCH  19  22
ENDBRANCH   9  16
BRANCH   8  24
ATOM     24  O9  ZIN A   1      19.432  -1.479   7.423  0.00  0.00    -0.358 OA
ATOM     25  H26 ZIN A   1      18.650  -1.327   6.874  0.00  0.00     0.217 HD
ENDBRANCH   8  24
TORSDOF 3
ENDMDL
MODEL 5
REMARK VINA RESULT:      -7.1      2.836      4.035
REMARK  3 active torsions:
REMARK  status: ('A' for Active; 'I' for Inactive)
REMARK    1  A    between atoms: C8_8  and  O9_9 
REMARK    2  A    between atoms: C10_10  and  C12_11 
REMARK    3  A    between atoms: C15_14  and  O16_15 
ROOT
ATOM      1  O1  ZIN A   1      18.019   3.771  13.613  0.00  0.00    -0.187 OA
ATOM      2  C2  ZIN A   1      18.512   2.710  12.918  0.00  0.00     0.162 A 
ATOM      3  C3  ZIN A   1      18.238   2.573  11.569  0.00  0.00     0.080 A 
ATOM      4 Cl4  ZIN A   1      17.262   3.768  10.772  0.00  0.00    -0.081 Cl
ATOM      5  C5  ZIN A   1      18.737   1.491  10.849  0.00  0.00    -0.025 A 
ATOM      6  C6  ZIN A   1      19.517   0.553  11.478  0.00  0.00    -0.037 A 
ATOM      7  C7  ZIN A   1      19.792   0.688  12.839  0.00  0.00     0.048 A 
ATOM      8  C8  ZIN A   1      19.290   1.753  13.560  0.00  0.00     0.104 A 
ATOM      9  C10 ZIN A   1      20.125  -0.640  10.793  0.00  0.00     0.078 C 
ATOM     10  C19 ZIN A   1      20.252  -0.466   9.288  0.00  0.00     0.246 C 
ATOM     11  N20 ZIN A   1      19.023  -0.791   8.586  0.00  0.00    -0.074 N 
ATOM     12  H21 ZIN A   1      19.176  -0.614   7.587  0.00  0.00     0.277 HD
ATOM     13  H22 ZIN A   1      18.800  -1.770   8.658  0.00  0.00     0.277 HD
ATOM     14  C23 ZIN A   1      17.887   0.025   9.008  0.00  0.00     0.237 C 
ATOM     15  C24 ZIN A   1      18.375   1.422   9.385  0.00  0.00     0.068 C 
ENDROOT
BRANCH   9  16
ATOM     16  C12 ZIN A   1      19.367  -1.891  11.154  0.00  0.00    -0.048 A 
ATOM     17  C18 ZIN A   1      18.045  -1.807  11.549  0.00  0.00     0.011 A 
ATOM     18  C17 ZIN A   1      17.345  -2.952  11.876  0.00  0.00     0.037 A 
ATOM     19  C15 ZIN A   1      17.973  -4.187  11.818  0.00  0.00     0.065 A 
ATOM     20  C14 ZIN A   1      19.303  -4.269  11.426  0.00  0.00     0.037 A 
ATOM     21  C13 ZIN A   1      19.995  -3.121  11.095  0.00  0.00     0.011 A 
BRANCH  19  22
ATOM     22  O16 ZIN A   1      17.290  -5.316  12.143  0.00  0.00    -0.361 OA
ATOM     23  H29 ZIN A   1      17.843  -6.107  12.201  0.00  0.00     0.217 HD
ENDBRANCH  19  22
ENDBRANCH   9  16
BRANCH   8  24
ATOM     24  O9  ZIN A   1      19.561   1.870  14.888  0.00  0.00    -0.358 OA
ATOM     25  H26 ZIN A   1      18.775   1.865  15.452  0.00  0.00     0.217 HD
ENDBRANCH   8  24
TORSDOF 3
ENDMDL
MODEL 6
REMARK VINA RESULT:      -6.9      2.700      3.828
REMARK  3 active torsions:
REMARK  status: ('A' for Active; 'I' for Inactive)
REMARK    1  A    between atoms: C8_8  and  O9_9 
REMARK    2  A    between atoms: C10_10  and  C12_11 
REMARK    3  A    between atoms: C15_14  and  O16_15 
ROOT
ATOM      1  O1  ZIN A   1      18.977  -3.185   8.976  0.00  0.00    -0.187 OA
ATOM      2  C2  ZIN A   1      18.577  -2.333   9.959  0.00  0.00     0.162 A 
ATOM      3  C3  ZIN A   1      19.074  -1.044  10.007  0.00  0.00     0.080 A 
ATOM      4 Cl4  ZIN A   1      20.209  -0.521   8.801  0.00  0.00    -0.081 Cl
ATOM      5  C5  ZIN A   1      18.673  -0.164  11.010  0.00  0.00    -0.025 A 
ATOM      6  C6  ZIN A   1      17.769  -0.575  11.957  0.00  0.00    -0.037 A 
ATOM      7  C7  ZIN A   1      17.269  -1.877  11.912  0.00  0.00     0.048 A 
ATOM      8  C8  ZIN A   1      17.671  -2.756  10.926  0.00  0.00     0.104 A 
ATOM      9  C10 ZIN A   1      17.250   0.297  13.068  0.00  0.00     0.078 C 
ATOM     10  C19 ZIN A   1      17.389   1.782  12.778  0.00  0.00     0.246 C 
ATOM     11  N20 ZIN A   1      18.709   2.291  13.103  0.00  0.00    -0.074 N 
ATOM     12  H21 ZIN A   1      18.735   3.284  12.846  0.00  0.00     0.277 HD
ATOM     13  H22 ZIN A   1      18.887   2.262  14.093  0.00  0.00     0.277 HD
ATOM     14  C23 ZIN A   1      19.781   1.619  12.371  0.00  0.00     0.237 C 
ATOM     15  C24 ZIN A   1      19.279   1.218  10.986  0.00  0.00     0.068 C 
ENDROOT
BRANCH   9  16
ATOM     16  C12 ZIN A   1      17.897  -0.085  14.375  0.00  0.00    -0.048 A 
ATOM     17  C18 ZIN A   1      18.878  -1.058  14.401  0.00  0.00     0.011 A 
ATOM     18  C17 ZIN A   1      19.476  -1.407  15.596  0.00  0.00     0.037 A 
ATOM     19  C15 ZIN A   1      19.085  -0.786  16.773  0.00  0.00     0.065 A 
ATOM     20  C14 ZIN A   1      18.096   0.188  16.745  0.00  0.00     0.037 A 
ATOM     21  C13 ZIN A   1      17.505   0.535  15.546  0.00  0.00     0.011 A 
BRANCH  19  22
ATOM     22  O16 ZIN A   1      19.668  -1.129  17.951  0.00  0.00    -0.361 OA
ATOM     23  H29 ZIN A   1      19.071  -1.571  18.571  0.00  0.00     0.217 HD
ENDBRANCH  19  22
ENDBRANCH   9  16
BRANCH   8  24
ATOM     24  O9  ZIN A   1      17.181  -4.024  10.896  0.00  0.00    -0.358 OA
ATOM     25  H26 ZIN A   1      17.809  -4.682  10.567  0.00  0.00     0.217 HD
ENDBRANCH   8  24
TORSDOF 3
ENDMDL
MODEL 7
REMARK VINA RESULT:      -6.8      2.954      5.922
REMARK  3 active torsions:
REMARK  status: ('A' for Active; 'I' for Inactive)
REMARK    1  A    between atoms: C8_8  and  O9_9 
REMARK    2  A    between atoms: C10_10  and  C12_11 
REMARK    3  A    between atoms: C15_14  and  O16_15 
ROOT
ATOM      1  O1  ZIN A   1      19.079   3.262  13.941  0.00  0.00    -0.187 OA
ATOM      2  C2  ZIN A   1      18.637   2.423  12.966  0.00  0.00     0.162 A 
ATOM      3  C3  ZIN A   1      19.078   1.113  12.922  0.00  0.00     0.080 A 
ATOM      4 Cl4  ZIN A   1      20.199   0.550  14.123  0.00  0.00    -0.081 Cl
ATOM      5  C5  ZIN A   1      18.632   0.245  11.928  0.00  0.00    -0.025 A 
ATOM      6  C6  ZIN A   1      17.738   0.689  10.985  0.00  0.00    -0.037 A 
ATOM      7  C7  ZIN A   1      17.295   2.010  11.026  0.00  0.00     0.048 A 
ATOM      8  C8  ZIN A   1      17.742   2.878  12.003  0.00  0.00     0.104 A 
ATOM      9  C10 ZIN A   1      17.174  -0.167   9.884  0.00  0.00     0.078 C 
ATOM     10  C19 ZIN A   1      17.252  -1.655  10.183  0.00  0.00     0.246 C 
ATOM     11  N20 ZIN A   1      18.547  -2.222   9.851  0.00  0.00    -0.074 N 
ATOM     12  H21 ZIN A   1      18.533  -3.213  10.114  0.00  0.00     0.277 HD
ATOM     13  H22 ZIN A   1      18.718  -2.206   8.859  0.00  0.00     0.277 HD
ATOM     14  C23 ZIN A   1      19.652  -1.591  10.570  0.00  0.00     0.237 C 
ATOM     15  C24 ZIN A   1      19.178  -1.161  11.956  0.00  0.00     0.068 C 
ENDROOT
BRANCH   9  16
ATOM     16  C12 ZIN A   1      17.827   0.179   8.570  0.00  0.00    -0.048 A 
ATOM     17  C18 ZIN A   1      18.887   1.065   8.538  0.00  0.00     0.011 A 
ATOM     18  C17 ZIN A   1      19.490   1.380   7.336  0.00  0.00     0.037 A 
ATOM     19  C15 ZIN A   1      19.023   0.815   6.158  0.00  0.00     0.065 A 
ATOM     20  C14 ZIN A   1      17.955  -0.071   6.193  0.00  0.00     0.037 A 
ATOM     21  C13 ZIN A   1      17.360  -0.386   7.398  0.00  0.00     0.011 A 
BRANCH  19  22
ATOM     22  O16 ZIN A   1      19.611   1.126   4.974  0.00  0.00    -0.361 OA
ATOM     23  H29 ZIN A   1      20.430   0.640   4.802  0.00  0.00     0.217 HD
ENDBRANCH  19  22
ENDBRANCH   9  16
BRANCH   8  24
ATOM     24  O9  ZIN A   1      17.305   4.165  12.029  0.00  0.00    -0.358 OA
ATOM     25  H26 ZIN A   1      16.820   4.432  11.236  0.00  0.00     0.217 HD
ENDBRANCH   8  24
TORSDOF 3
ENDMDL
MODEL 8
REMARK VINA RESULT:      -6.7      3.101      3.840
REMARK  3 active torsions:
REMARK  status: ('A' for Active; 'I' for Inactive)
REMARK    1  A    between atoms: C8_8  and  O9_9 
REMARK    2  A    between atoms: C10_10  and  C12_11 
REMARK    3  A    between atoms: C15_14  and  O16_15 
ROOT
ATOM      1  O1  ZIN A   1      16.933   6.664  13.327  0.00  0.00    -0.187 OA
ATOM      2  C2  ZIN A   1      17.575   5.467  13.250  0.00  0.00     0.162 A 
ATOM      3  C3  ZIN A   1      17.354   4.627  12.174  0.00  0.00     0.080 A 
ATOM      4 Cl4  ZIN A   1      16.252   5.115  10.923  0.00  0.00    -0.081 Cl
ATOM      5  C5  ZIN A   1      18.005   3.399  12.085  0.00  0.00    -0.025 A 
ATOM      6  C6  ZIN A   1      18.883   3.019  13.069  0.00  0.00    -0.037 A 
ATOM      7  C7  ZIN A   1      19.104   3.863  14.156  0.00  0.00     0.048 A 
ATOM      8  C8  ZIN A   1      18.453   5.077  14.255  0.00  0.00     0.104 A 
ATOM      9  C10 ZIN A   1      19.656   1.728  13.062  0.00  0.00     0.078 C 
ATOM     10  C19 ZIN A   1      19.796   1.122  11.675  0.00  0.00     0.246 C 
ATOM     11  N20 ZIN A   1      18.636   0.335  11.293  0.00  0.00    -0.074 N 
ATOM     12  H21 ZIN A   1      18.790  -0.006  10.338  0.00  0.00     0.277 HD
ATOM     13  H22 ZIN A   1      18.538  -0.487  11.864  0.00  0.00     0.277 HD
ATOM     14  C23 ZIN A   1      17.395   1.107  11.290  0.00  0.00     0.237 C 
ATOM     15  C24 ZIN A   1      17.690   2.547  10.879  0.00  0.00     0.068 C 
ENDROOT
BRANCH   9  16
ATOM     16  C12 ZIN A   1      19.055   0.756  14.044  0.00  0.00    -0.048 A 
ATOM     17  C18 ZIN A   1      19.627  -0.489  14.221  0.00  0.00     0.011 A 
ATOM     18  C17 ZIN A   1      19.081  -1.381  15.125  0.00  0.00     0.037 A 
ATOM     19  C15 ZIN A   1      17.951  -1.029  15.847  0.00  0.00     0.065 A 
ATOM     20  C14 ZIN A   1      17.375   0.221  15.664  0.00  0.00     0.037 A 
ATOM     21  C13 ZIN A   1      17.928   1.109  14.763  0.00  0.00     0.011 A 
BRANCH  19  22
ATOM     22  O16 ZIN A   1      17.409  -1.905  16.733  0.00  0.00    -0.361 OA
ATOM     23  H29 ZIN A   1      17.502  -2.832  16.476  0.00  0.00     0.217 HD
ENDBRANCH  19  22
ENDBRANCH   9  16
BRANCH   8  24
ATOM     24  O9  ZIN A   1      18.674   5.889  15.323  0.00  0.00    -0.358 OA
ATOM     25  H26 ZIN A   1      19.490   6.406  15.262  0.00  0.00     0.217 HD
ENDBRANCH   8  24
TORSDOF 3
ENDMDL
MODEL 9
REMARK VINA RESULT:      -6.7      3.834      5.789
REMARK  3 active torsions:
REMARK  status: ('A' for Active; 'I' for Inactive)
REMARK    1  A    between atoms: C8_8  and  O9_9 
REMARK    2  A    between atoms: C10_10  and  C12_11 
REMARK    3  A    between atoms: C15_14  and  O16_15 
ROOT
ATOM      1  O1  ZIN A   1      19.760  -5.790   9.305  0.00  0.00    -0.187 OA
ATOM      2  C2  ZIN A   1      19.203  -4.551   9.231  0.00  0.00     0.162 A 
ATOM      3  C3  ZIN A   1      19.266  -3.829   8.053  0.00  0.00     0.080 A 
ATOM      4 Cl4  ZIN A   1      20.060  -4.519   6.671  0.00  0.00    -0.081 Cl
ATOM      5  C5  ZIN A   1      18.699  -2.559   7.966  0.00  0.00    -0.025 A 
ATOM      6  C6  ZIN A   1      18.064  -2.019   9.056  0.00  0.00    -0.037 A 
ATOM      7  C7  ZIN A   1      18.002  -2.745  10.246  0.00  0.00     0.048 A 
ATOM      8  C8  ZIN A   1      18.572  -4.000  10.341  0.00  0.00     0.104 A 
ATOM      9  C10 ZIN A   1      17.399  -0.670   9.066  0.00  0.00     0.078 C 
ATOM     10  C19 ZIN A   1      17.031  -0.173   7.678  0.00  0.00     0.246 C 
ATOM     11  N20 ZIN A   1      18.145   0.470   7.004  0.00  0.00    -0.074 N 
ATOM     12  H21 ZIN A   1      17.830   0.742   6.066  0.00  0.00     0.277 HD
ATOM     13  H22 ZIN A   1      18.412   1.326   7.460  0.00  0.00     0.277 HD
ATOM     14  C23 ZIN A   1      19.302  -0.407   6.842  0.00  0.00     0.237 C 
ATOM     15  C24 ZIN A   1      18.829  -1.845   6.643  0.00  0.00     0.068 C 
ENDROOT
BRANCH   9  16
ATOM     16  C12 ZIN A   1      18.251   0.324   9.813  0.00  0.00    -0.048 A 
ATOM     17  C18 ZIN A   1      19.414  -0.091  10.432  0.00  0.00     0.011 A 
ATOM     18  C17 ZIN A   1      20.200   0.819  11.113  0.00  0.00     0.037 A 
ATOM     19  C15 ZIN A   1      19.815   2.149  11.184  0.00  0.00     0.065 A 
ATOM     20  C14 ZIN A   1      18.643   2.564  10.565  0.00  0.00     0.037 A 
ATOM     21  C13 ZIN A   1      17.865   1.650   9.882  0.00  0.00     0.011 A 
BRANCH  19  22
ATOM     22  O16 ZIN A   1      20.582   3.046  11.856  0.00  0.00    -0.361 OA
ATOM     23  H29 ZIN A   1      21.324   3.392  11.341  0.00  0.00     0.217 HD
ENDBRANCH  19  22
ENDBRANCH   9  16
BRANCH   8  24
ATOM     24  O9  ZIN A   1      18.509  -4.694  11.508  0.00  0.00    -0.358 OA
ATOM     25  H26 ZIN A   1      19.069  -5.484  11.526  0.00  0.00     0.217 HD
ENDBRANCH   8  24
TORSDOF 3
ENDMDL
