MODEL 1
REMARK VINA RESULT:      -8.7      0.000      0.000
REMARK  6 active torsions:
REMARK  status: ('A' for Active; 'I' for Inactive)
REMARK    1  A    between atoms: C2_2  and  C3_3 
REMARK    2  A    between atoms: C3_3  and  C4_4 
REMARK    3  A    between atoms: C26_21  and  O28_22 
REMARK    4  A    between atoms: C32_26  and  C33_27 
REMARK    5  A    between atoms: C33_27  and  C35_29 
REMARK    6  A    between atoms: C35_29  and  O36_30 
ROOT
ATOM      1  C4  ZIN A   1      16.154  -5.149   9.265  0.00  0.00     0.262 C 
ATOM      2  O6  ZIN A   1      16.780  -6.009  10.239  0.00  0.00    -0.352 OA
ATOM      3  C7  ZIN A   1      18.017  -5.325  10.550  0.00  0.00     0.168 C 
ATOM      4  C9  ZIN A   1      17.689  -4.138  11.487  0.00  0.00     0.041 C 
ATOM      5  C10 ZIN A   1      17.783  -2.892  10.613  0.00  0.00     0.004 C 
ATOM      6  C12 ZIN A   1      18.262  -1.624  11.292  0.00  0.00    -0.001 C 
ATOM      7  C14 ZIN A   1      17.304  -1.244  12.424  0.00  0.00     0.010 C 
ATOM      8  C15 ZIN A   1      17.821   0.011  13.136  0.00  0.00     0.036 C 
ATOM      9  C16 ZIN A   1      18.012   1.099  12.096  0.00  0.00    -0.064 A 
ATOM     10  C17 ZIN A   1      17.463   2.288  12.304  0.00  0.00     0.058 A 
ATOM     11  C18 ZIN A   1      17.607   3.362  11.309  0.00  0.00     0.172 A 
ATOM     12  O19 ZIN A   1      17.140   4.467  11.514  0.00  0.00    -0.289 OA
ATOM     13  C20 ZIN A   1      18.331   3.071  10.060  0.00  0.00     0.052 A 
ATOM     14  C21 ZIN A   1      18.876   1.879   9.876  0.00  0.00    -0.009 A 
ATOM     15  C22 ZIN A   1      18.819   0.773  10.875  0.00  0.00     0.004 A 
ATOM     16  C23 ZIN A   1      20.251   0.477  11.326  0.00  0.00     0.025 C 
ATOM     17  C24 ZIN A   1      18.297  -0.514  10.230  0.00  0.00     0.035 C 
ATOM     18  C26 ZIN A   1      19.194  -0.892   9.056  0.00  0.00     0.124 C 
ATOM     19  C29 ZIN A   1      18.797  -2.247   8.450  0.00  0.00     0.045 C 
ATOM     20  C30 ZIN A   1      18.845  -3.281   9.550  0.00  0.00     0.004 C 
ATOM     21  C31 ZIN A   1      20.224  -3.286  10.214  0.00  0.00     0.019 C 
ATOM     22  C32 ZIN A   1      18.425  -4.716   9.171  0.00  0.00     0.160 C 
ATOM     23  O37 ZIN A   1      17.207  -4.678   8.409  0.00  0.00    -0.339 OA
ENDROOT
BRANCH  22  24
ATOM     24  C33 ZIN A   1      19.539  -5.490   8.515  0.00  0.00     0.188 C 
ATOM     25  O34 ZIN A   1      20.180  -6.288   9.155  0.00  0.00    -0.292 OA
BRANCH  24  26
ATOM     26  C35 ZIN A   1      19.855  -5.267   7.058  0.00  0.00     0.245 C 
BRANCH  26  27
ATOM     27  O36 ZIN A   1      21.059  -4.506   6.942  0.00  0.00    -0.393 OA
ATOM     28  H65 ZIN A   1      21.858  -4.995   7.183  0.00  0.00     0.209 HD
ENDBRANCH  26  27
ENDBRANCH  24  26
ENDBRANCH  22  24
BRANCH   1  29
ATOM     29  C3  ZIN A   1      15.128  -5.939   8.451  0.00  0.00     0.060 C 
BRANCH  29  30
ATOM     30  C2  ZIN A   1      15.832  -6.653   7.296  0.00  0.00     0.000 C 
ATOM     31  C1  ZIN A   1      15.957  -8.144   7.616  0.00  0.00     0.005 C 
ENDBRANCH  29  30
ENDBRANCH   1  29
BRANCH  18  32
ATOM     32  O28 ZIN A   1      20.548  -0.964   9.508  0.00  0.00    -0.395 OA
ATOM     33  H57 ZIN A   1      21.127  -1.483   8.933  0.00  0.00     0.210 HD
ENDBRANCH  18  32
TORSDOF 6
ENDMDL
MODEL 2
REMARK VINA RESULT:      -8.6      2.046      7.535
REMARK  6 active torsions:
REMARK  status: ('A' for Active; 'I' for Inactive)
REMARK    1  A    between atoms: C2_2  and  C3_3 
REMARK    2  A    between atoms: C3_3  and  C4_4 
REMARK    3  A    between atoms: C26_21  and  O28_22 
REMARK    4  A    between atoms: C32_26  and  C33_27 
REMARK    5  A    between atoms: C33_27  and  C35_29 
REMARK    6  A    between atoms: C35_29  and  O36_30 
ROOT
ATOM      1  C4  ZIN A   1      18.115   1.498  10.662  0.00  0.00     0.262 C 
ATOM      2  O6  ZIN A   1      19.544   1.679  10.739  0.00  0.00    -0.352 OA
ATOM      3  C7  ZIN A   1      20.042   0.346  11.004  0.00  0.00     0.168 C 
ATOM      4  C9  ZIN A   1      19.994  -0.457   9.682  0.00  0.00     0.041 C 
ATOM      5  C10 ZIN A   1      18.802  -1.397   9.820  0.00  0.00     0.004 C 
ATOM      6  C12 ZIN A   1      18.919  -2.743   9.132  0.00  0.00    -0.001 C 
ATOM      7  C14 ZIN A   1      19.098  -2.547   7.625  0.00  0.00     0.010 C 
ATOM      8  C15 ZIN A   1      19.264  -3.910   6.945  0.00  0.00     0.036 C 
ATOM      9  C16 ZIN A   1      18.073  -4.772   7.318  0.00  0.00    -0.064 A 
ATOM     10  C17 ZIN A   1      17.386  -5.369   6.354  0.00  0.00     0.058 A 
ATOM     11  C18 ZIN A   1      16.212  -6.196   6.674  0.00  0.00     0.172 A 
ATOM     12  O19 ZIN A   1      15.603  -6.779   5.796  0.00  0.00    -0.289 OA
ATOM     13  C20 ZIN A   1      15.792  -6.304   8.082  0.00  0.00     0.052 A 
ATOM     14  C21 ZIN A   1      16.496  -5.705   9.028  0.00  0.00    -0.009 A 
ATOM     15  C22 ZIN A   1      17.730  -4.908   8.771  0.00  0.00     0.004 A 
ATOM     16  C23 ZIN A   1      18.896  -5.618   9.463  0.00  0.00     0.025 C 
ATOM     17  C24 ZIN A   1      17.626  -3.524   9.417  0.00  0.00     0.035 C 
ATOM     18  C26 ZIN A   1      17.386  -3.680  10.915  0.00  0.00     0.124 C 
ATOM     19  C29 ZIN A   1      17.404  -2.325  11.639  0.00  0.00     0.045 C 
ATOM     20  C30 ZIN A   1      18.728  -1.659  11.348  0.00  0.00     0.004 C 
ATOM     21  C31 ZIN A   1      19.883  -2.582  11.743  0.00  0.00     0.019 C 
ATOM     22  C32 ZIN A   1      18.939  -0.249  11.937  0.00  0.00     0.160 C 
ATOM     23  O37 ZIN A   1      17.774   0.556  11.692  0.00  0.00    -0.339 OA
ENDROOT
BRANCH  22  24
ATOM     24  C33 ZIN A   1      19.373  -0.284  13.380  0.00  0.00     0.188 C 
ATOM     25  O34 ZIN A   1      20.492   0.053  13.683  0.00  0.00    -0.292 OA
BRANCH  24  26
ATOM     26  C35 ZIN A   1      18.410  -0.743  14.445  0.00  0.00     0.245 C 
BRANCH  26  27
ATOM     27  O36 ZIN A   1      17.441   0.280  14.684  0.00  0.00    -0.393 OA
ATOM     28  H65 ZIN A   1      17.816   1.109  15.008  0.00  0.00     0.209 HD
ENDBRANCH  26  27
ENDBRANCH  24  26
ENDBRANCH  22  24
BRANCH   1  29
ATOM     29  C3  ZIN A   1      17.404   2.830  10.911  0.00  0.00     0.060 C 
BRANCH  29  30
ATOM     30  C2  ZIN A   1      18.097   3.936  10.113  0.00  0.00     0.000 C 
ATOM     31  C1  ZIN A   1      17.371   5.263  10.343  0.00  0.00     0.005 C 
ENDBRANCH  29  30
ENDBRANCH   1  29
BRANCH  18  32
ATOM     32  O28 ZIN A   1      18.407  -4.514  11.466  0.00  0.00    -0.395 OA
ATOM     33  H57 ZIN A   1      18.112  -5.412  11.673  0.00  0.00     0.210 HD
ENDBRANCH  18  32
TORSDOF 6
ENDMDL
MODEL 3
REMARK VINA RESULT:      -8.4      1.569      2.412
REMARK  6 active torsions:
REMARK  status: ('A' for Active; 'I' for Inactive)
REMARK    1  A    between atoms: C2_2  and  C3_3 
REMARK    2  A    between atoms: C3_3  and  C4_4 
REMARK    3  A    between atoms: C26_21  and  O28_22 
REMARK    4  A    between atoms: C32_26  and  C33_27 
REMARK    5  A    between atoms: C33_27  and  C35_29 
REMARK    6  A    between atoms: C35_29  and  O36_30 
ROOT
ATOM      1  C4  ZIN A   1      17.291  -3.889  10.729  0.00  0.00     0.262 C 
ATOM      2  O6  ZIN A   1      18.633  -4.397  10.877  0.00  0.00    -0.352 OA
ATOM      3  C7  ZIN A   1      19.463  -3.289  10.456  0.00  0.00     0.168 C 
ATOM      4  C9  ZIN A   1      19.496  -2.249  11.602  0.00  0.00     0.041 C 
ATOM      5  C10 ZIN A   1      18.588  -1.113  11.145  0.00  0.00     0.004 C 
ATOM      6  C12 ZIN A   1      18.970   0.282  11.601  0.00  0.00    -0.001 C 
ATOM      7  C14 ZIN A   1      18.959   0.355  13.129  0.00  0.00     0.010 C 
ATOM      8  C15 ZIN A   1      19.393   1.753  13.582  0.00  0.00     0.036 C 
ATOM      9  C16 ZIN A   1      18.488   2.768  12.909  0.00  0.00    -0.064 A 
ATOM     10  C17 ZIN A   1      17.885   3.684  13.656  0.00  0.00     0.058 A 
ATOM     11  C18 ZIN A   1      16.984   4.672  13.043  0.00  0.00     0.172 A 
ATOM     12  O19 ZIN A   1      16.460   5.538  13.718  0.00  0.00    -0.289 OA
ATOM     13  C20 ZIN A   1      16.730   4.589  11.595  0.00  0.00     0.052 A 
ATOM     14  C21 ZIN A   1      17.348   3.671  10.869  0.00  0.00    -0.009 A 
ATOM     15  C22 ZIN A   1      18.320   2.686  11.422  0.00  0.00     0.004 A 
ATOM     16  C23 ZIN A   1      19.683   2.964  10.782  0.00  0.00     0.025 C 
ATOM     17  C24 ZIN A   1      17.939   1.260  11.015  0.00  0.00     0.035 C 
ATOM     18  C26 ZIN A   1      17.879   1.165   9.494  0.00  0.00     0.124 C 
ATOM     19  C29 ZIN A   1      17.629  -0.276   9.023  0.00  0.00     0.045 C 
ATOM     20  C30 ZIN A   1      18.718  -1.150   9.599  0.00  0.00     0.004 C 
ATOM     21  C31 ZIN A   1      20.095  -0.607   9.210  0.00  0.00     0.019 C 
ATOM     22  C32 ZIN A   1      18.629  -2.660   9.295  0.00  0.00     0.160 C 
ATOM     23  O37 ZIN A   1      17.285  -3.118   9.516  0.00  0.00    -0.339 OA
ENDROOT
BRANCH  22  24
ATOM     24  C33 ZIN A   1      19.185  -3.010   7.939  0.00  0.00     0.188 C 
ATOM     25  O34 ZIN A   1      19.096  -2.223   7.027  0.00  0.00    -0.292 OA
BRANCH  24  26
ATOM     26  C35 ZIN A   1      19.853  -4.343   7.720  0.00  0.00     0.245 C 
BRANCH  26  27
ATOM     27  O36 ZIN A   1      20.955  -4.183   6.824  0.00  0.00    -0.393 OA
ATOM     28  H65 ZIN A   1      20.913  -3.379   6.289  0.00  0.00     0.209 HD
ENDBRANCH  26  27
ENDBRANCH  24  26
ENDBRANCH  22  24
BRANCH   1  29
ATOM     29  C3  ZIN A   1      16.300  -5.049  10.619  0.00  0.00     0.060 C 
BRANCH  29  30
ATOM     30  C2  ZIN A   1      16.137  -5.446   9.151  0.00  0.00     0.000 C 
ATOM     31  C1  ZIN A   1      16.909  -6.740   8.883  0.00  0.00     0.005 C 
ENDBRANCH  29  30
ENDBRANCH   1  29
BRANCH  18  32
ATOM     32  O28 ZIN A   1      19.119   1.623   8.951  0.00  0.00    -0.395 OA
ATOM     33  H57 ZIN A   1      19.494   1.037   8.279  0.00  0.00     0.210 HD
ENDBRANCH  18  32
TORSDOF 6
ENDMDL
MODEL 4
REMARK VINA RESULT:      -8.1      3.044      5.601
REMARK  6 active torsions:
REMARK  status: ('A' for Active; 'I' for Inactive)
REMARK    1  A    between atoms: C2_2  and  C3_3 
REMARK    2  A    between atoms: C3_3  and  C4_4 
REMARK    3  A    between atoms: C26_21  and  O28_22 
REMARK    4  A    between atoms: C32_26  and  C33_27 
REMARK    5  A    between atoms: C33_27  and  C35_29 
REMARK    6  A    between atoms: C35_29  and  O36_30 
ROOT
ATOM      1  C4  ZIN A   1      18.072  -1.585  12.162  0.00  0.00     0.262 C 
ATOM      2  O6  ZIN A   1      19.493  -1.818  12.076  0.00  0.00    -0.352 OA
ATOM      3  C7  ZIN A   1      20.045  -0.491  11.910  0.00  0.00     0.168 C 
ATOM      4  C9  ZIN A   1      20.023   0.216  13.286  0.00  0.00     0.041 C 
ATOM      5  C10 ZIN A   1      18.870   1.212  13.212  0.00  0.00     0.004 C 
ATOM      6  C12 ZIN A   1      19.038   2.499  13.996  0.00  0.00    -0.001 C 
ATOM      7  C14 ZIN A   1      19.200   2.188  15.485  0.00  0.00     0.010 C 
ATOM      8  C15 ZIN A   1      19.417   3.490  16.263  0.00  0.00     0.036 C 
ATOM      9  C16 ZIN A   1      18.265   4.425  15.949  0.00  0.00    -0.064 A 
ATOM     10  C17 ZIN A   1      17.597   4.979  16.952  0.00  0.00     0.058 A 
ATOM     11  C18 ZIN A   1      16.460   5.875  16.689  0.00  0.00     0.172 A 
ATOM     12  O19 ZIN A   1      15.870   6.417  17.604  0.00  0.00    -0.289 OA
ATOM     13  C20 ZIN A   1      16.052   6.100  15.291  0.00  0.00     0.052 A 
ATOM     14  C21 ZIN A   1      16.737   5.542  14.306  0.00  0.00    -0.009 A 
ATOM     15  C22 ZIN A   1      17.936   4.679  14.508  0.00  0.00     0.004 A 
ATOM     16  C23 ZIN A   1      19.135   5.388  13.873  0.00  0.00     0.025 C 
ATOM     17  C24 ZIN A   1      17.780   3.351  13.764  0.00  0.00     0.035 C 
ATOM     18  C26 ZIN A   1      17.555   3.624  12.281  0.00  0.00     0.124 C 
ATOM     19  C29 ZIN A   1      17.522   2.325  11.461  0.00  0.00     0.045 C 
ATOM     20  C30 ZIN A   1      18.817   1.586  11.707  0.00  0.00     0.004 C 
ATOM     21  C31 ZIN A   1      20.010   2.486  11.383  0.00  0.00     0.019 C 
ATOM     22  C32 ZIN A   1      18.973   0.214  11.019  0.00  0.00     0.160 C 
ATOM     23  O37 ZIN A   1      17.775  -0.558  11.202  0.00  0.00    -0.339 OA
ENDROOT
BRANCH  22  24
ATOM     24  C33 ZIN A   1      19.416   0.335   9.584  0.00  0.00     0.188 C 
ATOM     25  O34 ZIN A   1      20.498  -0.082   9.247  0.00  0.00    -0.292 OA
BRANCH  24  26
ATOM     26  C35 ZIN A   1      18.510   0.980   8.567  0.00  0.00     0.245 C 
BRANCH  26  27
ATOM     27  O36 ZIN A   1      17.307   0.217   8.448  0.00  0.00    -0.393 OA
ATOM     28  H65 ZIN A   1      16.533   0.739   8.201  0.00  0.00     0.209 HD
ENDBRANCH  26  27
ENDBRANCH  24  26
ENDBRANCH  22  24
BRANCH   1  29
ATOM     29  C3  ZIN A   1      17.308  -2.865  11.816  0.00  0.00     0.060 C 
BRANCH  29  30
ATOM     30  C2  ZIN A   1      18.274  -4.051  11.809  0.00  0.00     0.000 C 
ATOM     31  C1  ZIN A   1      17.480  -5.358  11.840  0.00  0.00     0.005 C 
ENDBRANCH  29  30
ENDBRANCH   1  29
BRANCH  18  32
ATOM     32  O28 ZIN A   1      18.612   4.453  11.795  0.00  0.00    -0.395 OA
ATOM     33  H57 ZIN A   1      18.543   4.668  10.854  0.00  0.00     0.210 HD
ENDBRANCH  18  32
TORSDOF 6
ENDMDL
MODEL 5
REMARK VINA RESULT:      -7.0      2.640      8.182
REMARK  6 active torsions:
REMARK  status: ('A' for Active; 'I' for Inactive)
REMARK    1  A    between atoms: C2_2  and  C3_3 
REMARK    2  A    between atoms: C3_3  and  C4_4 
REMARK    3  A    between atoms: C26_21  and  O28_22 
REMARK    4  A    between atoms: C32_26  and  C33_27 
REMARK    5  A    between atoms: C33_27  and  C35_29 
REMARK    6  A    between atoms: C35_29  and  O36_30 
ROOT
ATOM      1  C4  ZIN A   1      18.003  -1.686   8.475  0.00  0.00     0.262 C 
ATOM      2  O6  ZIN A   1      19.420  -1.956   8.469  0.00  0.00    -0.352 OA
ATOM      3  C7  ZIN A   1      19.491  -3.399   8.557  0.00  0.00     0.168 C 
ATOM      4  C9  ZIN A   1      19.152  -3.984   7.165  0.00  0.00     0.041 C 
ATOM      5  C10 ZIN A   1      17.733  -4.529   7.288  0.00  0.00     0.004 C 
ATOM      6  C12 ZIN A   1      17.406  -5.754   6.457  0.00  0.00    -0.001 C 
ATOM      7  C14 ZIN A   1      17.583  -5.440   4.970  0.00  0.00     0.010 C 
ATOM      8  C15 ZIN A   1      17.297  -6.696   4.140  0.00  0.00     0.036 C 
ATOM      9  C16 ZIN A   1      15.912  -7.197   4.505  0.00  0.00    -0.064 A 
ATOM     10  C17 ZIN A   1      15.041  -7.438   3.534  0.00  0.00     0.058 A 
ATOM     11  C18 ZIN A   1      13.682  -7.905   3.849  0.00  0.00     0.172 A 
ATOM     12  O19 ZIN A   1      12.892  -8.165   2.960  0.00  0.00    -0.289 OA
ATOM     13  C20 ZIN A   1      13.298  -8.050   5.264  0.00  0.00     0.052 A 
ATOM     14  C21 ZIN A   1      14.186  -7.810   6.216  0.00  0.00    -0.009 A 
ATOM     15  C22 ZIN A   1      15.596  -7.398   5.957  0.00  0.00     0.004 A 
ATOM     16  C23 ZIN A   1      16.510  -8.506   6.486  0.00  0.00     0.025 C 
ATOM     17  C24 ZIN A   1      15.946  -6.137   6.749  0.00  0.00     0.035 C 
ATOM     18  C26 ZIN A   1      15.723  -6.393   8.236  0.00  0.00     0.124 C 
ATOM     19  C29 ZIN A   1      16.183  -5.205   9.094  0.00  0.00     0.045 C 
ATOM     20  C30 ZIN A   1      17.637  -4.940   8.782  0.00  0.00     0.004 C 
ATOM     21  C31 ZIN A   1      18.465  -6.209   8.996  0.00  0.00     0.019 C 
ATOM     22  C32 ZIN A   1      18.293  -3.741   9.498  0.00  0.00     0.160 C 
ATOM     23  O37 ZIN A   1      17.424  -2.599   9.422  0.00  0.00    -0.339 OA
ENDROOT
BRANCH  22  24
ATOM     24  C33 ZIN A   1      18.745  -4.081  10.895  0.00  0.00     0.188 C 
ATOM     25  O34 ZIN A   1      17.934  -4.382  11.737  0.00  0.00    -0.292 OA
BRANCH  24  26
ATOM     26  C35 ZIN A   1      20.211  -4.043  11.242  0.00  0.00     0.245 C 
BRANCH  26  27
ATOM     27  O36 ZIN A   1      20.632  -2.685  11.388  0.00  0.00    -0.393 OA
ATOM     28  H65 ZIN A   1      21.484  -2.491  10.976  0.00  0.00     0.209 HD
ENDBRANCH  26  27
ENDBRANCH  24  26
ENDBRANCH  22  24
BRANCH   1  29
ATOM     29  C3  ZIN A   1      17.745  -0.242   8.911  0.00  0.00     0.060 C 
BRANCH  29  30
ATOM     30  C2  ZIN A   1      18.387   0.717   7.907  0.00  0.00     0.000 C 
ATOM     31  C1  ZIN A   1      19.222   1.757   8.656  0.00  0.00     0.005 C 
ENDBRANCH  29  30
ENDBRANCH   1  29
BRANCH  18  32
ATOM     32  O28 ZIN A   1      16.456  -7.557   8.623  0.00  0.00    -0.395 OA
ATOM     33  H57 ZIN A   1      17.411  -7.480   8.496  0.00  0.00     0.210 HD
ENDBRANCH  18  32
TORSDOF 6
ENDMDL
MODEL 6
REMARK VINA RESULT:      -6.9      2.152      7.725
REMARK  6 active torsions:
REMARK  status: ('A' for Active; 'I' for Inactive)
REMARK    1  A    between atoms: C2_2  and  C3_3 
REMARK    2  A    between atoms: C3_3  and  C4_4 
REMARK    3  A    between atoms: C26_21  and  O28_22 
REMARK    4  A    between atoms: C32_26  and  C33_27 
REMARK    5  A    between atoms: C33_27  and  C35_29 
REMARK    6  A    between atoms: C35_29  and  O36_30 
ROOT
ATOM      1  C4  ZIN A   1      17.856  -0.586   9.579  0.00  0.00     0.262 C 
ATOM      2  O6  ZIN A   1      19.282  -0.579   9.361  0.00  0.00    -0.352 OA
ATOM      3  C7  ZIN A   1      19.644  -1.978   9.432  0.00  0.00     0.168 C 
ATOM      4  C9  ZIN A   1      19.224  -2.652   8.104  0.00  0.00     0.041 C 
ATOM      5  C10 ZIN A   1      17.971  -3.457   8.435  0.00  0.00     0.004 C 
ATOM      6  C12 ZIN A   1      17.769  -4.743   7.658  0.00  0.00    -0.001 C 
ATOM      7  C14 ZIN A   1      17.661  -4.438   6.162  0.00  0.00     0.010 C 
ATOM      8  C15 ZIN A   1      17.505  -5.747   5.380  0.00  0.00     0.036 C 
ATOM      9  C16 ZIN A   1      16.313  -6.495   5.945  0.00  0.00    -0.064 A 
ATOM     10  C17 ZIN A   1      15.372  -6.923   5.114  0.00  0.00     0.058 A 
ATOM     11  C18 ZIN A   1      14.190  -7.633   5.626  0.00  0.00     0.172 A 
ATOM     12  O19 ZIN A   1      13.344  -8.063   4.864  0.00  0.00    -0.289 OA
ATOM     13  C20 ZIN A   1      14.054  -7.814   7.081  0.00  0.00     0.052 A 
ATOM     14  C21 ZIN A   1      15.008  -7.384   7.891  0.00  0.00    -0.009 A 
ATOM     15  C22 ZIN A   1      16.258  -6.716   7.427  0.00  0.00     0.004 A 
ATOM     16  C23 ZIN A   1      17.437  -7.613   7.809  0.00  0.00     0.025 C 
ATOM     17  C24 ZIN A   1      16.470  -5.391   8.163  0.00  0.00     0.035 C 
ATOM     18  C26 ZIN A   1      16.521  -5.648   9.665  0.00  0.00     0.124 C 
ATOM     19  C29 ZIN A   1      16.863  -4.372  10.450  0.00  0.00     0.045 C 
ATOM     20  C30 ZIN A   1      18.177  -3.841   9.925  0.00  0.00     0.004 C 
ATOM     21  C31 ZIN A   1      19.257  -4.921  10.009  0.00  0.00     0.019 C 
ATOM     22  C32 ZIN A   1      18.686  -2.521  10.540  0.00  0.00     0.160 C 
ATOM     23  O37 ZIN A   1      17.611  -1.568  10.598  0.00  0.00    -0.339 OA
ENDROOT
BRANCH  22  24
ATOM     24  C33 ZIN A   1      19.396  -2.731  11.853  0.00  0.00     0.188 C 
ATOM     25  O34 ZIN A   1      20.410  -3.386  11.894  0.00  0.00    -0.292 OA
BRANCH  24  26
ATOM     26  C35 ZIN A   1      18.839  -2.126  13.116  0.00  0.00     0.245 C 
BRANCH  26  27
ATOM     27  O36 ZIN A   1      19.914  -1.693  13.952  0.00  0.00    -0.393 OA
ATOM     28  H65 ZIN A   1      19.883  -0.755  14.178  0.00  0.00     0.209 HD
ENDBRANCH  26  27
ENDBRANCH  24  26
ENDBRANCH  22  24
BRANCH   1  29
ATOM     29  C3  ZIN A   1      17.391   0.792  10.053  0.00  0.00     0.060 C 
BRANCH  29  30
ATOM     30  C2  ZIN A   1      18.605   1.630  10.459  0.00  0.00     0.000 C 
ATOM     31  C1  ZIN A   1      18.520   3.007   9.798  0.00  0.00     0.005 C 
ENDBRANCH  29  30
ENDBRANCH   1  29
BRANCH  18  32
ATOM     32  O28 ZIN A   1      17.514  -6.639   9.934  0.00  0.00    -0.395 OA
ATOM     33  H57 ZIN A   1      18.399  -6.279  10.084  0.00  0.00     0.210 HD
ENDBRANCH  18  32
TORSDOF 6
ENDMDL
MODEL 7
REMARK VINA RESULT:      -6.7      1.915      2.598
REMARK  6 active torsions:
REMARK  status: ('A' for Active; 'I' for Inactive)
REMARK    1  A    between atoms: C2_2  and  C3_3 
REMARK    2  A    between atoms: C3_3  and  C4_4 
REMARK    3  A    between atoms: C26_21  and  O28_22 
REMARK    4  A    between atoms: C32_26  and  C33_27 
REMARK    5  A    between atoms: C33_27  and  C35_29 
REMARK    6  A    between atoms: C35_29  and  O36_30 
ROOT
ATOM      1  C4  ZIN A   1      16.928  -4.625   9.497  0.00  0.00     0.262 C 
ATOM      2  O6  ZIN A   1      18.179  -5.296   9.242  0.00  0.00    -0.352 OA
ATOM      3  C7  ZIN A   1      19.150  -4.223   9.262  0.00  0.00     0.168 C 
ATOM      4  C9  ZIN A   1      19.408  -3.834  10.737  0.00  0.00     0.041 C 
ATOM      5  C10 ZIN A   1      18.666  -2.518  10.946  0.00  0.00     0.004 C 
ATOM      6  C12 ZIN A   1      19.287  -1.541  11.925  0.00  0.00    -0.001 C 
ATOM      7  C14 ZIN A   1      19.370  -2.174  13.315  0.00  0.00     0.010 C 
ATOM      8  C15 ZIN A   1      20.042  -1.198  14.287  0.00  0.00     0.036 C 
ATOM      9  C16 ZIN A   1      19.273   0.109  14.249  0.00  0.00    -0.064 A 
ATOM     10  C17 ZIN A   1      18.863   0.645  15.391  0.00  0.00     0.058 A 
ATOM     11  C18 ZIN A   1      18.096   1.901  15.394  0.00  0.00     0.172 A 
ATOM     12  O19 ZIN A   1      17.753   2.417  16.441  0.00  0.00    -0.289 OA
ATOM     13  C20 ZIN A   1      17.756   2.519  14.102  0.00  0.00     0.052 A 
ATOM     14  C21 ZIN A   1      18.181   1.970  12.975  0.00  0.00    -0.009 A 
ATOM     15  C22 ZIN A   1      19.015   0.736  12.912  0.00  0.00     0.004 A 
ATOM     16  C23 ZIN A   1      20.368   1.116  12.305  0.00  0.00     0.025 C 
ATOM     17  C24 ZIN A   1      18.392  -0.291  11.963  0.00  0.00     0.035 C 
ATOM     18  C26 ZIN A   1      18.237   0.327  10.578  0.00  0.00     0.124 C 
ATOM     19  C29 ZIN A   1      17.738  -0.699   9.548  0.00  0.00     0.045 C 
ATOM     20  C30 ZIN A   1      18.706  -1.859   9.541  0.00  0.00     0.004 C 
ATOM     21  C31 ZIN A   1      20.128  -1.362   9.273  0.00  0.00     0.019 C 
ATOM     22  C32 ZIN A   1      18.363  -3.041   8.611  0.00  0.00     0.160 C 
ATOM     23  O37 ZIN A   1      16.978  -3.391   8.764  0.00  0.00    -0.339 OA
ENDROOT
BRANCH  22  24
ATOM     24  C33 ZIN A   1      18.784  -2.794   7.185  0.00  0.00     0.188 C 
ATOM     25  O34 ZIN A   1      18.303  -1.879   6.562  0.00  0.00    -0.292 OA
BRANCH  24  26
ATOM     26  C35 ZIN A   1      19.806  -3.692   6.535  0.00  0.00     0.245 C 
BRANCH  26  27
ATOM     27  O36 ZIN A   1      19.238  -4.296   5.372  0.00  0.00    -0.393 OA
ATOM     28  H65 ZIN A   1      18.488  -3.812   5.003  0.00  0.00     0.209 HD
ENDBRANCH  26  27
ENDBRANCH  24  26
ENDBRANCH  22  24
BRANCH   1  29
ATOM     29  C3  ZIN A   1      15.762  -5.484   9.002  0.00  0.00     0.060 C 
BRANCH  29  30
ATOM     30  C2  ZIN A   1      16.232  -6.364   7.842  0.00  0.00     0.000 C 
ATOM     31  C1  ZIN A   1      15.315  -7.583   7.722  0.00  0.00     0.005 C 
ENDBRANCH  29  30
ENDBRANCH   1  29
BRANCH  18  32
ATOM     32  O28 ZIN A   1      19.502   0.836  10.151  0.00  0.00    -0.395 OA
ATOM     33  H57 ZIN A   1      19.550   1.802  10.129  0.00  0.00     0.210 HD
ENDBRANCH  18  32
TORSDOF 6
ENDMDL
MODEL 8
REMARK VINA RESULT:      -6.6      2.137      7.390
REMARK  6 active torsions:
REMARK  status: ('A' for Active; 'I' for Inactive)
REMARK    1  A    between atoms: C2_2  and  C3_3 
REMARK    2  A    between atoms: C3_3  and  C4_4 
REMARK    3  A    between atoms: C26_21  and  O28_22 
REMARK    4  A    between atoms: C32_26  and  C33_27 
REMARK    5  A    between atoms: C33_27  and  C35_29 
REMARK    6  A    between atoms: C35_29  and  O36_30 
ROOT
ATOM      1  C4  ZIN A   1      19.023  -0.028  14.011  0.00  0.00     0.262 C 
ATOM      2  O6  ZIN A   1      17.658   0.408  14.175  0.00  0.00    -0.352 OA
ATOM      3  C7  ZIN A   1      17.192   0.582  12.816  0.00  0.00     0.168 C 
ATOM      4  C9  ZIN A   1      16.904  -0.818  12.223  0.00  0.00     0.041 C 
ATOM      5  C10 ZIN A   1      18.064  -1.104  11.276  0.00  0.00     0.004 C 
ATOM      6  C12 ZIN A   1      17.745  -1.936  10.049  0.00  0.00    -0.001 C 
ATOM      7  C14 ZIN A   1      17.228  -3.313  10.471  0.00  0.00     0.010 C 
ATOM      8  C15 ZIN A   1      16.863  -4.130   9.227  0.00  0.00     0.036 C 
ATOM      9  C16 ZIN A   1      18.079  -4.178   8.321  0.00  0.00    -0.064 A 
ATOM     10  C17 ZIN A   1      18.502  -5.354   7.878  0.00  0.00     0.058 A 
ATOM     11  C18 ZIN A   1      19.690  -5.444   7.015  0.00  0.00     0.172 A 
ATOM     12  O19 ZIN A   1      20.059  -6.516   6.574  0.00  0.00    -0.289 OA
ATOM     13  C20 ZIN A   1      20.422  -4.206   6.696  0.00  0.00     0.052 A 
ATOM     14  C21 ZIN A   1      19.978  -3.043   7.143  0.00  0.00    -0.009 A 
ATOM     15  C22 ZIN A   1      18.745  -2.882   7.967  0.00  0.00     0.004 A 
ATOM     16  C23 ZIN A   1      17.748  -2.050   7.158  0.00  0.00     0.025 C 
ATOM     17  C24 ZIN A   1      19.042  -2.081   9.237  0.00  0.00     0.035 C 
ATOM     18  C26 ZIN A   1      19.618  -0.722   8.856  0.00  0.00     0.124 C 
ATOM     19  C29 ZIN A   1      19.814   0.178  10.086  0.00  0.00     0.045 C 
ATOM     20  C30 ZIN A   1      18.481   0.308  10.785  0.00  0.00     0.004 C 
ATOM     21  C31 ZIN A   1      17.419   0.822   9.811  0.00  0.00     0.019 C 
ATOM     22  C32 ZIN A   1      18.460   1.132  12.089  0.00  0.00     0.160 C 
ATOM     23  O37 ZIN A   1      19.563   0.742  12.925  0.00  0.00    -0.339 OA
ENDROOT
BRANCH  22  24
ATOM     24  C33 ZIN A   1      18.372   2.615  11.835  0.00  0.00     0.188 C 
ATOM     25  O34 ZIN A   1      17.375   3.223  12.140  0.00  0.00    -0.292 OA
BRANCH  24  26
ATOM     26  C35 ZIN A   1      19.529   3.339  11.196  0.00  0.00     0.245 C 
BRANCH  26  27
ATOM     27  O36 ZIN A   1      20.749   2.936  11.822  0.00  0.00    -0.393 OA
ATOM     28  H65 ZIN A   1      21.099   3.580  12.452  0.00  0.00     0.209 HD
ENDBRANCH  26  27
ENDBRANCH  24  26
ENDBRANCH  22  24
BRANCH   1  29
ATOM     29  C3  ZIN A   1      19.817   0.241  15.291  0.00  0.00     0.060 C 
BRANCH  29  30
ATOM     30  C2  ZIN A   1      18.968  -0.132  16.508  0.00  0.00     0.000 C 
ATOM     31  C1  ZIN A   1      19.267   0.833  17.656  0.00  0.00     0.005 C 
ENDBRANCH  29  30
ENDBRANCH   1  29
BRANCH  18  32
ATOM     32  O28 ZIN A   1      18.726  -0.077   7.946  0.00  0.00    -0.395 OA
ATOM     33  H57 ZIN A   1      17.999   0.394   8.375  0.00  0.00     0.210 HD
ENDBRANCH  18  32
TORSDOF 6
ENDMDL
MODEL 9
REMARK VINA RESULT:      -6.4      6.022      9.213
REMARK  6 active torsions:
REMARK  status: ('A' for Active; 'I' for Inactive)
REMARK    1  A    between atoms: C2_2  and  C3_3 
REMARK    2  A    between atoms: C3_3  and  C4_4 
REMARK    3  A    between atoms: C26_21  and  O28_22 
REMARK    4  A    between atoms: C32_26  and  C33_27 
REMARK    5  A    between atoms: C33_27  and  C35_29 
REMARK    6  A    between atoms: C35_29  and  O36_30 
ROOT
ATOM      1  C4  ZIN A   1      17.987   1.242  14.606  0.00  0.00     0.262 C 
ATOM      2  O6  ZIN A   1      19.419   1.389  14.704  0.00  0.00    -0.352 OA
ATOM      3  C7  ZIN A   1      19.631   2.802  14.479  0.00  0.00     0.168 C 
ATOM      4  C9  ZIN A   1      19.246   3.559  15.772  0.00  0.00     0.041 C 
ATOM      5  C10 ZIN A   1      17.898   4.208  15.477  0.00  0.00     0.004 C 
ATOM      6  C12 ZIN A   1      17.625   5.538  16.151  0.00  0.00    -0.001 C 
ATOM      7  C14 ZIN A   1      17.661   5.371  17.672  0.00  0.00     0.010 C 
ATOM      8  C15 ZIN A   1      17.433   6.728  18.345  0.00  0.00     0.036 C 
ATOM      9  C16 ZIN A   1      16.132   7.304  17.817  0.00  0.00    -0.064 A 
ATOM     10  C17 ZIN A   1      15.218   7.721  18.683  0.00  0.00     0.058 A 
ATOM     11  C18 ZIN A   1      13.935   8.265  18.211  0.00  0.00     0.172 A 
ATOM     12  O19 ZIN A   1      13.109   8.685  19.000  0.00  0.00    -0.289 OA
ATOM     13  C20 ZIN A   1      13.673   8.290  16.761  0.00  0.00     0.052 A 
ATOM     14  C21 ZIN A   1      14.603   7.876  15.916  0.00  0.00    -0.009 A 
ATOM     15  C22 ZIN A   1      15.944   7.375  16.332  0.00  0.00     0.004 A 
ATOM     16  C23 ZIN A   1      16.996   8.337  15.773  0.00  0.00     0.025 C 
ATOM     17  C24 ZIN A   1      16.234   6.010  15.701  0.00  0.00     0.035 C 
ATOM     18  C26 ZIN A   1      16.146   6.125  14.183  0.00  0.00     0.124 C 
ATOM     19  C29 ZIN A   1      16.556   4.816  13.489  0.00  0.00     0.045 C 
ATOM     20  C30 ZIN A   1      17.951   4.464  13.947  0.00  0.00     0.004 C 
ATOM     21  C31 ZIN A   1      18.908   5.627  13.677  0.00  0.00     0.019 C 
ATOM     22  C32 ZIN A   1      18.543   3.144  13.411  0.00  0.00     0.160 C 
ATOM     23  O37 ZIN A   1      17.569   2.094  13.528  0.00  0.00    -0.339 OA
ENDROOT
BRANCH  22  24
ATOM     24  C33 ZIN A   1      19.128   3.292  12.030  0.00  0.00     0.188 C 
ATOM     25  O34 ZIN A   1      20.325   3.253  11.873  0.00  0.00    -0.292 OA
BRANCH  24  26
ATOM     26  C35 ZIN A   1      18.219   3.490  10.844  0.00  0.00     0.245 C 
BRANCH  26  27
ATOM     27  O36 ZIN A   1      17.255   2.436  10.800  0.00  0.00    -0.393 OA
ATOM     28  H65 ZIN A   1      16.576   2.552  10.123  0.00  0.00     0.209 HD
ENDBRANCH  26  27
ENDBRANCH  24  26
ENDBRANCH  22  24
BRANCH   1  29
ATOM     29  C3  ZIN A   1      17.629  -0.213  14.297  0.00  0.00     0.060 C 
BRANCH  29  30
ATOM     30  C2  ZIN A   1      18.139  -1.116  15.421  0.00  0.00     0.000 C 
ATOM     31  C1  ZIN A   1      17.347  -0.836  16.700  0.00  0.00     0.005 C 
ENDBRANCH  29  30
ENDBRANCH   1  29
BRANCH  18  32
ATOM     32  O28 ZIN A   1      17.012   7.174  13.744  0.00  0.00    -0.395 OA
ATOM     33  H57 ZIN A   1      17.833   6.862  13.339  0.00  0.00     0.210 HD
ENDBRANCH  18  32
TORSDOF 6
ENDMDL
