MODEL 1
REMARK VINA RESULT:      -6.9      0.000      0.000
REMARK  8 active torsions:
REMARK  status: ('A' for Active; 'I' for Inactive)
REMARK    1  A    between atoms: N2_2  and  C5_5 
REMARK    2  A    between atoms: C5_5  and  C6_6 
REMARK    3  A    between atoms: C6_6  and  O7_7 
REMARK    4  A    between atoms: O7_7  and  C8_8 
REMARK    5  A    between atoms: C8_8  and  C10_10 
REMARK    6  A    between atoms: C10_10  and  C12_11 
REMARK    7  A    between atoms: C10_10  and  C18_17 
REMARK    8  A    between atoms: C18_17  and  O19_18 
ROOT
ATOM      1  C10 ZIN A   1      18.504   0.781  10.340  0.00  0.00     0.152 C 
ENDROOT
BRANCH   1   2
ATOM      2  C8  ZIN A   1      19.695  -0.039  10.766  0.00  0.00     0.270 C 
ATOM      3  O9  ZIN A   1      20.502  -0.403   9.943  0.00  0.00    -0.264 OA
BRANCH   2   4
ATOM      4  O7  ZIN A   1      19.859  -0.363  12.057  0.00  0.00    -0.319 OA
BRANCH   4   5
ATOM      5  C6  ZIN A   1      18.938  -1.338  12.614  0.00  0.00     0.206 C 
BRANCH   5   6
ATOM      6  C5  ZIN A   1      18.227  -0.734  13.826  0.00  0.00     0.260 C 
BRANCH   6   7
ATOM      7  N2  ZIN A   1      19.209  -0.454  14.882  0.00  0.00    -0.077 N 
ATOM      8  C1  ZIN A   1      19.123   0.960  15.268  0.00  0.00     0.269 C 
ATOM      9  H3  ZIN A   1      20.137  -0.654  14.538  0.00  0.00     0.279 HD
ATOM     10  C4  ZIN A   1      18.928  -1.300  16.050  0.00  0.00     0.269 C 
ENDBRANCH   6   7
ENDBRANCH   5   6
ENDBRANCH   4   5
ENDBRANCH   2   4
ENDBRANCH   1   2
BRANCH   1  11
ATOM     11  C12 ZIN A   1      18.352   0.707   8.842  0.00  0.00    -0.042 A 
ATOM     12  C17 ZIN A   1      19.225   1.400   8.024  0.00  0.00     0.008 A 
ATOM     13  C16 ZIN A   1      19.088   1.329   6.650  0.00  0.00     0.001 A 
ATOM     14  C15 ZIN A   1      18.071   0.574   6.095  0.00  0.00     0.000 A 
ATOM     15  C14 ZIN A   1      17.195  -0.113   6.914  0.00  0.00     0.001 A 
ATOM     16  C13 ZIN A   1      17.335  -0.045   8.287  0.00  0.00     0.008 A 
ENDBRANCH   1  11
BRANCH   1  17
ATOM     17  C18 ZIN A   1      18.709   2.236  10.761  0.00  0.00     0.074 C 
ATOM     18  C23 ZIN A   1      17.906   2.548  12.041  0.00  0.00     0.039 C 
ATOM     19  C22 ZIN A   1      17.365   3.980  11.883  0.00  0.00     0.003 C 
ATOM     20  C21 ZIN A   1      17.859   4.489  10.513  0.00  0.00     0.003 C 
ATOM     21  C20 ZIN A   1      18.120   3.197   9.699  0.00  0.00     0.039 C 
BRANCH  17  22
ATOM     22  O19 ZIN A   1      20.098   2.506  10.965  0.00  0.00    -0.389 OA
ATOM     23  H39 ZIN A   1      20.288   3.010  11.768  0.00  0.00     0.210 HD
ENDBRANCH  17  22
ENDBRANCH   1  17
TORSDOF 8
ENDMDL
MODEL 2
REMARK VINA RESULT:      -6.8      1.682      2.631
REMARK  8 active torsions:
REMARK  status: ('A' for Active; 'I' for Inactive)
REMARK    1  A    between atoms: N2_2  and  C5_5 
REMARK    2  A    between atoms: C5_5  and  C6_6 
REMARK    3  A    between atoms: C6_6  and  O7_7 
REMARK    4  A    between atoms: O7_7  and  C8_8 
REMARK    5  A    between atoms: C8_8  and  C10_10 
REMARK    6  A    between atoms: C10_10  and  C12_11 
REMARK    7  A    between atoms: C10_10  and  C18_17 
REMARK    8  A    between atoms: C18_17  and  O19_18 
ROOT
ATOM      1  C10 ZIN A   1      18.346   0.702  10.263  0.00  0.00     0.152 C 
ENDROOT
BRANCH   1   2
ATOM      2  C8  ZIN A   1      19.464  -0.196  10.727  0.00  0.00     0.270 C 
ATOM      3  O9  ZIN A   1      20.358  -0.488   9.968  0.00  0.00    -0.264 OA
BRANCH   2   4
ATOM      4  O7  ZIN A   1      19.467  -0.669  11.982  0.00  0.00    -0.319 OA
BRANCH   4   5
ATOM      5  C6  ZIN A   1      18.312  -1.446  12.396  0.00  0.00     0.206 C 
BRANCH   5   6
ATOM      6  C5  ZIN A   1      18.493  -2.901  11.962  0.00  0.00     0.260 C 
BRANCH   6   7
ATOM      7  N2  ZIN A   1      17.390  -3.290  11.075  0.00  0.00    -0.077 N 
ATOM      8  C1  ZIN A   1      17.876  -3.358   9.690  0.00  0.00     0.269 C 
ATOM      9  H3  ZIN A   1      16.650  -2.606  11.139  0.00  0.00     0.279 HD
ATOM     10  C4  ZIN A   1      16.875  -4.606  11.479  0.00  0.00     0.269 C 
ENDBRANCH   6   7
ENDBRANCH   5   6
ENDBRANCH   4   5
ENDBRANCH   2   4
ENDBRANCH   1   2
BRANCH   1  11
ATOM     11  C12 ZIN A   1      18.258   0.660   8.759  0.00  0.00    -0.042 A 
ATOM     12  C17 ZIN A   1      17.256  -0.068   8.146  0.00  0.00     0.008 A 
ATOM     13  C16 ZIN A   1      17.172  -0.104   6.767  0.00  0.00     0.001 A 
ATOM     14  C15 ZIN A   1      18.097   0.581   6.001  0.00  0.00     0.000 A 
ATOM     15  C14 ZIN A   1      19.102   1.305   6.614  0.00  0.00     0.001 A 
ATOM     16  C13 ZIN A   1      19.183   1.343   7.993  0.00  0.00     0.008 A 
ENDBRANCH   1  11
BRANCH   1  17
ATOM     17  C18 ZIN A   1      18.622   2.137  10.717  0.00  0.00     0.074 C 
ATOM     18  C23 ZIN A   1      17.817   2.465  11.991  0.00  0.00     0.039 C 
ATOM     19  C22 ZIN A   1      17.355   3.926  11.855  0.00  0.00     0.003 C 
ATOM     20  C21 ZIN A   1      17.896   4.435  10.504  0.00  0.00     0.003 C 
ATOM     21  C20 ZIN A   1      18.101   3.148   9.667  0.00  0.00     0.039 C 
BRANCH  17  22
ATOM     22  O19 ZIN A   1      20.020   2.327  10.947  0.00  0.00    -0.389 OA
ATOM     23  H39 ZIN A   1      20.280   3.253  11.050  0.00  0.00     0.210 HD
ENDBRANCH  17  22
ENDBRANCH   1  17
TORSDOF 8
ENDMDL
MODEL 3
REMARK VINA RESULT:      -6.8      1.948      4.001
REMARK  8 active torsions:
REMARK  status: ('A' for Active; 'I' for Inactive)
REMARK    1  A    between atoms: N2_2  and  C5_5 
REMARK    2  A    between atoms: C5_5  and  C6_6 
REMARK    3  A    between atoms: C6_6  and  O7_7 
REMARK    4  A    between atoms: O7_7  and  C8_8 
REMARK    5  A    between atoms: C8_8  and  C10_10 
REMARK    6  A    between atoms: C10_10  and  C12_11 
REMARK    7  A    between atoms: C10_10  and  C18_17 
REMARK    8  A    between atoms: C18_17  and  O19_18 
ROOT
ATOM      1  C10 ZIN A   1      19.002  -0.373  11.386  0.00  0.00     0.152 C 
ENDROOT
BRANCH   1   2
ATOM      2  C8  ZIN A   1      19.964   0.049  12.467  0.00  0.00     0.270 C 
ATOM      3  O9  ZIN A   1      20.977   0.641  12.175  0.00  0.00    -0.264 OA
BRANCH   2   4
ATOM      4  O7  ZIN A   1      19.697  -0.233  13.751  0.00  0.00    -0.319 OA
BRANCH   4   5
ATOM      5  C6  ZIN A   1      19.223   0.861  14.581  0.00  0.00     0.206 C 
BRANCH   5   6
ATOM      6  C5  ZIN A   1      17.707   0.752  14.750  0.00  0.00     0.260 C 
BRANCH   6   7
ATOM      7  N2  ZIN A   1      17.376   0.698  16.180  0.00  0.00    -0.077 N 
ATOM      8  C1  ZIN A   1      17.284  -0.704  16.609  0.00  0.00     0.269 C 
ATOM      9  H3  ZIN A   1      16.492   1.158  16.338  0.00  0.00     0.279 HD
ATOM     10  C4  ZIN A   1      18.425   1.379  16.953  0.00  0.00     0.269 C 
ENDBRANCH   6   7
ENDBRANCH   5   6
ENDBRANCH   4   5
ENDBRANCH   2   4
ENDBRANCH   1   2
BRANCH   1  11
ATOM     11  C12 ZIN A   1      18.830  -1.870  11.422  0.00  0.00    -0.042 A 
ATOM     12  C17 ZIN A   1      19.939  -2.694  11.425  0.00  0.00     0.008 A 
ATOM     13  C16 ZIN A   1      19.781  -4.067  11.461  0.00  0.00     0.001 A 
ATOM     14  C15 ZIN A   1      18.512  -4.615  11.486  0.00  0.00     0.000 A 
ATOM     15  C14 ZIN A   1      17.403  -3.791  11.478  0.00  0.00     0.001 A 
ATOM     16  C13 ZIN A   1      17.562  -2.418  11.445  0.00  0.00     0.008 A 
ENDBRANCH   1  11
BRANCH   1  17
ATOM     17  C18 ZIN A   1      19.553   0.044  10.022  0.00  0.00     0.074 C 
ATOM     18  C23 ZIN A   1      19.425   1.570   9.830  0.00  0.00     0.039 C 
ATOM     19  C22 ZIN A   1      19.056   1.798   8.354  0.00  0.00     0.003 C 
ATOM     20  C21 ZIN A   1      18.973   0.405   7.700  0.00  0.00     0.003 C 
ATOM     21  C20 ZIN A   1      18.691  -0.555   8.883  0.00  0.00     0.039 C 
BRANCH  17  22
ATOM     22  O19 ZIN A   1      20.915  -0.364   9.887  0.00  0.00    -0.389 OA
ATOM     23  H39 ZIN A   1      21.166  -0.609   8.986  0.00  0.00     0.210 HD
ENDBRANCH  17  22
ENDBRANCH   1  17
TORSDOF 8
ENDMDL
MODEL 4
REMARK VINA RESULT:      -6.6      1.352      1.681
REMARK  8 active torsions:
REMARK  status: ('A' for Active; 'I' for Inactive)
REMARK    1  A    between atoms: N2_2  and  C5_5 
REMARK    2  A    between atoms: C5_5  and  C6_6 
REMARK    3  A    between atoms: C6_6  and  O7_7 
REMARK    4  A    between atoms: O7_7  and  C8_8 
REMARK    5  A    between atoms: C8_8  and  C10_10 
REMARK    6  A    between atoms: C10_10  and  C12_11 
REMARK    7  A    between atoms: C10_10  and  C18_17 
REMARK    8  A    between atoms: C18_17  and  O19_18 
ROOT
ATOM      1  C10 ZIN A   1      18.174   1.690  11.266  0.00  0.00     0.152 C 
ENDROOT
BRANCH   1   2
ATOM      2  C8  ZIN A   1      19.295   1.046  12.041  0.00  0.00     0.270 C 
ATOM      3  O9  ZIN A   1      19.937   0.151  11.542  0.00  0.00    -0.264 OA
BRANCH   2   4
ATOM      4  O7  ZIN A   1      19.580   1.466  13.283  0.00  0.00    -0.319 OA
BRANCH   4   5
ATOM      5  C6  ZIN A   1      19.240   0.571  14.376  0.00  0.00     0.206 C 
BRANCH   5   6
ATOM      6  C5  ZIN A   1      17.756   0.725  14.716  0.00  0.00     0.260 C 
BRANCH   6   7
ATOM      7  N2  ZIN A   1      17.601   0.883  16.168  0.00  0.00    -0.077 N 
ATOM      8  C1  ZIN A   1      17.129  -0.380  16.750  0.00  0.00     0.269 C 
ATOM      9  H3  ZIN A   1      16.929   1.612  16.356  0.00  0.00     0.279 HD
ATOM     10  C4  ZIN A   1      18.894   1.245  16.764  0.00  0.00     0.269 C 
ENDBRANCH   6   7
ENDBRANCH   5   6
ENDBRANCH   4   5
ENDBRANCH   2   4
ENDBRANCH   1   2
BRANCH   1  11
ATOM     11  C12 ZIN A   1      18.246   1.259   9.824  0.00  0.00    -0.042 A 
ATOM     12  C17 ZIN A   1      19.218   1.783   8.993  0.00  0.00     0.008 A 
ATOM     13  C16 ZIN A   1      19.286   1.385   7.671  0.00  0.00     0.001 A 
ATOM     14  C15 ZIN A   1      18.376   0.469   7.178  0.00  0.00     0.000 A 
ATOM     15  C14 ZIN A   1      17.400  -0.052   8.008  0.00  0.00     0.001 A 
ATOM     16  C13 ZIN A   1      17.335   0.344   9.331  0.00  0.00     0.008 A 
ENDBRANCH   1  11
BRANCH   1  17
ATOM     17  C18 ZIN A   1      18.305   3.212  11.351  0.00  0.00     0.074 C 
ATOM     18  C23 ZIN A   1      17.399   3.771  12.468  0.00  0.00     0.039 C 
ATOM     19  C22 ZIN A   1      16.829   5.102  11.946  0.00  0.00     0.003 C 
ATOM     20  C21 ZIN A   1      17.408   5.305  10.532  0.00  0.00     0.003 C 
ATOM     21  C20 ZIN A   1      17.768   3.875  10.058  0.00  0.00     0.039 C 
BRANCH  17  22
ATOM     22  O19 ZIN A   1      19.665   3.584  11.577  0.00  0.00    -0.389 OA
ATOM     23  H39 ZIN A   1      20.298   2.866  11.444  0.00  0.00     0.210 HD
ENDBRANCH  17  22
ENDBRANCH   1  17
TORSDOF 8
ENDMDL
MODEL 5
REMARK VINA RESULT:      -6.6      2.488      4.896
REMARK  8 active torsions:
REMARK  status: ('A' for Active; 'I' for Inactive)
REMARK    1  A    between atoms: N2_2  and  C5_5 
REMARK    2  A    between atoms: C5_5  and  C6_6 
REMARK    3  A    between atoms: C6_6  and  O7_7 
REMARK    4  A    between atoms: O7_7  and  C8_8 
REMARK    5  A    between atoms: C8_8  and  C10_10 
REMARK    6  A    between atoms: C10_10  and  C12_11 
REMARK    7  A    between atoms: C10_10  and  C18_17 
REMARK    8  A    between atoms: C18_17  and  O19_18 
ROOT
ATOM      1  C10 ZIN A   1      19.804  -0.799  12.092  0.00  0.00     0.152 C 
ENDROOT
BRANCH   1   2
ATOM      2  C8  ZIN A   1      19.284   0.162  11.055  0.00  0.00     0.270 C 
ATOM      3  O9  ZIN A   1      18.724  -0.258  10.069  0.00  0.00    -0.264 OA
BRANCH   2   4
ATOM      4  O7  ZIN A   1      19.442   1.483  11.225  0.00  0.00    -0.319 OA
BRANCH   4   5
ATOM      5  C6  ZIN A   1      18.459   2.351  10.598  0.00  0.00     0.206 C 
BRANCH   5   6
ATOM      6  C5  ZIN A   1      17.787   3.215  11.666  0.00  0.00     0.260 C 
BRANCH   6   7
ATOM      7  N2  ZIN A   1      18.718   3.428  12.782  0.00  0.00    -0.077 N 
ATOM      8  C1  ZIN A   1      19.541   4.615  12.512  0.00  0.00     0.269 C 
ATOM      9  H3  ZIN A   1      19.314   2.620  12.882  0.00  0.00     0.279 HD
ATOM     10  C4  ZIN A   1      17.958   3.631  14.023  0.00  0.00     0.269 C 
ENDBRANCH   6   7
ENDBRANCH   5   6
ENDBRANCH   4   5
ENDBRANCH   2   4
ENDBRANCH   1   2
BRANCH   1  11
ATOM     11  C12 ZIN A   1      19.216  -2.166  11.852  0.00  0.00    -0.042 A 
ATOM     12  C17 ZIN A   1      20.049  -3.250  11.649  0.00  0.00     0.008 A 
ATOM     13  C16 ZIN A   1      19.510  -4.504  11.432  0.00  0.00     0.001 A 
ATOM     14  C15 ZIN A   1      18.138  -4.672  11.410  0.00  0.00     0.000 A 
ATOM     15  C14 ZIN A   1      17.306  -3.587  11.608  0.00  0.00     0.001 A 
ATOM     16  C13 ZIN A   1      17.845  -2.333  11.828  0.00  0.00     0.008 A 
ENDBRANCH   1  11
BRANCH   1  17
ATOM     17  C18 ZIN A   1      19.405  -0.310  13.486  0.00  0.00     0.074 C 
ATOM     18  C23 ZIN A   1      19.656  -1.411  14.537  0.00  0.00     0.039 C 
ATOM     19  C22 ZIN A   1      18.496  -1.328  15.545  0.00  0.00     0.003 C 
ATOM     20  C21 ZIN A   1      17.581  -0.181  15.071  0.00  0.00     0.003 C 
ATOM     21  C20 ZIN A   1      17.879  -0.058  13.556  0.00  0.00     0.039 C 
BRANCH  17  22
ATOM     22  O19 ZIN A   1      20.125   0.877  13.823  0.00  0.00    -0.389 OA
ATOM     23  H39 ZIN A   1      20.000   1.168  14.737  0.00  0.00     0.210 HD
ENDBRANCH  17  22
ENDBRANCH   1  17
TORSDOF 8
ENDMDL
MODEL 6
REMARK VINA RESULT:      -6.4      2.780      5.683
REMARK  8 active torsions:
REMARK  status: ('A' for Active; 'I' for Inactive)
REMARK    1  A    between atoms: N2_2  and  C5_5 
REMARK    2  A    between atoms: C5_5  and  C6_6 
REMARK    3  A    between atoms: C6_6  and  O7_7 
REMARK    4  A    between atoms: O7_7  and  C8_8 
REMARK    5  A    between atoms: C8_8  and  C10_10 
REMARK    6  A    between atoms: C10_10  and  C12_11 
REMARK    7  A    between atoms: C10_10  and  C18_17 
REMARK    8  A    between atoms: C18_17  and  O19_18 
ROOT
ATOM      1  C10 ZIN A   1      19.757  -0.733  12.112  0.00  0.00     0.152 C 
ENDROOT
BRANCH   1   2
ATOM      2  C8  ZIN A   1      19.187   0.234  11.107  0.00  0.00     0.270 C 
ATOM      3  O9  ZIN A   1      19.525   1.394  11.128  0.00  0.00    -0.264 OA
BRANCH   2   4
ATOM      4  O7  ZIN A   1      18.307  -0.193  10.190  0.00  0.00    -0.319 OA
BRANCH   4   5
ATOM      5  C6  ZIN A   1      18.746  -0.196   8.805  0.00  0.00     0.206 C 
BRANCH   5   6
ATOM      6  C5  ZIN A   1      17.586  -0.619   7.903  0.00  0.00     0.260 C 
BRANCH   6   7
ATOM      7  N2  ZIN A   1      17.971  -1.809   7.133  0.00  0.00    -0.077 N 
ATOM      8  C1  ZIN A   1      19.123  -1.488   6.280  0.00  0.00     0.269 C 
ATOM      9  H3  ZIN A   1      17.197  -2.102   6.557  0.00  0.00     0.279 HD
ATOM     10  C4  ZIN A   1      18.332  -2.894   8.056  0.00  0.00     0.269 C 
ENDBRANCH   6   7
ENDBRANCH   5   6
ENDBRANCH   4   5
ENDBRANCH   2   4
ENDBRANCH   1   2
BRANCH   1  11
ATOM     11  C12 ZIN A   1      19.191  -2.108  11.865  0.00  0.00    -0.042 A 
ATOM     12  C17 ZIN A   1      17.823  -2.306  11.879  0.00  0.00     0.008 A 
ATOM     13  C16 ZIN A   1      17.305  -3.566  11.648  0.00  0.00     0.001 A 
ATOM     14  C15 ZIN A   1      18.154  -4.630  11.413  0.00  0.00     0.000 A 
ATOM     15  C14 ZIN A   1      19.523  -4.434  11.405  0.00  0.00     0.001 A 
ATOM     16  C13 ZIN A   1      20.041  -3.173  11.632  0.00  0.00     0.008 A 
ENDBRANCH   1  11
BRANCH   1  17
ATOM     17  C18 ZIN A   1      19.388  -0.277  13.525  0.00  0.00     0.074 C 
ATOM     18  C23 ZIN A   1      19.642  -1.409  14.542  0.00  0.00     0.039 C 
ATOM     19  C22 ZIN A   1      18.500  -1.338  15.572  0.00  0.00     0.003 C 
ATOM     20  C21 ZIN A   1      17.594  -0.166  15.144  0.00  0.00     0.003 C 
ATOM     21  C20 ZIN A   1      17.867  -0.006  13.628  0.00  0.00     0.039 C 
BRANCH  17  22
ATOM     22  O19 ZIN A   1      20.131   0.891  13.881  0.00  0.00    -0.389 OA
ATOM     23  H39 ZIN A   1      19.706   1.437  14.557  0.00  0.00     0.210 HD
ENDBRANCH  17  22
ENDBRANCH   1  17
TORSDOF 8
ENDMDL
MODEL 7
REMARK VINA RESULT:      -6.4      2.311      4.672
REMARK  8 active torsions:
REMARK  status: ('A' for Active; 'I' for Inactive)
REMARK    1  A    between atoms: N2_2  and  C5_5 
REMARK    2  A    between atoms: C5_5  and  C6_6 
REMARK    3  A    between atoms: C6_6  and  O7_7 
REMARK    4  A    between atoms: O7_7  and  C8_8 
REMARK    5  A    between atoms: C8_8  and  C10_10 
REMARK    6  A    between atoms: C10_10  and  C12_11 
REMARK    7  A    between atoms: C10_10  and  C18_17 
REMARK    8  A    between atoms: C18_17  and  O19_18 
ROOT
ATOM      1  C10 ZIN A   1      19.442   0.521  10.811  0.00  0.00     0.152 C 
ENDROOT
BRANCH   1   2
ATOM      2  C8  ZIN A   1      18.586  -0.388  11.654  0.00  0.00     0.270 C 
ATOM      3  O9  ZIN A   1      17.753   0.081  12.393  0.00  0.00    -0.264 OA
BRANCH   2   4
ATOM      4  O7  ZIN A   1      18.748  -1.718  11.583  0.00  0.00    -0.319 OA
BRANCH   4   5
ATOM      5  C6  ZIN A   1      17.545  -2.532  11.614  0.00  0.00     0.206 C 
BRANCH   5   6
ATOM      6  C5  ZIN A   1      17.849  -3.913  11.032  0.00  0.00     0.260 C 
BRANCH   6   7
ATOM      7  N2  ZIN A   1      18.697  -3.769   9.842  0.00  0.00    -0.077 N 
ATOM      8  C1  ZIN A   1      19.654  -4.882   9.786  0.00  0.00     0.269 C 
ATOM      9  H3  ZIN A   1      19.199  -2.895   9.892  0.00  0.00     0.279 HD
ATOM     10  C4  ZIN A   1      17.857  -3.782   8.637  0.00  0.00     0.269 C 
ENDBRANCH   6   7
ENDBRANCH   5   6
ENDBRANCH   4   5
ENDBRANCH   2   4
ENDBRANCH   1   2
BRANCH   1  11
ATOM     11  C12 ZIN A   1      19.007   1.950  11.011  0.00  0.00    -0.042 A 
ATOM     12  C17 ZIN A   1      19.840   2.841  11.661  0.00  0.00     0.008 A 
ATOM     13  C16 ZIN A   1      19.442   4.153  11.841  0.00  0.00     0.001 A 
ATOM     14  C15 ZIN A   1      18.208   4.571  11.379  0.00  0.00     0.000 A 
ATOM     15  C14 ZIN A   1      17.374   3.678  10.733  0.00  0.00     0.001 A 
ATOM     16  C13 ZIN A   1      17.773   2.367  10.550  0.00  0.00     0.008 A 
ENDBRANCH   1  11
BRANCH   1  17
ATOM     17  C18 ZIN A   1      19.290   0.143   9.336  0.00  0.00     0.074 C 
ATOM     18  C23 ZIN A   1      19.774   1.294   8.430  0.00  0.00     0.039 C 
ATOM     19  C22 ZIN A   1      18.819   1.336   7.225  0.00  0.00     0.003 C 
ATOM     20  C21 ZIN A   1      17.788   0.209   7.440  0.00  0.00     0.003 C 
ATOM     21  C20 ZIN A   1      17.795  -0.025   8.971  0.00  0.00     0.039 C 
BRANCH  17  22
ATOM     22  O19 ZIN A   1      20.014  -1.055   9.051  0.00  0.00    -0.389 OA
ATOM     23  H39 ZIN A   1      20.931  -0.908   8.783  0.00  0.00     0.210 HD
ENDBRANCH  17  22
ENDBRANCH   1  17
TORSDOF 8
ENDMDL
MODEL 8
REMARK VINA RESULT:      -6.4      2.708      5.768
REMARK  8 active torsions:
REMARK  status: ('A' for Active; 'I' for Inactive)
REMARK    1  A    between atoms: N2_2  and  C5_5 
REMARK    2  A    between atoms: C5_5  and  C6_6 
REMARK    3  A    between atoms: C6_6  and  O7_7 
REMARK    4  A    between atoms: O7_7  and  C8_8 
REMARK    5  A    between atoms: C8_8  and  C10_10 
REMARK    6  A    between atoms: C10_10  and  C12_11 
REMARK    7  A    between atoms: C10_10  and  C18_17 
REMARK    8  A    between atoms: C18_17  and  O19_18 
ROOT
ATOM      1  C10 ZIN A   1      18.261  -0.161  12.346  0.00  0.00     0.152 C 
ENDROOT
BRANCH   1   2
ATOM      2  C8  ZIN A   1      17.011  -0.793  11.790  0.00  0.00     0.270 C 
ATOM      3  O9  ZIN A   1      16.012  -0.129  11.645  0.00  0.00    -0.264 OA
BRANCH   2   4
ATOM      4  O7  ZIN A   1      17.008  -2.092  11.456  0.00  0.00    -0.319 OA
BRANCH   4   5
ATOM      5  C6  ZIN A   1      18.264  -2.658  10.996  0.00  0.00     0.206 C 
BRANCH   5   6
ATOM      6  C5  ZIN A   1      18.101  -3.164   9.562  0.00  0.00     0.260 C 
BRANCH   6   7
ATOM      7  N2  ZIN A   1      19.270  -2.769   8.766  0.00  0.00    -0.077 N 
ATOM      8  C1  ZIN A   1      19.242  -3.469   7.475  0.00  0.00     0.269 C 
ATOM      9  H3  ZIN A   1      20.113  -3.014   9.264  0.00  0.00     0.279 HD
ATOM     10  C4  ZIN A   1      19.241  -1.318   8.539  0.00  0.00     0.269 C 
ENDBRANCH   6   7
ENDBRANCH   5   6
ENDBRANCH   4   5
ENDBRANCH   2   4
ENDBRANCH   1   2
BRANCH   1  11
ATOM     11  C12 ZIN A   1      18.293  -0.339  13.842  0.00  0.00    -0.042 A 
ATOM     12  C17 ZIN A   1      19.225  -1.182  14.418  0.00  0.00     0.008 A 
ATOM     13  C16 ZIN A   1      19.256  -1.343  15.790  0.00  0.00     0.001 A 
ATOM     14  C15 ZIN A   1      18.350  -0.668  16.586  0.00  0.00     0.000 A 
ATOM     15  C14 ZIN A   1      17.414   0.171  16.009  0.00  0.00     0.001 A 
ATOM     16  C13 ZIN A   1      17.385   0.334  14.637  0.00  0.00     0.008 A 
ENDBRANCH   1  11
BRANCH   1  17
ATOM     17  C18 ZIN A   1      18.270   1.331  12.010  0.00  0.00     0.074 C 
ATOM     18  C23 ZIN A   1      18.185   1.543  10.484  0.00  0.00     0.039 C 
ATOM     19  C22 ZIN A   1      19.092   2.741  10.155  0.00  0.00     0.003 C 
ATOM     20  C21 ZIN A   1      19.697   3.216  11.492  0.00  0.00     0.003 C 
ATOM     21  C20 ZIN A   1      19.625   1.968  12.406  0.00  0.00     0.039 C 
BRANCH  17  22
ATOM     22  O19 ZIN A   1      17.191   1.998  12.668  0.00  0.00    -0.389 OA
ATOM     23  H39 ZIN A   1      17.416   2.343  13.543  0.00  0.00     0.210 HD
ENDBRANCH  17  22
ENDBRANCH   1  17
TORSDOF 8
ENDMDL
MODEL 9
REMARK VINA RESULT:      -6.4      2.222      5.734
REMARK  8 active torsions:
REMARK  status: ('A' for Active; 'I' for Inactive)
REMARK    1  A    between atoms: N2_2  and  C5_5 
REMARK    2  A    between atoms: C5_5  and  C6_6 
REMARK    3  A    between atoms: C6_6  and  O7_7 
REMARK    4  A    between atoms: O7_7  and  C8_8 
REMARK    5  A    between atoms: C8_8  and  C10_10 
REMARK    6  A    between atoms: C10_10  and  C12_11 
REMARK    7  A    between atoms: C10_10  and  C18_17 
REMARK    8  A    between atoms: C18_17  and  O19_18 
ROOT
ATOM      1  C10 ZIN A   1      19.291   0.271  14.148  0.00  0.00     0.152 C 
ENDROOT
BRANCH   1   2
ATOM      2  C8  ZIN A   1      19.290   1.581  13.402  0.00  0.00     0.270 C 
ATOM      3  O9  ZIN A   1      18.707   2.535  13.859  0.00  0.00    -0.264 OA
BRANCH   2   4
ATOM      4  O7  ZIN A   1      19.937   1.686  12.232  0.00  0.00    -0.319 OA
BRANCH   4   5
ATOM      5  C6  ZIN A   1      19.396   2.623  11.262  0.00  0.00     0.206 C 
BRANCH   5   6
ATOM      6  C5  ZIN A   1      18.686   1.850  10.149  0.00  0.00     0.260 C 
BRANCH   6   7
ATOM      7  N2  ZIN A   1      19.676   1.364   9.180  0.00  0.00    -0.077 N 
ATOM      8  C1  ZIN A   1      19.781  -0.098   9.280  0.00  0.00     0.269 C 
ATOM      9  H3  ZIN A   1      20.573   1.781   9.379  0.00  0.00     0.279 HD
ATOM     10  C4  ZIN A   1      19.255   1.733   7.821  0.00  0.00     0.269 C 
ENDBRANCH   6   7
ENDBRANCH   5   6
ENDBRANCH   4   5
ENDBRANCH   2   4
ENDBRANCH   1   2
BRANCH   1  11
ATOM     11  C12 ZIN A   1      18.906  -0.843  13.209  0.00  0.00    -0.042 A 
ATOM     12  C17 ZIN A   1      19.732  -1.942  13.066  0.00  0.00     0.008 A 
ATOM     13  C16 ZIN A   1      19.376  -2.966  12.207  0.00  0.00     0.001 A 
ATOM     14  C15 ZIN A   1      18.200  -2.886  11.486  0.00  0.00     0.000 A 
ATOM     15  C14 ZIN A   1      17.377  -1.784  11.626  0.00  0.00     0.001 A 
ATOM     16  C13 ZIN A   1      17.731  -0.762  12.487  0.00  0.00     0.008 A 
ENDBRANCH   1  11
BRANCH   1  17
ATOM     17  C18 ZIN A   1      18.286   0.339  15.299  0.00  0.00     0.074 C 
ATOM     18  C23 ZIN A   1      18.900   1.069  16.511  0.00  0.00     0.039 C 
ATOM     19  C22 ZIN A   1      18.391   0.340  17.767  0.00  0.00     0.003 C 
ATOM     20  C21 ZIN A   1      17.486  -0.807  17.274  0.00  0.00     0.003 C 
ATOM     21  C20 ZIN A   1      17.971  -1.081  15.830  0.00  0.00     0.039 C 
BRANCH  17  22
ATOM     22  O19 ZIN A   1      17.087   0.993  14.876  0.00  0.00    -0.389 OA
ATOM     23  H39 ZIN A   1      17.080   1.238  13.941  0.00  0.00     0.210 HD
ENDBRANCH  17  22
ENDBRANCH   1  17
TORSDOF 8
ENDMDL
