MODEL 1
REMARK VINA RESULT:      -9.1      0.000      0.000
REMARK  15 active torsions:
REMARK  status: ('A' for Active; 'I' for Inactive)
REMARK    1  A    between atoms: C2_2  and  C3_3 
REMARK    2  A    between atoms: C3_3  and  C4_4 
REMARK    3  A    between atoms: C4_4  and  C5_5 
REMARK    4  A    between atoms: C5_5  and  O7_7 
REMARK    5  A    between atoms: O7_7  and  C8_8 
REMARK    6  A    between atoms: C8_8  and  C9_9 
REMARK    7  A    between atoms: C9_9  and  C11_11 
REMARK    8  A    between atoms: C11_11  and  O12_12 
REMARK    9  A    between atoms: C15_15  and  O16_16 
REMARK   10  A    between atoms: C22_22  and  O23_23 
REMARK   11  A    between atoms: C34_34  and  O36_35 
REMARK   12  A    between atoms: O36_35  and  C37_36 
REMARK   13  A    between atoms: C40_38  and  N42_39 
REMARK       I    between atoms: N42_39  and  C43_40 
REMARK   14  A    between atoms: C43_40  and  C45_42 
REMARK   15  A    between atoms: C49_46  and  O51_47 
ROOT
ATOM      1  C11 ZIN A   1      19.131   3.862  12.151  0.00  0.00     0.127 C 
ATOM      2  C13 ZIN A   1      19.660   3.202  10.879  0.00  0.00     0.088 C 
ATOM      3  C14 ZIN A   1      19.300   1.739  10.849  0.00  0.00    -0.009 A 
ATOM      4  C15 ZIN A   1      19.368   1.086   9.611  0.00  0.00     0.088 A 
ATOM      5  C17 ZIN A   1      19.056  -0.268   9.510  0.00  0.00     0.066 A 
ATOM      6  C18 ZIN A   1      18.670  -0.978  10.666  0.00  0.00     0.069 A 
ATOM      7  C19 ZIN A   1      18.343  -2.413  10.567  0.00  0.00     0.200 C 
ATOM      8  O20 ZIN A   1      17.775  -2.980  11.481  0.00  0.00    -0.286 OA
ATOM      9  C21 ZIN A   1      18.713  -3.153   9.345  0.00  0.00     0.062 A 
ATOM     10  C22 ZIN A   1      18.686  -4.549   9.321  0.00  0.00     0.083 A 
ATOM     11  C25 ZIN A   1      19.039  -5.225   8.158  0.00  0.00     0.038 A 
ATOM     12  C26 ZIN A   1      19.414  -4.526   7.029  0.00  0.00     0.004 A 
ATOM     13  C27 ZIN A   1      19.444  -3.139   7.037  0.00  0.00     0.017 A 
ATOM     14  C28 ZIN A   1      19.097  -2.445   8.188  0.00  0.00     0.032 A 
ATOM     15  C29 ZIN A   1      19.127  -0.966   8.213  0.00  0.00     0.197 C 
ATOM     16  O30 ZIN A   1      19.209  -0.335   7.178  0.00  0.00    -0.286 OA
ATOM     17  C31 ZIN A   1      18.603  -0.313  11.887  0.00  0.00     0.132 A 
ATOM     18  O32 ZIN A   1      18.230  -0.989  13.002  0.00  0.00    -0.190 OA
ATOM     19  C33 ZIN A   1      18.918   1.050  11.972  0.00  0.00     0.018 A 
ATOM     20  C34 ZIN A   1      18.809   1.701  13.326  0.00  0.00     0.164 C 
ATOM     21  C56 ZIN A   1      19.577   3.020  13.352  0.00  0.00     0.083 C 
ENDROOT
BRANCH  20  22
ATOM     22  O36 ZIN A   1      19.349   0.824  14.316  0.00  0.00    -0.351 OA
BRANCH  22  23
ATOM     23  C37 ZIN A   1      18.590   0.774  15.526  0.00  0.00     0.263 C 
ATOM     24  O55 ZIN A   1      19.038  -0.324  16.324  0.00  0.00    -0.354 OA
ATOM     25  C52 ZIN A   1      18.325  -0.481  17.552  0.00  0.00     0.151 C 
ATOM     26  C49 ZIN A   1      18.506   0.773  18.410  0.00  0.00     0.171 C 
ATOM     27  C54 ZIN A   1      16.839  -0.687  17.256  0.00  0.00     0.042 C 
ATOM     28  C40 ZIN A   1      18.014   1.994  17.626  0.00  0.00     0.147 C 
ATOM     29  C39 ZIN A   1      18.782   2.080  16.303  0.00  0.00     0.090 C 
BRANCH  26  30
ATOM     30  O51 ZIN A   1      17.748   0.643  19.614  0.00  0.00    -0.391 OA
ATOM     31  H80 ZIN A   1      17.261   1.442  19.861  0.00  0.00     0.210 HD
ENDBRANCH  26  30
BRANCH  28  32
ATOM     32  N42 ZIN A   1      18.251   3.210  18.409  0.00  0.00    -0.240 NA
ATOM     33  C43 ZIN A   1      17.258   3.736  19.153  0.00  0.00     0.346 C 
ATOM     34  O44 ZIN A   1      16.169   3.203  19.175  0.00  0.00    -0.261 OA
BRANCH  33  35
ATOM     35  C45 ZIN A   1      17.503   4.986  19.958  0.00  0.00     0.474 C 
ATOM     36  F46 ZIN A   1      18.548   4.763  20.860  0.00  0.00    -0.162 F 
ATOM     37  F47 ZIN A   1      17.846   6.036  19.098  0.00  0.00    -0.162 F 
ATOM     38  F48 ZIN A   1      16.341   5.321  20.663  0.00  0.00    -0.162 F 
ENDBRANCH  33  35
ENDBRANCH  28  32
ENDBRANCH  22  23
ENDBRANCH  20  22
BRANCH   1  39
ATOM     39  C9  ZIN A   1      17.626   3.922  12.103  0.00  0.00     0.185 C 
ATOM     40  O10 ZIN A   1      17.037   3.539  11.122  0.00  0.00    -0.292 OA
BRANCH  39  41
ATOM     41  C8  ZIN A   1      16.856   4.461  13.282  0.00  0.00     0.260 C 
BRANCH  41  42
ATOM     42  O7  ZIN A   1      16.847   5.912  13.232  0.00  0.00    -0.314 OA
BRANCH  42  43
ATOM     43  C5  ZIN A   1      17.178   6.563  14.357  0.00  0.00     0.259 C 
ATOM     44  O6  ZIN A   1      17.052   7.764  14.419  0.00  0.00    -0.265 OA
BRANCH  43  45
ATOM     45  C4  ZIN A   1      17.705   5.799  15.543  0.00  0.00     0.111 C 
BRANCH  45  46
ATOM     46  C3  ZIN A   1      19.000   6.450  16.035  0.00  0.00     0.009 C 
BRANCH  46  47
ATOM     47  C2  ZIN A   1      20.122   5.409  16.049  0.00  0.00    -0.004 C 
ATOM     48  C1  ZIN A   1      21.352   5.975  15.336  0.00  0.00     0.005 C 
ENDBRANCH  46  47
ENDBRANCH  45  46
ENDBRANCH  43  45
ENDBRANCH  42  43
ENDBRANCH  41  42
ENDBRANCH  39  41
ENDBRANCH   1  39
BRANCH   1  49
ATOM     49  O12 ZIN A   1      19.663   5.184  12.264  0.00  0.00    -0.382 OA
ATOM     50  H68 ZIN A   1      20.580   5.214  12.571  0.00  0.00     0.211 HD
ENDBRANCH   1  49
BRANCH   4  51
ATOM     51  O16 ZIN A   1      19.742   1.775   8.504  0.00  0.00    -0.359 OA
ATOM     52  H71 ZIN A   1      20.452   1.354   8.000  0.00  0.00     0.217 HD
ENDBRANCH   4  51
BRANCH  10  53
ATOM     53  O23 ZIN A   1      18.317  -5.241  10.428  0.00  0.00    -0.355 OA
ATOM     54  C24 ZIN A   1      17.255  -6.185  10.278  0.00  0.00     0.210 C 
ENDBRANCH  10  53
TORSDOF 15
ENDMDL
MODEL 2
REMARK VINA RESULT:      -8.7      5.805     11.779
REMARK  15 active torsions:
REMARK  status: ('A' for Active; 'I' for Inactive)
REMARK    1  A    between atoms: C2_2  and  C3_3 
REMARK    2  A    between atoms: C3_3  and  C4_4 
REMARK    3  A    between atoms: C4_4  and  C5_5 
REMARK    4  A    between atoms: C5_5  and  O7_7 
REMARK    5  A    between atoms: O7_7  and  C8_8 
REMARK    6  A    between atoms: C8_8  and  C9_9 
REMARK    7  A    between atoms: C9_9  and  C11_11 
REMARK    8  A    between atoms: C11_11  and  O12_12 
REMARK    9  A    between atoms: C15_15  and  O16_16 
REMARK   10  A    between atoms: C22_22  and  O23_23 
REMARK   11  A    between atoms: C34_34  and  O36_35 
REMARK   12  A    between atoms: O36_35  and  C37_36 
REMARK   13  A    between atoms: C40_38  and  N42_39 
REMARK       I    between atoms: N42_39  and  C43_40 
REMARK   14  A    between atoms: C43_40  and  C45_42 
REMARK   15  A    between atoms: C49_46  and  O51_47 
ROOT
ATOM      1  C11 ZIN A   1      19.215  -4.101  10.879  0.00  0.00     0.127 C 
ATOM      2  C13 ZIN A   1      19.663  -3.386  12.152  0.00  0.00     0.088 C 
ATOM      3  C14 ZIN A   1      19.204  -1.950  12.146  0.00  0.00    -0.009 A 
ATOM      4  C15 ZIN A   1      19.194  -1.274  13.373  0.00  0.00     0.088 A 
ATOM      5  C17 ZIN A   1      18.788   0.057  13.441  0.00  0.00     0.066 A 
ATOM      6  C18 ZIN A   1      18.387   0.720  12.263  0.00  0.00     0.069 A 
ATOM      7  C19 ZIN A   1      17.961   2.131  12.328  0.00  0.00     0.200 C 
ATOM      8  O20 ZIN A   1      17.381   2.643  11.389  0.00  0.00    -0.286 OA
ATOM      9  C21 ZIN A   1      18.246   2.914  13.545  0.00  0.00     0.062 A 
ATOM     10  C22 ZIN A   1      18.124   4.305  13.543  0.00  0.00     0.083 A 
ATOM     11  C25 ZIN A   1      18.399   5.023  14.703  0.00  0.00     0.038 A 
ATOM     12  C26 ZIN A   1      18.789   4.369  15.853  0.00  0.00     0.004 A 
ATOM     13  C27 ZIN A   1      18.914   2.988  15.872  0.00  0.00     0.017 A 
ATOM     14  C28 ZIN A   1      18.645   2.253  14.724  0.00  0.00     0.032 A 
ATOM     15  C29 ZIN A   1      18.776   0.779  14.727  0.00  0.00     0.197 C 
ATOM     16  O30 ZIN A   1      18.873   0.172  15.776  0.00  0.00    -0.286 OA
ATOM     17  C31 ZIN A   1      18.398   0.032  11.053  0.00  0.00     0.132 A 
ATOM     18  O32 ZIN A   1      18.011   0.663   9.917  0.00  0.00    -0.190 OA
ATOM     19  C33 ZIN A   1      18.807  -1.307  11.001  0.00  0.00     0.018 A 
ATOM     20  C34 ZIN A   1      18.780  -1.987   9.657  0.00  0.00     0.164 C 
ATOM     21  C56 ZIN A   1      19.635  -3.251   9.675  0.00  0.00     0.083 C 
ENDROOT
BRANCH  20  22
ATOM     22  O36 ZIN A   1      19.285  -1.091   8.665  0.00  0.00    -0.351 OA
BRANCH  22  23
ATOM     23  C37 ZIN A   1      18.515  -1.058   7.463  0.00  0.00     0.263 C 
ATOM     24  O55 ZIN A   1      18.920   0.059   6.668  0.00  0.00    -0.354 OA
ATOM     25  C52 ZIN A   1      18.191   0.201   5.447  0.00  0.00     0.151 C 
ATOM     26  C49 ZIN A   1      18.404  -1.042   4.579  0.00  0.00     0.171 C 
ATOM     27  C54 ZIN A   1      16.701   0.358   5.757  0.00  0.00     0.042 C 
ATOM     28  C40 ZIN A   1      17.958  -2.282   5.360  0.00  0.00     0.147 C 
ATOM     29  C39 ZIN A   1      18.740  -2.352   6.675  0.00  0.00     0.090 C 
BRANCH  26  30
ATOM     30  O51 ZIN A   1      17.631  -0.929   3.383  0.00  0.00    -0.391 OA
ATOM     31  H80 ZIN A   1      18.038  -0.375   2.703  0.00  0.00     0.210 HD
ENDBRANCH  26  30
BRANCH  28  32
ATOM     32  N42 ZIN A   1      18.227  -3.485   4.568  0.00  0.00    -0.240 NA
ATOM     33  C43 ZIN A   1      17.236  -4.058   3.856  0.00  0.00     0.346 C 
ATOM     34  O44 ZIN A   1      16.123  -3.578   3.870  0.00  0.00    -0.261 OA
BRANCH  33  35
ATOM     35  C45 ZIN A   1      17.513  -5.295   3.040  0.00  0.00     0.474 C 
ATOM     36  F46 ZIN A   1      17.985  -6.310   3.878  0.00  0.00    -0.162 F 
ATOM     37  F47 ZIN A   1      16.333  -5.717   2.418  0.00  0.00    -0.162 F 
ATOM     38  F48 ZIN A   1      18.476  -5.006   2.068  0.00  0.00    -0.162 F 
ENDBRANCH  33  35
ENDBRANCH  28  32
ENDBRANCH  22  23
ENDBRANCH  20  22
BRANCH   1  39
ATOM     39  C9  ZIN A   1      17.717  -4.263  10.888  0.00  0.00     0.185 C 
ATOM     40  O10 ZIN A   1      17.087  -4.004  11.886  0.00  0.00    -0.292 OA
BRANCH  39  41
ATOM     41  C8  ZIN A   1      17.004  -4.747   9.652  0.00  0.00     0.260 C 
BRANCH  41  42
ATOM     42  O7  ZIN A   1      17.084  -6.195   9.582  0.00  0.00    -0.314 OA
BRANCH  42  43
ATOM     43  C5  ZIN A   1      17.598  -6.724   8.462  0.00  0.00     0.259 C 
ATOM     44  O6  ZIN A   1      18.793  -6.714   8.283  0.00  0.00    -0.265 OA
BRANCH  43  45
ATOM     45  C4  ZIN A   1      16.686  -7.330   7.427  0.00  0.00     0.111 C 
BRANCH  45  46
ATOM     46  C3  ZIN A   1      16.069  -6.217   6.577  0.00  0.00     0.009 C 
BRANCH  46  47
ATOM     47  C2  ZIN A   1      14.555  -6.423   6.489  0.00  0.00    -0.004 C 
ATOM     48  C1  ZIN A   1      13.937  -6.265   7.879  0.00  0.00     0.005 C 
ENDBRANCH  46  47
ENDBRANCH  45  46
ENDBRANCH  43  45
ENDBRANCH  42  43
ENDBRANCH  41  42
ENDBRANCH  39  41
ENDBRANCH   1  39
BRANCH   1  49
ATOM     49  O12 ZIN A   1      19.838  -5.385  10.804  0.00  0.00    -0.382 OA
ATOM     50  H68 ZIN A   1      19.229  -6.106  10.588  0.00  0.00     0.211 HD
ENDBRANCH   1  49
BRANCH   4  51
ATOM     51  O16 ZIN A   1      19.583  -1.918  14.502  0.00  0.00    -0.359 OA
ATOM     52  H71 ZIN A   1      20.342  -1.513  14.944  0.00  0.00     0.217 HD
ENDBRANCH   4  51
BRANCH  10  53
ATOM     53  O23 ZIN A   1      17.740   4.953  12.415  0.00  0.00    -0.355 OA
ATOM     54  C24 ZIN A   1      16.596   5.802  12.513  0.00  0.00     0.210 C 
ENDBRANCH  10  53
TORSDOF 15
ENDMDL
MODEL 3
REMARK VINA RESULT:      -8.0      2.032      5.428
REMARK  15 active torsions:
REMARK  status: ('A' for Active; 'I' for Inactive)
REMARK    1  A    between atoms: C2_2  and  C3_3 
REMARK    2  A    between atoms: C3_3  and  C4_4 
REMARK    3  A    between atoms: C4_4  and  C5_5 
REMARK    4  A    between atoms: C5_5  and  O7_7 
REMARK    5  A    between atoms: O7_7  and  C8_8 
REMARK    6  A    between atoms: C8_8  and  C9_9 
REMARK    7  A    between atoms: C9_9  and  C11_11 
REMARK    8  A    between atoms: C11_11  and  O12_12 
REMARK    9  A    between atoms: C15_15  and  O16_16 
REMARK   10  A    between atoms: C22_22  and  O23_23 
REMARK   11  A    between atoms: C34_34  and  O36_35 
REMARK   12  A    between atoms: O36_35  and  C37_36 
REMARK   13  A    between atoms: C40_38  and  N42_39 
REMARK       I    between atoms: N42_39  and  C43_40 
REMARK   14  A    between atoms: C43_40  and  C45_42 
REMARK   15  A    between atoms: C49_46  and  O51_47 
ROOT
ATOM      1  C11 ZIN A   1      17.882   0.295  13.610  0.00  0.00     0.127 C 
ATOM      2  C13 ZIN A   1      17.157  -0.922  13.039  0.00  0.00     0.088 C 
ATOM      3  C14 ZIN A   1      17.698  -1.275  11.677  0.00  0.00    -0.009 A 
ATOM      4  C15 ZIN A   1      17.423  -2.558  11.188  0.00  0.00     0.088 A 
ATOM      5  C17 ZIN A   1      17.886  -2.950   9.934  0.00  0.00     0.066 A 
ATOM      6  C18 ZIN A   1      18.635  -2.042   9.158  0.00  0.00     0.069 A 
ATOM      7  C19 ZIN A   1      19.124  -2.449   7.827  0.00  0.00     0.200 C 
ATOM      8  O20 ZIN A   1      19.970  -1.789   7.253  0.00  0.00    -0.286 OA
ATOM      9  C21 ZIN A   1      18.575  -3.666   7.199  0.00  0.00     0.062 A 
ATOM     10  C22 ZIN A   1      18.788  -3.927   5.844  0.00  0.00     0.083 A 
ATOM     11  C25 ZIN A   1      18.260  -5.082   5.274  0.00  0.00     0.038 A 
ATOM     12  C26 ZIN A   1      17.529  -5.967   6.038  0.00  0.00     0.004 A 
ATOM     13  C27 ZIN A   1      17.309  -5.722   7.385  0.00  0.00     0.017 A 
ATOM     14  C28 ZIN A   1      17.827  -4.575   7.974  0.00  0.00     0.032 A 
ATOM     15  C29 ZIN A   1      17.599  -4.298   9.409  0.00  0.00     0.197 C 
ATOM     16  O30 ZIN A   1      17.180  -5.170  10.145  0.00  0.00    -0.286 OA
ATOM     17  C31 ZIN A   1      18.905  -0.772   9.660  0.00  0.00     0.132 A 
ATOM     18  O32 ZIN A   1      19.627   0.105   8.920  0.00  0.00    -0.190 OA
ATOM     19  C33 ZIN A   1      18.434  -0.394  10.925  0.00  0.00     0.018 A 
ATOM     20  C34 ZIN A   1      18.777   0.993  11.403  0.00  0.00     0.164 C 
ATOM     21  C56 ZIN A   1      17.864   1.407  12.554  0.00  0.00     0.083 C 
ENDROOT
BRANCH  20  22
ATOM     22  O36 ZIN A   1      18.622   1.916  10.324  0.00  0.00    -0.351 OA
BRANCH  22  23
ATOM     23  C37 ZIN A   1      18.387   3.263  10.739  0.00  0.00     0.263 C 
ATOM     24  O55 ZIN A   1      16.990   3.451  10.978  0.00  0.00    -0.354 OA
ATOM     25  C52 ZIN A   1      16.640   4.778  11.376  0.00  0.00     0.151 C 
ATOM     26  C49 ZIN A   1      17.349   5.120  12.689  0.00  0.00     0.171 C 
ATOM     27  C54 ZIN A   1      17.070   5.766  10.291  0.00  0.00     0.042 C 
ATOM     28  C40 ZIN A   1      18.861   4.971  12.497  0.00  0.00     0.147 C 
ATOM     29  C39 ZIN A   1      19.166   3.545  12.027  0.00  0.00     0.090 C 
BRANCH  26  30
ATOM     30  O51 ZIN A   1      17.046   6.466  13.059  0.00  0.00    -0.391 OA
ATOM     31  H80 ZIN A   1      17.469   7.133  12.501  0.00  0.00     0.210 HD
ENDBRANCH  26  30
BRANCH  28  32
ATOM     32  N42 ZIN A   1      19.546   5.224  13.767  0.00  0.00    -0.240 NA
ATOM     33  C43 ZIN A   1      19.198   4.530  14.869  0.00  0.00     0.346 C 
ATOM     34  O44 ZIN A   1      18.320   3.696  14.809  0.00  0.00    -0.261 OA
BRANCH  33  35
ATOM     35  C45 ZIN A   1      19.903   4.790  16.176  0.00  0.00     0.474 C 
ATOM     36  F46 ZIN A   1      20.389   3.584  16.691  0.00  0.00    -0.162 F 
ATOM     37  F47 ZIN A   1      20.971   5.669  15.964  0.00  0.00    -0.162 F 
ATOM     38  F48 ZIN A   1      19.004   5.357  17.085  0.00  0.00    -0.162 F 
ENDBRANCH  33  35
ENDBRANCH  28  32
ENDBRANCH  22  23
ENDBRANCH  20  22
BRANCH   1  39
ATOM     39  C9  ZIN A   1      19.308  -0.071  13.936  0.00  0.00     0.185 C 
ATOM     40  O10 ZIN A   1      20.182   0.756  13.834  0.00  0.00    -0.292 OA
BRANCH  39  41
ATOM     41  C8  ZIN A   1      19.642  -1.469  14.389  0.00  0.00     0.260 C 
BRANCH  41  42
ATOM     42  O7  ZIN A   1      20.000  -1.449  15.796  0.00  0.00    -0.314 OA
BRANCH  42  43
ATOM     43  C5  ZIN A   1      18.998  -1.315  16.678  0.00  0.00     0.259 C 
ATOM     44  O6  ZIN A   1      17.907  -1.770  16.426  0.00  0.00    -0.265 OA
BRANCH  43  45
ATOM     45  C4  ZIN A   1      19.233  -0.599  17.982  0.00  0.00     0.111 C 
BRANCH  45  46
ATOM     46  C3  ZIN A   1      18.963   0.896  17.799  0.00  0.00     0.009 C 
BRANCH  46  47
ATOM     47  C2  ZIN A   1      17.700   1.286  18.569  0.00  0.00    -0.004 C 
ATOM     48  C1  ZIN A   1      17.669   2.803  18.765  0.00  0.00     0.005 C 
ENDBRANCH  46  47
ENDBRANCH  45  46
ENDBRANCH  43  45
ENDBRANCH  42  43
ENDBRANCH  41  42
ENDBRANCH  39  41
ENDBRANCH   1  39
BRANCH   1  49
ATOM     49  O12 ZIN A   1      17.217   0.741  14.793  0.00  0.00    -0.382 OA
ATOM     50  H68 ZIN A   1      16.345   0.344  14.928  0.00  0.00     0.211 HD
ENDBRANCH   1  49
BRANCH   4  51
ATOM     51  O16 ZIN A   1      16.699  -3.425  11.940  0.00  0.00    -0.359 OA
ATOM     52  H71 ZIN A   1      16.429  -3.070  12.798  0.00  0.00     0.217 HD
ENDBRANCH   4  51
BRANCH  10  53
ATOM     53  O23 ZIN A   1      19.507  -3.060   5.088  0.00  0.00    -0.355 OA
ATOM     54  C24 ZIN A   1      18.779  -2.247   4.166  0.00  0.00     0.210 C 
ENDBRANCH  10  53
TORSDOF 15
ENDMDL
MODEL 4
REMARK VINA RESULT:      -8.0      4.482      8.003
REMARK  15 active torsions:
REMARK  status: ('A' for Active; 'I' for Inactive)
REMARK    1  A    between atoms: C2_2  and  C3_3 
REMARK    2  A    between atoms: C3_3  and  C4_4 
REMARK    3  A    between atoms: C4_4  and  C5_5 
REMARK    4  A    between atoms: C5_5  and  O7_7 
REMARK    5  A    between atoms: O7_7  and  C8_8 
REMARK    6  A    between atoms: C8_8  and  C9_9 
REMARK    7  A    between atoms: C9_9  and  C11_11 
REMARK    8  A    between atoms: C11_11  and  O12_12 
REMARK    9  A    between atoms: C15_15  and  O16_16 
REMARK   10  A    between atoms: C22_22  and  O23_23 
REMARK   11  A    between atoms: C34_34  and  O36_35 
REMARK   12  A    between atoms: O36_35  and  C37_36 
REMARK   13  A    between atoms: C40_38  and  N42_39 
REMARK       I    between atoms: N42_39  and  C43_40 
REMARK   14  A    between atoms: C43_40  and  C45_42 
REMARK   15  A    between atoms: C49_46  and  O51_47 
ROOT
ATOM      1  C11 ZIN A   1      19.155  -1.594   5.156  0.00  0.00     0.127 C 
ATOM      2  C13 ZIN A   1      19.055  -2.607   4.019  0.00  0.00     0.088 C 
ATOM      3  C14 ZIN A   1      18.268  -3.818   4.451  0.00  0.00    -0.009 A 
ATOM      4  C15 ZIN A   1      17.764  -4.651   3.443  0.00  0.00     0.088 A 
ATOM      5  C17 ZIN A   1      17.033  -5.791   3.770  0.00  0.00     0.066 A 
ATOM      6  C18 ZIN A   1      16.804  -6.101   5.126  0.00  0.00     0.069 A 
ATOM      7  C19 ZIN A   1      16.035  -7.310   5.479  0.00  0.00     0.200 C 
ATOM      8  O20 ZIN A   1      15.615  -7.464   6.610  0.00  0.00    -0.286 OA
ATOM      9  C21 ZIN A   1      15.782  -8.329   4.443  0.00  0.00     0.062 A 
ATOM     10  C22 ZIN A   1      15.319  -9.600   4.792  0.00  0.00     0.083 A 
ATOM     11  C25 ZIN A   1      15.088 -10.546   3.798  0.00  0.00     0.038 A 
ATOM     12  C26 ZIN A   1      15.312 -10.236   2.473  0.00  0.00     0.004 A 
ATOM     13  C27 ZIN A   1      15.770  -8.979   2.110  0.00  0.00     0.017 A 
ATOM     14  C28 ZIN A   1      16.009  -8.020   3.087  0.00  0.00     0.032 A 
ATOM     15  C29 ZIN A   1      16.501  -6.675   2.716  0.00  0.00     0.197 C 
ATOM     16  O30 ZIN A   1      16.467  -6.304   1.560  0.00  0.00    -0.286 OA
ATOM     17  C31 ZIN A   1      17.307  -5.261   6.115  0.00  0.00     0.132 A 
ATOM     18  O32 ZIN A   1      17.088  -5.552   7.421  0.00  0.00    -0.190 OA
ATOM     19  C33 ZIN A   1      18.039  -4.116   5.770  0.00  0.00     0.018 A 
ATOM     20  C34 ZIN A   1      18.540  -3.251   6.897  0.00  0.00     0.164 C 
ATOM     21  C56 ZIN A   1      19.650  -2.323   6.411  0.00  0.00     0.083 C 
ENDROOT
BRANCH  20  22
ATOM     22  O36 ZIN A   1      19.047  -4.083   7.942  0.00  0.00    -0.351 OA
BRANCH  22  23
ATOM     23  C37 ZIN A   1      18.546  -3.759   9.240  0.00  0.00     0.263 C 
ATOM     24  O55 ZIN A   1      18.831  -4.830  10.142  0.00  0.00    -0.354 OA
ATOM     25  C52 ZIN A   1      18.348  -4.619  11.470  0.00  0.00     0.151 C 
ATOM     26  C49 ZIN A   1      19.013  -3.373  12.061  0.00  0.00     0.171 C 
ATOM     27  C54 ZIN A   1      16.832  -4.421  11.436  0.00  0.00     0.042 C 
ATOM     28  C40 ZIN A   1      18.721  -2.171  11.158  0.00  0.00     0.147 C 
ATOM     29  C39 ZIN A   1      19.218  -2.478   9.742  0.00  0.00     0.090 C 
BRANCH  26  30
ATOM     30  O51 ZIN A   1      18.490  -3.126  13.368  0.00  0.00    -0.391 OA
ATOM     31  H80 ZIN A   1      18.263  -3.927  13.859  0.00  0.00     0.210 HD
ENDBRANCH  26  30
BRANCH  28  32
ATOM     32  N42 ZIN A   1      19.414  -0.987  11.674  0.00  0.00    -0.240 NA
ATOM     33  C43 ZIN A   1      18.765  -0.126  12.482  0.00  0.00     0.346 C 
ATOM     34  O44 ZIN A   1      17.609  -0.330  12.783  0.00  0.00    -0.261 OA
BRANCH  33  35
ATOM     35  C45 ZIN A   1      19.478   1.091  13.013  0.00  0.00     0.474 C 
ATOM     36  F46 ZIN A   1      20.183   0.749  14.173  0.00  0.00    -0.162 F 
ATOM     37  F47 ZIN A   1      20.373   1.566  12.048  0.00  0.00    -0.162 F 
ATOM     38  F48 ZIN A   1      18.542   2.086  13.312  0.00  0.00    -0.162 F 
ENDBRANCH  33  35
ENDBRANCH  28  32
ENDBRANCH  22  23
ENDBRANCH  20  22
BRANCH   1  39
ATOM     39  C9  ZIN A   1      17.798  -0.993   5.421  0.00  0.00     0.185 C 
ATOM     40  O10 ZIN A   1      16.891  -1.185   4.647  0.00  0.00    -0.292 OA
BRANCH  39  41
ATOM     41  C8  ZIN A   1      17.573  -0.153   6.651  0.00  0.00     0.260 C 
BRANCH  41  42
ATOM     42  O7  ZIN A   1      18.535   0.935   6.677  0.00  0.00    -0.314 OA
BRANCH  42  43
ATOM     43  C5  ZIN A   1      19.018   1.293   7.877  0.00  0.00     0.259 C 
ATOM     44  O6  ZIN A   1      19.688   0.515   8.515  0.00  0.00    -0.265 OA
BRANCH  43  45
ATOM     45  C4  ZIN A   1      18.726   2.664   8.429  0.00  0.00     0.111 C 
BRANCH  45  46
ATOM     46  C3  ZIN A   1      18.156   2.534   9.843  0.00  0.00     0.009 C 
BRANCH  46  47
ATOM     47  C2  ZIN A   1      18.383   3.840  10.607  0.00  0.00    -0.004 C 
ATOM     48  C1  ZIN A   1      17.067   4.615  10.695  0.00  0.00     0.005 C 
ENDBRANCH  46  47
ENDBRANCH  45  46
ENDBRANCH  43  45
ENDBRANCH  42  43
ENDBRANCH  41  42
ENDBRANCH  39  41
ENDBRANCH   1  39
BRANCH   1  49
ATOM     49  O12 ZIN A   1      20.078  -0.561   4.803  0.00  0.00    -0.382 OA
ATOM     50  H68 ZIN A   1      21.004  -0.839   4.822  0.00  0.00     0.211 HD
ENDBRANCH   1  49
BRANCH   4  51
ATOM     51  O16 ZIN A   1      17.991  -4.346   2.141  0.00  0.00    -0.359 OA
ATOM     52  H71 ZIN A   1      18.913  -4.134   1.941  0.00  0.00     0.217 HD
ENDBRANCH   4  51
BRANCH  10  53
ATOM     53  O23 ZIN A   1      15.096  -9.909   6.094  0.00  0.00    -0.355 OA
ATOM     54  C24 ZIN A   1      13.862 -10.560   6.403  0.00  0.00     0.210 C 
ENDBRANCH  10  53
TORSDOF 15
ENDMDL
MODEL 5
REMARK VINA RESULT:      -7.7      3.636      8.011
REMARK  15 active torsions:
REMARK  status: ('A' for Active; 'I' for Inactive)
REMARK    1  A    between atoms: C2_2  and  C3_3 
REMARK    2  A    between atoms: C3_3  and  C4_4 
REMARK    3  A    between atoms: C4_4  and  C5_5 
REMARK    4  A    between atoms: C5_5  and  O7_7 
REMARK    5  A    between atoms: O7_7  and  C8_8 
REMARK    6  A    between atoms: C8_8  and  C9_9 
REMARK    7  A    between atoms: C9_9  and  C11_11 
REMARK    8  A    between atoms: C11_11  and  O12_12 
REMARK    9  A    between atoms: C15_15  and  O16_16 
REMARK   10  A    between atoms: C22_22  and  O23_23 
REMARK   11  A    between atoms: C34_34  and  O36_35 
REMARK   12  A    between atoms: O36_35  and  C37_36 
REMARK   13  A    between atoms: C40_38  and  N42_39 
REMARK       I    between atoms: N42_39  and  C43_40 
REMARK   14  A    between atoms: C43_40  and  C45_42 
REMARK   15  A    between atoms: C49_46  and  O51_47 
ROOT
ATOM      1  C11 ZIN A   1      18.002  -4.774  10.944  0.00  0.00     0.127 C 
ATOM      2  C13 ZIN A   1      17.363  -5.899  10.133  0.00  0.00     0.088 C 
ATOM      3  C14 ZIN A   1      17.519  -5.645   8.656  0.00  0.00    -0.009 A 
ATOM      4  C15 ZIN A   1      17.336  -6.735   7.793  0.00  0.00     0.088 A 
ATOM      5  C17 ZIN A   1      17.459  -6.572   6.415  0.00  0.00     0.066 A 
ATOM      6  C18 ZIN A   1      17.767  -5.298   5.893  0.00  0.00     0.069 A 
ATOM      7  C19 ZIN A   1      17.893  -5.118   4.435  0.00  0.00     0.200 C 
ATOM      8  O20 ZIN A   1      18.397  -4.109   3.980  0.00  0.00    -0.286 OA
ATOM      9  C21 ZIN A   1      17.401  -6.178   3.533  0.00  0.00     0.062 A 
ATOM     10  C22 ZIN A   1      17.236  -5.932   2.168  0.00  0.00     0.083 A 
ATOM     11  C25 ZIN A   1      16.770  -6.947   1.338  0.00  0.00     0.038 A 
ATOM     12  C26 ZIN A   1      16.472  -8.191   1.853  0.00  0.00     0.004 A 
ATOM     13  C27 ZIN A   1      16.631  -8.450   3.206  0.00  0.00     0.017 A 
ATOM     14  C28 ZIN A   1      17.094  -7.451   4.053  0.00  0.00     0.032 A 
ATOM     15  C29 ZIN A   1      17.267  -7.711   5.499  0.00  0.00     0.197 C 
ATOM     16  O30 ZIN A   1      17.250  -8.849   5.926  0.00  0.00    -0.286 OA
ATOM     17  C31 ZIN A   1      17.950  -4.228   6.764  0.00  0.00     0.132 A 
ATOM     18  O32 ZIN A   1      18.250  -3.002   6.268  0.00  0.00    -0.190 OA
ATOM     19  C33 ZIN A   1      17.826  -4.408   8.148  0.00  0.00     0.018 A 
ATOM     20  C34 ZIN A   1      18.050  -3.204   9.024  0.00  0.00     0.164 C 
ATOM     21  C56 ZIN A   1      17.471  -3.436  10.418  0.00  0.00     0.083 C 
ENDROOT
BRANCH  20  22
ATOM     22  O36 ZIN A   1      17.416  -2.067   8.435  0.00  0.00    -0.351 OA
BRANCH  22  23
ATOM     23  C37 ZIN A   1      18.032  -0.820   8.765  0.00  0.00     0.263 C 
ATOM     24  O55 ZIN A   1      17.618   0.177   7.829  0.00  0.00    -0.354 OA
ATOM     25  C52 ZIN A   1      18.199   1.463   8.053  0.00  0.00     0.151 C 
ATOM     26  C49 ZIN A   1      17.785   1.975   9.435  0.00  0.00     0.171 C 
ATOM     27  C54 ZIN A   1      19.723   1.354   7.985  0.00  0.00     0.042 C 
ATOM     28  C40 ZIN A   1      18.227   0.965  10.498  0.00  0.00     0.147 C 
ATOM     29  C39 ZIN A   1      17.611  -0.400  10.176  0.00  0.00     0.090 C 
BRANCH  26  30
ATOM     30  O51 ZIN A   1      18.410   3.236   9.686  0.00  0.00    -0.391 OA
ATOM     31  H80 ZIN A   1      17.954   3.777  10.345  0.00  0.00     0.210 HD
ENDBRANCH  26  30
BRANCH  28  32
ATOM     32  N42 ZIN A   1      17.771   1.408  11.818  0.00  0.00    -0.240 NA
ATOM     33  C43 ZIN A   1      18.636   1.996  12.668  0.00  0.00     0.346 C 
ATOM     34  O44 ZIN A   1      19.792   2.158  12.341  0.00  0.00    -0.261 OA
BRANCH  33  35
ATOM     35  C45 ZIN A   1      18.166   2.452  14.025  0.00  0.00     0.474 C 
ATOM     36  F46 ZIN A   1      19.251   2.485  14.908  0.00  0.00    -0.162 F 
ATOM     37  F47 ZIN A   1      17.612   3.733  13.921  0.00  0.00    -0.162 F 
ATOM     38  F48 ZIN A   1      17.200   1.563  14.507  0.00  0.00    -0.162 F 
ENDBRANCH  33  35
ENDBRANCH  28  32
ENDBRANCH  22  23
ENDBRANCH  20  22
BRANCH   1  39
ATOM     39  C9  ZIN A   1      19.500  -4.823  10.786  0.00  0.00     0.185 C 
ATOM     40  O10 ZIN A   1      20.018  -5.759  10.225  0.00  0.00    -0.292 OA
BRANCH  39  41
ATOM     41  C8  ZIN A   1      20.352  -3.703  11.327  0.00  0.00     0.260 C 
BRANCH  41  42
ATOM     42  O7  ZIN A   1      19.847  -3.296  12.626  0.00  0.00    -0.314 OA
BRANCH  42  43
ATOM     43  C5  ZIN A   1      19.591  -1.990  12.799  0.00  0.00     0.259 C 
ATOM     44  O6  ZIN A   1      20.203  -1.165  12.162  0.00  0.00    -0.265 OA
BRANCH  43  45
ATOM     45  C4  ZIN A   1      18.541  -1.552  13.786  0.00  0.00     0.111 C 
BRANCH  45  46
ATOM     46  C3  ZIN A   1      19.220  -0.994  15.039  0.00  0.00     0.009 C 
BRANCH  46  47
ATOM     47  C2  ZIN A   1      18.588  -1.620  16.284  0.00  0.00    -0.004 C 
ATOM     48  C1  ZIN A   1      17.334  -0.834  16.671  0.00  0.00     0.005 C 
ENDBRANCH  46  47
ENDBRANCH  45  46
ENDBRANCH  43  45
ENDBRANCH  42  43
ENDBRANCH  41  42
ENDBRANCH  39  41
ENDBRANCH   1  39
BRANCH   1  49
ATOM     49  O12 ZIN A   1      17.659  -4.920  12.324  0.00  0.00    -0.382 OA
ATOM     50  H68 ZIN A   1      17.964  -4.193  12.884  0.00  0.00     0.211 HD
ENDBRANCH   1  49
BRANCH   4  51
ATOM     51  O16 ZIN A   1      17.038  -7.955   8.303  0.00  0.00    -0.359 OA
ATOM     52  H71 ZIN A   1      17.738  -8.613   8.186  0.00  0.00     0.217 HD
ENDBRANCH   4  51
BRANCH  10  53
ATOM     53  O23 ZIN A   1      17.529  -4.711   1.656  0.00  0.00    -0.355 OA
ATOM     54  C24 ZIN A   1      16.475  -4.020   0.984  0.00  0.00     0.210 C 
ENDBRANCH  10  53
TORSDOF 15
ENDMDL
MODEL 6
REMARK VINA RESULT:      -7.7      4.843      9.949
REMARK  15 active torsions:
REMARK  status: ('A' for Active; 'I' for Inactive)
REMARK    1  A    between atoms: C2_2  and  C3_3 
REMARK    2  A    between atoms: C3_3  and  C4_4 
REMARK    3  A    between atoms: C4_4  and  C5_5 
REMARK    4  A    between atoms: C5_5  and  O7_7 
REMARK    5  A    between atoms: O7_7  and  C8_8 
REMARK    6  A    between atoms: C8_8  and  C9_9 
REMARK    7  A    between atoms: C9_9  and  C11_11 
REMARK    8  A    between atoms: C11_11  and  O12_12 
REMARK    9  A    between atoms: C15_15  and  O16_16 
REMARK   10  A    between atoms: C22_22  and  O23_23 
REMARK   11  A    between atoms: C34_34  and  O36_35 
REMARK   12  A    between atoms: O36_35  and  C37_36 
REMARK   13  A    between atoms: C40_38  and  N42_39 
REMARK       I    between atoms: N42_39  and  C43_40 
REMARK   14  A    between atoms: C43_40  and  C45_42 
REMARK   15  A    between atoms: C49_46  and  O51_47 
ROOT
ATOM      1  C11 ZIN A   1      17.741  -0.300   9.201  0.00  0.00     0.127 C 
ATOM      2  C13 ZIN A   1      17.087   0.972   9.736  0.00  0.00     0.088 C 
ATOM      3  C14 ZIN A   1      17.644   1.329  11.090  0.00  0.00    -0.009 A 
ATOM      4  C15 ZIN A   1      17.442   2.640  11.543  0.00  0.00     0.088 A 
ATOM      5  C17 ZIN A   1      17.924   3.038  12.788  0.00  0.00     0.066 A 
ATOM      6  C18 ZIN A   1      18.616   2.108  13.592  0.00  0.00     0.069 A 
ATOM      7  C19 ZIN A   1      19.124   2.522  14.914  0.00  0.00     0.200 C 
ATOM      8  O20 ZIN A   1      19.928   1.830  15.509  0.00  0.00    -0.286 OA
ATOM      9  C21 ZIN A   1      18.645   3.786  15.506  0.00  0.00     0.062 A 
ATOM     10  C22 ZIN A   1      18.870   4.071  16.854  0.00  0.00     0.083 A 
ATOM     11  C25 ZIN A   1      18.408   5.269  17.391  0.00  0.00     0.038 A 
ATOM     12  C26 ZIN A   1      17.733   6.175  16.600  0.00  0.00     0.004 A 
ATOM     13  C27 ZIN A   1      17.504   5.907  15.259  0.00  0.00     0.017 A 
ATOM     14  C28 ZIN A   1      17.955   4.716  14.703  0.00  0.00     0.032 A 
ATOM     15  C29 ZIN A   1      17.715   4.414  13.275  0.00  0.00     0.197 C 
ATOM     16  O30 ZIN A   1      17.351   5.288  12.514  0.00  0.00    -0.286 OA
ATOM     17  C31 ZIN A   1      18.812   0.812  13.125  0.00  0.00     0.132 A 
ATOM     18  O32 ZIN A   1      19.480  -0.085  13.892  0.00  0.00    -0.190 OA
ATOM     19  C33 ZIN A   1      18.324   0.428  11.869  0.00  0.00     0.018 A 
ATOM     20  C34 ZIN A   1      18.586  -0.990  11.430  0.00  0.00     0.164 C 
ATOM     21  C56 ZIN A   1      17.654  -1.380  10.286  0.00  0.00     0.083 C 
ENDROOT
BRANCH  20  22
ATOM     22  O36 ZIN A   1      18.373  -1.872  12.533  0.00  0.00    -0.351 OA
BRANCH  22  23
ATOM     23  C37 ZIN A   1      18.257  -3.248  12.164  0.00  0.00     0.263 C 
ATOM     24  O55 ZIN A   1      16.906  -3.529  11.793  0.00  0.00    -0.354 OA
ATOM     25  C52 ZIN A   1      16.672  -4.890  11.429  0.00  0.00     0.151 C 
ATOM     26  C49 ZIN A   1      17.533  -5.248  10.214  0.00  0.00     0.171 C 
ATOM     27  C54 ZIN A   1      17.040  -5.803  12.600  0.00  0.00     0.042 C 
ATOM     28  C40 ZIN A   1      19.006  -5.000  10.552  0.00  0.00     0.147 C 
ATOM     29  C39 ZIN A   1      19.182  -3.539  10.979  0.00  0.00     0.090 C 
BRANCH  26  30
ATOM     30  O51 ZIN A   1      17.345  -6.625   9.882  0.00  0.00    -0.391 OA
ATOM     31  H80 ZIN A   1      16.999  -6.770   8.991  0.00  0.00     0.210 HD
ENDBRANCH  26  30
BRANCH  28  32
ATOM     32  N42 ZIN A   1      19.833  -5.267   9.372  0.00  0.00    -0.240 NA
ATOM     33  C43 ZIN A   1      19.538  -4.681   8.195  0.00  0.00     0.346 C 
ATOM     34  O44 ZIN A   1      18.588  -3.932   8.113  0.00  0.00    -0.261 OA
BRANCH  33  35
ATOM     35  C45 ZIN A   1      20.389  -4.956   6.982  0.00  0.00     0.474 C 
ATOM     36  F46 ZIN A   1      19.756  -5.906   6.174  0.00  0.00    -0.162 F 
ATOM     37  F47 ZIN A   1      20.564  -3.772   6.257  0.00  0.00    -0.162 F 
ATOM     38  F48 ZIN A   1      21.635  -5.444   7.388  0.00  0.00    -0.162 F 
ENDBRANCH  33  35
ENDBRANCH  28  32
ENDBRANCH  22  23
ENDBRANCH  20  22
BRANCH   1  39
ATOM     39  C9  ZIN A   1      19.186  -0.028   8.872  0.00  0.00     0.185 C 
ATOM     40  O10 ZIN A   1      20.027  -0.862   9.107  0.00  0.00    -0.292 OA
BRANCH  39  41
ATOM     41  C8  ZIN A   1      19.582   1.286   8.249  0.00  0.00     0.260 C 
BRANCH  41  42
ATOM     42  O7  ZIN A   1      19.987   1.066   6.872  0.00  0.00    -0.314 OA
BRANCH  42  43
ATOM     43  C5  ZIN A   1      19.011   0.847   5.977  0.00  0.00     0.259 C 
ATOM     44  O6  ZIN A   1      17.917   1.331   6.146  0.00  0.00    -0.265 OA
BRANCH  43  45
ATOM     45  C4  ZIN A   1      19.279  -0.004   4.763  0.00  0.00     0.111 C 
BRANCH  45  46
ATOM     46  C3  ZIN A   1      18.814  -1.437   5.031  0.00  0.00     0.009 C 
BRANCH  46  47
ATOM     47  C2  ZIN A   1      17.451  -1.663   4.373  0.00  0.00    -0.004 C 
ATOM     48  C1  ZIN A   1      17.288  -3.146   4.034  0.00  0.00     0.005 C 
ENDBRANCH  46  47
ENDBRANCH  45  46
ENDBRANCH  43  45
ENDBRANCH  42  43
ENDBRANCH  41  42
ENDBRANCH  39  41
ENDBRANCH   1  39
BRANCH   1  49
ATOM     49  O12 ZIN A   1      17.054  -0.739   8.027  0.00  0.00    -0.382 OA
ATOM     50  H68 ZIN A   1      17.101  -1.693   7.878  0.00  0.00     0.211 HD
ENDBRANCH   1  49
BRANCH   4  51
ATOM     51  O16 ZIN A   1      16.774   3.527  10.765  0.00  0.00    -0.359 OA
ATOM     52  H71 ZIN A   1      16.989   4.452  10.948  0.00  0.00     0.217 HD
ENDBRANCH   4  51
BRANCH  10  53
ATOM     53  O23 ZIN A   1      19.534   3.184  17.636  0.00  0.00    -0.355 OA
ATOM     54  C24 ZIN A   1      18.834   2.669  18.770  0.00  0.00     0.210 C 
ENDBRANCH  10  53
TORSDOF 15
ENDMDL
MODEL 7
REMARK VINA RESULT:      -7.7      5.263     10.553
REMARK  15 active torsions:
REMARK  status: ('A' for Active; 'I' for Inactive)
REMARK    1  A    between atoms: C2_2  and  C3_3 
REMARK    2  A    between atoms: C3_3  and  C4_4 
REMARK    3  A    between atoms: C4_4  and  C5_5 
REMARK    4  A    between atoms: C5_5  and  O7_7 
REMARK    5  A    between atoms: O7_7  and  C8_8 
REMARK    6  A    between atoms: C8_8  and  C9_9 
REMARK    7  A    between atoms: C9_9  and  C11_11 
REMARK    8  A    between atoms: C11_11  and  O12_12 
REMARK    9  A    between atoms: C15_15  and  O16_16 
REMARK   10  A    between atoms: C22_22  and  O23_23 
REMARK   11  A    between atoms: C34_34  and  O36_35 
REMARK   12  A    between atoms: O36_35  and  C37_36 
REMARK   13  A    between atoms: C40_38  and  N42_39 
REMARK       I    between atoms: N42_39  and  C43_40 
REMARK   14  A    between atoms: C43_40  and  C45_42 
REMARK   15  A    between atoms: C49_46  and  O51_47 
ROOT
ATOM      1  C11 ZIN A   1      17.707   0.102   8.146  0.00  0.00     0.127 C 
ATOM      2  C13 ZIN A   1      17.239   1.198   9.101  0.00  0.00     0.088 C 
ATOM      3  C14 ZIN A   1      17.779   0.963  10.489  0.00  0.00    -0.009 A 
ATOM      4  C15 ZIN A   1      17.767   2.047  11.376  0.00  0.00     0.088 A 
ATOM      5  C17 ZIN A   1      18.244   1.900  12.677  0.00  0.00     0.066 A 
ATOM      6  C18 ZIN A   1      18.740   0.648  13.094  0.00  0.00     0.069 A 
ATOM      7  C19 ZIN A   1      19.243   0.484  14.472  0.00  0.00     0.200 C 
ATOM      8  O20 ZIN A   1      19.897  -0.496  14.776  0.00  0.00    -0.286 OA
ATOM      9  C21 ZIN A   1      18.943   1.523  15.475  0.00  0.00     0.062 A 
ATOM     10  C22 ZIN A   1      19.144   1.279  16.836  0.00  0.00     0.083 A 
ATOM     11  C25 ZIN A   1      18.854   2.273  17.764  0.00  0.00     0.038 A 
ATOM     12  C26 ZIN A   1      18.370   3.497  17.350  0.00  0.00     0.004 A 
ATOM     13  C27 ZIN A   1      18.166   3.755  16.003  0.00  0.00     0.017 A 
ATOM     14  C28 ZIN A   1      18.449   2.775  15.059  0.00  0.00     0.032 A 
ATOM     15  C29 ZIN A   1      18.234   3.034  13.618  0.00  0.00     0.197 C 
ATOM     16  O30 ZIN A   1      18.050   4.167  13.217  0.00  0.00    -0.286 OA
ATOM     17  C31 ZIN A   1      18.750  -0.418  12.199  0.00  0.00     0.132 A 
ATOM     18  O32 ZIN A   1      19.229  -1.624  12.594  0.00  0.00    -0.190 OA
ATOM     19  C33 ZIN A   1      18.268  -0.254  10.893  0.00  0.00     0.018 A 
ATOM     20  C34 ZIN A   1      18.323  -1.451   9.981  0.00  0.00     0.164 C 
ATOM     21  C56 ZIN A   1      17.397  -1.258   8.783  0.00  0.00     0.083 C 
ENDROOT
BRANCH  20  22
ATOM     22  O36 ZIN A   1      17.919  -2.615  10.704  0.00  0.00    -0.351 OA
BRANCH  22  23
ATOM     23  C37 ZIN A   1      17.846  -3.799   9.909  0.00  0.00     0.263 C 
ATOM     24  O55 ZIN A   1      18.501  -4.872  10.590  0.00  0.00    -0.354 OA
ATOM     25  C52 ZIN A   1      18.508  -6.104   9.866  0.00  0.00     0.151 C 
ATOM     26  C49 ZIN A   1      17.068  -6.564   9.629  0.00  0.00     0.171 C 
ATOM     27  C54 ZIN A   1      19.207  -5.901   8.521  0.00  0.00     0.042 C 
ATOM     28  C40 ZIN A   1      16.309  -5.470   8.871  0.00  0.00     0.147 C 
ATOM     29  C39 ZIN A   1      16.378  -4.167   9.673  0.00  0.00     0.090 C 
BRANCH  26  30
ATOM     30  O51 ZIN A   1      17.070  -7.766   8.857  0.00  0.00    -0.391 OA
ATOM     31  H80 ZIN A   1      17.043  -7.619   7.901  0.00  0.00     0.210 HD
ENDBRANCH  26  30
BRANCH  28  32
ATOM     32  N42 ZIN A   1      14.909  -5.867   8.704  0.00  0.00    -0.240 NA
ATOM     33  C43 ZIN A   1      14.476  -6.325   7.513  0.00  0.00     0.346 C 
ATOM     34  O44 ZIN A   1      15.245  -6.408   6.579  0.00  0.00    -0.261 OA
BRANCH  33  35
ATOM     35  C45 ZIN A   1      13.035  -6.734   7.341  0.00  0.00     0.474 C 
ATOM     36  F46 ZIN A   1      12.794  -7.039   5.998  0.00  0.00    -0.162 F 
ATOM     37  F47 ZIN A   1      12.774  -7.862   8.128  0.00  0.00    -0.162 F 
ATOM     38  F48 ZIN A   1      12.202  -5.684   7.739  0.00  0.00    -0.162 F 
ENDBRANCH  33  35
ENDBRANCH  28  32
ENDBRANCH  22  23
ENDBRANCH  20  22
BRANCH   1  39
ATOM     39  C9  ZIN A   1      19.192   0.229   7.919  0.00  0.00     0.185 C 
ATOM     40  O10 ZIN A   1      19.742   1.288   8.097  0.00  0.00    -0.292 OA
BRANCH  39  41
ATOM     41  C8  ZIN A   1      19.989  -0.968   7.467  0.00  0.00     0.260 C 
BRANCH  41  42
ATOM     42  O7  ZIN A   1      19.495  -1.421   6.180  0.00  0.00    -0.314 OA
BRANCH  42  43
ATOM     43  C5  ZIN A   1      19.362  -2.746   6.009  0.00  0.00     0.259 C 
ATOM     44  O6  ZIN A   1      20.297  -3.479   6.230  0.00  0.00    -0.265 OA
BRANCH  43  45
ATOM     45  C4  ZIN A   1      18.049  -3.318   5.542  0.00  0.00     0.111 C 
BRANCH  45  46
ATOM     46  C3  ZIN A   1      17.551  -2.529   4.329  0.00  0.00     0.009 C 
BRANCH  46  47
ATOM     47  C2  ZIN A   1      16.601  -3.403   3.508  0.00  0.00    -0.004 C 
ATOM     48  C1  ZIN A   1      17.391  -4.530   2.840  0.00  0.00     0.005 C 
ENDBRANCH  46  47
ENDBRANCH  45  46
ENDBRANCH  43  45
ENDBRANCH  42  43
ENDBRANCH  41  42
ENDBRANCH  39  41
ENDBRANCH   1  39
BRANCH   1  49
ATOM     49  O12 ZIN A   1      17.017   0.221   6.901  0.00  0.00    -0.382 OA
ATOM     50  H68 ZIN A   1      16.068   0.040   6.958  0.00  0.00     0.211 HD
ENDBRANCH   1  49
BRANCH   4  51
ATOM     51  O16 ZIN A   1      17.286   3.248  10.967  0.00  0.00    -0.359 OA
ATOM     52  H71 ZIN A   1      16.350   3.386  11.169  0.00  0.00     0.217 HD
ENDBRANCH   4  51
BRANCH  10  53
ATOM     53  O23 ZIN A   1      19.620   0.078  17.248  0.00  0.00    -0.355 OA
ATOM     54  C24 ZIN A   1      19.053  -0.470  18.440  0.00  0.00     0.210 C 
ENDBRANCH  10  53
TORSDOF 15
ENDMDL
MODEL 8
REMARK VINA RESULT:      -7.5      5.336     10.583
REMARK  15 active torsions:
REMARK  status: ('A' for Active; 'I' for Inactive)
REMARK    1  A    between atoms: C2_2  and  C3_3 
REMARK    2  A    between atoms: C3_3  and  C4_4 
REMARK    3  A    between atoms: C4_4  and  C5_5 
REMARK    4  A    between atoms: C5_5  and  O7_7 
REMARK    5  A    between atoms: O7_7  and  C8_8 
REMARK    6  A    between atoms: C8_8  and  C9_9 
REMARK    7  A    between atoms: C9_9  and  C11_11 
REMARK    8  A    between atoms: C11_11  and  O12_12 
REMARK    9  A    between atoms: C15_15  and  O16_16 
REMARK   10  A    between atoms: C22_22  and  O23_23 
REMARK   11  A    between atoms: C34_34  and  O36_35 
REMARK   12  A    between atoms: O36_35  and  C37_36 
REMARK   13  A    between atoms: C40_38  and  N42_39 
REMARK       I    between atoms: N42_39  and  C43_40 
REMARK   14  A    between atoms: C43_40  and  C45_42 
REMARK   15  A    between atoms: C49_46  and  O51_47 
ROOT
ATOM      1  C11 ZIN A   1      17.843   0.482   8.095  0.00  0.00     0.127 C 
ATOM      2  C13 ZIN A   1      17.679   1.785   8.875  0.00  0.00     0.088 C 
ATOM      3  C14 ZIN A   1      18.072   1.595  10.318  0.00  0.00    -0.009 A 
ATOM      4  C15 ZIN A   1      18.344   2.747  11.067  0.00  0.00     0.088 A 
ATOM      5  C17 ZIN A   1      18.707   2.646  12.409  0.00  0.00     0.066 A 
ATOM      6  C18 ZIN A   1      18.797   1.373  13.008  0.00  0.00     0.069 A 
ATOM      7  C19 ZIN A   1      19.175   1.260  14.429  0.00  0.00     0.200 C 
ATOM      8  O20 ZIN A   1      19.500   0.185  14.897  0.00  0.00    -0.286 OA
ATOM      9  C21 ZIN A   1      19.155   2.467  15.278  0.00  0.00     0.062 A 
ATOM     10  C22 ZIN A   1      19.222   2.362  16.669  0.00  0.00     0.083 A 
ATOM     11  C25 ZIN A   1      19.201   3.514  17.448  0.00  0.00     0.038 A 
ATOM     12  C26 ZIN A   1      19.115   4.757  16.857  0.00  0.00     0.004 A 
ATOM     13  C27 ZIN A   1      19.048   4.878  15.477  0.00  0.00     0.017 A 
ATOM     14  C28 ZIN A   1      19.067   3.740  14.680  0.00  0.00     0.032 A 
ATOM     15  C29 ZIN A   1      18.993   3.853  13.206  0.00  0.00     0.197 C 
ATOM     16  O30 ZIN A   1      19.166   4.925  12.662  0.00  0.00    -0.286 OA
ATOM     17  C31 ZIN A   1      18.528   0.238  12.248  0.00  0.00     0.132 A 
ATOM     18  O32 ZIN A   1      18.616  -0.989  12.818  0.00  0.00    -0.190 OA
ATOM     19  C33 ZIN A   1      18.167   0.355  10.899  0.00  0.00     0.018 A 
ATOM     20  C34 ZIN A   1      17.903  -0.919  10.141  0.00  0.00     0.164 C 
ATOM     21  C56 ZIN A   1      17.122  -0.633   8.861  0.00  0.00     0.083 C 
ENDROOT
BRANCH  20  22
ATOM     22  O36 ZIN A   1      17.148  -1.810  10.964  0.00  0.00    -0.351 OA
BRANCH  22  23
ATOM     23  C37 ZIN A   1      17.473  -3.189  10.781  0.00  0.00     0.263 C 
ATOM     24  O55 ZIN A   1      16.653  -3.989  11.636  0.00  0.00    -0.354 OA
ATOM     25  C52 ZIN A   1      16.916  -5.391  11.551  0.00  0.00     0.151 C 
ATOM     26  C49 ZIN A   1      16.645  -5.874  10.124  0.00  0.00     0.171 C 
ATOM     27  C54 ZIN A   1      18.377  -5.660  11.912  0.00  0.00     0.042 C 
ATOM     28  C40 ZIN A   1      17.518  -5.077   9.150  0.00  0.00     0.147 C 
ATOM     29  C39 ZIN A   1      17.225  -3.584   9.323  0.00  0.00     0.090 C 
BRANCH  26  30
ATOM     30  O51 ZIN A   1      16.961  -7.264  10.020  0.00  0.00    -0.391 OA
ATOM     31  H80 ZIN A   1      16.216  -7.851  10.210  0.00  0.00     0.210 HD
ENDBRANCH  26  30
BRANCH  28  32
ATOM     32  N42 ZIN A   1      17.214  -5.479   7.774  0.00  0.00    -0.240 NA
ATOM     33  C43 ZIN A   1      17.975  -6.405   7.158  0.00  0.00     0.346 C 
ATOM     34  O44 ZIN A   1      18.912  -6.906   7.742  0.00  0.00    -0.261 OA
BRANCH  33  35
ATOM     35  C45 ZIN A   1      17.661  -6.819   5.743  0.00  0.00     0.474 C 
ATOM     36  F46 ZIN A   1      16.461  -6.224   5.339  0.00  0.00    -0.162 F 
ATOM     37  F47 ZIN A   1      18.694  -6.405   4.896  0.00  0.00    -0.162 F 
ATOM     38  F48 ZIN A   1      17.535  -8.211   5.682  0.00  0.00    -0.162 F 
ENDBRANCH  33  35
ENDBRANCH  28  32
ENDBRANCH  22  23
ENDBRANCH  20  22
BRANCH   1  39
ATOM     39  C9  ZIN A   1      19.306   0.146   7.968  0.00  0.00     0.185 C 
ATOM     40  O10 ZIN A   1      20.142   0.959   8.284  0.00  0.00    -0.292 OA
BRANCH  39  41
ATOM     41  C8  ZIN A   1      19.727  -1.204   7.447  0.00  0.00     0.260 C 
BRANCH  41  42
ATOM     42  O7  ZIN A   1      18.728  -1.695   6.515  0.00  0.00    -0.314 OA
BRANCH  42  43
ATOM     43  C5  ZIN A   1      19.119  -1.880   5.244  0.00  0.00     0.259 C 
ATOM     44  O6  ZIN A   1      19.963  -1.162   4.762  0.00  0.00    -0.265 OA
BRANCH  43  45
ATOM     45  C4  ZIN A   1      18.505  -2.981   4.419  0.00  0.00     0.111 C 
BRANCH  45  46
ATOM     46  C3  ZIN A   1      17.071  -2.599   4.046  0.00  0.00     0.009 C 
BRANCH  46  47
ATOM     47  C2  ZIN A   1      16.450  -3.714   3.201  0.00  0.00    -0.004 C 
ATOM     48  C1  ZIN A   1      17.560  -4.567   2.585  0.00  0.00     0.005 C 
ENDBRANCH  46  47
ENDBRANCH  45  46
ENDBRANCH  43  45
ENDBRANCH  42  43
ENDBRANCH  41  42
ENDBRANCH  39  41
ENDBRANCH   1  39
BRANCH   1  49
ATOM     49  O12 ZIN A   1      17.266   0.624   6.795  0.00  0.00    -0.382 OA
ATOM     50  H68 ZIN A   1      17.566  -0.039   6.157  0.00  0.00     0.211 HD
ENDBRANCH   1  49
BRANCH   4  51
ATOM     51  O16 ZIN A   1      18.254   3.968  10.483  0.00  0.00    -0.359 OA
ATOM     52  H71 ZIN A   1      17.346   4.274  10.351  0.00  0.00     0.217 HD
ENDBRANCH   4  51
BRANCH  10  53
ATOM     53  O23 ZIN A   1      19.309   1.142  17.256  0.00  0.00    -0.355 OA
ATOM     54  C24 ZIN A   1      18.656   0.982  18.516  0.00  0.00     0.210 C 
ENDBRANCH  10  53
TORSDOF 15
ENDMDL
MODEL 9
REMARK VINA RESULT:      -7.2      1.767      2.569
REMARK  15 active torsions:
REMARK  status: ('A' for Active; 'I' for Inactive)
REMARK    1  A    between atoms: C2_2  and  C3_3 
REMARK    2  A    between atoms: C3_3  and  C4_4 
REMARK    3  A    between atoms: C4_4  and  C5_5 
REMARK    4  A    between atoms: C5_5  and  O7_7 
REMARK    5  A    between atoms: O7_7  and  C8_8 
REMARK    6  A    between atoms: C8_8  and  C9_9 
REMARK    7  A    between atoms: C9_9  and  C11_11 
REMARK    8  A    between atoms: C11_11  and  O12_12 
REMARK    9  A    between atoms: C15_15  and  O16_16 
REMARK   10  A    between atoms: C22_22  and  O23_23 
REMARK   11  A    between atoms: C34_34  and  O36_35 
REMARK   12  A    between atoms: O36_35  and  C37_36 
REMARK   13  A    between atoms: C40_38  and  N42_39 
REMARK       I    between atoms: N42_39  and  C43_40 
REMARK   14  A    between atoms: C43_40  and  C45_42 
REMARK   15  A    between atoms: C49_46  and  O51_47 
ROOT
ATOM      1  C11 ZIN A   1      19.256   2.729  11.390  0.00  0.00     0.127 C 
ATOM      2  C13 ZIN A   1      19.729   2.209  10.034  0.00  0.00     0.088 C 
ATOM      3  C14 ZIN A   1      19.180   0.830   9.772  0.00  0.00    -0.009 A 
ATOM      4  C15 ZIN A   1      19.196   0.373   8.447  0.00  0.00     0.088 A 
ATOM      5  C17 ZIN A   1      18.711  -0.894   8.132  0.00  0.00     0.066 A 
ATOM      6  C18 ZIN A   1      18.202  -1.716   9.159  0.00  0.00     0.069 A 
ATOM      7  C19 ZIN A   1      17.691  -3.061   8.833  0.00  0.00     0.200 C 
ATOM      8  O20 ZIN A   1      17.028  -3.681   9.643  0.00  0.00    -0.286 OA
ATOM      9  C21 ZIN A   1      17.994  -3.645   7.513  0.00  0.00     0.062 A 
ATOM     10  C22 ZIN A   1      17.784  -5.004   7.270  0.00  0.00     0.083 A 
ATOM     11  C25 ZIN A   1      18.078  -5.534   6.017  0.00  0.00     0.038 A 
ATOM     12  C26 ZIN A   1      18.574  -4.725   5.016  0.00  0.00     0.004 A 
ATOM     13  C27 ZIN A   1      18.787  -3.373   5.241  0.00  0.00     0.017 A 
ATOM     14  C28 ZIN A   1      18.501  -2.825   6.485  0.00  0.00     0.032 A 
ATOM     15  C29 ZIN A   1      18.726  -1.385   6.742  0.00  0.00     0.197 C 
ATOM     16  O30 ZIN A   1      18.921  -0.619   5.820  0.00  0.00    -0.286 OA
ATOM     17  C31 ZIN A   1      18.188  -1.245  10.469  0.00  0.00     0.132 A 
ATOM     18  O32 ZIN A   1      17.698  -2.029  11.461  0.00  0.00    -0.190 OA
ATOM     19  C33 ZIN A   1      18.678   0.033  10.770  0.00  0.00     0.018 A 
ATOM     20  C34 ZIN A   1      18.618   0.475  12.209  0.00  0.00     0.164 C 
ATOM     21  C56 ZIN A   1      19.552   1.659  12.448  0.00  0.00     0.083 C 
ENDROOT
BRANCH  20  22
ATOM     22  O36 ZIN A   1      19.008  -0.610  13.052  0.00  0.00    -0.351 OA
BRANCH  22  23
ATOM     23  C37 ZIN A   1      18.590  -0.471  14.411  0.00  0.00     0.263 C 
ATOM     24  O55 ZIN A   1      19.264  -1.439  15.218  0.00  0.00    -0.354 OA
ATOM     25  C52 ZIN A   1      18.897  -1.404  16.599  0.00  0.00     0.151 C 
ATOM     26  C49 ZIN A   1      19.252  -0.036  17.186  0.00  0.00     0.171 C 
ATOM     27  C54 ZIN A   1      17.392  -1.642  16.733  0.00  0.00     0.042 C 
ATOM     28  C40 ZIN A   1      18.535   1.056  16.385  0.00  0.00     0.147 C 
ATOM     29  C39 ZIN A   1      18.932   0.936  14.911  0.00  0.00     0.090 C 
BRANCH  26  30
ATOM     30  O51 ZIN A   1      18.834   0.022  18.551  0.00  0.00    -0.391 OA
ATOM     31  H80 ZIN A   1      18.726   0.921  18.891  0.00  0.00     0.210 HD
ENDBRANCH  26  30
BRANCH  28  32
ATOM     32  N42 ZIN A   1      18.926   2.374  16.891  0.00  0.00    -0.240 NA
ATOM     33  C43 ZIN A   1      18.580   3.486  16.212  0.00  0.00     0.346 C 
ATOM     34  O44 ZIN A   1      17.945   3.395  15.183  0.00  0.00    -0.261 OA
BRANCH  33  35
ATOM     35  C45 ZIN A   1      18.982   4.842  16.733  0.00  0.00     0.474 C 
ATOM     36  F46 ZIN A   1      20.376   4.947  16.733  0.00  0.00    -0.162 F 
ATOM     37  F47 ZIN A   1      18.440   5.837  15.912  0.00  0.00    -0.162 F 
ATOM     38  F48 ZIN A   1      18.502   5.000  18.038  0.00  0.00    -0.162 F 
ENDBRANCH  33  35
ENDBRANCH  28  32
ENDBRANCH  22  23
ENDBRANCH  20  22
BRANCH   1  39
ATOM     39  C9  ZIN A   1      17.774   2.998  11.342  0.00  0.00     0.185 C 
ATOM     40  O10 ZIN A   1      17.002   2.219  11.847  0.00  0.00    -0.292 OA
BRANCH  39  41
ATOM     41  C8  ZIN A   1      17.256   4.239  10.663  0.00  0.00     0.260 C 
BRANCH  41  42
ATOM     42  O7  ZIN A   1      16.200   4.826  11.468  0.00  0.00    -0.314 OA
BRANCH  42  43
ATOM     43  C5  ZIN A   1      16.564   5.408  12.621  0.00  0.00     0.259 C 
ATOM     44  O6  ZIN A   1      17.693   5.816  12.761  0.00  0.00    -0.265 OA
BRANCH  43  45
ATOM     45  C4  ZIN A   1      15.566   5.552  13.741  0.00  0.00     0.111 C 
BRANCH  45  46
ATOM     46  C3  ZIN A   1      15.881   6.815  14.545  0.00  0.00     0.009 C 
BRANCH  46  47
ATOM     47  C2  ZIN A   1      14.608   7.311  15.235  0.00  0.00    -0.004 C 
ATOM     48  C1  ZIN A   1      13.520   6.241  15.128  0.00  0.00     0.005 C 
ENDBRANCH  46  47
ENDBRANCH  45  46
ENDBRANCH  43  45
ENDBRANCH  42  43
ENDBRANCH  41  42
ENDBRANCH  39  41
ENDBRANCH   1  39
BRANCH   1  49
ATOM     49  O12 ZIN A   1      19.954   3.933  11.714  0.00  0.00    -0.382 OA
ATOM     50  H68 ZIN A   1      20.864   3.793  12.012  0.00  0.00     0.211 HD
ENDBRANCH   1  49
BRANCH   4  51
ATOM     51  O16 ZIN A   1      19.689   1.169   7.466  0.00  0.00    -0.359 OA
ATOM     52  H71 ZIN A   1      19.992   2.033   7.775  0.00  0.00     0.217 HD
ENDBRANCH   4  51
BRANCH  10  53
ATOM     53  O23 ZIN A   1      17.296  -5.804   8.251  0.00  0.00    -0.355 OA
ATOM     54  C24 ZIN A   1      18.078  -6.946   8.605  0.00  0.00     0.210 C 
ENDBRANCH  10  53
TORSDOF 15
ENDMDL
