MODEL 1
REMARK VINA RESULT:      -9.5      0.000      0.000
REMARK  8 active torsions:
REMARK  status: ('A' for Active; 'I' for Inactive)
REMARK    1  A    between atoms: C2_2  and  N4_4 
REMARK    2  A    between atoms: C2_2  and  C35_33 
REMARK       I    between atoms: N4_4  and  C5_5 
REMARK    3  A    between atoms: C5_5  and  C7_7 
REMARK    4  A    between atoms: C9_9  and  O10_10 
REMARK    5  A    between atoms: C17_16  and  O18_17 
REMARK    6  A    between atoms: N29_27  and  C31_29 
REMARK    7  A    between atoms: C31_29  and  C32_30 
REMARK    8  A    between atoms: C37_35  and  C38_36 
ROOT
ATOM      1  C7  ZIN A   1      18.998  -1.141  13.290  0.00  0.00     0.153 C 
ATOM      2  C8  ZIN A   1      17.919  -0.823  12.254  0.00  0.00     0.063 C 
ATOM      3  C9  ZIN A   1      18.510  -1.007  10.857  0.00  0.00     0.102 C 
ATOM      4  C11 ZIN A   1      17.444  -0.727   9.795  0.00  0.00     0.227 C 
ATOM      5  C13 ZIN A   1      16.826   0.659   9.877  0.00  0.00     0.075 C 
ATOM      6  C14 ZIN A   1      17.772   1.705  10.370  0.00  0.00    -0.046 A 
ATOM      7  C15 ZIN A   1      19.052   1.343  10.721  0.00  0.00    -0.001 A 
ATOM      8  C16 ZIN A   1      19.994   2.174  11.311  0.00  0.00     0.110 A 
ATOM      9  C17 ZIN A   1      19.663   3.522  11.479  0.00  0.00     0.099 A 
ATOM     10  C19 ZIN A   1      18.395   3.919  11.059  0.00  0.00     0.040 A 
ATOM     11  C20 ZIN A   1      17.463   3.045  10.525  0.00  0.00     0.011 A 
ATOM     12  O21 ZIN A   1      21.087   1.463  11.664  0.00  0.00    -0.334 OA
ATOM     13  C22 ZIN A   1      20.742   0.045  11.686  0.00  0.00     0.215 C 
ATOM     14  C24 ZIN A   1      20.197  -0.269  13.069  0.00  0.00     0.170 C 
ATOM     15  O25 ZIN A   1      20.764   0.193  14.029  0.00  0.00    -0.294 OA
ATOM     16  C26 ZIN A   1      19.646  -0.021  10.635  0.00  0.00     0.058 C 
ATOM     17  C27 ZIN A   1      20.210  -0.219   9.230  0.00  0.00     0.048 C 
ATOM     18  C28 ZIN A   1      19.080   0.009   8.220  0.00  0.00     0.236 C 
ATOM     19  N29 ZIN A   1      18.020  -0.937   8.462  0.00  0.00    -0.063 N 
ATOM     20  H30 ZIN A   1      17.290  -0.800   7.779  0.00  0.00     0.280 HD
ENDROOT
BRANCH   1  21
ATOM     21  C5  ZIN A   1      18.451  -0.898  14.673  0.00  0.00     0.230 C 
ATOM     22  N4  ZIN A   1      19.233  -1.099  15.752  0.00  0.00    -0.344 N 
ATOM     23  H52 ZIN A   1      20.148  -1.402  15.639  0.00  0.00     0.163 HD
ATOM     24  O6  ZIN A   1      17.308  -0.519  14.814  0.00  0.00    -0.273 OA
BRANCH  22  25
ATOM     25  C2  ZIN A   1      18.701  -0.862  17.096  0.00  0.00     0.095 C 
ATOM     26  C1  ZIN A   1      17.195  -1.133  17.104  0.00  0.00     0.047 C 
ATOM     27  C3  ZIN A   1      19.392  -1.797  18.091  0.00  0.00     0.047 C 
BRANCH  25  28
ATOM     28  C35 ZIN A   1      18.956   0.570  17.492  0.00  0.00     0.200 A 
ATOM     29  O45 ZIN A   1      19.673   0.989  18.539  0.00  0.00    -0.193 OA
ATOM     30  N44 ZIN A   1      19.685   2.201  18.575  0.00  0.00    -0.105 NA
ATOM     31  C37 ZIN A   1      18.987   2.688  17.583  0.00  0.00     0.189 A 
ATOM     32  N36 ZIN A   1      18.511   1.638  16.877  0.00  0.00    -0.201 NA
BRANCH  31  33
ATOM     33  C38 ZIN A   1      18.759   4.125  17.286  0.00  0.00     0.014 A 
ATOM     34  C43 ZIN A   1      17.771   4.831  17.971  0.00  0.00     0.015 A 
ATOM     35  C42 ZIN A   1      17.567   6.167  17.696  0.00  0.00     0.001 A 
ATOM     36  C41 ZIN A   1      18.332   6.803  16.734  0.00  0.00     0.000 A 
ATOM     37  C40 ZIN A   1      19.309   6.106  16.048  0.00  0.00     0.001 A 
ATOM     38  C39 ZIN A   1      19.526   4.770  16.319  0.00  0.00     0.015 A 
ENDBRANCH  31  33
ENDBRANCH  25  28
ENDBRANCH  22  25
ENDBRANCH   1  21
BRANCH   3  39
ATOM     39  O10 ZIN A   1      19.000  -2.342  10.716  0.00  0.00    -0.386 OA
ATOM     40  H56 ZIN A   1      19.432  -2.515   9.869  0.00  0.00     0.210 HD
ENDBRANCH   3  39
BRANCH  19  41
ATOM     41  C31 ZIN A   1      18.551  -2.300   8.334  0.00  0.00     0.240 C 
BRANCH  41  42
ATOM     42  C32 ZIN A   1      18.910  -2.573   6.872  0.00  0.00     0.011 A 
ATOM     43  C34 ZIN A   1      18.354  -3.848   6.234  0.00  0.00     0.007 A 
ATOM     44  C33 ZIN A   1      19.842  -3.751   6.580  0.00  0.00     0.007 A 
ENDBRANCH  41  42
ENDBRANCH  19  41
BRANCH   9  45
ATOM     45  O18 ZIN A   1      20.539   4.407  12.027  0.00  0.00    -0.358 OA
ATOM     46  H59 ZIN A   1      20.514   5.285  11.625  0.00  0.00     0.217 HD
ENDBRANCH   9  45
TORSDOF 8
ENDMDL
MODEL 2
REMARK VINA RESULT:      -9.3      2.619      8.508
REMARK  8 active torsions:
REMARK  status: ('A' for Active; 'I' for Inactive)
REMARK    1  A    between atoms: C2_2  and  N4_4 
REMARK    2  A    between atoms: C2_2  and  C35_33 
REMARK       I    between atoms: N4_4  and  C5_5 
REMARK    3  A    between atoms: C5_5  and  C7_7 
REMARK    4  A    between atoms: C9_9  and  O10_10 
REMARK    5  A    between atoms: C17_16  and  O18_17 
REMARK    6  A    between atoms: N29_27  and  C31_29 
REMARK    7  A    between atoms: C31_29  and  C32_30 
REMARK    8  A    between atoms: C37_35  and  C38_36 
ROOT
ATOM      1  C7  ZIN A   1      18.397  -2.883  12.148  0.00  0.00     0.153 C 
ATOM      2  C8  ZIN A   1      19.453  -2.018  12.838  0.00  0.00     0.063 C 
ATOM      3  C9  ZIN A   1      18.766  -1.153  13.893  0.00  0.00     0.102 C 
ATOM      4  C11 ZIN A   1      19.802  -0.297  14.626  0.00  0.00     0.227 C 
ATOM      5  C13 ZIN A   1      20.620   0.608  13.720  0.00  0.00     0.075 C 
ATOM      6  C14 ZIN A   1      19.867   1.095  12.525  0.00  0.00    -0.046 A 
ATOM      7  C15 ZIN A   1      18.568   0.682  12.334  0.00  0.00    -0.001 A 
ATOM      8  C16 ZIN A   1      17.792   0.946  11.215  0.00  0.00     0.110 A 
ATOM      9  C17 ZIN A   1      18.326   1.785  10.232  0.00  0.00     0.099 A 
ATOM     10  C19 ZIN A   1      19.614   2.272  10.448  0.00  0.00     0.040 A 
ATOM     11  C20 ZIN A   1      20.377   1.939  11.554  0.00  0.00     0.011 A 
ATOM     12  O21 ZIN A   1      16.627   0.266  11.284  0.00  0.00    -0.334 OA
ATOM     13  C22 ZIN A   1      16.762  -0.802  12.271  0.00  0.00     0.215 C 
ATOM     14  C24 ZIN A   1      17.329  -2.015  11.554  0.00  0.00     0.170 C 
ATOM     15  O25 ZIN A   1      16.889  -2.299  10.466  0.00  0.00    -0.294 OA
ATOM     16  C26 ZIN A   1      17.777  -0.207  13.232  0.00  0.00     0.058 C 
ATOM     17  C27 ZIN A   1      17.114   0.652  14.307  0.00  0.00     0.048 C 
ATOM     18  C28 ZIN A   1      18.209   1.431  15.045  0.00  0.00     0.236 C 
ATOM     19  N29 ZIN A   1      19.130   0.505  15.654  0.00  0.00    -0.063 N 
ATOM     20  H30 ZIN A   1      19.834   1.021  16.160  0.00  0.00     0.280 HD
ENDROOT
BRANCH   1  21
ATOM     21  C5  ZIN A   1      19.048  -3.692  11.056  0.00  0.00     0.230 C 
ATOM     22  N4  ZIN A   1      18.309  -4.539  10.313  0.00  0.00    -0.344 N 
ATOM     23  H52 ZIN A   1      17.358  -4.629  10.481  0.00  0.00     0.163 HD
ATOM     24  O6  ZIN A   1      20.237  -3.580  10.846  0.00  0.00    -0.273 OA
BRANCH  22  25
ATOM     25  C2  ZIN A   1      18.943  -5.326   9.251  0.00  0.00     0.095 C 
ATOM     26  C1  ZIN A   1      20.226  -5.965   9.787  0.00  0.00     0.047 C 
ATOM     27  C3  ZIN A   1      17.982  -6.422   8.786  0.00  0.00     0.047 C 
BRANCH  25  28
ATOM     28  C35 ZIN A   1      19.277  -4.424   8.090  0.00  0.00     0.200 A 
ATOM     29  O45 ZIN A   1      20.107  -4.704   7.080  0.00  0.00    -0.193 OA
ATOM     30  N44 ZIN A   1      20.154  -3.769   6.310  0.00  0.00    -0.105 NA
ATOM     31  C37 ZIN A   1      19.384  -2.800   6.732  0.00  0.00     0.189 A 
ATOM     32  N36 ZIN A   1      18.813  -3.217   7.884  0.00  0.00    -0.201 NA
BRANCH  31  33
ATOM     33  C38 ZIN A   1      19.175  -1.488   6.070  0.00  0.00     0.014 A 
ATOM     34  C43 ZIN A   1      19.101  -0.324   6.833  0.00  0.00     0.015 A 
ATOM     35  C42 ZIN A   1      18.913   0.894   6.213  0.00  0.00     0.001 A 
ATOM     36  C41 ZIN A   1      18.786   0.960   4.837  0.00  0.00     0.000 A 
ATOM     37  C40 ZIN A   1      18.854  -0.192   4.075  0.00  0.00     0.001 A 
ATOM     38  C39 ZIN A   1      19.048  -1.415   4.685  0.00  0.00     0.015 A 
ENDBRANCH  31  33
ENDBRANCH  25  28
ENDBRANCH  22  25
ENDBRANCH   1  21
BRANCH   3  39
ATOM     39  O10 ZIN A   1      18.079  -1.990  14.825  0.00  0.00    -0.386 OA
ATOM     40  H56 ZIN A   1      18.591  -2.199  15.618  0.00  0.00     0.210 HD
ENDBRANCH   3  39
BRANCH  19  41
ATOM     41  C31 ZIN A   1      18.398  -0.359  16.591  0.00  0.00     0.240 C 
BRANCH  41  42
ATOM     42  C32 ZIN A   1      18.915  -0.124  18.011  0.00  0.00     0.011 A 
ATOM     43  C34 ZIN A   1      17.992   0.610  18.986  0.00  0.00     0.007 A 
ATOM     44  C33 ZIN A   1      19.225   1.317  18.421  0.00  0.00     0.007 A 
ENDBRANCH  41  42
ENDBRANCH  19  41
BRANCH   9  45
ATOM     45  O18 ZIN A   1      17.620   2.113   9.116  0.00  0.00    -0.358 OA
ATOM     46  H59 ZIN A   1      18.054   1.863   8.290  0.00  0.00     0.217 HD
ENDBRANCH   9  45
TORSDOF 8
ENDMDL
MODEL 3
REMARK VINA RESULT:      -9.0      2.128      4.914
REMARK  8 active torsions:
REMARK  status: ('A' for Active; 'I' for Inactive)
REMARK    1  A    between atoms: C2_2  and  N4_4 
REMARK    2  A    between atoms: C2_2  and  C35_33 
REMARK       I    between atoms: N4_4  and  C5_5 
REMARK    3  A    between atoms: C5_5  and  C7_7 
REMARK    4  A    between atoms: C9_9  and  O10_10 
REMARK    5  A    between atoms: C17_16  and  O18_17 
REMARK    6  A    between atoms: N29_27  and  C31_29 
REMARK    7  A    between atoms: C31_29  and  C32_30 
REMARK    8  A    between atoms: C37_35  and  C38_36 
ROOT
ATOM      1  C7  ZIN A   1      18.603   3.194  10.902  0.00  0.00     0.153 C 
ATOM      2  C8  ZIN A   1      19.638   2.267  10.264  0.00  0.00     0.063 C 
ATOM      3  C9  ZIN A   1      18.957   1.453   9.165  0.00  0.00     0.102 C 
ATOM      4  C11 ZIN A   1      19.976   0.536   8.483  0.00  0.00     0.227 C 
ATOM      5  C13 ZIN A   1      20.683  -0.424   9.424  0.00  0.00     0.075 C 
ATOM      6  C14 ZIN A   1      19.835  -0.868  10.572  0.00  0.00    -0.046 A 
ATOM      7  C15 ZIN A   1      18.557  -0.373  10.695  0.00  0.00    -0.001 A 
ATOM      8  C16 ZIN A   1      17.706  -0.593  11.768  0.00  0.00     0.110 A 
ATOM      9  C17 ZIN A   1      18.130  -1.470  12.771  0.00  0.00     0.099 A 
ATOM     10  C19 ZIN A   1      19.394  -2.037  12.622  0.00  0.00     0.040 A 
ATOM     11  C20 ZIN A   1      20.237  -1.748  11.562  0.00  0.00     0.011 A 
ATOM     12  O21 ZIN A   1      16.592   0.160  11.641  0.00  0.00    -0.334 OA
ATOM     13  C22 ZIN A   1      16.848   1.223  10.672  0.00  0.00     0.215 C 
ATOM     14  C24 ZIN A   1      17.451   2.393  11.430  0.00  0.00     0.170 C 
ATOM     15  O25 ZIN A   1      16.970   2.699  12.494  0.00  0.00    -0.294 OA
ATOM     16  C26 ZIN A   1      17.875   0.569   9.763  0.00  0.00     0.058 C 
ATOM     17  C27 ZIN A   1      17.219  -0.241   8.646  0.00  0.00     0.048 C 
ATOM     18  C28 ZIN A   1      18.302  -1.084   7.962  0.00  0.00     0.236 C 
ATOM     19  N29 ZIN A   1      19.312  -0.216   7.412  0.00  0.00    -0.063 N 
ATOM     20  H30 ZIN A   1      20.009  -0.773   6.941  0.00  0.00     0.280 HD
ENDROOT
BRANCH   1  21
ATOM     21  C5  ZIN A   1      19.243   3.954  12.035  0.00  0.00     0.230 C 
ATOM     22  N4  ZIN A   1      18.486   4.719  12.846  0.00  0.00    -0.344 N 
ATOM     23  H52 ZIN A   1      17.528   4.781  12.701  0.00  0.00     0.163 HD
ATOM     24  O6  ZIN A   1      20.439   3.877  12.217  0.00  0.00    -0.273 OA
BRANCH  22  25
ATOM     25  C2  ZIN A   1      19.108   5.458  13.948  0.00  0.00     0.095 C 
ATOM     26  C1  ZIN A   1      20.423   6.077  13.468  0.00  0.00     0.047 C 
ATOM     27  C3  ZIN A   1      18.164   6.566  14.417  0.00  0.00     0.047 C 
BRANCH  25  28
ATOM     28  C35 ZIN A   1      19.385   4.516  15.092  0.00  0.00     0.200 A 
ATOM     29  O45 ZIN A   1      20.196   4.743  16.129  0.00  0.00    -0.193 OA
ATOM     30  N44 ZIN A   1      20.195   3.785  16.874  0.00  0.00    -0.105 NA
ATOM     31  C37 ZIN A   1      19.407   2.853  16.406  0.00  0.00     0.189 A 
ATOM     32  N36 ZIN A   1      18.879   3.318  15.252  0.00  0.00    -0.201 NA
BRANCH  31  33
ATOM     33  C38 ZIN A   1      19.142   1.530  17.026  0.00  0.00     0.014 A 
ATOM     34  C43 ZIN A   1      19.084   0.386  16.232  0.00  0.00     0.015 A 
ATOM     35  C42 ZIN A   1      18.843  -0.842  16.814  0.00  0.00     0.001 A 
ATOM     36  C41 ZIN A   1      18.648  -0.937  18.180  0.00  0.00     0.000 A 
ATOM     37  C40 ZIN A   1      18.700   0.196  18.972  0.00  0.00     0.001 A 
ATOM     38  C39 ZIN A   1      18.946   1.428  18.401  0.00  0.00     0.015 A 
ENDBRANCH  31  33
ENDBRANCH  25  28
ENDBRANCH  22  25
ENDBRANCH   1  21
BRANCH   3  39
ATOM     39  O10 ZIN A   1      18.377   2.337   8.204  0.00  0.00    -0.386 OA
ATOM     40  H56 ZIN A   1      17.528   2.711   8.476  0.00  0.00     0.210 HD
ENDBRANCH   3  39
BRANCH  19  41
ATOM     41  C31 ZIN A   1      18.689   0.698   6.445  0.00  0.00     0.240 C 
BRANCH  41  42
ATOM     42  C32 ZIN A   1      19.184   0.363   5.036  0.00  0.00     0.011 A 
ATOM     43  C34 ZIN A   1      18.190  -0.297   4.078  0.00  0.00     0.007 A 
ATOM     44  C33 ZIN A   1      19.336  -1.116   4.675  0.00  0.00     0.007 A 
ENDBRANCH  41  42
ENDBRANCH  19  41
BRANCH   9  45
ATOM     45  O18 ZIN A   1      17.344  -1.757  13.844  0.00  0.00    -0.358 OA
ATOM     46  H59 ZIN A   1      16.494  -1.298  13.842  0.00  0.00     0.217 HD
ENDBRANCH   9  45
TORSDOF 8
ENDMDL
MODEL 4
REMARK VINA RESULT:      -8.8      2.587      9.744
REMARK  8 active torsions:
REMARK  status: ('A' for Active; 'I' for Inactive)
REMARK    1  A    between atoms: C2_2  and  N4_4 
REMARK    2  A    between atoms: C2_2  and  C35_33 
REMARK       I    between atoms: N4_4  and  C5_5 
REMARK    3  A    between atoms: C5_5  and  C7_7 
REMARK    4  A    between atoms: C9_9  and  O10_10 
REMARK    5  A    between atoms: C17_16  and  O18_17 
REMARK    6  A    between atoms: N29_27  and  C31_29 
REMARK    7  A    between atoms: C31_29  and  C32_30 
REMARK    8  A    between atoms: C37_35  and  C38_36 
ROOT
ATOM      1  C7  ZIN A   1      19.313   1.224   9.362  0.00  0.00     0.153 C 
ATOM      2  C8  ZIN A   1      18.097   0.986  10.258  0.00  0.00     0.063 C 
ATOM      3  C9  ZIN A   1      18.520   1.156  11.716  0.00  0.00     0.102 C 
ATOM      4  C11 ZIN A   1      17.316   0.956  12.640  0.00  0.00     0.227 C 
ATOM      5  C13 ZIN A   1      16.630  -0.391  12.492  0.00  0.00     0.075 C 
ATOM      6  C14 ZIN A   1      17.564  -1.499  12.128  0.00  0.00    -0.046 A 
ATOM      7  C15 ZIN A   1      18.898  -1.219  11.937  0.00  0.00    -0.001 A 
ATOM      8  C16 ZIN A   1      19.853  -2.114  11.475  0.00  0.00     0.110 A 
ATOM      9  C17 ZIN A   1      19.464  -3.442  11.278  0.00  0.00     0.099 A 
ATOM     10  C19 ZIN A   1      18.132  -3.757  11.540  0.00  0.00     0.040 A 
ATOM     11  C20 ZIN A   1      17.196  -2.821  11.947  0.00  0.00     0.011 A 
ATOM     12  O21 ZIN A   1      21.023  -1.474  11.256  0.00  0.00    -0.334 OA
ATOM     13  C22 ZIN A   1      20.769  -0.039  11.180  0.00  0.00     0.215 C 
ATOM     14  C24 ZIN A   1      20.420   0.286   9.737  0.00  0.00     0.170 C 
ATOM     15  O25 ZIN A   1      21.072  -0.223   8.859  0.00  0.00    -0.294 OA
ATOM     16  C26 ZIN A   1      19.558   0.109  12.085  0.00  0.00     0.058 C 
ATOM     17  C27 ZIN A   1      19.955   0.294  13.548  0.00  0.00     0.048 C 
ATOM     18  C28 ZIN A   1      18.696   0.149  14.412  0.00  0.00     0.236 C 
ATOM     19  N29 ZIN A   1      17.734   1.152  14.032  0.00  0.00    -0.063 N 
ATOM     20  H30 ZIN A   1      16.918   1.069  14.620  0.00  0.00     0.280 HD
ENDROOT
BRANCH   1  21
ATOM     21  C5  ZIN A   1      18.928   0.992   7.924  0.00  0.00     0.230 C 
ATOM     22  N4  ZIN A   1      18.709  -0.260   7.478  0.00  0.00    -0.344 N 
ATOM     23  H52 ZIN A   1      18.799  -1.014   8.083  0.00  0.00     0.163 HD
ATOM     24  O6  ZIN A   1      18.814   1.934   7.168  0.00  0.00    -0.273 OA
BRANCH  22  25
ATOM     25  C2  ZIN A   1      18.334  -0.485   6.079  0.00  0.00     0.095 C 
ATOM     26  C1  ZIN A   1      16.930   0.070   5.832  0.00  0.00     0.047 C 
ATOM     27  C3  ZIN A   1      19.332   0.226   5.163  0.00  0.00     0.047 C 
BRANCH  25  28
ATOM     28  C35 ZIN A   1      18.349  -1.964   5.787  0.00  0.00     0.200 A 
ATOM     29  O45 ZIN A   1      18.682  -2.541   4.629  0.00  0.00    -0.193 OA
ATOM     30  N44 ZIN A   1      18.591  -3.747   4.724  0.00  0.00    -0.105 NA
ATOM     31  C37 ZIN A   1      18.192  -4.074   5.926  0.00  0.00     0.189 A 
ATOM     32  N36 ZIN A   1      18.032  -2.924   6.620  0.00  0.00    -0.201 NA
BRANCH  31  33
ATOM     33  C38 ZIN A   1      17.956  -5.449   6.433  0.00  0.00     0.014 A 
ATOM     34  C43 ZIN A   1      18.033  -5.712   7.799  0.00  0.00     0.015 A 
ATOM     35  C42 ZIN A   1      17.807  -6.990   8.267  0.00  0.00     0.001 A 
ATOM     36  C41 ZIN A   1      17.518  -8.013   7.380  0.00  0.00     0.000 A 
ATOM     37  C40 ZIN A   1      17.446  -7.758   6.023  0.00  0.00     0.001 A 
ATOM     38  C39 ZIN A   1      17.665  -6.482   5.545  0.00  0.00     0.015 A 
ENDBRANCH  31  33
ENDBRANCH  25  28
ENDBRANCH  22  25
ENDBRANCH   1  21
BRANCH   3  39
ATOM     39  O10 ZIN A   1      19.069   2.462  11.906  0.00  0.00    -0.386 OA
ATOM     40  H56 ZIN A   1      18.621   3.154  11.402  0.00  0.00     0.210 HD
ENDBRANCH   3  39
BRANCH  19  41
ATOM     41  C31 ZIN A   1      18.327   2.483  14.215  0.00  0.00     0.240 C 
BRANCH  41  42
ATOM     42  C32 ZIN A   1      18.385   2.816  15.707  0.00  0.00     0.011 A 
ATOM     43  C34 ZIN A   1      18.414   4.294  16.100  0.00  0.00     0.007 A 
ATOM     44  C33 ZIN A   1      19.675   3.440  16.242  0.00  0.00     0.007 A 
ENDBRANCH  41  42
ENDBRANCH  19  41
BRANCH   9  45
ATOM     45  O18 ZIN A   1      20.346  -4.385  10.850  0.00  0.00    -0.358 OA
ATOM     46  H59 ZIN A   1      20.438  -5.138  11.450  0.00  0.00     0.217 HD
ENDBRANCH   9  45
TORSDOF 8
ENDMDL
MODEL 5
REMARK VINA RESULT:      -8.6      3.443      9.540
REMARK  8 active torsions:
REMARK  status: ('A' for Active; 'I' for Inactive)
REMARK    1  A    between atoms: C2_2  and  N4_4 
REMARK    2  A    between atoms: C2_2  and  C35_33 
REMARK       I    between atoms: N4_4  and  C5_5 
REMARK    3  A    between atoms: C5_5  and  C7_7 
REMARK    4  A    between atoms: C9_9  and  O10_10 
REMARK    5  A    between atoms: C17_16  and  O18_17 
REMARK    6  A    between atoms: N29_27  and  C31_29 
REMARK    7  A    between atoms: C31_29  and  C32_30 
REMARK    8  A    between atoms: C37_35  and  C38_36 
ROOT
ATOM      1  C7  ZIN A   1      18.703  -3.275  11.878  0.00  0.00     0.153 C 
ATOM      2  C8  ZIN A   1      19.778  -2.225  12.158  0.00  0.00     0.063 C 
ATOM      3  C9  ZIN A   1      19.195  -1.161  13.087  0.00  0.00     0.102 C 
ATOM      4  C11 ZIN A   1      20.258  -0.109  13.413  0.00  0.00     0.227 C 
ATOM      5  C13 ZIN A   1      20.847   0.585  12.197  0.00  0.00     0.075 C 
ATOM      6  C14 ZIN A   1      19.878   0.736  11.069  0.00  0.00    -0.046 A 
ATOM      7  C15 ZIN A   1      18.604   0.233  11.204  0.00  0.00    -0.001 A 
ATOM      8  C16 ZIN A   1      17.644   0.185  10.204  0.00  0.00     0.110 A 
ATOM      9  C17 ZIN A   1      17.947   0.784   8.977  0.00  0.00     0.099 A 
ATOM     10  C19 ZIN A   1      19.207   1.365   8.851  0.00  0.00     0.040 A 
ATOM     11  C20 ZIN A   1      20.159   1.342   9.857  0.00  0.00     0.011 A 
ATOM     12  O21 ZIN A   1      16.565  -0.509  10.627  0.00  0.00    -0.334 OA
ATOM     13  C22 ZIN A   1      16.940  -1.300  11.795  0.00  0.00     0.215 C 
ATOM     14  C24 ZIN A   1      17.487  -2.624  11.291  0.00  0.00     0.170 C 
ATOM     15  O25 ZIN A   1      16.908  -3.181  10.390  0.00  0.00    -0.294 OA
ATOM     16  C26 ZIN A   1      18.039  -0.447  12.405  0.00  0.00     0.058 C 
ATOM     17  C27 ZIN A   1      17.484   0.617  13.350  0.00  0.00     0.048 C 
ATOM     18  C28 ZIN A   1      18.612   1.597  13.690  0.00  0.00     0.236 C 
ATOM     19  N29 ZIN A   1      19.690   0.887  14.329  0.00  0.00    -0.063 N 
ATOM     20  H30 ZIN A   1      20.419   1.540  14.574  0.00  0.00     0.280 HD
ENDROOT
BRANCH   1  21
ATOM     21  C5  ZIN A   1      19.241  -4.295  10.907  0.00  0.00     0.230 C 
ATOM     22  N4  ZIN A   1      19.085  -4.111   9.582  0.00  0.00    -0.344 N 
ATOM     23  H52 ZIN A   1      18.627  -3.323   9.251  0.00  0.00     0.163 HD
ATOM     24  O6  ZIN A   1      19.814  -5.281  11.320  0.00  0.00    -0.273 OA
BRANCH  22  25
ATOM     25  C2  ZIN A   1      19.609  -5.103   8.638  0.00  0.00     0.095 C 
ATOM     26  C1  ZIN A   1      20.110  -4.394   7.378  0.00  0.00     0.047 C 
ATOM     27  C3  ZIN A   1      20.765  -5.866   9.288  0.00  0.00     0.047 C 
BRANCH  25  28
ATOM     28  C35 ZIN A   1      18.513  -6.071   8.268  0.00  0.00     0.200 A 
ATOM     29  O45 ZIN A   1      18.675  -7.314   7.805  0.00  0.00    -0.193 OA
ATOM     30  N44 ZIN A   1      17.594  -7.827   7.607  0.00  0.00    -0.105 NA
ATOM     31  C37 ZIN A   1      16.637  -6.988   7.906  0.00  0.00     0.189 A 
ATOM     32  N36 ZIN A   1      17.224  -5.848   8.334  0.00  0.00    -0.201 NA
BRANCH  31  33
ATOM     33  C38 ZIN A   1      15.178  -7.240   7.795  0.00  0.00     0.014 A 
ATOM     34  C43 ZIN A   1      14.711  -8.509   7.458  0.00  0.00     0.015 A 
ATOM     35  C42 ZIN A   1      13.354  -8.738   7.362  0.00  0.00     0.001 A 
ATOM     36  C41 ZIN A   1      12.458  -7.709   7.588  0.00  0.00     0.000 A 
ATOM     37  C40 ZIN A   1      12.916  -6.446   7.917  0.00  0.00     0.001 A 
ATOM     38  C39 ZIN A   1      14.271  -6.207   8.021  0.00  0.00     0.015 A 
ENDBRANCH  31  33
ENDBRANCH  25  28
ENDBRANCH  22  25
ENDBRANCH   1  21
BRANCH   3  39
ATOM     39  O10 ZIN A   1      18.733  -1.778  14.290  0.00  0.00    -0.386 OA
ATOM     40  H56 ZIN A   1      18.279  -1.173  14.893  0.00  0.00     0.210 HD
ENDBRANCH   3  39
BRANCH  19  41
ATOM     41  C31 ZIN A   1      19.188   0.244  15.550  0.00  0.00     0.240 C 
BRANCH  41  42
ATOM     42  C32 ZIN A   1      18.967   1.304  16.631  0.00  0.00     0.011 A 
ATOM     43  C34 ZIN A   1      19.408   0.961  18.056  0.00  0.00     0.007 A 
ATOM     44  C33 ZIN A   1      17.919   1.009  17.706  0.00  0.00     0.007 A 
ENDBRANCH  41  42
ENDBRANCH  19  41
BRANCH   9  45
ATOM     45  O18 ZIN A   1      17.050   0.802   7.954  0.00  0.00    -0.358 OA
ATOM     46  H59 ZIN A   1      16.642  -0.056   7.775  0.00  0.00     0.217 HD
ENDBRANCH   9  45
TORSDOF 8
ENDMDL
MODEL 6
REMARK VINA RESULT:      -8.4      6.242      9.987
REMARK  8 active torsions:
REMARK  status: ('A' for Active; 'I' for Inactive)
REMARK    1  A    between atoms: C2_2  and  N4_4 
REMARK    2  A    between atoms: C2_2  and  C35_33 
REMARK       I    between atoms: N4_4  and  C5_5 
REMARK    3  A    between atoms: C5_5  and  C7_7 
REMARK    4  A    between atoms: C9_9  and  O10_10 
REMARK    5  A    between atoms: C17_16  and  O18_17 
REMARK    6  A    between atoms: N29_27  and  C31_29 
REMARK    7  A    between atoms: C31_29  and  C32_30 
REMARK    8  A    between atoms: C37_35  and  C38_36 
ROOT
ATOM      1  C7  ZIN A   1      16.900  -6.653   8.451  0.00  0.00     0.153 C 
ATOM      2  C8  ZIN A   1      15.525  -6.517   7.796  0.00  0.00     0.063 C 
ATOM      3  C9  ZIN A   1      15.274  -7.747   6.924  0.00  0.00     0.102 C 
ATOM      4  C11 ZIN A   1      13.889  -7.658   6.278  0.00  0.00     0.227 C 
ATOM      5  C13 ZIN A   1      13.671  -6.415   5.431  0.00  0.00     0.075 C 
ATOM      6  C14 ZIN A   1      14.912  -5.928   4.757  0.00  0.00    -0.046 A 
ATOM      7  C15 ZIN A   1      16.098  -6.592   4.969  0.00  0.00    -0.001 A 
ATOM      8  C16 ZIN A   1      17.345  -6.184   4.517  0.00  0.00     0.110 A 
ATOM      9  C17 ZIN A   1      17.405  -5.058   3.690  0.00  0.00     0.099 A 
ATOM     10  C19 ZIN A   1      16.200  -4.418   3.405  0.00  0.00     0.040 A 
ATOM     11  C20 ZIN A   1      14.982  -4.825   3.923  0.00  0.00     0.011 A 
ATOM     12  O21 ZIN A   1      18.310  -6.977   5.031  0.00  0.00    -0.334 OA
ATOM     13  C22 ZIN A   1      17.766  -7.700   6.177  0.00  0.00     0.215 C 
ATOM     14  C24 ZIN A   1      17.956  -6.821   7.401  0.00  0.00     0.170 C 
ATOM     15  O25 ZIN A   1      19.009  -6.245   7.539  0.00  0.00    -0.294 OA
ATOM     16  C26 ZIN A   1      16.298  -7.811   5.803  0.00  0.00     0.058 C 
ATOM     17  C27 ZIN A   1      16.017  -9.041   4.942  0.00  0.00     0.048 C 
ATOM     18  C28 ZIN A   1      14.595  -8.923   4.381  0.00  0.00     0.236 C 
ATOM     19  N29 ZIN A   1      13.653  -8.859   5.468  0.00  0.00    -0.063 N 
ATOM     20  H30 ZIN A   1      12.717  -8.806   5.095  0.00  0.00     0.280 HD
ENDROOT
BRANCH   1  21
ATOM     21  C5  ZIN A   1      17.193  -5.415   9.260  0.00  0.00     0.230 C 
ATOM     22  N4  ZIN A   1      18.347  -5.317   9.948  0.00  0.00    -0.344 N 
ATOM     23  H52 ZIN A   1      18.990  -6.043   9.924  0.00  0.00     0.163 HD
ATOM     24  O6  ZIN A   1      16.389  -4.507   9.291  0.00  0.00    -0.273 OA
BRANCH  22  25
ATOM     25  C2  ZIN A   1      18.631  -4.113  10.735  0.00  0.00     0.095 C 
ATOM     26  C1  ZIN A   1      17.647  -4.024  11.903  0.00  0.00     0.047 C 
ATOM     27  C3  ZIN A   1      20.061  -4.183  11.275  0.00  0.00     0.047 C 
BRANCH  25  28
ATOM     28  C35 ZIN A   1      18.484  -2.895   9.859  0.00  0.00     0.200 A 
ATOM     29  O45 ZIN A   1      17.971  -1.715  10.220  0.00  0.00    -0.193 OA
ATOM     30  N44 ZIN A   1      17.998  -0.946   9.283  0.00  0.00    -0.105 NA
ATOM     31  C37 ZIN A   1      18.513  -1.534   8.234  0.00  0.00     0.189 A 
ATOM     32  N36 ZIN A   1      18.829  -2.796   8.599  0.00  0.00    -0.201 NA
BRANCH  31  33
ATOM     33  C38 ZIN A   1      18.711  -0.929   6.893  0.00  0.00     0.014 A 
ATOM     34  C43 ZIN A   1      18.599  -1.716   5.748  0.00  0.00     0.015 A 
ATOM     35  C42 ZIN A   1      18.779  -1.147   4.504  0.00  0.00     0.001 A 
ATOM     36  C41 ZIN A   1      19.082   0.198   4.392  0.00  0.00     0.000 A 
ATOM     37  C40 ZIN A   1      19.199   0.982   5.525  0.00  0.00     0.001 A 
ATOM     38  C39 ZIN A   1      19.016   0.425   6.774  0.00  0.00     0.015 A 
ENDBRANCH  31  33
ENDBRANCH  25  28
ENDBRANCH  22  25
ENDBRANCH   1  21
BRANCH   3  39
ATOM     39  O10 ZIN A   1      15.364  -8.927   7.723  0.00  0.00    -0.386 OA
ATOM     40  H56 ZIN A   1      15.331  -9.749   7.216  0.00  0.00     0.210 HD
ENDBRANCH   3  39
BRANCH  19  41
ATOM     41  C31 ZIN A   1      13.779 -10.071   6.289  0.00  0.00     0.240 C 
BRANCH  41  42
ATOM     42  C32 ZIN A   1      12.417 -10.420   6.894  0.00  0.00     0.011 A 
ATOM     43  C34 ZIN A   1      11.752  -9.371   7.787  0.00  0.00     0.007 A 
ATOM     44  C33 ZIN A   1      12.351 -10.635   8.407  0.00  0.00     0.007 A 
ENDBRANCH  41  42
ENDBRANCH  19  41
BRANCH   9  45
ATOM     45  O18 ZIN A   1      18.585  -4.608   3.185  0.00  0.00    -0.358 OA
ATOM     46  H59 ZIN A   1      19.157  -5.307   2.841  0.00  0.00     0.217 HD
ENDBRANCH   9  45
TORSDOF 8
ENDMDL
MODEL 7
REMARK VINA RESULT:      -8.4      2.945      8.696
REMARK  8 active torsions:
REMARK  status: ('A' for Active; 'I' for Inactive)
REMARK    1  A    between atoms: C2_2  and  N4_4 
REMARK    2  A    between atoms: C2_2  and  C35_33 
REMARK       I    between atoms: N4_4  and  C5_5 
REMARK    3  A    between atoms: C5_5  and  C7_7 
REMARK    4  A    between atoms: C9_9  and  O10_10 
REMARK    5  A    between atoms: C17_16  and  O18_17 
REMARK    6  A    between atoms: N29_27  and  C31_29 
REMARK    7  A    between atoms: C31_29  and  C32_30 
REMARK    8  A    between atoms: C37_35  and  C38_36 
ROOT
ATOM      1  C7  ZIN A   1      18.551  -0.838  12.696  0.00  0.00     0.153 C 
ATOM      2  C8  ZIN A   1      19.581   0.184  12.212  0.00  0.00     0.063 C 
ATOM      3  C9  ZIN A   1      18.966   1.580  12.304  0.00  0.00     0.102 C 
ATOM      4  C11 ZIN A   1      19.985   2.632  11.856  0.00  0.00     0.227 C 
ATOM      5  C13 ZIN A   1      20.515   2.431  10.447  0.00  0.00     0.075 C 
ATOM      6  C14 ZIN A   1      19.517   1.823   9.516  0.00  0.00    -0.046 A 
ATOM      7  C15 ZIN A   1      18.272   1.482   9.992  0.00  0.00    -0.001 A 
ATOM      8  C16 ZIN A   1      17.295   0.799   9.284  0.00  0.00     0.110 A 
ATOM      9  C17 ZIN A   1      17.544   0.510   7.938  0.00  0.00     0.099 A 
ATOM     10  C19 ZIN A   1      18.773   0.916   7.421  0.00  0.00     0.040 A 
ATOM     11  C20 ZIN A   1      19.745   1.548   8.178  0.00  0.00     0.011 A 
ATOM     12  O21 ZIN A   1      16.259   0.493  10.094  0.00  0.00    -0.334 OA
ATOM     13  C22 ZIN A   1      16.695   0.612  11.483  0.00  0.00     0.215 C 
ATOM     14  C24 ZIN A   1      17.294  -0.724  11.887  0.00  0.00     0.170 C 
ATOM     15  O25 ZIN A   1      16.724  -1.735  11.555  0.00  0.00    -0.294 OA
ATOM     16  C26 ZIN A   1      17.765   1.686  11.379  0.00  0.00     0.058 C 
ATOM     17  C27 ZIN A   1      17.179   3.092  11.482  0.00  0.00     0.048 C 
ATOM     18  C28 ZIN A   1      18.266   4.098  11.087  0.00  0.00     0.236 C 
ATOM     19  N29 ZIN A   1      19.389   3.967  11.979  0.00  0.00    -0.063 N 
ATOM     20  H30 ZIN A   1      20.092   4.648  11.731  0.00  0.00     0.280 HD
ENDROOT
BRANCH   1  21
ATOM     21  C5  ZIN A   1      19.117  -2.227  12.546  0.00  0.00     0.230 C 
ATOM     22  N4  ZIN A   1      18.982  -2.888  11.380  0.00  0.00    -0.344 N 
ATOM     23  H52 ZIN A   1      18.520  -2.470  10.636  0.00  0.00     0.163 HD
ATOM     24  O6  ZIN A   1      19.694  -2.749  13.476  0.00  0.00    -0.273 OA
BRANCH  22  25
ATOM     25  C2  ZIN A   1      19.532  -4.238  11.235  0.00  0.00     0.095 C 
ATOM     26  C1  ZIN A   1      20.936  -4.285  11.842  0.00  0.00     0.047 C 
ATOM     27  C3  ZIN A   1      18.629  -5.238  11.961  0.00  0.00     0.047 C 
BRANCH  25  28
ATOM     28  C35 ZIN A   1      19.605  -4.597   9.773  0.00  0.00     0.200 A 
ATOM     29  O45 ZIN A   1      20.317  -5.591   9.233  0.00  0.00    -0.193 OA
ATOM     30  N44 ZIN A   1      20.156  -5.612   8.031  0.00  0.00    -0.105 NA
ATOM     31  C37 ZIN A   1      19.347  -4.651   7.669  0.00  0.00     0.189 A 
ATOM     32  N36 ZIN A   1      18.986  -3.988   8.791  0.00  0.00    -0.201 NA
BRANCH  31  33
ATOM     33  C38 ZIN A   1      18.907  -4.343   6.285  0.00  0.00     0.014 A 
ATOM     34  C43 ZIN A   1      18.152  -5.270   5.569  0.00  0.00     0.015 A 
ATOM     35  C42 ZIN A   1      17.741  -4.977   4.285  0.00  0.00     0.001 A 
ATOM     36  C41 ZIN A   1      18.087  -3.770   3.703  0.00  0.00     0.000 A 
ATOM     37  C40 ZIN A   1      18.840  -2.848   4.408  0.00  0.00     0.001 A 
ATOM     38  C39 ZIN A   1      19.252  -3.129   5.695  0.00  0.00     0.015 A 
ENDBRANCH  31  33
ENDBRANCH  25  28
ENDBRANCH  22  25
ENDBRANCH   1  21
BRANCH   3  39
ATOM     39  O10 ZIN A   1      18.559   1.837  13.649  0.00  0.00    -0.386 OA
ATOM     40  H56 ZIN A   1      17.630   2.089  13.737  0.00  0.00     0.210 HD
ENDBRANCH   3  39
BRANCH  19  41
ATOM     41  C31 ZIN A   1      18.943   4.213  13.357  0.00  0.00     0.240 C 
BRANCH  41  42
ATOM     42  C32 ZIN A   1      19.629   5.469  13.898  0.00  0.00     0.011 A 
ATOM     43  C34 ZIN A   1      19.981   5.494  15.387  0.00  0.00     0.007 A 
ATOM     44  C33 ZIN A   1      18.830   6.352  14.859  0.00  0.00     0.007 A 
ENDBRANCH  41  42
ENDBRANCH  19  41
BRANCH   9  45
ATOM     45  O18 ZIN A   1      16.627  -0.136   7.168  0.00  0.00    -0.358 OA
ATOM     46  H59 ZIN A   1      16.380  -1.008   7.501  0.00  0.00     0.217 HD
ENDBRANCH   9  45
TORSDOF 8
ENDMDL
MODEL 8
REMARK VINA RESULT:      -8.0      2.744      5.015
REMARK  8 active torsions:
REMARK  status: ('A' for Active; 'I' for Inactive)
REMARK    1  A    between atoms: C2_2  and  N4_4 
REMARK    2  A    between atoms: C2_2  and  C35_33 
REMARK       I    between atoms: N4_4  and  C5_5 
REMARK    3  A    between atoms: C5_5  and  C7_7 
REMARK    4  A    between atoms: C9_9  and  O10_10 
REMARK    5  A    between atoms: C17_16  and  O18_17 
REMARK    6  A    between atoms: N29_27  and  C31_29 
REMARK    7  A    between atoms: C31_29  and  C32_30 
REMARK    8  A    between atoms: C37_35  and  C38_36 
ROOT
ATOM      1  C7  ZIN A   1      19.044   3.634  11.751  0.00  0.00     0.153 C 
ATOM      2  C8  ZIN A   1      20.032   2.516  11.416  0.00  0.00     0.063 C 
ATOM      3  C9  ZIN A   1      19.379   1.572  10.406  0.00  0.00     0.102 C 
ATOM      4  C11 ZIN A   1      20.356   0.456  10.024  0.00  0.00     0.227 C 
ATOM      5  C13 ZIN A   1      20.858  -0.367  11.198  0.00  0.00     0.075 C 
ATOM      6  C14 ZIN A   1      19.856  -0.509  12.298  0.00  0.00    -0.046 A 
ATOM      7  C15 ZIN A   1      18.633   0.110  12.179  0.00  0.00    -0.001 A 
ATOM      8  C16 ZIN A   1      17.660   0.173  13.165  0.00  0.00     0.110 A 
ATOM      9  C17 ZIN A   1      17.885  -0.533  14.352  0.00  0.00     0.099 A 
ATOM     10  C19 ZIN A   1      19.089  -1.227  14.456  0.00  0.00     0.040 A 
ATOM     11  C20 ZIN A   1      20.059  -1.218  13.469  0.00  0.00     0.011 A 
ATOM     12  O21 ZIN A   1      16.653   0.984  12.775  0.00  0.00    -0.334 OA
ATOM     13  C22 ZIN A   1      17.118   1.817  11.670  0.00  0.00     0.215 C 
ATOM     14  C24 ZIN A   1      17.765   3.052  12.273  0.00  0.00     0.170 C 
ATOM     15  O25 ZIN A   1      17.217   3.594  13.202  0.00  0.00    -0.294 OA
ATOM     16  C26 ZIN A   1      18.153   0.915  11.020  0.00  0.00     0.058 C 
ATOM     17  C27 ZIN A   1      17.529  -0.030   9.995  0.00  0.00     0.048 C 
ATOM     18  C28 ZIN A   1      18.577  -1.079   9.605  0.00  0.00     0.236 C 
ATOM     19  N29 ZIN A   1      19.725  -0.423   9.033  0.00  0.00    -0.063 N 
ATOM     20  H30 ZIN A   1      20.401  -1.118   8.755  0.00  0.00     0.280 HD
ENDROOT
BRANCH   1  21
ATOM     21  C5  ZIN A   1      19.646   4.535  12.798  0.00  0.00     0.230 C 
ATOM     22  N4  ZIN A   1      19.320   4.374  14.095  0.00  0.00    -0.344 N 
ATOM     23  H52 ZIN A   1      18.696   3.678  14.356  0.00  0.00     0.163 HD
ATOM     24  O6  ZIN A   1      20.426   5.406  12.473  0.00  0.00    -0.273 OA
BRANCH  22  25
ATOM     25  C2  ZIN A   1      19.905   5.251  15.113  0.00  0.00     0.095 C 
ATOM     26  C1  ZIN A   1      20.319   4.417  16.327  0.00  0.00     0.047 C 
ATOM     27  C3  ZIN A   1      21.134   5.955  14.534  0.00  0.00     0.047 C 
BRANCH  25  28
ATOM     28  C35 ZIN A   1      18.888   6.281  15.534  0.00  0.00     0.200 A 
ATOM     29  O45 ZIN A   1      19.112   7.348  16.308  0.00  0.00    -0.193 OA
ATOM     30  N44 ZIN A   1      18.085   7.976  16.455  0.00  0.00    -0.105 NA
ATOM     31  C37 ZIN A   1      17.106   7.394  15.813  0.00  0.00     0.189 A 
ATOM     32  N36 ZIN A   1      17.618   6.295  15.215  0.00  0.00    -0.201 NA
BRANCH  31  33
ATOM     33  C38 ZIN A   1      15.695   7.853  15.754  0.00  0.00     0.014 A 
ATOM     34  C43 ZIN A   1      14.702   6.997  15.282  0.00  0.00     0.015 A 
ATOM     35  C42 ZIN A   1      13.392   7.426  15.234  0.00  0.00     0.001 A 
ATOM     36  C41 ZIN A   1      13.064   8.707  15.642  0.00  0.00     0.000 A 
ATOM     37  C40 ZIN A   1      14.048   9.562  16.106  0.00  0.00     0.001 A 
ATOM     38  C39 ZIN A   1      15.361   9.141  16.163  0.00  0.00     0.015 A 
ENDBRANCH  31  33
ENDBRANCH  25  28
ENDBRANCH  22  25
ENDBRANCH   1  21
BRANCH   3  39
ATOM     39  O10 ZIN A   1      18.997   2.306   9.242  0.00  0.00    -0.386 OA
ATOM     40  H56 ZIN A   1      18.240   1.932   8.772  0.00  0.00     0.210 HD
ENDBRANCH   3  39
BRANCH  19  41
ATOM     41  C31 ZIN A   1      19.305   0.343   7.852  0.00  0.00     0.240 C 
BRANCH  41  42
ATOM     42  C32 ZIN A   1      18.832  -0.621   6.761  0.00  0.00     0.011 A 
ATOM     43  C34 ZIN A   1      19.058  -0.205   5.306  0.00  0.00     0.007 A 
ATOM     44  C33 ZIN A   1      17.648  -0.183   5.897  0.00  0.00     0.007 A 
ENDBRANCH  41  42
ENDBRANCH  19  41
BRANCH   9  45
ATOM     45  O18 ZIN A   1      16.969  -0.542  15.358  0.00  0.00    -0.358 OA
ATOM     46  H59 ZIN A   1      17.341  -0.747  16.225  0.00  0.00     0.217 HD
ENDBRANCH   9  45
TORSDOF 8
ENDMDL
MODEL 9
REMARK VINA RESULT:      -7.8      4.959      9.396
REMARK  8 active torsions:
REMARK  status: ('A' for Active; 'I' for Inactive)
REMARK    1  A    between atoms: C2_2  and  N4_4 
REMARK    2  A    between atoms: C2_2  and  C35_33 
REMARK       I    between atoms: N4_4  and  C5_5 
REMARK    3  A    between atoms: C5_5  and  C7_7 
REMARK    4  A    between atoms: C9_9  and  O10_10 
REMARK    5  A    between atoms: C17_16  and  O18_17 
REMARK    6  A    between atoms: N29_27  and  C31_29 
REMARK    7  A    between atoms: C31_29  and  C32_30 
REMARK    8  A    between atoms: C37_35  and  C38_36 
ROOT
ATOM      1  C7  ZIN A   1      17.310  -6.319   7.736  0.00  0.00     0.153 C 
ATOM      2  C8  ZIN A   1      15.896  -6.014   7.238  0.00  0.00     0.063 C 
ATOM      3  C9  ZIN A   1      15.290  -7.295   6.667  0.00  0.00     0.102 C 
ATOM      4  C11 ZIN A   1      13.860  -7.030   6.189  0.00  0.00     0.227 C 
ATOM      5  C13 ZIN A   1      13.741  -5.934   5.144  0.00  0.00     0.075 C 
ATOM      6  C14 ZIN A   1      14.927  -5.840   4.240  0.00  0.00    -0.046 A 
ATOM      7  C15 ZIN A   1      15.991  -6.691   4.435  0.00  0.00    -0.001 A 
ATOM      8  C16 ZIN A   1      17.203  -6.637   3.763  0.00  0.00     0.110 A 
ATOM      9  C17 ZIN A   1      17.335  -5.707   2.726  0.00  0.00     0.099 A 
ATOM     10  C19 ZIN A   1      16.238  -4.888   2.468  0.00  0.00     0.040 A 
ATOM     11  C20 ZIN A   1      15.064  -4.937   3.201  0.00  0.00     0.011 A 
ATOM     12  O21 ZIN A   1      18.076  -7.514   4.304  0.00  0.00    -0.334 OA
ATOM     13  C22 ZIN A   1      17.599  -7.899   5.629  0.00  0.00     0.215 C 
ATOM     14  C24 ZIN A   1      18.138  -6.882   6.620  0.00  0.00     0.170 C 
ATOM     15  O25 ZIN A   1      19.286  -6.525   6.512  0.00  0.00    -0.294 OA
ATOM     16  C26 ZIN A   1      16.094  -7.764   5.465  0.00  0.00     0.058 C 
ATOM     17  C27 ZIN A   1      15.460  -9.036   4.908  0.00  0.00     0.048 C 
ATOM     18  C28 ZIN A   1      14.013  -8.722   4.512  0.00  0.00     0.236 C 
ATOM     19  N29 ZIN A   1      13.283  -8.276   5.671  0.00  0.00    -0.063 N 
ATOM     20  H30 ZIN A   1      12.325  -8.094   5.411  0.00  0.00     0.280 HD
ENDROOT
BRANCH   1  21
ATOM     21  C5  ZIN A   1      17.948  -5.050   8.240  0.00  0.00     0.230 C 
ATOM     22  N4  ZIN A   1      17.504  -3.854   7.807  0.00  0.00    -0.344 N 
ATOM     23  H52 ZIN A   1      16.773  -3.809   7.170  0.00  0.00     0.163 HD
ATOM     24  O6  ZIN A   1      18.861  -5.106   9.036  0.00  0.00    -0.273 OA
BRANCH  22  25
ATOM     25  C2  ZIN A   1      18.125  -2.621   8.297  0.00  0.00     0.095 C 
ATOM     26  C1  ZIN A   1      19.632  -2.671   8.040  0.00  0.00     0.047 C 
ATOM     27  C3  ZIN A   1      17.522  -1.420   7.564  0.00  0.00     0.047 C 
BRANCH  25  28
ATOM     28  C35 ZIN A   1      17.872  -2.485   9.777  0.00  0.00     0.200 A 
ATOM     29  O45 ZIN A   1      17.134  -3.303  10.535  0.00  0.00    -0.193 OA
ATOM     30  N44 ZIN A   1      17.133  -2.915  11.684  0.00  0.00    -0.105 NA
ATOM     31  C37 ZIN A   1      17.848  -1.826  11.791  0.00  0.00     0.189 A 
ATOM     32  N36 ZIN A   1      18.328  -1.540  10.561  0.00  0.00    -0.201 NA
BRANCH  31  33
ATOM     33  C38 ZIN A   1      18.085  -1.046  13.032  0.00  0.00     0.014 A 
ATOM     34  C43 ZIN A   1      18.941  -1.541  14.015  0.00  0.00     0.015 A 
ATOM     35  C42 ZIN A   1      19.163  -0.810  15.164  0.00  0.00     0.001 A 
ATOM     36  C41 ZIN A   1      18.529   0.406  15.347  0.00  0.00     0.000 A 
ATOM     37  C40 ZIN A   1      17.675   0.899  14.377  0.00  0.00     0.001 A 
ATOM     38  C39 ZIN A   1      17.450   0.179  13.222  0.00  0.00     0.015 A 
ENDBRANCH  31  33
ENDBRANCH  25  28
ENDBRANCH  22  25
ENDBRANCH   1  21
BRANCH   3  39
ATOM     39  O10 ZIN A   1      15.289  -8.313   7.669  0.00  0.00    -0.386 OA
ATOM     40  H56 ZIN A   1      14.651  -8.163   8.381  0.00  0.00     0.210 HD
ENDBRANCH   3  39
BRANCH  19  41
ATOM     41  C31 ZIN A   1      13.314  -9.328   6.695  0.00  0.00     0.240 C 
BRANCH  41  42
ATOM     42  C32 ZIN A   1      11.942  -9.428   7.365  0.00  0.00     0.011 A 
ATOM     43  C34 ZIN A   1      11.753  -8.700   8.698  0.00  0.00     0.007 A 
ATOM     44  C33 ZIN A   1      11.848 -10.227   8.667  0.00  0.00     0.007 A 
ENDBRANCH  41  42
ENDBRANCH  19  41
BRANCH   9  45
ATOM     45  O18 ZIN A   1      18.483  -5.608   2.003  0.00  0.00    -0.358 OA
ATOM     46  H59 ZIN A   1      18.469  -6.106   1.175  0.00  0.00     0.217 HD
ENDBRANCH   9  45
TORSDOF 8
ENDMDL
