MODEL 1
REMARK VINA RESULT:      -6.4      0.000      0.000
REMARK  27 active torsions:
REMARK  status: ('A' for Active; 'I' for Inactive)
REMARK       I    between atoms: C2_2  and  N4_4 
REMARK    1  A    between atoms: N4_4  and  O5_5 
REMARK    2  A    between atoms: N4_4  and  C6_6 
REMARK    3  A    between atoms: C6_6  and  C7_7 
REMARK    4  A    between atoms: C7_7  and  C8_8 
REMARK    5  A    between atoms: C8_8  and  C9_9 
REMARK    6  A    between atoms: C9_9  and  C10_10 
REMARK    7  A    between atoms: C10_10  and  N11_11 
REMARK       I    between atoms: N11_11  and  C12_12 
REMARK    8  A    between atoms: C12_12  and  C14_14 
REMARK    9  A    between atoms: C14_14  and  C15_15 
REMARK   10  A    between atoms: C15_15  and  C16_16 
REMARK       I    between atoms: C16_16  and  N18_18 
REMARK   11  A    between atoms: N18_18  and  O19_19 
REMARK   12  A    between atoms: N18_18  and  C20_20 
REMARK   13  A    between atoms: C20_20  and  C21_21 
REMARK   14  A    between atoms: C21_21  and  C22_22 
REMARK   15  A    between atoms: C22_22  and  C23_23 
REMARK   16  A    between atoms: C23_23  and  C24_24 
REMARK   17  A    between atoms: C24_24  and  N25_25 
REMARK       I    between atoms: N25_25  and  C26_26 
REMARK   18  A    between atoms: C26_26  and  C28_28 
REMARK   19  A    between atoms: C28_28  and  C29_29 
REMARK   20  A    between atoms: C29_29  and  C30_30 
REMARK       I    between atoms: C30_30  and  N32_32 
REMARK   21  A    between atoms: N32_32  and  O33_33 
REMARK   22  A    between atoms: N32_32  and  C34_34 
REMARK   23  A    between atoms: C34_34  and  C35_35 
REMARK   24  A    between atoms: C35_35  and  C36_36 
REMARK   25  A    between atoms: C36_36  and  C37_37 
REMARK   26  A    between atoms: C37_37  and  C38_38 
REMARK   27  A    between atoms: C38_38  and  N39_39 
ROOT
ATOM      1  C21 ZIN A   1      18.318   1.961  10.166  0.00  0.00     0.022 C 
ENDROOT
BRANCH   1   2
ATOM      2  C20 ZIN A   1      18.207   3.479  10.006  0.00  0.00     0.159 C 
BRANCH   2   3
ATOM      3  N18 ZIN A   1      18.430   4.124  11.303  0.00  0.00    -0.229 N 
ATOM      4  C16 ZIN A   1      17.427   4.793  11.904  0.00  0.00     0.243 C 
ATOM      5  O17 ZIN A   1      16.339   4.860  11.372  0.00  0.00    -0.271 OA
BRANCH   4   6
ATOM      6  C15 ZIN A   1      17.657   5.456  13.238  0.00  0.00     0.114 C 
BRANCH   6   7
ATOM      7  C14 ZIN A   1      17.149   4.543  14.356  0.00  0.00     0.112 C 
BRANCH   7   8
ATOM      8  C12 ZIN A   1      18.320   4.017  15.145  0.00  0.00     0.217 C 
ATOM      9  N11 ZIN A   1      18.140   3.019  16.033  0.00  0.00    -0.361 N 
ATOM     10  H57 ZIN A   1      17.256   2.639  16.165  0.00  0.00     0.162 HD
ATOM     11  O13 ZIN A   1      19.424   4.490  14.981  0.00  0.00    -0.274 OA
BRANCH   9  12
ATOM     12  C10 ZIN A   1      19.278   2.506  16.799  0.00  0.00     0.122 C 
BRANCH  12  13
ATOM     13  C9  ZIN A   1      18.772   1.571  17.900  0.00  0.00     0.020 C 
BRANCH  13  14
ATOM     14  C8  ZIN A   1      17.856   0.511  17.286  0.00  0.00     0.003 C 
BRANCH  14  15
ATOM     15  C7  ZIN A   1      18.700  -0.514  16.524  0.00  0.00     0.022 C 
BRANCH  15  16
ATOM     16  C6  ZIN A   1      18.210  -0.603  15.077  0.00  0.00     0.159 C 
BRANCH  16  17
ATOM     17  N4  ZIN A   1      19.361  -0.588  14.171  0.00  0.00    -0.229 N 
ATOM     18  C2  ZIN A   1      19.596   0.490  13.396  0.00  0.00     0.239 C 
ATOM     19  C1  ZIN A   1      20.780   0.505  12.464  0.00  0.00     0.119 C 
ATOM     20  O3  ZIN A   1      18.854   1.447  13.450  0.00  0.00    -0.272 OA
BRANCH  17  21
ATOM     21  O5  ZIN A   1      20.226  -1.708  14.108  0.00  0.00    -0.285 OA
ATOM     22  H46 ZIN A   1      21.002  -1.638  14.680  0.00  0.00     0.245 HD
ENDBRANCH  17  21
ENDBRANCH  16  17
ENDBRANCH  15  16
ENDBRANCH  14  15
ENDBRANCH  13  14
ENDBRANCH  12  13
ENDBRANCH   9  12
ENDBRANCH   7   8
ENDBRANCH   6   7
ENDBRANCH   4   6
BRANCH   3  23
ATOM     23  O19 ZIN A   1      19.701   4.044  11.923  0.00  0.00    -0.285 OA
ATOM     24  H62 ZIN A   1      20.437   4.285  11.344  0.00  0.00     0.245 HD
ENDBRANCH   3  23
ENDBRANCH   2   3
ENDBRANCH   1   2
BRANCH   1  25
ATOM     25  C22 ZIN A   1      19.087   1.378   8.979  0.00  0.00     0.003 C 
BRANCH  25  26
ATOM     26  C23 ZIN A   1      18.110   1.062   7.845  0.00  0.00     0.020 C 
BRANCH  26  27
ATOM     27  C24 ZIN A   1      18.890   0.591   6.616  0.00  0.00     0.122 C 
BRANCH  27  28
ATOM     28  N25 ZIN A   1      18.479  -0.771   6.267  0.00  0.00    -0.361 N 
ATOM     29  C26 ZIN A   1      19.106  -1.432   5.275  0.00  0.00     0.217 C 
ATOM     30  O27 ZIN A   1      20.012  -0.898   4.670  0.00  0.00    -0.274 OA
ATOM     31  H73 ZIN A   1      17.754  -1.197   6.751  0.00  0.00     0.162 HD
BRANCH  29  32
ATOM     32  C28 ZIN A   1      18.683  -2.832   4.917  0.00  0.00     0.112 C 
BRANCH  32  33
ATOM     33  C29 ZIN A   1      19.378  -3.829   5.846  0.00  0.00     0.114 C 
BRANCH  33  34
ATOM     34  C30 ZIN A   1      18.348  -4.519   6.703  0.00  0.00     0.243 C 
ATOM     35  O31 ZIN A   1      17.767  -5.498   6.284  0.00  0.00    -0.271 OA
ATOM     36  N32 ZIN A   1      18.073  -4.048   7.936  0.00  0.00    -0.229 N 
BRANCH  36  37
ATOM     37  O33 ZIN A   1      18.751  -2.905   8.426  0.00  0.00    -0.285 OA
ATOM     38  H78 ZIN A   1      18.755  -2.157   7.813  0.00  0.00     0.245 HD
ENDBRANCH  36  37
BRANCH  36  39
ATOM     39  C34 ZIN A   1      17.072  -4.719   8.770  0.00  0.00     0.159 C 
BRANCH  39  40
ATOM     40  C35 ZIN A   1      17.752  -5.797   9.616  0.00  0.00     0.022 C 
BRANCH  40  41
ATOM     41  C36 ZIN A   1      18.601  -5.133  10.702  0.00  0.00     0.003 C 
BRANCH  41  42
ATOM     42  C37 ZIN A   1      17.687  -4.588  11.801  0.00  0.00     0.027 C 
BRANCH  42  43
ATOM     43  C38 ZIN A   1      17.849  -3.070  11.893  0.00  0.00     0.229 C 
BRANCH  43  44
ATOM     44  N39 ZIN A   1      19.190  -2.692  11.424  0.00  0.00    -0.079 N 
ATOM     45  H40 ZIN A   1      19.274  -1.686  11.420  0.00  0.00     0.274 HD
ATOM     46  H41 ZIN A   1      19.885  -3.085  12.041  0.00  0.00     0.274 HD
ATOM     47  H42 ZIN A   1      19.331  -3.045  10.489  0.00  0.00     0.274 HD
ENDBRANCH  43  44
ENDBRANCH  42  43
ENDBRANCH  41  42
ENDBRANCH  40  41
ENDBRANCH  39  40
ENDBRANCH  36  39
ENDBRANCH  33  34
ENDBRANCH  32  33
ENDBRANCH  29  32
ENDBRANCH  27  28
ENDBRANCH  26  27
ENDBRANCH  25  26
ENDBRANCH   1  25
TORSDOF 27
ENDMDL
MODEL 2
REMARK VINA RESULT:      -6.3      1.756      3.641
REMARK  27 active torsions:
REMARK  status: ('A' for Active; 'I' for Inactive)
REMARK       I    between atoms: C2_2  and  N4_4 
REMARK    1  A    between atoms: N4_4  and  O5_5 
REMARK    2  A    between atoms: N4_4  and  C6_6 
REMARK    3  A    between atoms: C6_6  and  C7_7 
REMARK    4  A    between atoms: C7_7  and  C8_8 
REMARK    5  A    between atoms: C8_8  and  C9_9 
REMARK    6  A    between atoms: C9_9  and  C10_10 
REMARK    7  A    between atoms: C10_10  and  N11_11 
REMARK       I    between atoms: N11_11  and  C12_12 
REMARK    8  A    between atoms: C12_12  and  C14_14 
REMARK    9  A    between atoms: C14_14  and  C15_15 
REMARK   10  A    between atoms: C15_15  and  C16_16 
REMARK       I    between atoms: C16_16  and  N18_18 
REMARK   11  A    between atoms: N18_18  and  O19_19 
REMARK   12  A    between atoms: N18_18  and  C20_20 
REMARK   13  A    between atoms: C20_20  and  C21_21 
REMARK   14  A    between atoms: C21_21  and  C22_22 
REMARK   15  A    between atoms: C22_22  and  C23_23 
REMARK   16  A    between atoms: C23_23  and  C24_24 
REMARK   17  A    between atoms: C24_24  and  N25_25 
REMARK       I    between atoms: N25_25  and  C26_26 
REMARK   18  A    between atoms: C26_26  and  C28_28 
REMARK   19  A    between atoms: C28_28  and  C29_29 
REMARK   20  A    between atoms: C29_29  and  C30_30 
REMARK       I    between atoms: C30_30  and  N32_32 
REMARK   21  A    between atoms: N32_32  and  O33_33 
REMARK   22  A    between atoms: N32_32  and  C34_34 
REMARK   23  A    between atoms: C34_34  and  C35_35 
REMARK   24  A    between atoms: C35_35  and  C36_36 
REMARK   25  A    between atoms: C36_36  and  C37_37 
REMARK   26  A    between atoms: C37_37  and  C38_38 
REMARK   27  A    between atoms: C38_38  and  N39_39 
ROOT
ATOM      1  C21 ZIN A   1      19.547   1.226   9.679  0.00  0.00     0.022 C 
ENDROOT
BRANCH   1   2
ATOM      2  C20 ZIN A   1      19.779   2.016  10.969  0.00  0.00     0.159 C 
BRANCH   2   3
ATOM      3  N18 ZIN A   1      20.250   1.110  12.019  0.00  0.00    -0.229 N 
ATOM      4  C16 ZIN A   1      19.413   0.728  13.004  0.00  0.00     0.243 C 
ATOM      5  O17 ZIN A   1      18.270   1.134  13.020  0.00  0.00    -0.271 OA
BRANCH   4   6
ATOM      6  C15 ZIN A   1      19.897  -0.205  14.084  0.00  0.00     0.114 C 
BRANCH   6   7
ATOM      7  C14 ZIN A   1      18.863  -1.312  14.304  0.00  0.00     0.112 C 
BRANCH   7   8
ATOM      8  C12 ZIN A   1      18.247  -1.159  15.670  0.00  0.00     0.217 C 
ATOM      9  N11 ZIN A   1      17.745   0.032  16.053  0.00  0.00    -0.361 N 
ATOM     10  H57 ZIN A   1      17.780   0.791  15.449  0.00  0.00     0.162 HD
ATOM     11  O13 ZIN A   1      18.201  -2.106  16.425  0.00  0.00    -0.274 OA
BRANCH   9  12
ATOM     12  C10 ZIN A   1      17.144   0.181  17.381  0.00  0.00     0.122 C 
BRANCH  12  13
ATOM     13  C9  ZIN A   1      17.777   1.377  18.096  0.00  0.00     0.020 C 
BRANCH  13  14
ATOM     14  C8  ZIN A   1      19.164   1.644  17.509  0.00  0.00     0.003 C 
BRANCH  14  15
ATOM     15  C7  ZIN A   1      19.298   3.131  17.173  0.00  0.00     0.022 C 
BRANCH  15  16
ATOM     16  C6  ZIN A   1      18.797   3.379  15.748  0.00  0.00     0.159 C 
BRANCH  16  17
ATOM     17  N4  ZIN A   1      18.145   4.689  15.681  0.00  0.00    -0.229 N 
ATOM     18  C2  ZIN A   1      18.536   5.590  14.757  0.00  0.00     0.239 C 
ATOM     19  C1  ZIN A   1      17.865   6.938  14.688  0.00  0.00     0.119 C 
ATOM     20  O3  ZIN A   1      19.427   5.316  13.983  0.00  0.00    -0.272 OA
BRANCH  17  21
ATOM     21  O5  ZIN A   1      17.104   5.009  16.587  0.00  0.00    -0.285 OA
ATOM     22  H46 ZIN A   1      16.217   4.925  16.212  0.00  0.00     0.245 HD
ENDBRANCH  17  21
ENDBRANCH  16  17
ENDBRANCH  15  16
ENDBRANCH  14  15
ENDBRANCH  13  14
ENDBRANCH  12  13
ENDBRANCH   9  12
ENDBRANCH   7   8
ENDBRANCH   6   7
ENDBRANCH   4   6
BRANCH   3  23
ATOM     23  O19 ZIN A   1      21.584   0.637  12.000  0.00  0.00    -0.285 OA
ATOM     24  H62 ZIN A   1      22.182   1.169  11.458  0.00  0.00     0.245 HD
ENDBRANCH   3  23
ENDBRANCH   2   3
ENDBRANCH   1   2
BRANCH   1  25
ATOM     25  C22 ZIN A   1      19.013   2.163   8.595  0.00  0.00     0.003 C 
BRANCH  25  26
ATOM     26  C23 ZIN A   1      18.922   1.408   7.268  0.00  0.00     0.020 C 
BRANCH  26  27
ATOM     27  C24 ZIN A   1      19.238  -0.071   7.498  0.00  0.00     0.122 C 
BRANCH  27  28
ATOM     28  N25 ZIN A   1      18.400  -0.893   6.621  0.00  0.00    -0.361 N 
ATOM     29  C26 ZIN A   1      18.851  -1.257   5.405  0.00  0.00     0.217 C 
ATOM     30  O27 ZIN A   1      19.952  -0.904   5.036  0.00  0.00    -0.274 OA
ATOM     31  H73 ZIN A   1      17.520  -1.174   6.916  0.00  0.00     0.162 HD
BRANCH  29  32
ATOM     32  C28 ZIN A   1      17.990  -2.101   4.503  0.00  0.00     0.112 C 
BRANCH  32  33
ATOM     33  C29 ZIN A   1      18.624  -3.484   4.339  0.00  0.00     0.114 C 
BRANCH  33  34
ATOM     34  C30 ZIN A   1      18.371  -4.304   5.577  0.00  0.00     0.243 C 
ATOM     35  O31 ZIN A   1      17.303  -4.858   5.729  0.00  0.00    -0.271 OA
ATOM     36  N32 ZIN A   1      19.331  -4.420   6.517  0.00  0.00    -0.229 N 
BRANCH  36  37
ATOM     37  O33 ZIN A   1      20.578  -3.772   6.339  0.00  0.00    -0.285 OA
ATOM     38  H78 ZIN A   1      20.793  -3.135   7.034  0.00  0.00     0.245 HD
ENDBRANCH  36  37
BRANCH  36  39
ATOM     39  C34 ZIN A   1      19.085  -5.217   7.721  0.00  0.00     0.159 C 
BRANCH  39  40
ATOM     40  C35 ZIN A   1      19.010  -4.293   8.938  0.00  0.00     0.022 C 
BRANCH  40  41
ATOM     41  C36 ZIN A   1      18.966  -5.135  10.215  0.00  0.00     0.003 C 
BRANCH  41  42
ATOM     42  C37 ZIN A   1      19.027  -4.214  11.435  0.00  0.00     0.027 C 
BRANCH  42  43
ATOM     43  C38 ZIN A   1      20.472  -3.773  11.670  0.00  0.00     0.229 C 
BRANCH  43  44
ATOM     44  N39 ZIN A   1      20.612  -2.351  11.328  0.00  0.00    -0.079 N 
ATOM     45  H40 ZIN A   1      21.515  -2.019  11.629  0.00  0.00     0.274 HD
ATOM     46  H41 ZIN A   1      20.527  -2.236  10.328  0.00  0.00     0.274 HD
ATOM     47  H42 ZIN A   1      19.887  -1.821  11.789  0.00  0.00     0.274 HD
ENDBRANCH  43  44
ENDBRANCH  42  43
ENDBRANCH  41  42
ENDBRANCH  40  41
ENDBRANCH  39  40
ENDBRANCH  36  39
ENDBRANCH  33  34
ENDBRANCH  32  33
ENDBRANCH  29  32
ENDBRANCH  27  28
ENDBRANCH  26  27
ENDBRANCH  25  26
ENDBRANCH   1  25
TORSDOF 27
ENDMDL
MODEL 3
REMARK VINA RESULT:      -6.3      1.993      9.692
REMARK  27 active torsions:
REMARK  status: ('A' for Active; 'I' for Inactive)
REMARK       I    between atoms: C2_2  and  N4_4 
REMARK    1  A    between atoms: N4_4  and  O5_5 
REMARK    2  A    between atoms: N4_4  and  C6_6 
REMARK    3  A    between atoms: C6_6  and  C7_7 
REMARK    4  A    between atoms: C7_7  and  C8_8 
REMARK    5  A    between atoms: C8_8  and  C9_9 
REMARK    6  A    between atoms: C9_9  and  C10_10 
REMARK    7  A    between atoms: C10_10  and  N11_11 
REMARK       I    between atoms: N11_11  and  C12_12 
REMARK    8  A    between atoms: C12_12  and  C14_14 
REMARK    9  A    between atoms: C14_14  and  C15_15 
REMARK   10  A    between atoms: C15_15  and  C16_16 
REMARK       I    between atoms: C16_16  and  N18_18 
REMARK   11  A    between atoms: N18_18  and  O19_19 
REMARK   12  A    between atoms: N18_18  and  C20_20 
REMARK   13  A    between atoms: C20_20  and  C21_21 
REMARK   14  A    between atoms: C21_21  and  C22_22 
REMARK   15  A    between atoms: C22_22  and  C23_23 
REMARK   16  A    between atoms: C23_23  and  C24_24 
REMARK   17  A    between atoms: C24_24  and  N25_25 
REMARK       I    between atoms: N25_25  and  C26_26 
REMARK   18  A    between atoms: C26_26  and  C28_28 
REMARK   19  A    between atoms: C28_28  and  C29_29 
REMARK   20  A    between atoms: C29_29  and  C30_30 
REMARK       I    between atoms: C30_30  and  N32_32 
REMARK   21  A    between atoms: N32_32  and  O33_33 
REMARK   22  A    between atoms: N32_32  and  C34_34 
REMARK   23  A    between atoms: C34_34  and  C35_35 
REMARK   24  A    between atoms: C35_35  and  C36_36 
REMARK   25  A    between atoms: C36_36  and  C37_37 
REMARK   26  A    between atoms: C37_37  and  C38_38 
REMARK   27  A    between atoms: C38_38  and  N39_39 
ROOT
ATOM      1  C21 ZIN A   1      18.781  -1.061  13.070  0.00  0.00     0.022 C 
ENDROOT
BRANCH   1   2
ATOM      2  C20 ZIN A   1      17.755  -1.750  12.168  0.00  0.00     0.159 C 
BRANCH   2   3
ATOM      3  N18 ZIN A   1      17.282  -0.805  11.154  0.00  0.00    -0.229 N 
ATOM      4  C16 ZIN A   1      17.930  -0.698   9.978  0.00  0.00     0.243 C 
ATOM      5  O17 ZIN A   1      18.905  -1.385   9.759  0.00  0.00    -0.271 OA
BRANCH   4   6
ATOM      6  C15 ZIN A   1      17.443   0.274   8.934  0.00  0.00     0.114 C 
BRANCH   6   7
ATOM      7  C14 ZIN A   1      18.628   0.761   8.097  0.00  0.00     0.112 C 
BRANCH   7   8
ATOM      8  C12 ZIN A   1      18.597   0.091   6.747  0.00  0.00     0.217 C 
ATOM      9  N11 ZIN A   1      19.171  -1.116   6.581  0.00  0.00    -0.361 N 
ATOM     10  H57 ZIN A   1      19.604  -1.556   7.330  0.00  0.00     0.162 HD
ATOM     11  O13 ZIN A   1      18.056   0.639   5.811  0.00  0.00    -0.274 OA
BRANCH   9  12
ATOM     12  C10 ZIN A   1      19.140  -1.768   5.269  0.00  0.00     0.122 C 
BRANCH  12  13
ATOM     13  C9  ZIN A   1      19.162  -3.287   5.454  0.00  0.00     0.020 C 
BRANCH  13  14
ATOM     14  C8  ZIN A   1      19.812  -3.627   6.797  0.00  0.00     0.003 C 
BRANCH  14  15
ATOM     15  C7  ZIN A   1      19.062  -4.792   7.446  0.00  0.00     0.022 C 
BRANCH  15  16
ATOM     16  C6  ZIN A   1      17.890  -4.250   8.267  0.00  0.00     0.159 C 
BRANCH  16  17
ATOM     17  N4  ZIN A   1      18.113  -4.539   9.686  0.00  0.00    -0.229 N 
ATOM     18  C2  ZIN A   1      17.120  -5.066  10.430  0.00  0.00     0.239 C 
ATOM     19  C1  ZIN A   1      17.349  -5.364  11.890  0.00  0.00     0.119 C 
ATOM     20  O3  ZIN A   1      16.043  -5.301   9.925  0.00  0.00    -0.272 OA
BRANCH  17  21
ATOM     21  O5  ZIN A   1      19.371  -4.264  10.275  0.00  0.00    -0.285 OA
ATOM     22  H46 ZIN A   1      19.987  -3.803   9.690  0.00  0.00     0.245 HD
ENDBRANCH  17  21
ENDBRANCH  16  17
ENDBRANCH  15  16
ENDBRANCH  14  15
ENDBRANCH  13  14
ENDBRANCH  12  13
ENDBRANCH   9  12
ENDBRANCH   7   8
ENDBRANCH   6   7
ENDBRANCH   4   6
BRANCH   3  23
ATOM     23  O19 ZIN A   1      16.142  -0.003  11.411  0.00  0.00    -0.285 OA
ATOM     24  H62 ZIN A   1      15.791  -0.095  12.307  0.00  0.00     0.245 HD
ENDBRANCH   3  23
ENDBRANCH   2   3
ENDBRANCH   1   2
BRANCH   1  25
ATOM     25  C22 ZIN A   1      18.059  -0.363  14.223  0.00  0.00     0.003 C 
BRANCH  25  26
ATOM     26  C23 ZIN A   1      18.343  -1.109  15.529  0.00  0.00     0.020 C 
BRANCH  26  27
ATOM     27  C24 ZIN A   1      17.292  -0.729  16.573  0.00  0.00     0.122 C 
BRANCH  27  28
ATOM     28  N25 ZIN A   1      17.414   0.694  16.896  0.00  0.00    -0.361 N 
ATOM     29  C26 ZIN A   1      18.242   1.094  17.880  0.00  0.00     0.217 C 
ATOM     30  O27 ZIN A   1      18.888   0.274  18.499  0.00  0.00    -0.274 OA
ATOM     31  H73 ZIN A   1      16.897   1.350  16.401  0.00  0.00     0.162 HD
BRANCH  29  32
ATOM     32  C28 ZIN A   1      18.368   2.558  18.212  0.00  0.00     0.112 C 
BRANCH  32  33
ATOM     33  C29 ZIN A   1      19.254   3.244  17.171  0.00  0.00     0.114 C 
BRANCH  33  34
ATOM     34  C30 ZIN A   1      18.510   4.405  16.564  0.00  0.00     0.243 C 
ATOM     35  O31 ZIN A   1      18.568   5.500  17.082  0.00  0.00    -0.271 OA
ATOM     36  N32 ZIN A   1      17.780   4.227  15.445  0.00  0.00    -0.229 N 
BRANCH  36  37
ATOM     37  O33 ZIN A   1      17.712   2.948  14.839  0.00  0.00    -0.285 OA
ATOM     38  H78 ZIN A   1      17.317   2.267  15.400  0.00  0.00     0.245 HD
ENDBRANCH  36  37
BRANCH  36  39
ATOM     39  C34 ZIN A   1      17.057   5.355  14.854  0.00  0.00     0.159 C 
BRANCH  39  40
ATOM     40  C35 ZIN A   1      17.693   5.723  13.512  0.00  0.00     0.022 C 
BRANCH  40  41
ATOM     41  C36 ZIN A   1      16.775   5.274  12.373  0.00  0.00     0.003 C 
BRANCH  41  42
ATOM     42  C37 ZIN A   1      17.621   4.913  11.149  0.00  0.00     0.027 C 
BRANCH  42  43
ATOM     43  C38 ZIN A   1      17.388   3.446  10.784  0.00  0.00     0.229 C 
BRANCH  43  44
ATOM     44  N39 ZIN A   1      17.656   2.601  11.956  0.00  0.00    -0.079 N 
ATOM     45  H40 ZIN A   1      17.670   3.172  12.788  0.00  0.00     0.274 HD
ATOM     46  H41 ZIN A   1      16.931   1.903  12.040  0.00  0.00     0.274 HD
ATOM     47  H42 ZIN A   1      18.550   2.145  11.846  0.00  0.00     0.274 HD
ENDBRANCH  43  44
ENDBRANCH  42  43
ENDBRANCH  41  42
ENDBRANCH  40  41
ENDBRANCH  39  40
ENDBRANCH  36  39
ENDBRANCH  33  34
ENDBRANCH  32  33
ENDBRANCH  29  32
ENDBRANCH  27  28
ENDBRANCH  26  27
ENDBRANCH  25  26
ENDBRANCH   1  25
TORSDOF 27
ENDMDL
MODEL 4
REMARK VINA RESULT:      -6.3      1.776      2.904
REMARK  27 active torsions:
REMARK  status: ('A' for Active; 'I' for Inactive)
REMARK       I    between atoms: C2_2  and  N4_4 
REMARK    1  A    between atoms: N4_4  and  O5_5 
REMARK    2  A    between atoms: N4_4  and  C6_6 
REMARK    3  A    between atoms: C6_6  and  C7_7 
REMARK    4  A    between atoms: C7_7  and  C8_8 
REMARK    5  A    between atoms: C8_8  and  C9_9 
REMARK    6  A    between atoms: C9_9  and  C10_10 
REMARK    7  A    between atoms: C10_10  and  N11_11 
REMARK       I    between atoms: N11_11  and  C12_12 
REMARK    8  A    between atoms: C12_12  and  C14_14 
REMARK    9  A    between atoms: C14_14  and  C15_15 
REMARK   10  A    between atoms: C15_15  and  C16_16 
REMARK       I    between atoms: C16_16  and  N18_18 
REMARK   11  A    between atoms: N18_18  and  O19_19 
REMARK   12  A    between atoms: N18_18  and  C20_20 
REMARK   13  A    between atoms: C20_20  and  C21_21 
REMARK   14  A    between atoms: C21_21  and  C22_22 
REMARK   15  A    between atoms: C22_22  and  C23_23 
REMARK   16  A    between atoms: C23_23  and  C24_24 
REMARK   17  A    between atoms: C24_24  and  N25_25 
REMARK       I    between atoms: N25_25  and  C26_26 
REMARK   18  A    between atoms: C26_26  and  C28_28 
REMARK   19  A    between atoms: C28_28  and  C29_29 
REMARK   20  A    between atoms: C29_29  and  C30_30 
REMARK       I    between atoms: C30_30  and  N32_32 
REMARK   21  A    between atoms: N32_32  and  O33_33 
REMARK   22  A    between atoms: N32_32  and  C34_34 
REMARK   23  A    between atoms: C34_34  and  C35_35 
REMARK   24  A    between atoms: C35_35  and  C36_36 
REMARK   25  A    between atoms: C36_36  and  C37_37 
REMARK   26  A    between atoms: C37_37  and  C38_38 
REMARK   27  A    between atoms: C38_38  and  N39_39 
ROOT
ATOM      1  C21 ZIN A   1      17.906   1.320   9.570  0.00  0.00     0.022 C 
ENDROOT
BRANCH   1   2
ATOM      2  C20 ZIN A   1      18.499   2.721   9.735  0.00  0.00     0.159 C 
BRANCH   2   3
ATOM      3  N18 ZIN A   1      19.027   2.871  11.093  0.00  0.00    -0.229 N 
ATOM      4  C16 ZIN A   1      18.450   3.737  11.949  0.00  0.00     0.243 C 
ATOM      5  O17 ZIN A   1      17.492   4.392  11.594  0.00  0.00    -0.271 OA
BRANCH   4   6
ATOM      6  C15 ZIN A   1      18.993   3.891  13.346  0.00  0.00     0.114 C 
BRANCH   6   7
ATOM      7  C14 ZIN A   1      17.975   3.352  14.353  0.00  0.00     0.112 C 
BRANCH   7   8
ATOM      8  C12 ZIN A   1      18.250   1.893  14.611  0.00  0.00     0.217 C 
ATOM      9  N11 ZIN A   1      17.253   1.082  15.017  0.00  0.00    -0.361 N 
ATOM     10  H57 ZIN A   1      16.359   1.437  15.143  0.00  0.00     0.162 HD
ATOM     11  O13 ZIN A   1      19.366   1.449  14.454  0.00  0.00    -0.274 OA
BRANCH   9  12
ATOM     12  C10 ZIN A   1      17.519  -0.337  15.268  0.00  0.00     0.122 C 
BRANCH  12  13
ATOM     13  C9  ZIN A   1      17.580  -0.586  16.776  0.00  0.00     0.020 C 
BRANCH  13  14
ATOM     14  C8  ZIN A   1      19.026  -0.872  17.187  0.00  0.00     0.003 C 
BRANCH  14  15
ATOM     15  C7  ZIN A   1      19.495   0.194  18.179  0.00  0.00     0.022 C 
BRANCH  15  16
ATOM     16  C6  ZIN A   1      18.319   1.100  18.548  0.00  0.00     0.159 C 
BRANCH  16  17
ATOM     17  N4  ZIN A   1      18.616   2.476  18.140  0.00  0.00    -0.229 N 
ATOM     18  C2  ZIN A   1      17.774   3.474  18.472  0.00  0.00     0.239 C 
ATOM     19  C1  ZIN A   1      18.079   4.889  18.053  0.00  0.00     0.119 C 
ATOM     20  O3  ZIN A   1      16.770   3.234  19.108  0.00  0.00    -0.272 OA
BRANCH  17  21
ATOM     21  O5  ZIN A   1      19.788   2.756  17.396  0.00  0.00    -0.285 OA
ATOM     22  H46 ZIN A   1      19.941   3.698  17.243  0.00  0.00     0.245 HD
ENDBRANCH  17  21
ENDBRANCH  16  17
ENDBRANCH  15  16
ENDBRANCH  14  15
ENDBRANCH  13  14
ENDBRANCH  12  13
ENDBRANCH   9  12
ENDBRANCH   7   8
ENDBRANCH   6   7
ENDBRANCH   4   6
BRANCH   3  23
ATOM     23  O19 ZIN A   1      20.145   2.106  11.506  0.00  0.00    -0.285 OA
ATOM     24  H62 ZIN A   1      20.507   1.534  10.815  0.00  0.00     0.245 HD
ENDBRANCH   3  23
ENDBRANCH   2   3
ENDBRANCH   1   2
BRANCH   1  25
ATOM     25  C22 ZIN A   1      18.551   0.631   8.367  0.00  0.00     0.003 C 
BRANCH  25  26
ATOM     26  C23 ZIN A   1      19.104   1.688   7.410  0.00  0.00     0.020 C 
BRANCH  26  27
ATOM     27  C24 ZIN A   1      19.235   1.090   6.008  0.00  0.00     0.122 C 
BRANCH  27  28
ATOM     28  N25 ZIN A   1      18.370  -0.087   5.896  0.00  0.00    -0.361 N 
ATOM     29  C26 ZIN A   1      18.734  -1.118   5.109  0.00  0.00     0.217 C 
ATOM     30  O27 ZIN A   1      19.778  -1.072   4.493  0.00  0.00    -0.274 OA
ATOM     31  H73 ZIN A   1      17.535  -0.123   6.388  0.00  0.00     0.162 HD
BRANCH  29  32
ATOM     32  C28 ZIN A   1      17.845  -2.329   4.994  0.00  0.00     0.112 C 
BRANCH  32  33
ATOM     33  C29 ZIN A   1      18.706  -3.581   4.825  0.00  0.00     0.114 C 
BRANCH  33  34
ATOM     34  C30 ZIN A   1      19.243  -4.007   6.168  0.00  0.00     0.243 C 
ATOM     35  O31 ZIN A   1      20.411  -3.828   6.438  0.00  0.00    -0.271 OA
ATOM     36  N32 ZIN A   1      18.423  -4.588   7.067  0.00  0.00    -0.229 N 
BRANCH  36  37
ATOM     37  O33 ZIN A   1      17.058  -4.798   6.750  0.00  0.00    -0.285 OA
ATOM     38  H78 ZIN A   1      16.452  -4.604   7.478  0.00  0.00     0.245 HD
ENDBRANCH  36  37
BRANCH  36  39
ATOM     39  C34 ZIN A   1      18.944  -5.002   8.372  0.00  0.00     0.159 C 
BRANCH  39  40
ATOM     40  C35 ZIN A   1      19.109  -3.774   9.269  0.00  0.00     0.022 C 
BRANCH  40  41
ATOM     41  C36 ZIN A   1      17.915  -3.673  10.220  0.00  0.00     0.003 C 
BRANCH  41  42
ATOM     42  C37 ZIN A   1      17.831  -2.253  10.785  0.00  0.00     0.027 C 
BRANCH  42  43
ATOM     43  C38 ZIN A   1      19.219  -1.807  11.249  0.00  0.00     0.229 C 
BRANCH  43  44
ATOM     44  N39 ZIN A   1      19.086  -0.662  12.161  0.00  0.00    -0.079 N 
ATOM     45  H40 ZIN A   1      19.995  -0.261  12.332  0.00  0.00     0.274 HD
ATOM     46  H41 ZIN A   1      18.484   0.032  11.742  0.00  0.00     0.274 HD
ATOM     47  H42 ZIN A   1      18.685  -0.972  13.033  0.00  0.00     0.274 HD
ENDBRANCH  43  44
ENDBRANCH  42  43
ENDBRANCH  41  42
ENDBRANCH  40  41
ENDBRANCH  39  40
ENDBRANCH  36  39
ENDBRANCH  33  34
ENDBRANCH  32  33
ENDBRANCH  29  32
ENDBRANCH  27  28
ENDBRANCH  26  27
ENDBRANCH  25  26
ENDBRANCH   1  25
TORSDOF 27
ENDMDL
MODEL 5
REMARK VINA RESULT:      -6.3      2.090      5.482
REMARK  27 active torsions:
REMARK  status: ('A' for Active; 'I' for Inactive)
REMARK       I    between atoms: C2_2  and  N4_4 
REMARK    1  A    between atoms: N4_4  and  O5_5 
REMARK    2  A    between atoms: N4_4  and  C6_6 
REMARK    3  A    between atoms: C6_6  and  C7_7 
REMARK    4  A    between atoms: C7_7  and  C8_8 
REMARK    5  A    between atoms: C8_8  and  C9_9 
REMARK    6  A    between atoms: C9_9  and  C10_10 
REMARK    7  A    between atoms: C10_10  and  N11_11 
REMARK       I    between atoms: N11_11  and  C12_12 
REMARK    8  A    between atoms: C12_12  and  C14_14 
REMARK    9  A    between atoms: C14_14  and  C15_15 
REMARK   10  A    between atoms: C15_15  and  C16_16 
REMARK       I    between atoms: C16_16  and  N18_18 
REMARK   11  A    between atoms: N18_18  and  O19_19 
REMARK   12  A    between atoms: N18_18  and  C20_20 
REMARK   13  A    between atoms: C20_20  and  C21_21 
REMARK   14  A    between atoms: C21_21  and  C22_22 
REMARK   15  A    between atoms: C22_22  and  C23_23 
REMARK   16  A    between atoms: C23_23  and  C24_24 
REMARK   17  A    between atoms: C24_24  and  N25_25 
REMARK       I    between atoms: N25_25  and  C26_26 
REMARK   18  A    between atoms: C26_26  and  C28_28 
REMARK   19  A    between atoms: C28_28  and  C29_29 
REMARK   20  A    between atoms: C29_29  and  C30_30 
REMARK       I    between atoms: C30_30  and  N32_32 
REMARK   21  A    between atoms: N32_32  and  O33_33 
REMARK   22  A    between atoms: N32_32  and  C34_34 
REMARK   23  A    between atoms: C34_34  and  C35_35 
REMARK   24  A    between atoms: C35_35  and  C36_36 
REMARK   25  A    between atoms: C36_36  and  C37_37 
REMARK   26  A    between atoms: C37_37  and  C38_38 
REMARK   27  A    between atoms: C38_38  and  N39_39 
ROOT
ATOM      1  C21 ZIN A   1      17.621  -1.341  12.526  0.00  0.00     0.022 C 
ENDROOT
BRANCH   1   2
ATOM      2  C20 ZIN A   1      18.565  -1.331  13.730  0.00  0.00     0.159 C 
BRANCH   2   3
ATOM      3  N18 ZIN A   1      18.055  -0.404  14.743  0.00  0.00    -0.229 N 
ATOM      4  C16 ZIN A   1      17.890  -0.818  16.015  0.00  0.00     0.243 C 
ATOM      5  O17 ZIN A   1      18.165  -1.960  16.320  0.00  0.00    -0.271 OA
BRANCH   4   6
ATOM      6  C15 ZIN A   1      17.366   0.136  17.057  0.00  0.00     0.114 C 
BRANCH   6   7
ATOM      7  C14 ZIN A   1      18.347   0.200  18.230  0.00  0.00     0.112 C 
BRANCH   7   8
ATOM      8  C12 ZIN A   1      18.657   1.640  18.547  0.00  0.00     0.217 C 
ATOM      9  N11 ZIN A   1      17.658   2.492  18.852  0.00  0.00    -0.361 N 
ATOM     10  H57 ZIN A   1      16.740   2.179  18.867  0.00  0.00     0.162 HD
ATOM     11  O13 ZIN A   1      19.803   2.032  18.529  0.00  0.00    -0.274 OA
BRANCH   9  12
ATOM     12  C10 ZIN A   1      17.959   3.892  19.162  0.00  0.00     0.122 C 
BRANCH  12  13
ATOM     13  C9  ZIN A   1      16.961   4.800  18.439  0.00  0.00     0.020 C 
BRANCH  13  14
ATOM     14  C8  ZIN A   1      17.720   5.907  17.704  0.00  0.00     0.003 C 
BRANCH  14  15
ATOM     15  C7  ZIN A   1      18.478   5.306  16.519  0.00  0.00     0.022 C 
BRANCH  15  16
ATOM     16  C6  ZIN A   1      18.601   6.352  15.409  0.00  0.00     0.159 C 
BRANCH  16  17
ATOM     17  N4  ZIN A   1      18.262   5.739  14.122  0.00  0.00    -0.229 N 
ATOM     18  C2  ZIN A   1      17.018   5.869  13.620  0.00  0.00     0.239 C 
ATOM     19  C1  ZIN A   1      16.669   5.239  12.296  0.00  0.00     0.119 C 
ATOM     20  O3  ZIN A   1      16.179   6.492  14.235  0.00  0.00    -0.272 OA
BRANCH  17  21
ATOM     21  O5  ZIN A   1      19.242   5.011  13.405  0.00  0.00    -0.285 OA
ATOM     22  H46 ZIN A   1      19.358   4.101  13.712  0.00  0.00     0.245 HD
ENDBRANCH  17  21
ENDBRANCH  16  17
ENDBRANCH  15  16
ENDBRANCH  14  15
ENDBRANCH  13  14
ENDBRANCH  12  13
ENDBRANCH   9  12
ENDBRANCH   7   8
ENDBRANCH   6   7
ENDBRANCH   4   6
BRANCH   3  23
ATOM     23  O19 ZIN A   1      17.736   0.929  14.386  0.00  0.00    -0.285 OA
ATOM     24  H62 ZIN A   1      16.963   1.008  13.810  0.00  0.00     0.245 HD
ENDBRANCH   3  23
ENDBRANCH   2   3
ENDBRANCH   1   2
BRANCH   1  25
ATOM     25  C22 ZIN A   1      18.006  -2.484  11.586  0.00  0.00     0.003 C 
BRANCH  25  26
ATOM     26  C23 ZIN A   1      19.407  -2.987  11.940  0.00  0.00     0.020 C 
BRANCH  26  27
ATOM     27  C24 ZIN A   1      19.808  -4.102  10.973  0.00  0.00     0.122 C 
BRANCH  27  28
ATOM     28  N25 ZIN A   1      19.563  -3.668   9.596  0.00  0.00    -0.361 N 
ATOM     29  C26 ZIN A   1      18.805  -4.422   8.776  0.00  0.00     0.217 C 
ATOM     30  O27 ZIN A   1      18.326  -5.462   9.179  0.00  0.00    -0.274 OA
ATOM     31  H73 ZIN A   1      19.947  -2.837   9.274  0.00  0.00     0.162 HD
BRANCH  29  32
ATOM     32  C28 ZIN A   1      18.553  -3.976   7.359  0.00  0.00     0.112 C 
BRANCH  32  33
ATOM     33  C29 ZIN A   1      19.566  -2.895   6.976  0.00  0.00     0.114 C 
BRANCH  33  34
ATOM     34  C30 ZIN A   1      18.887  -1.550   6.966  0.00  0.00     0.243 C 
ATOM     35  O31 ZIN A   1      18.088  -1.280   6.095  0.00  0.00    -0.271 OA
ATOM     36  N32 ZIN A   1      19.168  -0.646   7.926  0.00  0.00    -0.229 N 
BRANCH  36  37
ATOM     37  O33 ZIN A   1      20.101  -0.961   8.944  0.00  0.00    -0.285 OA
ATOM     38  H78 ZIN A   1      21.010  -0.702   8.739  0.00  0.00     0.245 HD
ENDBRANCH  36  37
BRANCH  36  39
ATOM     39  C34 ZIN A   1      18.508   0.662   7.917  0.00  0.00     0.159 C 
BRANCH  39  40
ATOM     40  C35 ZIN A   1      19.410   1.693   8.598  0.00  0.00     0.022 C 
BRANCH  40  41
ATOM     41  C36 ZIN A   1      18.561   2.606   9.486  0.00  0.00     0.003 C 
BRANCH  41  42
ATOM     42  C37 ZIN A   1      18.316   1.922  10.832  0.00  0.00     0.027 C 
BRANCH  42  43
ATOM     43  C38 ZIN A   1      19.656   1.531  11.457  0.00  0.00     0.229 C 
BRANCH  43  44
ATOM     44  N39 ZIN A   1      19.844   2.267  12.715  0.00  0.00    -0.079 N 
ATOM     45  H40 ZIN A   1      20.732   2.746  12.695  0.00  0.00     0.274 HD
ATOM     46  H41 ZIN A   1      19.100   2.940  12.824  0.00  0.00     0.274 HD
ATOM     47  H42 ZIN A   1      19.828   1.620  13.489  0.00  0.00     0.274 HD
ENDBRANCH  43  44
ENDBRANCH  42  43
ENDBRANCH  41  42
ENDBRANCH  40  41
ENDBRANCH  39  40
ENDBRANCH  36  39
ENDBRANCH  33  34
ENDBRANCH  32  33
ENDBRANCH  29  32
ENDBRANCH  27  28
ENDBRANCH  26  27
ENDBRANCH  25  26
ENDBRANCH   1  25
TORSDOF 27
ENDMDL
MODEL 6
REMARK VINA RESULT:      -6.3      2.496      4.984
REMARK  27 active torsions:
REMARK  status: ('A' for Active; 'I' for Inactive)
REMARK       I    between atoms: C2_2  and  N4_4 
REMARK    1  A    between atoms: N4_4  and  O5_5 
REMARK    2  A    between atoms: N4_4  and  C6_6 
REMARK    3  A    between atoms: C6_6  and  C7_7 
REMARK    4  A    between atoms: C7_7  and  C8_8 
REMARK    5  A    between atoms: C8_8  and  C9_9 
REMARK    6  A    between atoms: C9_9  and  C10_10 
REMARK    7  A    between atoms: C10_10  and  N11_11 
REMARK       I    between atoms: N11_11  and  C12_12 
REMARK    8  A    between atoms: C12_12  and  C14_14 
REMARK    9  A    between atoms: C14_14  and  C15_15 
REMARK   10  A    between atoms: C15_15  and  C16_16 
REMARK       I    between atoms: C16_16  and  N18_18 
REMARK   11  A    between atoms: N18_18  and  O19_19 
REMARK   12  A    between atoms: N18_18  and  C20_20 
REMARK   13  A    between atoms: C20_20  and  C21_21 
REMARK   14  A    between atoms: C21_21  and  C22_22 
REMARK   15  A    between atoms: C22_22  and  C23_23 
REMARK   16  A    between atoms: C23_23  and  C24_24 
REMARK   17  A    between atoms: C24_24  and  N25_25 
REMARK       I    between atoms: N25_25  and  C26_26 
REMARK   18  A    between atoms: C26_26  and  C28_28 
REMARK   19  A    between atoms: C28_28  and  C29_29 
REMARK   20  A    between atoms: C29_29  and  C30_30 
REMARK       I    between atoms: C30_30  and  N32_32 
REMARK   21  A    between atoms: N32_32  and  O33_33 
REMARK   22  A    between atoms: N32_32  and  C34_34 
REMARK   23  A    between atoms: C34_34  and  C35_35 
REMARK   24  A    between atoms: C35_35  and  C36_36 
REMARK   25  A    between atoms: C36_36  and  C37_37 
REMARK   26  A    between atoms: C37_37  and  C38_38 
REMARK   27  A    between atoms: C38_38  and  N39_39 
ROOT
ATOM      1  C21 ZIN A   1      19.443   2.692  13.373  0.00  0.00     0.022 C 
ENDROOT
BRANCH   1   2
ATOM      2  C20 ZIN A   1      19.011   1.224  13.351  0.00  0.00     0.159 C 
BRANCH   2   3
ATOM      3  N18 ZIN A   1      18.309   0.903  14.597  0.00  0.00    -0.229 N 
ATOM      4  C16 ZIN A   1      18.564  -0.255  15.235  0.00  0.00     0.243 C 
ATOM      5  O17 ZIN A   1      19.376  -1.032  14.779  0.00  0.00    -0.271 OA
BRANCH   4   6
ATOM      6  C15 ZIN A   1      17.843  -0.585  16.516  0.00  0.00     0.114 C 
BRANCH   6   7
ATOM      7  C14 ZIN A   1      18.819  -0.495  17.691  0.00  0.00     0.112 C 
BRANCH   7   8
ATOM      8  C12 ZIN A   1      18.891   0.930  18.176  0.00  0.00     0.217 C 
ATOM      9  N11 ZIN A   1      17.786   1.700  18.167  0.00  0.00    -0.361 N 
ATOM     10  H57 ZIN A   1      16.943   1.338  17.848  0.00  0.00     0.162 HD
ATOM     11  O13 ZIN A   1      19.942   1.383  18.574  0.00  0.00    -0.274 OA
BRANCH   9  12
ATOM     12  C10 ZIN A   1      17.854   3.085  18.640  0.00  0.00     0.122 C 
BRANCH  12  13
ATOM     13  C9  ZIN A   1      16.652   3.377  19.540  0.00  0.00     0.020 C 
BRANCH  13  14
ATOM     14  C8  ZIN A   1      15.967   4.663  19.075  0.00  0.00     0.003 C 
BRANCH  14  15
ATOM     15  C7  ZIN A   1      17.001   5.586  18.427  0.00  0.00     0.022 C 
BRANCH  15  16
ATOM     16  C6  ZIN A   1      16.437   6.147  17.120  0.00  0.00     0.159 C 
BRANCH  16  17
ATOM     17  N4  ZIN A   1      17.335   5.804  16.014  0.00  0.00    -0.229 N 
ATOM     18  C2  ZIN A   1      18.346   6.633  15.685  0.00  0.00     0.239 C 
ATOM     19  C1  ZIN A   1      19.270   6.280  14.548  0.00  0.00     0.119 C 
ATOM     20  O3  ZIN A   1      18.513   7.661  16.305  0.00  0.00    -0.272 OA
BRANCH  17  21
ATOM     21  O5  ZIN A   1      17.140   4.603  15.291  0.00  0.00    -0.285 OA
ATOM     22  H46 ZIN A   1      16.557   3.969  15.730  0.00  0.00     0.245 HD
ENDBRANCH  17  21
ENDBRANCH  16  17
ENDBRANCH  15  16
ENDBRANCH  14  15
ENDBRANCH  13  14
ENDBRANCH  12  13
ENDBRANCH   9  12
ENDBRANCH   7   8
ENDBRANCH   6   7
ENDBRANCH   4   6
BRANCH   3  23
ATOM     23  O19 ZIN A   1      17.361   1.812  15.129  0.00  0.00    -0.285 OA
ATOM     24  H62 ZIN A   1      17.305   2.648  14.648  0.00  0.00     0.245 HD
ENDBRANCH   3  23
ENDBRANCH   2   3
ENDBRANCH   1   2
BRANCH   1  25
ATOM     25  C22 ZIN A   1      19.677   3.176  11.941  0.00  0.00     0.003 C 
BRANCH  25  26
ATOM     26  C23 ZIN A   1      18.447   3.945  11.455  0.00  0.00     0.020 C 
BRANCH  26  27
ATOM     27  C24 ZIN A   1      18.107   3.517  10.026  0.00  0.00     0.122 C 
BRANCH  27  28
ATOM     28  N25 ZIN A   1      18.012   2.056   9.963  0.00  0.00    -0.361 N 
ATOM     29  C26 ZIN A   1      18.655   1.380   8.992  0.00  0.00     0.217 C 
ATOM     30  O27 ZIN A   1      19.314   1.982   8.169  0.00  0.00    -0.274 OA
ATOM     31  H73 ZIN A   1      17.484   1.576  10.621  0.00  0.00     0.162 HD
BRANCH  29  32
ATOM     32  C28 ZIN A   1      18.557  -0.121   8.927  0.00  0.00     0.112 C 
BRANCH  32  33
ATOM     33  C29 ZIN A   1      19.325  -0.735  10.099  0.00  0.00     0.114 C 
BRANCH  33  34
ATOM     34  C30 ZIN A   1      19.107  -2.226  10.118  0.00  0.00     0.243 C 
ATOM     35  O31 ZIN A   1      18.594  -2.776   9.166  0.00  0.00    -0.271 OA
ATOM     36  N32 ZIN A   1      19.482  -2.948  11.192  0.00  0.00    -0.229 N 
BRANCH  36  37
ATOM     37  O33 ZIN A   1      20.081  -2.306  12.304  0.00  0.00    -0.285 OA
ATOM     38  H78 ZIN A   1      20.241  -2.892  13.057  0.00  0.00     0.245 HD
ENDBRANCH  36  37
BRANCH  36  39
ATOM     39  C34 ZIN A   1      19.271  -4.398  11.211  0.00  0.00     0.159 C 
BRANCH  39  40
ATOM     40  C35 ZIN A   1      17.862  -4.702  11.726  0.00  0.00     0.022 C 
BRANCH  40  41
ATOM     41  C36 ZIN A   1      17.372  -6.020  11.122  0.00  0.00     0.003 C 
BRANCH  41  42
ATOM     42  C37 ZIN A   1      17.938  -6.174   9.708  0.00  0.00     0.027 C 
BRANCH  42  43
ATOM     43  C38 ZIN A   1      16.799  -6.090   8.691  0.00  0.00     0.229 C 
BRANCH  43  44
ATOM     44  N39 ZIN A   1      16.464  -4.681   8.446  0.00  0.00    -0.079 N 
ATOM     45  H40 ZIN A   1      17.234  -4.227   7.979  0.00  0.00     0.274 HD
ATOM     46  H41 ZIN A   1      15.640  -4.628   7.865  0.00  0.00     0.274 HD
ATOM     47  H42 ZIN A   1      16.284  -4.219   9.325  0.00  0.00     0.274 HD
ENDBRANCH  43  44
ENDBRANCH  42  43
ENDBRANCH  41  42
ENDBRANCH  40  41
ENDBRANCH  39  40
ENDBRANCH  36  39
ENDBRANCH  33  34
ENDBRANCH  32  33
ENDBRANCH  29  32
ENDBRANCH  27  28
ENDBRANCH  26  27
ENDBRANCH  25  26
ENDBRANCH   1  25
TORSDOF 27
ENDMDL
MODEL 7
REMARK VINA RESULT:      -6.2      1.909     10.180
REMARK  27 active torsions:
REMARK  status: ('A' for Active; 'I' for Inactive)
REMARK       I    between atoms: C2_2  and  N4_4 
REMARK    1  A    between atoms: N4_4  and  O5_5 
REMARK    2  A    between atoms: N4_4  and  C6_6 
REMARK    3  A    between atoms: C6_6  and  C7_7 
REMARK    4  A    between atoms: C7_7  and  C8_8 
REMARK    5  A    between atoms: C8_8  and  C9_9 
REMARK    6  A    between atoms: C9_9  and  C10_10 
REMARK    7  A    between atoms: C10_10  and  N11_11 
REMARK       I    between atoms: N11_11  and  C12_12 
REMARK    8  A    between atoms: C12_12  and  C14_14 
REMARK    9  A    between atoms: C14_14  and  C15_15 
REMARK   10  A    between atoms: C15_15  and  C16_16 
REMARK       I    between atoms: C16_16  and  N18_18 
REMARK   11  A    between atoms: N18_18  and  O19_19 
REMARK   12  A    between atoms: N18_18  and  C20_20 
REMARK   13  A    between atoms: C20_20  and  C21_21 
REMARK   14  A    between atoms: C21_21  and  C22_22 
REMARK   15  A    between atoms: C22_22  and  C23_23 
REMARK   16  A    between atoms: C23_23  and  C24_24 
REMARK   17  A    between atoms: C24_24  and  N25_25 
REMARK       I    between atoms: N25_25  and  C26_26 
REMARK   18  A    between atoms: C26_26  and  C28_28 
REMARK   19  A    between atoms: C28_28  and  C29_29 
REMARK   20  A    between atoms: C29_29  and  C30_30 
REMARK       I    between atoms: C30_30  and  N32_32 
REMARK   21  A    between atoms: N32_32  and  O33_33 
REMARK   22  A    between atoms: N32_32  and  C34_34 
REMARK   23  A    between atoms: C34_34  and  C35_35 
REMARK   24  A    between atoms: C35_35  and  C36_36 
REMARK   25  A    between atoms: C36_36  and  C37_37 
REMARK   26  A    between atoms: C37_37  and  C38_38 
REMARK   27  A    between atoms: C38_38  and  N39_39 
ROOT
ATOM      1  C21 ZIN A   1      18.052  -0.543  13.050  0.00  0.00     0.022 C 
ENDROOT
BRANCH   1   2
ATOM      2  C20 ZIN A   1      19.027  -1.705  12.854  0.00  0.00     0.159 C 
BRANCH   2   3
ATOM      3  N18 ZIN A   1      18.509  -2.609  11.824  0.00  0.00    -0.229 N 
ATOM      4  C16 ZIN A   1      19.288  -3.596  11.339  0.00  0.00     0.243 C 
ATOM      5  O17 ZIN A   1      20.419  -3.736  11.756  0.00  0.00    -0.271 OA
BRANCH   4   6
ATOM      6  C15 ZIN A   1      18.755  -4.526  10.280  0.00  0.00     0.114 C 
BRANCH   6   7
ATOM      7  C14 ZIN A   1      19.857  -5.496   9.850  0.00  0.00     0.112 C 
BRANCH   7   8
ATOM      8  C12 ZIN A   1      19.982  -5.480   8.348  0.00  0.00     0.217 C 
ATOM      9  N11 ZIN A   1      18.947  -5.069   7.591  0.00  0.00    -0.361 N 
ATOM     10  H57 ZIN A   1      18.120  -4.783   8.012  0.00  0.00     0.162 HD
ATOM     11  O13 ZIN A   1      21.014  -5.837   7.822  0.00  0.00    -0.274 OA
BRANCH   9  12
ATOM     12  C10 ZIN A   1      19.067  -5.052   6.131  0.00  0.00     0.122 C 
BRANCH  12  13
ATOM     13  C9  ZIN A   1      17.997  -4.132   5.541  0.00  0.00     0.020 C 
BRANCH  13  14
ATOM     14  C8  ZIN A   1      18.613  -3.281   4.429  0.00  0.00     0.003 C 
BRANCH  14  15
ATOM     15  C7  ZIN A   1      18.430  -1.798   4.760  0.00  0.00     0.022 C 
BRANCH  15  16
ATOM     16  C6  ZIN A   1      19.314  -1.430   5.953  0.00  0.00     0.159 C 
BRANCH  16  17
ATOM     17  N4  ZIN A   1      18.602  -0.481   6.813  0.00  0.00    -0.229 N 
ATOM     18  C2  ZIN A   1      18.051  -0.901   7.969  0.00  0.00     0.239 C 
ATOM     19  C1  ZIN A   1      17.319   0.075   8.854  0.00  0.00     0.119 C 
ATOM     20  O3  ZIN A   1      18.145  -2.064   8.298  0.00  0.00    -0.272 OA
BRANCH  17  21
ATOM     21  O5  ZIN A   1      18.492   0.878   6.429  0.00  0.00    -0.285 OA
ATOM     22  H46 ZIN A   1      17.886   1.393   6.977  0.00  0.00     0.245 HD
ENDBRANCH  17  21
ENDBRANCH  16  17
ENDBRANCH  15  16
ENDBRANCH  14  15
ENDBRANCH  13  14
ENDBRANCH  12  13
ENDBRANCH   9  12
ENDBRANCH   7   8
ENDBRANCH   6   7
ENDBRANCH   4   6
BRANCH   3  23
ATOM     23  O19 ZIN A   1      17.189  -2.446  11.338  0.00  0.00    -0.285 OA
ATOM     24  H62 ZIN A   1      16.737  -3.277  11.140  0.00  0.00     0.245 HD
ENDBRANCH   3  23
ENDBRANCH   2   3
ENDBRANCH   1   2
BRANCH   1  25
ATOM     25  C22 ZIN A   1      17.812  -0.325  14.544  0.00  0.00     0.003 C 
BRANCH  25  26
ATOM     26  C23 ZIN A   1      18.831  -1.135  15.348  0.00  0.00     0.020 C 
BRANCH  26  27
ATOM     27  C24 ZIN A   1      19.047  -0.475  16.712  0.00  0.00     0.122 C 
BRANCH  27  28
ATOM     28  N25 ZIN A   1      18.839   0.970  16.594  0.00  0.00    -0.361 N 
ATOM     29  C26 ZIN A   1      19.199   1.787  17.603  0.00  0.00     0.217 C 
ATOM     30  O27 ZIN A   1      19.695   1.325  18.609  0.00  0.00    -0.274 OA
ATOM     31  H73 ZIN A   1      18.441   1.339  15.789  0.00  0.00     0.162 HD
BRANCH  29  32
ATOM     32  C28 ZIN A   1      18.985   3.273  17.482  0.00  0.00     0.112 C 
BRANCH  32  33
ATOM     33  C29 ZIN A   1      20.050   3.870  16.560  0.00  0.00     0.114 C 
BRANCH  33  34
ATOM     34  C30 ZIN A   1      19.400   4.829  15.596  0.00  0.00     0.243 C 
ATOM     35  O31 ZIN A   1      19.436   6.022  15.811  0.00  0.00    -0.271 OA
ATOM     36  N32 ZIN A   1      18.778   4.360  14.496  0.00  0.00    -0.229 N 
BRANCH  36  37
ATOM     37  O33 ZIN A   1      18.736   2.967  14.245  0.00  0.00    -0.285 OA
ATOM     38  H78 ZIN A   1      19.337   2.675  13.545  0.00  0.00     0.245 HD
ENDBRANCH  36  37
BRANCH  36  39
ATOM     39  C34 ZIN A   1      18.147   5.292  13.558  0.00  0.00     0.159 C 
BRANCH  39  40
ATOM     40  C35 ZIN A   1      17.153   4.534  12.676  0.00  0.00     0.022 C 
BRANCH  40  41
ATOM     41  C36 ZIN A   1      17.712   4.427  11.255  0.00  0.00     0.003 C 
BRANCH  41  42
ATOM     42  C37 ZIN A   1      18.050   2.966  10.950  0.00  0.00     0.027 C 
BRANCH  42  43
ATOM     43  C38 ZIN A   1      19.546   2.840  10.656  0.00  0.00     0.229 C 
BRANCH  43  44
ATOM     44  N39 ZIN A   1      20.213   2.177  11.785  0.00  0.00    -0.079 N 
ATOM     45  H40 ZIN A   1      20.873   2.813  12.206  0.00  0.00     0.274 HD
ATOM     46  H41 ZIN A   1      19.523   1.906  12.470  0.00  0.00     0.274 HD
ATOM     47  H42 ZIN A   1      20.699   1.357  11.454  0.00  0.00     0.274 HD
ENDBRANCH  43  44
ENDBRANCH  42  43
ENDBRANCH  41  42
ENDBRANCH  40  41
ENDBRANCH  39  40
ENDBRANCH  36  39
ENDBRANCH  33  34
ENDBRANCH  32  33
ENDBRANCH  29  32
ENDBRANCH  27  28
ENDBRANCH  26  27
ENDBRANCH  25  26
ENDBRANCH   1  25
TORSDOF 27
ENDMDL
MODEL 8
REMARK VINA RESULT:      -6.2      2.179     10.179
REMARK  27 active torsions:
REMARK  status: ('A' for Active; 'I' for Inactive)
REMARK       I    between atoms: C2_2  and  N4_4 
REMARK    1  A    between atoms: N4_4  and  O5_5 
REMARK    2  A    between atoms: N4_4  and  C6_6 
REMARK    3  A    between atoms: C6_6  and  C7_7 
REMARK    4  A    between atoms: C7_7  and  C8_8 
REMARK    5  A    between atoms: C8_8  and  C9_9 
REMARK    6  A    between atoms: C9_9  and  C10_10 
REMARK    7  A    between atoms: C10_10  and  N11_11 
REMARK       I    between atoms: N11_11  and  C12_12 
REMARK    8  A    between atoms: C12_12  and  C14_14 
REMARK    9  A    between atoms: C14_14  and  C15_15 
REMARK   10  A    between atoms: C15_15  and  C16_16 
REMARK       I    between atoms: C16_16  and  N18_18 
REMARK   11  A    between atoms: N18_18  and  O19_19 
REMARK   12  A    between atoms: N18_18  and  C20_20 
REMARK   13  A    between atoms: C20_20  and  C21_21 
REMARK   14  A    between atoms: C21_21  and  C22_22 
REMARK   15  A    between atoms: C22_22  and  C23_23 
REMARK   16  A    between atoms: C23_23  and  C24_24 
REMARK   17  A    between atoms: C24_24  and  N25_25 
REMARK       I    between atoms: N25_25  and  C26_26 
REMARK   18  A    between atoms: C26_26  and  C28_28 
REMARK   19  A    between atoms: C28_28  and  C29_29 
REMARK   20  A    between atoms: C29_29  and  C30_30 
REMARK       I    between atoms: C30_30  and  N32_32 
REMARK   21  A    between atoms: N32_32  and  O33_33 
REMARK   22  A    between atoms: N32_32  and  C34_34 
REMARK   23  A    between atoms: C34_34  and  C35_35 
REMARK   24  A    between atoms: C35_35  and  C36_36 
REMARK   25  A    between atoms: C36_36  and  C37_37 
REMARK   26  A    between atoms: C37_37  and  C38_38 
REMARK   27  A    between atoms: C38_38  and  N39_39 
ROOT
ATOM      1  C21 ZIN A   1      18.687  -0.974  13.114  0.00  0.00     0.022 C 
ENDROOT
BRANCH   1   2
ATOM      2  C20 ZIN A   1      17.746  -1.746  12.188  0.00  0.00     0.159 C 
BRANCH   2   3
ATOM      3  N18 ZIN A   1      17.280  -0.862  11.116  0.00  0.00    -0.229 N 
ATOM      4  C16 ZIN A   1      17.857  -0.916   9.900  0.00  0.00     0.243 C 
ATOM      5  O17 ZIN A   1      18.762  -1.696   9.692  0.00  0.00    -0.271 OA
BRANCH   4   6
ATOM      6  C15 ZIN A   1      17.378  -0.006   8.798  0.00  0.00     0.114 C 
BRANCH   6   7
ATOM      7  C14 ZIN A   1      18.563   0.778   8.230  0.00  0.00     0.112 C 
BRANCH   7   8
ATOM      8  C12 ZIN A   1      18.796   0.370   6.799  0.00  0.00     0.217 C 
ATOM      9  N11 ZIN A   1      19.127  -0.903   6.506  0.00  0.00    -0.361 N 
ATOM     10  H57 ZIN A   1      19.216  -1.558   7.218  0.00  0.00     0.162 HD
ATOM     11  O13 ZIN A   1      18.686   1.187   5.910  0.00  0.00    -0.274 OA
BRANCH   9  12
ATOM     12  C10 ZIN A   1      19.353  -1.301   5.115  0.00  0.00     0.122 C 
BRANCH  12  13
ATOM     13  C9  ZIN A   1      18.895  -2.748   4.917  0.00  0.00     0.020 C 
BRANCH  13  14
ATOM     14  C8  ZIN A   1      19.341  -3.590   6.114  0.00  0.00     0.003 C 
BRANCH  14  15
ATOM     15  C7  ZIN A   1      18.679  -4.968   6.042  0.00  0.00     0.022 C 
BRANCH  15  16
ATOM     16  C6  ZIN A   1      17.822  -5.057   4.778  0.00  0.00     0.159 C 
BRANCH  16  17
ATOM     17  N4  ZIN A   1      16.606  -5.823   5.065  0.00  0.00    -0.229 N 
ATOM     18  C2  ZIN A   1      15.425  -5.432   4.546  0.00  0.00     0.239 C 
ATOM     19  C1  ZIN A   1      14.175  -6.220   4.841  0.00  0.00     0.119 C 
ATOM     20  O3  ZIN A   1      15.369  -4.447   3.842  0.00  0.00    -0.272 OA
BRANCH  17  21
ATOM     21  O5  ZIN A   1      16.673  -6.973   5.888  0.00  0.00    -0.285 OA
ATOM     22  H46 ZIN A   1      16.132  -7.711   5.577  0.00  0.00     0.245 HD
ENDBRANCH  17  21
ENDBRANCH  16  17
ENDBRANCH  15  16
ENDBRANCH  14  15
ENDBRANCH  13  14
ENDBRANCH  12  13
ENDBRANCH   9  12
ENDBRANCH   7   8
ENDBRANCH   6   7
ENDBRANCH   4   6
BRANCH   3  23
ATOM     23  O19 ZIN A   1      16.223   0.049  11.360  0.00  0.00    -0.285 OA
ATOM     24  H62 ZIN A   1      16.430   0.963  11.124  0.00  0.00     0.245 HD
ENDBRANCH   3  23
ENDBRANCH   2   3
ENDBRANCH   1   2
BRANCH   1  25
ATOM     25  C22 ZIN A   1      17.978  -0.688  14.438  0.00  0.00     0.003 C 
BRANCH  25  26
ATOM     26  C23 ZIN A   1      18.875  -1.118  15.601  0.00  0.00     0.020 C 
BRANCH  26  27
ATOM     27  C24 ZIN A   1      18.197  -0.766  16.926  0.00  0.00     0.122 C 
BRANCH  27  28
ATOM     28  N25 ZIN A   1      18.097   0.690  17.053  0.00  0.00    -0.361 N 
ATOM     29  C26 ZIN A   1      18.973   1.361  17.825  0.00  0.00     0.217 C 
ATOM     30  O27 ZIN A   1      19.846   0.760  18.415  0.00  0.00    -0.274 OA
ATOM     31  H73 ZIN A   1      17.398   1.170  16.581  0.00  0.00     0.162 HD
BRANCH  29  32
ATOM     32  C28 ZIN A   1      18.870   2.859  17.955  0.00  0.00     0.112 C 
BRANCH  32  33
ATOM     33  C29 ZIN A   1      19.722   3.525  16.874  0.00  0.00     0.114 C 
BRANCH  33  34
ATOM     34  C30 ZIN A   1      18.841   4.371  15.989  0.00  0.00     0.243 C 
ATOM     35  O31 ZIN A   1      18.560   5.504  16.319  0.00  0.00    -0.271 OA
ATOM     36  N32 ZIN A   1      18.365   3.867  14.833  0.00  0.00    -0.229 N 
BRANCH  36  37
ATOM     37  O33 ZIN A   1      18.694   2.543  14.449  0.00  0.00    -0.285 OA
ATOM     38  H78 ZIN A   1      18.238   2.241  13.651  0.00  0.00     0.245 HD
ENDBRANCH  36  37
BRANCH  36  39
ATOM     39  C34 ZIN A   1      17.510   4.688  13.973  0.00  0.00     0.159 C 
BRANCH  39  40
ATOM     40  C35 ZIN A   1      18.176   4.862  12.607  0.00  0.00     0.022 C 
BRANCH  40  41
ATOM     41  C36 ZIN A   1      17.404   4.059  11.558  0.00  0.00     0.003 C 
BRANCH  41  42
ATOM     42  C37 ZIN A   1      18.298   2.943  11.012  0.00  0.00     0.027 C 
BRANCH  42  43
ATOM     43  C38 ZIN A   1      19.764   3.289  11.276  0.00  0.00     0.229 C 
BRANCH  43  44
ATOM     44  N39 ZIN A   1      20.426   2.150  11.927  0.00  0.00    -0.079 N 
ATOM     45  H40 ZIN A   1      21.338   2.432  12.254  0.00  0.00     0.274 HD
ATOM     46  H41 ZIN A   1      19.869   1.840  12.710  0.00  0.00     0.274 HD
ATOM     47  H42 ZIN A   1      20.525   1.395  11.265  0.00  0.00     0.274 HD
ENDBRANCH  43  44
ENDBRANCH  42  43
ENDBRANCH  41  42
ENDBRANCH  40  41
ENDBRANCH  39  40
ENDBRANCH  36  39
ENDBRANCH  33  34
ENDBRANCH  32  33
ENDBRANCH  29  32
ENDBRANCH  27  28
ENDBRANCH  26  27
ENDBRANCH  25  26
ENDBRANCH   1  25
TORSDOF 27
ENDMDL
MODEL 9
REMARK VINA RESULT:      -6.2      2.259      9.263
REMARK  27 active torsions:
REMARK  status: ('A' for Active; 'I' for Inactive)
REMARK       I    between atoms: C2_2  and  N4_4 
REMARK    1  A    between atoms: N4_4  and  O5_5 
REMARK    2  A    between atoms: N4_4  and  C6_6 
REMARK    3  A    between atoms: C6_6  and  C7_7 
REMARK    4  A    between atoms: C7_7  and  C8_8 
REMARK    5  A    between atoms: C8_8  and  C9_9 
REMARK    6  A    between atoms: C9_9  and  C10_10 
REMARK    7  A    between atoms: C10_10  and  N11_11 
REMARK       I    between atoms: N11_11  and  C12_12 
REMARK    8  A    between atoms: C12_12  and  C14_14 
REMARK    9  A    between atoms: C14_14  and  C15_15 
REMARK   10  A    between atoms: C15_15  and  C16_16 
REMARK       I    between atoms: C16_16  and  N18_18 
REMARK   11  A    between atoms: N18_18  and  O19_19 
REMARK   12  A    between atoms: N18_18  and  C20_20 
REMARK   13  A    between atoms: C20_20  and  C21_21 
REMARK   14  A    between atoms: C21_21  and  C22_22 
REMARK   15  A    between atoms: C22_22  and  C23_23 
REMARK   16  A    between atoms: C23_23  and  C24_24 
REMARK   17  A    between atoms: C24_24  and  N25_25 
REMARK       I    between atoms: N25_25  and  C26_26 
REMARK   18  A    between atoms: C26_26  and  C28_28 
REMARK   19  A    between atoms: C28_28  and  C29_29 
REMARK   20  A    between atoms: C29_29  and  C30_30 
REMARK       I    between atoms: C30_30  and  N32_32 
REMARK   21  A    between atoms: N32_32  and  O33_33 
REMARK   22  A    between atoms: N32_32  and  C34_34 
REMARK   23  A    between atoms: C34_34  and  C35_35 
REMARK   24  A    between atoms: C35_35  and  C36_36 
REMARK   25  A    between atoms: C36_36  and  C37_37 
REMARK   26  A    between atoms: C37_37  and  C38_38 
REMARK   27  A    between atoms: C38_38  and  N39_39 
ROOT
ATOM      1  C21 ZIN A   1      17.785   3.810  10.375  0.00  0.00     0.022 C 
ENDROOT
BRANCH   1   2
ATOM      2  C20 ZIN A   1      18.667   2.571  10.538  0.00  0.00     0.159 C 
BRANCH   2   3
ATOM      3  N18 ZIN A   1      18.138   1.482   9.712  0.00  0.00    -0.229 N 
ATOM      4  C16 ZIN A   1      18.591   1.308   8.455  0.00  0.00     0.243 C 
ATOM      5  O17 ZIN A   1      19.438   2.052   8.008  0.00  0.00    -0.271 OA
BRANCH   4   6
ATOM      6  C15 ZIN A   1      18.047   0.188   7.607  0.00  0.00     0.114 C 
BRANCH   6   7
ATOM      7  C14 ZIN A   1      18.670   0.255   6.211  0.00  0.00     0.112 C 
BRANCH   7   8
ATOM      8  C12 ZIN A   1      19.247  -1.090   5.853  0.00  0.00     0.217 C 
ATOM      9  N11 ZIN A   1      19.131  -2.122   6.711  0.00  0.00    -0.361 N 
ATOM     10  H57 ZIN A   1      18.677  -1.999   7.560  0.00  0.00     0.162 HD
ATOM     11  O13 ZIN A   1      19.814  -1.244   4.793  0.00  0.00    -0.274 OA
BRANCH   9  12
ATOM     12  C10 ZIN A   1      19.690  -3.431   6.363  0.00  0.00     0.122 C 
BRANCH  12  13
ATOM     13  C9  ZIN A   1      18.996  -4.517   7.188  0.00  0.00     0.020 C 
BRANCH  13  14
ATOM     14  C8  ZIN A   1      18.127  -3.863   8.264  0.00  0.00     0.003 C 
BRANCH  14  15
ATOM     15  C7  ZIN A   1      18.907  -3.799   9.580  0.00  0.00     0.022 C 
BRANCH  15  16
ATOM     16  C6  ZIN A   1      18.727  -2.417  10.212  0.00  0.00     0.159 C 
BRANCH  16  17
ATOM     17  N4  ZIN A   1      19.472  -2.357  11.472  0.00  0.00    -0.229 N 
ATOM     18  C2  ZIN A   1      18.926  -1.759  12.550  0.00  0.00     0.239 C 
ATOM     19  C1  ZIN A   1      19.692  -1.697  13.847  0.00  0.00     0.119 C 
ATOM     20  O3  ZIN A   1      17.818  -1.272  12.476  0.00  0.00    -0.272 OA
BRANCH  17  21
ATOM     21  O5  ZIN A   1      20.767  -2.925  11.557  0.00  0.00    -0.285 OA
ATOM     22  H46 ZIN A   1      20.839  -3.644  12.200  0.00  0.00     0.245 HD
ENDBRANCH  17  21
ENDBRANCH  16  17
ENDBRANCH  15  16
ENDBRANCH  14  15
ENDBRANCH  13  14
ENDBRANCH  12  13
ENDBRANCH   9  12
ENDBRANCH   7   8
ENDBRANCH   6   7
ENDBRANCH   4   6
BRANCH   3  23
ATOM     23  O19 ZIN A   1      17.150   0.613  10.236  0.00  0.00    -0.285 OA
ATOM     24  H62 ZIN A   1      17.274  -0.315   9.996  0.00  0.00     0.245 HD
ENDBRANCH   3  23
ENDBRANCH   2   3
ENDBRANCH   1   2
BRANCH   1  25
ATOM     25  C22 ZIN A   1      18.115   4.820  11.475  0.00  0.00     0.003 C 
BRANCH  25  26
ATOM     26  C23 ZIN A   1      18.835   4.108  12.622  0.00  0.00     0.020 C 
BRANCH  26  27
ATOM     27  C24 ZIN A   1      19.762   5.094  13.335  0.00  0.00     0.122 C 
BRANCH  27  28
ATOM     28  N25 ZIN A   1      19.377   5.196  14.744  0.00  0.00    -0.361 N 
ATOM     29  C26 ZIN A   1      19.114   6.401  15.286  0.00  0.00     0.217 C 
ATOM     30  O27 ZIN A   1      19.195   7.402  14.605  0.00  0.00    -0.274 OA
ATOM     31  H73 ZIN A   1      19.314   4.395  15.289  0.00  0.00     0.162 HD
BRANCH  29  32
ATOM     32  C28 ZIN A   1      18.719   6.505  16.736  0.00  0.00     0.112 C 
BRANCH  32  33
ATOM     33  C29 ZIN A   1      17.495   5.626  16.997  0.00  0.00     0.114 C 
BRANCH  33  34
ATOM     34  C30 ZIN A   1      17.806   4.644  18.097  0.00  0.00     0.243 C 
ATOM     35  O31 ZIN A   1      17.706   4.981  19.257  0.00  0.00    -0.271 OA
ATOM     36  N32 ZIN A   1      18.198   3.391  17.790  0.00  0.00    -0.229 N 
BRANCH  36  37
ATOM     37  O33 ZIN A   1      18.316   2.997  16.435  0.00  0.00    -0.285 OA
ATOM     38  H78 ZIN A   1      17.974   3.646  15.805  0.00  0.00     0.245 HD
ENDBRANCH  36  37
BRANCH  36  39
ATOM     39  C34 ZIN A   1      18.501   2.436  18.859  0.00  0.00     0.159 C 
BRANCH  39  40
ATOM     40  C35 ZIN A   1      17.651   1.177  18.674  0.00  0.00     0.022 C 
BRANCH  40  41
ATOM     41  C36 ZIN A   1      18.567  -0.042  18.544  0.00  0.00     0.003 C 
BRANCH  41  42
ATOM     42  C37 ZIN A   1      18.531  -0.554  17.102  0.00  0.00     0.027 C 
BRANCH  42  43
ATOM     43  C38 ZIN A   1      17.138  -0.325  16.514  0.00  0.00     0.229 C 
BRANCH  43  44
ATOM     44  N39 ZIN A   1      17.253   0.430  15.259  0.00  0.00    -0.079 N 
ATOM     45  H40 ZIN A   1      18.228   0.550  15.026  0.00  0.00     0.274 HD
ATOM     46  H41 ZIN A   1      16.790  -0.076  14.519  0.00  0.00     0.274 HD
ATOM     47  H42 ZIN A   1      16.820   1.335  15.369  0.00  0.00     0.274 HD
ENDBRANCH  43  44
ENDBRANCH  42  43
ENDBRANCH  41  42
ENDBRANCH  40  41
ENDBRANCH  39  40
ENDBRANCH  36  39
ENDBRANCH  33  34
ENDBRANCH  32  33
ENDBRANCH  29  32
ENDBRANCH  27  28
ENDBRANCH  26  27
ENDBRANCH  25  26
ENDBRANCH   1  25
TORSDOF 27
ENDMDL
