MODEL 1
REMARK VINA RESULT:      -8.5      0.000      0.000
REMARK  6 active torsions:
REMARK  status: ('A' for Active; 'I' for Inactive)
REMARK    1  A    between atoms: C2_2  and  N3_3 
REMARK       I    between atoms: N6_6  and  C7_7 
REMARK       I    between atoms: C7_7  and  N9_9 
REMARK    2  A    between atoms: N9_9  and  C10_10 
REMARK    3  A    between atoms: C10_10  and  C12_11 
REMARK    4  A    between atoms: C10_10  and  C31_27 
REMARK       I    between atoms: C12_11  and  N14_13 
REMARK    5  A    between atoms: N14_13  and  C15_14 
REMARK    6  A    between atoms: C26_23  and  C28_24 
ROOT
ATOM      1  C10 ZIN A   1      19.085  -0.870  13.034  0.00  0.00     0.211 C 
ENDROOT
BRANCH   1   2
ATOM      2  N9  ZIN A   1      18.424  -1.973  12.332  0.00  0.00    -0.325 N 
ATOM      3  C7  ZIN A   1      19.163  -2.916  11.714  0.00  0.00     0.326 C 
ATOM      4  N6  ZIN A   1      18.557  -3.872  10.981  0.00  0.00    -0.260 N 
ATOM      5  O8  ZIN A   1      20.374  -2.905  11.817  0.00  0.00    -0.247 OA
ATOM      6  C5  ZIN A   1      17.097  -3.950  10.945  0.00  0.00     0.157 C 
ATOM      7  C37 ZIN A   1      19.300  -4.756  10.285  0.00  0.00     0.319 C 
ATOM      8  C4  ZIN A   1      16.616  -4.338   9.550  0.00  0.00     0.146 C 
ATOM      9  N3  ZIN A   1      17.310  -5.539   9.084  0.00  0.00    -0.343 N 
ATOM     10  C39 ZIN A   1      18.612  -5.726   9.377  0.00  0.00     0.312 C 
ATOM     11  O40 ZIN A   1      19.220  -6.663   8.904  0.00  0.00    -0.262 OA
ATOM     12  O38 ZIN A   1      20.509  -4.767  10.395  0.00  0.00    -0.262 OA
ATOM     13  H50 ZIN A   1      17.456  -2.024  12.311  0.00  0.00     0.165 HD
BRANCH   9  14
ATOM     14  C2  ZIN A   1      16.585  -6.544   8.302  0.00  0.00     0.122 C 
ATOM     15  C1  ZIN A   1      15.121  -6.122   8.162  0.00  0.00     0.026 C 
ENDBRANCH   9  14
ENDBRANCH   1   2
BRANCH   1  16
ATOM     16  C12 ZIN A   1      18.645   0.441  12.435  0.00  0.00     0.245 C 
ATOM     17  O13 ZIN A   1      17.796   0.458  11.570  0.00  0.00    -0.271 OA
ATOM     18  N14 ZIN A   1      19.195   1.595  12.863  0.00  0.00    -0.344 N 
ATOM     19  H51 ZIN A   1      19.874   1.582  13.556  0.00  0.00     0.163 HD
BRANCH  18  20
ATOM     20  C15 ZIN A   1      18.767   2.870  12.281  0.00  0.00     0.199 C 
ATOM     21  C20 ZIN A   1      17.987   3.760  13.253  0.00  0.00     0.160 C 
ATOM     22  N19 ZIN A   1      19.181   4.635  13.287  0.00  0.00    -0.219 NA
ATOM     23  S22 ZIN A   1      17.834   3.095  14.953  0.00  0.00    -0.135 SA
ATOM     24  C17 ZIN A   1      19.837   3.942  12.307  0.00  0.00     0.227 C 
ATOM     25  C26 ZIN A   1      19.848   4.714  14.590  0.00  0.00     0.186 C 
ATOM     26  O18 ZIN A   1      20.871   4.117  11.698  0.00  0.00    -0.277 OA
ATOM     27  C23 ZIN A   1      18.819   4.444  15.732  0.00  0.00     0.029 C 
ATOM     28  C24 ZIN A   1      17.951   5.672  16.016  0.00  0.00     0.029 C 
ATOM     29  C25 ZIN A   1      19.520   3.958  17.001  0.00  0.00     0.029 C 
BRANCH  25  30
ATOM     30  C28 ZIN A   1      20.427   6.094  14.758  0.00  0.00     0.193 C 
ATOM     31  O29 ZIN A   1      19.905   7.046  14.204  0.00  0.00    -0.647 OA
ATOM     32  O30 ZIN A   1      21.417   6.260  15.450  0.00  0.00    -0.647 OA
ENDBRANCH  25  30
ENDBRANCH  18  20
ENDBRANCH   1  16
BRANCH   1  33
ATOM     33  C31 ZIN A   1      18.711  -0.907  14.494  0.00  0.00    -0.026 A 
ATOM     34  C36 ZIN A   1      17.509  -0.369  14.913  0.00  0.00     0.010 A 
ATOM     35  C35 ZIN A   1      17.164  -0.407  16.251  0.00  0.00     0.001 A 
ATOM     36  C34 ZIN A   1      18.026  -0.975  17.170  0.00  0.00     0.000 A 
ATOM     37  C33 ZIN A   1      19.231  -1.508  16.752  0.00  0.00     0.001 A 
ATOM     38  C32 ZIN A   1      19.574  -1.474  15.413  0.00  0.00     0.010 A 
ENDBRANCH   1  33
TORSDOF 6
ENDMDL
MODEL 2
REMARK VINA RESULT:      -8.1      2.722      4.430
REMARK  6 active torsions:
REMARK  status: ('A' for Active; 'I' for Inactive)
REMARK    1  A    between atoms: C2_2  and  N3_3 
REMARK       I    between atoms: N6_6  and  C7_7 
REMARK       I    between atoms: C7_7  and  N9_9 
REMARK    2  A    between atoms: N9_9  and  C10_10 
REMARK    3  A    between atoms: C10_10  and  C12_11 
REMARK    4  A    between atoms: C10_10  and  C31_27 
REMARK       I    between atoms: C12_11  and  N14_13 
REMARK    5  A    between atoms: N14_13  and  C15_14 
REMARK    6  A    between atoms: C26_23  and  C28_24 
ROOT
ATOM      1  C10 ZIN A   1      17.920   0.882  12.316  0.00  0.00     0.211 C 
ENDROOT
BRANCH   1   2
ATOM      2  N9  ZIN A   1      18.383  -0.258  11.520  0.00  0.00    -0.325 N 
ATOM      3  C7  ZIN A   1      17.698  -1.418  11.544  0.00  0.00     0.326 C 
ATOM      4  N6  ZIN A   1      18.179  -2.498  10.895  0.00  0.00    -0.260 N 
ATOM      5  O8  ZIN A   1      16.647  -1.493  12.150  0.00  0.00    -0.247 OA
ATOM      6  C5  ZIN A   1      19.387  -2.380  10.078  0.00  0.00     0.157 C 
ATOM      7  C37 ZIN A   1      17.545  -3.683  11.000  0.00  0.00     0.319 C 
ATOM      8  C4  ZIN A   1      20.245  -3.636  10.207  0.00  0.00     0.146 C 
ATOM      9  N3  ZIN A   1      19.442  -4.833   9.954  0.00  0.00    -0.343 N 
ATOM     10  C39 ZIN A   1      18.165  -4.895  10.380  0.00  0.00     0.312 C 
ATOM     11  O40 ZIN A   1      17.530  -5.923  10.270  0.00  0.00    -0.262 OA
ATOM     12  O38 ZIN A   1      16.485  -3.765  11.586  0.00  0.00    -0.262 OA
ATOM     13  H50 ZIN A   1      19.182  -0.177  10.977  0.00  0.00     0.165 HD
BRANCH   9  14
ATOM     14  C2  ZIN A   1      20.027  -5.965   9.231  0.00  0.00     0.122 C 
ATOM     15  C1  ZIN A   1      20.491  -5.501   7.848  0.00  0.00     0.026 C 
ENDBRANCH   9  14
ENDBRANCH   1   2
BRANCH   1  16
ATOM     16  C12 ZIN A   1      18.836   1.075  13.496  0.00  0.00     0.245 C 
ATOM     17  O13 ZIN A   1      19.989   0.707  13.435  0.00  0.00    -0.271 OA
ATOM     18  N14 ZIN A   1      18.373   1.659  14.620  0.00  0.00    -0.344 N 
ATOM     19  H51 ZIN A   1      17.451   1.955  14.668  0.00  0.00     0.163 HD
BRANCH  18  20
ATOM     20  C15 ZIN A   1      19.265   1.848  15.767  0.00  0.00     0.199 C 
ATOM     21  C20 ZIN A   1      19.605   3.315  16.047  0.00  0.00     0.160 C 
ATOM     22  N19 ZIN A   1      18.743   3.205  17.245  0.00  0.00    -0.219 NA
ATOM     23  S22 ZIN A   1      18.762   4.523  14.960  0.00  0.00    -0.135 SA
ATOM     24  C17 ZIN A   1      18.548   1.859  17.101  0.00  0.00     0.227 C 
ATOM     25  C26 ZIN A   1      17.542   4.046  17.217  0.00  0.00     0.186 C 
ATOM     26  O18 ZIN A   1      18.009   1.007  17.776  0.00  0.00    -0.277 OA
ATOM     27  C23 ZIN A   1      17.793   5.300  16.322  0.00  0.00     0.029 C 
ATOM     28  C24 ZIN A   1      18.615   6.364  17.052  0.00  0.00     0.029 C 
ATOM     29  C25 ZIN A   1      16.475   5.878  15.806  0.00  0.00     0.029 C 
BRANCH  25  30
ATOM     30  C28 ZIN A   1      17.227   4.492  18.621  0.00  0.00     0.193 C 
ATOM     31  O29 ZIN A   1      16.130   4.954  18.883  0.00  0.00    -0.647 OA
ATOM     32  O30 ZIN A   1      18.070   4.390  19.497  0.00  0.00    -0.647 OA
ENDBRANCH  25  30
ENDBRANCH  18  20
ENDBRANCH   1  16
BRANCH   1  33
ATOM     33  C31 ZIN A   1      17.926   2.126  11.465  0.00  0.00    -0.026 A 
ATOM     34  C36 ZIN A   1      18.516   2.105  10.216  0.00  0.00     0.010 A 
ATOM     35  C35 ZIN A   1      18.518   3.244   9.433  0.00  0.00     0.001 A 
ATOM     36  C34 ZIN A   1      17.937   4.407   9.905  0.00  0.00     0.000 A 
ATOM     37  C33 ZIN A   1      17.352   4.429  11.157  0.00  0.00     0.001 A 
ATOM     38  C32 ZIN A   1      17.346   3.288  11.937  0.00  0.00     0.010 A 
ENDBRANCH   1  33
TORSDOF 6
ENDMDL
MODEL 3
REMARK VINA RESULT:      -7.9      4.075     10.181
REMARK  6 active torsions:
REMARK  status: ('A' for Active; 'I' for Inactive)
REMARK    1  A    between atoms: C2_2  and  N3_3 
REMARK       I    between atoms: N6_6  and  C7_7 
REMARK       I    between atoms: C7_7  and  N9_9 
REMARK    2  A    between atoms: N9_9  and  C10_10 
REMARK    3  A    between atoms: C10_10  and  C12_11 
REMARK    4  A    between atoms: C10_10  and  C31_27 
REMARK       I    between atoms: C12_11  and  N14_13 
REMARK    5  A    between atoms: N14_13  and  C15_14 
REMARK    6  A    between atoms: C26_23  and  C28_24 
ROOT
ATOM      1  C10 ZIN A   1      17.992  -1.336   9.559  0.00  0.00     0.211 C 
ENDROOT
BRANCH   1   2
ATOM      2  N9  ZIN A   1      18.536  -0.209  10.319  0.00  0.00    -0.325 N 
ATOM      3  C7  ZIN A   1      18.075   0.052  11.559  0.00  0.00     0.326 C 
ATOM      4  N6  ZIN A   1      18.500   1.149  12.218  0.00  0.00    -0.260 N 
ATOM      5  O8  ZIN A   1      17.277  -0.700  12.082  0.00  0.00    -0.247 OA
ATOM      6  C5  ZIN A   1      19.540   1.995  11.633  0.00  0.00     0.157 C 
ATOM      7  C37 ZIN A   1      17.967   1.462  13.416  0.00  0.00     0.319 C 
ATOM      8  C4  ZIN A   1      19.258   3.467  11.922  0.00  0.00     0.146 C 
ATOM      9  N3  ZIN A   1      19.026   3.673  13.352  0.00  0.00    -0.343 N 
ATOM     10  C39 ZIN A   1      18.357   2.749  14.071  0.00  0.00     0.312 C 
ATOM     11  O40 ZIN A   1      18.067   2.962  15.229  0.00  0.00    -0.262 OA
ATOM     12  O38 ZIN A   1      17.184   0.708  13.957  0.00  0.00    -0.262 OA
ATOM     13  H50 ZIN A   1      19.227   0.349   9.931  0.00  0.00     0.165 HD
BRANCH   9  14
ATOM     14  C2  ZIN A   1      19.528   4.884  14.007  0.00  0.00     0.122 C 
ATOM     15  C1  ZIN A   1      18.420   5.939  14.045  0.00  0.00     0.026 C 
ENDBRANCH   9  14
ENDBRANCH   1   2
BRANCH   1  16
ATOM     16  C12 ZIN A   1      18.578  -1.334   8.170  0.00  0.00     0.245 C 
ATOM     17  O13 ZIN A   1      19.293  -0.422   7.815  0.00  0.00    -0.271 OA
ATOM     18  N14 ZIN A   1      18.308  -2.348   7.324  0.00  0.00    -0.344 N 
ATOM     19  H51 ZIN A   1      17.737  -3.079   7.608  0.00  0.00     0.163 HD
BRANCH  18  20
ATOM     20  C15 ZIN A   1      18.879  -2.347   5.974  0.00  0.00     0.199 C 
ATOM     21  C20 ZIN A   1      19.009  -3.744   5.359  0.00  0.00     0.160 C 
ATOM     22  N19 ZIN A   1      17.898  -3.364   4.457  0.00  0.00    -0.219 NA
ATOM     23  S22 ZIN A   1      18.344  -5.104   6.389  0.00  0.00    -0.135 SA
ATOM     24  C17 ZIN A   1      17.866  -2.065   4.884  0.00  0.00     0.227 C 
ATOM     25  C26 ZIN A   1      16.669  -4.142   4.635  0.00  0.00     0.186 C 
ATOM     26  O18 ZIN A   1      17.261  -1.075   4.530  0.00  0.00    -0.277 OA
ATOM     27  C23 ZIN A   1      17.011  -5.556   5.199  0.00  0.00     0.029 C 
ATOM     28  C24 ZIN A   1      17.536  -6.491   4.107  0.00  0.00     0.029 C 
ATOM     29  C25 ZIN A   1      15.808  -6.167   5.918  0.00  0.00     0.029 C 
BRANCH  25  30
ATOM     30  C28 ZIN A   1      15.988  -4.290   3.299  0.00  0.00     0.193 C 
ATOM     31  O29 ZIN A   1      16.601  -4.052   2.272  0.00  0.00    -0.647 OA
ATOM     32  O30 ZIN A   1      14.824  -4.649   3.244  0.00  0.00    -0.647 OA
ENDBRANCH  25  30
ENDBRANCH  18  20
ENDBRANCH   1  16
BRANCH   1  33
ATOM     33  C31 ZIN A   1      18.344  -2.628  10.252  0.00  0.00    -0.026 A 
ATOM     34  C36 ZIN A   1      19.637  -2.849  10.684  0.00  0.00     0.010 A 
ATOM     35  C35 ZIN A   1      19.959  -4.032  11.323  0.00  0.00     0.001 A 
ATOM     36  C34 ZIN A   1      18.988  -4.996  11.522  0.00  0.00     0.000 A 
ATOM     37  C33 ZIN A   1      17.696  -4.776  11.085  0.00  0.00     0.001 A 
ATOM     38  C32 ZIN A   1      17.373  -3.591  10.449  0.00  0.00     0.010 A 
ENDBRANCH   1  33
TORSDOF 6
ENDMDL
MODEL 4
REMARK VINA RESULT:      -7.9      4.482     11.269
REMARK  6 active torsions:
REMARK  status: ('A' for Active; 'I' for Inactive)
REMARK    1  A    between atoms: C2_2  and  N3_3 
REMARK       I    between atoms: N6_6  and  C7_7 
REMARK       I    between atoms: C7_7  and  N9_9 
REMARK    2  A    between atoms: N9_9  and  C10_10 
REMARK    3  A    between atoms: C10_10  and  C12_11 
REMARK    4  A    between atoms: C10_10  and  C31_27 
REMARK       I    between atoms: C12_11  and  N14_13 
REMARK    5  A    between atoms: N14_13  and  C15_14 
REMARK    6  A    between atoms: C26_23  and  C28_24 
ROOT
ATOM      1  C10 ZIN A   1      18.840  -2.752   7.946  0.00  0.00     0.211 C 
ENDROOT
BRANCH   1   2
ATOM      2  N9  ZIN A   1      18.605  -1.922   9.130  0.00  0.00    -0.325 N 
ATOM      3  C7  ZIN A   1      19.145  -2.270  10.315  0.00  0.00     0.326 C 
ATOM      4  N6  ZIN A   1      18.845  -1.566  11.425  0.00  0.00    -0.260 N 
ATOM      5  O8  ZIN A   1      19.901  -3.219  10.384  0.00  0.00    -0.247 OA
ATOM      6  C5  ZIN A   1      18.021  -0.361  11.325  0.00  0.00     0.157 C 
ATOM      7  C37 ZIN A   1      19.306  -1.973  12.624  0.00  0.00     0.319 C 
ATOM      8  C4  ZIN A   1      17.079  -0.255  12.521  0.00  0.00     0.146 C 
ATOM      9  N3  ZIN A   1      17.825  -0.391  13.773  0.00  0.00    -0.343 N 
ATOM     10  C39 ZIN A   1      18.857  -1.254  13.857  0.00  0.00     0.312 C 
ATOM     11  O40 ZIN A   1      19.409  -1.452  14.920  0.00  0.00    -0.262 OA
ATOM     12  O38 ZIN A   1      20.078  -2.907  12.702  0.00  0.00    -0.262 OA
ATOM     13  H50 ZIN A   1      18.061  -1.122   9.061  0.00  0.00     0.165 HD
BRANCH   9  14
ATOM     14  C2  ZIN A   1      17.451   0.416  14.937  0.00  0.00     0.122 C 
ATOM     15  C1  ZIN A   1      18.122   1.788  14.842  0.00  0.00     0.026 C 
ENDBRANCH   9  14
ENDBRANCH   1   2
BRANCH   1  16
ATOM     16  C12 ZIN A   1      17.842  -3.880   7.919  0.00  0.00     0.245 C 
ATOM     17  O13 ZIN A   1      17.111  -4.066   8.867  0.00  0.00    -0.271 OA
ATOM     18  N14 ZIN A   1      17.763  -4.683   6.838  0.00  0.00    -0.344 N 
ATOM     19  H51 ZIN A   1      18.348  -4.533   6.079  0.00  0.00     0.163 HD
BRANCH  18  20
ATOM     20  C15 ZIN A   1      16.792  -5.780   6.811  0.00  0.00     0.199 C 
ATOM     21  C20 ZIN A   1      15.950  -5.825   5.532  0.00  0.00     0.160 C 
ATOM     22  N19 ZIN A   1      16.722  -7.032   5.160  0.00  0.00    -0.219 NA
ATOM     23  S22 ZIN A   1      16.391  -4.569   4.274  0.00  0.00    -0.135 SA
ATOM     24  C17 ZIN A   1      17.377  -7.101   6.358  0.00  0.00     0.227 C 
ATOM     25  C26 ZIN A   1      17.558  -6.882   3.965  0.00  0.00     0.186 C 
ATOM     26  O18 ZIN A   1      18.133  -7.905   6.861  0.00  0.00    -0.277 OA
ATOM     27  C23 ZIN A   1      16.947  -5.800   3.021  0.00  0.00     0.029 C 
ATOM     28  C24 ZIN A   1      15.765  -6.349   2.218  0.00  0.00     0.029 C 
ATOM     29  C25 ZIN A   1      18.014  -5.211   2.097  0.00  0.00     0.029 C 
BRANCH  25  30
ATOM     30  C28 ZIN A   1      17.613  -8.202   3.241  0.00  0.00     0.193 C 
ATOM     31  O29 ZIN A   1      16.729  -9.026   3.405  0.00  0.00    -0.647 OA
ATOM     32  O30 ZIN A   1      18.540  -8.446   2.488  0.00  0.00    -0.647 OA
ENDBRANCH  25  30
ENDBRANCH  18  20
ENDBRANCH   1  16
BRANCH   1  33
ATOM     33  C31 ZIN A   1      18.686  -1.912   6.704  0.00  0.00    -0.026 A 
ATOM     34  C36 ZIN A   1      19.327  -2.280   5.537  0.00  0.00     0.010 A 
ATOM     35  C35 ZIN A   1      19.182  -1.512   4.397  0.00  0.00     0.001 A 
ATOM     36  C34 ZIN A   1      18.401  -0.372   4.427  0.00  0.00     0.000 A 
ATOM     37  C33 ZIN A   1      17.764  -0.001   5.596  0.00  0.00     0.001 A 
ATOM     38  C32 ZIN A   1      17.906  -0.771   6.736  0.00  0.00     0.010 A 
ENDBRANCH   1  33
TORSDOF 6
ENDMDL
MODEL 5
REMARK VINA RESULT:      -7.8      2.775     10.061
REMARK  6 active torsions:
REMARK  status: ('A' for Active; 'I' for Inactive)
REMARK    1  A    between atoms: C2_2  and  N3_3 
REMARK       I    between atoms: N6_6  and  C7_7 
REMARK       I    between atoms: C7_7  and  N9_9 
REMARK    2  A    between atoms: N9_9  and  C10_10 
REMARK    3  A    between atoms: C10_10  and  C12_11 
REMARK    4  A    between atoms: C10_10  and  C31_27 
REMARK       I    between atoms: C12_11  and  N14_13 
REMARK    5  A    between atoms: N14_13  and  C15_14 
REMARK    6  A    between atoms: C26_23  and  C28_24 
ROOT
ATOM      1  C10 ZIN A   1      18.699   3.259  13.619  0.00  0.00     0.211 C 
ENDROOT
BRANCH   1   2
ATOM      2  N9  ZIN A   1      17.833   4.277  14.221  0.00  0.00    -0.325 N 
ATOM      3  C7  ZIN A   1      18.351   5.178  15.079  0.00  0.00     0.326 C 
ATOM      4  N6  ZIN A   1      17.538   6.049  15.711  0.00  0.00    -0.260 N 
ATOM      5  O8  ZIN A   1      19.548   5.207  15.283  0.00  0.00    -0.247 OA
ATOM      6  C5  ZIN A   1      16.113   6.086  15.385  0.00  0.00     0.157 C 
ATOM      7  C37 ZIN A   1      18.042   6.885  16.641  0.00  0.00     0.319 C 
ATOM      8  C4  ZIN A   1      15.282   6.334  16.641  0.00  0.00     0.146 C 
ATOM      9  N3  ZIN A   1      15.781   7.506  17.362  0.00  0.00    -0.343 N 
ATOM     10  C39 ZIN A   1      17.106   7.751  17.422  0.00  0.00     0.312 C 
ATOM     11  O40 ZIN A   1      17.533   8.657  18.107  0.00  0.00    -0.262 OA
ATOM     12  O38 ZIN A   1      19.238   6.936  16.839  0.00  0.00    -0.262 OA
ATOM     13  H50 ZIN A   1      16.890   4.302  14.001  0.00  0.00     0.165 HD
BRANCH   9  14
ATOM     14  C2  ZIN A   1      14.839   8.417  18.016  0.00  0.00     0.122 C 
ATOM     15  C1  ZIN A   1      14.218   9.345  16.969  0.00  0.00     0.026 C 
ENDBRANCH   9  14
ENDBRANCH   1   2
BRANCH   1  16
ATOM     16  C12 ZIN A   1      18.256   1.892  14.075  0.00  0.00     0.245 C 
ATOM     17  O13 ZIN A   1      18.099   1.668  15.255  0.00  0.00    -0.271 OA
ATOM     18  N14 ZIN A   1      18.034   0.919  13.168  0.00  0.00    -0.344 N 
ATOM     19  H51 ZIN A   1      18.159   1.099  12.223  0.00  0.00     0.163 HD
BRANCH  18  20
ATOM     20  C15 ZIN A   1      17.603  -0.409  13.610  0.00  0.00     0.199 C 
ATOM     21  C20 ZIN A   1      17.123  -1.312  12.470  0.00  0.00     0.160 C 
ATOM     22  N19 ZIN A   1      18.367  -2.090  12.668  0.00  0.00    -0.219 NA
ATOM     23  S22 ZIN A   1      17.275  -0.586  10.796  0.00  0.00    -0.135 SA
ATOM     24  C17 ZIN A   1      18.741  -1.393  13.783  0.00  0.00     0.227 C 
ATOM     25  C26 ZIN A   1      19.298  -2.059  11.535  0.00  0.00     0.186 C 
ATOM     26  O18 ZIN A   1      19.636  -1.515  14.593  0.00  0.00    -0.277 OA
ATOM     27  C23 ZIN A   1      18.512  -1.819  10.208  0.00  0.00     0.029 C 
ATOM     28  C24 ZIN A   1      17.831  -3.097   9.712  0.00  0.00     0.029 C 
ATOM     29  C25 ZIN A   1      19.421  -1.225   9.131  0.00  0.00     0.029 C 
BRANCH  25  30
ATOM     30  C28 ZIN A   1      20.014  -3.382  11.457  0.00  0.00     0.193 C 
ATOM     31  O29 ZIN A   1      19.424  -4.413  11.733  0.00  0.00    -0.647 OA
ATOM     32  O30 ZIN A   1      21.184  -3.422  11.115  0.00  0.00    -0.647 OA
ENDBRANCH  25  30
ENDBRANCH  18  20
ENDBRANCH   1  16
BRANCH   1  33
ATOM     33  C31 ZIN A   1      18.607   3.343  12.117  0.00  0.00    -0.026 A 
ATOM     34  C36 ZIN A   1      19.432   2.564  11.330  0.00  0.00     0.010 A 
ATOM     35  C35 ZIN A   1      19.345   2.638   9.952  0.00  0.00     0.001 A 
ATOM     36  C34 ZIN A   1      18.437   3.499   9.363  0.00  0.00     0.000 A 
ATOM     37  C33 ZIN A   1      17.616   4.283  10.151  0.00  0.00     0.001 A 
ATOM     38  C32 ZIN A   1      17.700   4.205  11.529  0.00  0.00     0.010 A 
ENDBRANCH   1  33
TORSDOF 6
ENDMDL
MODEL 6
REMARK VINA RESULT:      -7.8      2.914      9.976
REMARK  6 active torsions:
REMARK  status: ('A' for Active; 'I' for Inactive)
REMARK    1  A    between atoms: C2_2  and  N3_3 
REMARK       I    between atoms: N6_6  and  C7_7 
REMARK       I    between atoms: C7_7  and  N9_9 
REMARK    2  A    between atoms: N9_9  and  C10_10 
REMARK    3  A    between atoms: C10_10  and  C12_11 
REMARK    4  A    between atoms: C10_10  and  C31_27 
REMARK       I    between atoms: C12_11  and  N14_13 
REMARK    5  A    between atoms: N14_13  and  C15_14 
REMARK    6  A    between atoms: C26_23  and  C28_24 
ROOT
ATOM      1  C10 ZIN A   1      19.220   1.096  10.495  0.00  0.00     0.211 C 
ENDROOT
BRANCH   1   2
ATOM      2  N9  ZIN A   1      18.540   2.215  11.152  0.00  0.00    -0.325 N 
ATOM      3  C7  ZIN A   1      19.259   3.156  11.795  0.00  0.00     0.326 C 
ATOM      4  N6  ZIN A   1      18.630   4.129  12.486  0.00  0.00    -0.260 N 
ATOM      5  O8  ZIN A   1      20.473   3.130  11.751  0.00  0.00    -0.247 OA
ATOM      6  C5  ZIN A   1      17.171   4.224  12.449  0.00  0.00     0.157 C 
ATOM      7  C37 ZIN A   1      19.348   5.012  13.208  0.00  0.00     0.319 C 
ATOM      8  C4  ZIN A   1      16.627   4.634  13.815  0.00  0.00     0.146 C 
ATOM      9  N3  ZIN A   1      17.311   5.832  14.300  0.00  0.00    -0.343 N 
ATOM     10  C39 ZIN A   1      18.629   6.001  14.070  0.00  0.00     0.312 C 
ATOM     11  O40 ZIN A   1      19.225   6.936  14.561  0.00  0.00    -0.262 OA
ATOM     12  O38 ZIN A   1      20.561   5.007  13.157  0.00  0.00    -0.262 OA
ATOM     13  H50 ZIN A   1      17.573   2.278  11.124  0.00  0.00     0.165 HD
BRANCH   9  14
ATOM     14  C2  ZIN A   1      16.562   6.855  15.035  0.00  0.00     0.122 C 
ATOM     15  C1  ZIN A   1      15.145   6.348  15.310  0.00  0.00     0.026 C 
ENDBRANCH   9  14
ENDBRANCH   1   2
BRANCH   1  16
ATOM     16  C12 ZIN A   1      18.811  -0.196  11.154  0.00  0.00     0.245 C 
ATOM     17  O13 ZIN A   1      18.056  -0.181  12.103  0.00  0.00    -0.271 OA
ATOM     18  N14 ZIN A   1      19.284  -1.370  10.687  0.00  0.00    -0.344 N 
ATOM     19  H51 ZIN A   1      19.887  -1.382   9.928  0.00  0.00     0.163 HD
BRANCH  18  20
ATOM     20  C15 ZIN A   1      18.886  -2.626  11.328  0.00  0.00     0.199 C 
ATOM     21  C20 ZIN A   1      18.025  -3.525  10.435  0.00  0.00     0.160 C 
ATOM     22  N19 ZIN A   1      19.202  -4.417  10.332  0.00  0.00    -0.219 NA
ATOM     23  S22 ZIN A   1      17.753  -2.894   8.738  0.00  0.00    -0.135 SA
ATOM     24  C17 ZIN A   1      19.937  -3.712  11.245  0.00  0.00     0.227 C 
ATOM     25  C26 ZIN A   1      19.769  -4.532   8.985  0.00  0.00     0.186 C 
ATOM     26  O18 ZIN A   1      21.012  -3.888  11.779  0.00  0.00    -0.277 OA
ATOM     27  C23 ZIN A   1      18.661  -4.272   7.918  0.00  0.00     0.029 C 
ATOM     28  C24 ZIN A   1      17.760  -5.495   7.726  0.00  0.00     0.029 C 
ATOM     29  C25 ZIN A   1      19.271  -3.823   6.590  0.00  0.00     0.029 C 
BRANCH  25  30
ATOM     30  C28 ZIN A   1      20.318  -5.923   8.805  0.00  0.00     0.193 C 
ATOM     31  O29 ZIN A   1      19.699  -6.883   9.233  0.00  0.00    -0.647 OA
ATOM     32  O30 ZIN A   1      21.380  -6.090   8.230  0.00  0.00    -0.647 OA
ENDBRANCH  25  30
ENDBRANCH  18  20
ENDBRANCH   1  16
BRANCH   1  33
ATOM     33  C31 ZIN A   1      18.839   1.060   9.038  0.00  0.00    -0.026 A 
ATOM     34  C36 ZIN A   1      19.600   1.741   8.108  0.00  0.00     0.010 A 
ATOM     35  C35 ZIN A   1      19.253   1.705   6.770  0.00  0.00     0.001 A 
ATOM     36  C34 ZIN A   1      18.138   0.995   6.365  0.00  0.00     0.000 A 
ATOM     37  C33 ZIN A   1      17.373   0.319   7.296  0.00  0.00     0.001 A 
ATOM     38  C32 ZIN A   1      17.723   0.351   8.634  0.00  0.00     0.010 A 
ENDBRANCH   1  33
TORSDOF 6
ENDMDL
MODEL 7
REMARK VINA RESULT:      -7.8      3.628      6.180
REMARK  6 active torsions:
REMARK  status: ('A' for Active; 'I' for Inactive)
REMARK    1  A    between atoms: C2_2  and  N3_3 
REMARK       I    between atoms: N6_6  and  C7_7 
REMARK       I    between atoms: C7_7  and  N9_9 
REMARK    2  A    between atoms: N9_9  and  C10_10 
REMARK    3  A    between atoms: C10_10  and  C12_11 
REMARK    4  A    between atoms: C10_10  and  C31_27 
REMARK       I    between atoms: C12_11  and  N14_13 
REMARK    5  A    between atoms: N14_13  and  C15_14 
REMARK    6  A    between atoms: C26_23  and  C28_24 
ROOT
ATOM      1  C10 ZIN A   1      18.281  -4.117   7.822  0.00  0.00     0.211 C 
ENDROOT
BRANCH   1   2
ATOM      2  N9  ZIN A   1      17.263  -4.731   6.966  0.00  0.00    -0.325 N 
ATOM      3  C7  ZIN A   1      17.611  -5.700   6.096  0.00  0.00     0.326 C 
ATOM      4  N6  ZIN A   1      16.696  -6.193   5.237  0.00  0.00    -0.260 N 
ATOM      5  O8  ZIN A   1      18.748  -6.129   6.085  0.00  0.00    -0.247 OA
ATOM      6  C5  ZIN A   1      15.303  -5.754   5.322  0.00  0.00     0.157 C 
ATOM      7  C37 ZIN A   1      17.067  -7.091   4.302  0.00  0.00     0.319 C 
ATOM      8  C4  ZIN A   1      14.698  -5.619   3.928  0.00  0.00     0.146 C 
ATOM      9  N3  ZIN A   1      14.914  -6.842   3.155  0.00  0.00    -0.343 N 
ATOM     10  C39 ZIN A   1      16.068  -7.528   3.278  0.00  0.00     0.312 C 
ATOM     11  O40 ZIN A   1      16.298  -8.480   2.562  0.00  0.00    -0.262 OA
ATOM     12  O38 ZIN A   1      18.194  -7.541   4.295  0.00  0.00    -0.262 OA
ATOM     13  H50 ZIN A   1      16.340  -4.441   7.026  0.00  0.00     0.165 HD
BRANCH   9  14
ATOM     14  C2  ZIN A   1      13.870  -7.327   2.248  0.00  0.00     0.122 C 
ATOM     15  C1  ZIN A   1      13.080  -6.137   1.697  0.00  0.00     0.026 C 
ENDBRANCH   9  14
ENDBRANCH   1   2
BRANCH   1  16
ATOM     16  C12 ZIN A   1      18.143  -2.617   7.768  0.00  0.00     0.245 C 
ATOM     17  O13 ZIN A   1      18.339  -2.027   6.728  0.00  0.00    -0.271 OA
ATOM     18  N14 ZIN A   1      17.801  -1.932   8.878  0.00  0.00    -0.344 N 
ATOM     19  H51 ZIN A   1      17.644  -2.404   9.711  0.00  0.00     0.163 HD
BRANCH  18  20
ATOM     20  C15 ZIN A   1      17.666  -0.474   8.826  0.00  0.00     0.199 C 
ATOM     21  C20 ZIN A   1      17.227   0.152  10.153  0.00  0.00     0.160 C 
ATOM     22  N19 ZIN A   1      18.604   0.684  10.267  0.00  0.00    -0.219 NA
ATOM     23  S22 ZIN A   1      17.056  -1.029  11.543  0.00  0.00    -0.135 SA
ATOM     24  C17 ZIN A   1      18.973   0.267   9.018  0.00  0.00     0.227 C 
ATOM     25  C26 ZIN A   1      19.379   0.149  11.390  0.00  0.00     0.186 C 
ATOM     26  O18 ZIN A   1      19.961   0.426   8.333  0.00  0.00    -0.277 OA
ATOM     27  C23 ZIN A   1      18.417  -0.288  12.539  0.00  0.00     0.029 C 
ATOM     28  C24 ZIN A   1      17.921   0.911  13.352  0.00  0.00     0.029 C 
ATOM     29  C25 ZIN A   1      19.077  -1.331  13.441  0.00  0.00     0.029 C 
BRANCH  25  30
ATOM     30  C28 ZIN A   1      20.305   1.223  11.898  0.00  0.00     0.193 C 
ATOM     31  O29 ZIN A   1      20.030   2.399  11.726  0.00  0.00    -0.647 OA
ATOM     32  O30 ZIN A   1      21.330   0.918  12.484  0.00  0.00    -0.647 OA
ENDBRANCH  25  30
ENDBRANCH  18  20
ENDBRANCH   1  16
BRANCH   1  33
ATOM     33  C31 ZIN A   1      18.097  -4.589   9.242  0.00  0.00    -0.026 A 
ATOM     34  C36 ZIN A   1      19.163  -4.567  10.120  0.00  0.00     0.010 A 
ATOM     35  C35 ZIN A   1      18.994  -4.996  11.424  0.00  0.00     0.001 A 
ATOM     36  C34 ZIN A   1      17.759  -5.454  11.844  0.00  0.00     0.000 A 
ATOM     37  C33 ZIN A   1      16.694  -5.481  10.963  0.00  0.00     0.001 A 
ATOM     38  C32 ZIN A   1      16.863  -5.048   9.661  0.00  0.00     0.010 A 
ENDBRANCH   1  33
TORSDOF 6
ENDMDL
MODEL 8
REMARK VINA RESULT:      -7.5      3.233      4.947
REMARK  6 active torsions:
REMARK  status: ('A' for Active; 'I' for Inactive)
REMARK    1  A    between atoms: C2_2  and  N3_3 
REMARK       I    between atoms: N6_6  and  C7_7 
REMARK       I    between atoms: C7_7  and  N9_9 
REMARK    2  A    between atoms: N9_9  and  C10_10 
REMARK    3  A    between atoms: C10_10  and  C12_11 
REMARK    4  A    between atoms: C10_10  and  C31_27 
REMARK       I    between atoms: C12_11  and  N14_13 
REMARK    5  A    between atoms: N14_13  and  C15_14 
REMARK    6  A    between atoms: C26_23  and  C28_24 
ROOT
ATOM      1  C10 ZIN A   1      17.947   1.253  13.751  0.00  0.00     0.211 C 
ENDROOT
BRANCH   1   2
ATOM      2  N9  ZIN A   1      18.524   0.154  12.974  0.00  0.00    -0.325 N 
ATOM      3  C7  ZIN A   1      18.058  -0.114  11.738  0.00  0.00     0.326 C 
ATOM      4  N6  ZIN A   1      18.516  -1.188  11.063  0.00  0.00    -0.260 N 
ATOM      5  O8  ZIN A   1      17.225   0.612  11.231  0.00  0.00    -0.247 OA
ATOM      6  C5  ZIN A   1      19.595  -1.999  11.628  0.00  0.00     0.157 C 
ATOM      7  C37 ZIN A   1      17.980  -1.511   9.870  0.00  0.00     0.319 C 
ATOM      8  C4  ZIN A   1      19.366  -3.478  11.329  0.00  0.00     0.146 C 
ATOM      9  N3  ZIN A   1      19.124  -3.680   9.900  0.00  0.00    -0.343 N 
ATOM     10  C39 ZIN A   1      18.410  -2.777   9.199  0.00  0.00     0.312 C 
ATOM     11  O40 ZIN A   1      18.114  -2.992   8.042  0.00  0.00    -0.262 OA
ATOM     12  O38 ZIN A   1      17.162  -0.784   9.345  0.00  0.00    -0.262 OA
ATOM     13  H50 ZIN A   1      19.241  -0.380  13.348  0.00  0.00     0.165 HD
BRANCH   9  14
ATOM     14  C2  ZIN A   1      19.663  -4.866   9.229  0.00  0.00     0.122 C 
ATOM     15  C1  ZIN A   1      18.674  -6.025   9.368  0.00  0.00     0.026 C 
ENDBRANCH   9  14
ENDBRANCH   1   2
BRANCH   1  16
ATOM     16  C12 ZIN A   1      18.537   1.251  15.138  0.00  0.00     0.245 C 
ATOM     17  O13 ZIN A   1      19.264   0.346  15.486  0.00  0.00    -0.271 OA
ATOM     18  N14 ZIN A   1      18.256   2.257  15.991  0.00  0.00    -0.344 N 
ATOM     19  H51 ZIN A   1      17.675   2.982  15.712  0.00  0.00     0.163 HD
BRANCH  18  20
ATOM     20  C15 ZIN A   1      18.831   2.255  17.339  0.00  0.00     0.199 C 
ATOM     21  C20 ZIN A   1      18.983   3.653  17.945  0.00  0.00     0.160 C 
ATOM     22  N19 ZIN A   1      17.869   3.295  18.853  0.00  0.00    -0.219 NA
ATOM     23  S22 ZIN A   1      18.335   5.017  16.909  0.00  0.00    -0.135 SA
ATOM     24  C17 ZIN A   1      17.817   1.995  18.433  0.00  0.00     0.227 C 
ATOM     25  C26 ZIN A   1      16.651   4.090  18.673  0.00  0.00     0.186 C 
ATOM     26  O18 ZIN A   1      17.198   1.016  18.795  0.00  0.00    -0.277 OA
ATOM     27  C23 ZIN A   1      17.013   5.496  18.099  0.00  0.00     0.029 C 
ATOM     28  C24 ZIN A   1      17.554   6.430  19.185  0.00  0.00     0.029 C 
ATOM     29  C25 ZIN A   1      15.816   6.121  17.380  0.00  0.00     0.029 C 
BRANCH  25  30
ATOM     30  C28 ZIN A   1      15.976   4.256  20.009  0.00  0.00     0.193 C 
ATOM     31  O29 ZIN A   1      14.814   4.619  20.066  0.00  0.00    -0.647 OA
ATOM     32  O30 ZIN A   1      16.593   4.027  21.036  0.00  0.00    -0.647 OA
ENDBRANCH  25  30
ENDBRANCH  18  20
ENDBRANCH   1  16
BRANCH   1  33
ATOM     33  C31 ZIN A   1      18.256   2.565  13.075  0.00  0.00    -0.026 A 
ATOM     34  C36 ZIN A   1      17.265   3.516  12.927  0.00  0.00     0.010 A 
ATOM     35  C35 ZIN A   1      17.549   4.720  12.310  0.00  0.00     0.001 A 
ATOM     36  C34 ZIN A   1      18.824   4.968  11.834  0.00  0.00     0.000 A 
ATOM     37  C33 ZIN A   1      19.813   4.014  11.977  0.00  0.00     0.001 A 
ATOM     38  C32 ZIN A   1      19.530   2.811  12.597  0.00  0.00     0.010 A 
ENDBRANCH   1  33
TORSDOF 6
ENDMDL
MODEL 9
REMARK VINA RESULT:      -7.4      2.779      9.190
REMARK  6 active torsions:
REMARK  status: ('A' for Active; 'I' for Inactive)
REMARK    1  A    between atoms: C2_2  and  N3_3 
REMARK       I    between atoms: N6_6  and  C7_7 
REMARK       I    between atoms: C7_7  and  N9_9 
REMARK    2  A    between atoms: N9_9  and  C10_10 
REMARK    3  A    between atoms: C10_10  and  C12_11 
REMARK    4  A    between atoms: C10_10  and  C31_27 
REMARK       I    between atoms: C12_11  and  N14_13 
REMARK    5  A    between atoms: N14_13  and  C15_14 
REMARK    6  A    between atoms: C26_23  and  C28_24 
ROOT
ATOM      1  C10 ZIN A   1      17.847   1.322  14.652  0.00  0.00     0.211 C 
ENDROOT
BRANCH   1   2
ATOM      2  N9  ZIN A   1      17.759   2.719  15.085  0.00  0.00    -0.325 N 
ATOM      3  C7  ZIN A   1      17.377   3.672  14.212  0.00  0.00     0.326 C 
ATOM      4  N6  ZIN A   1      17.395   4.969  14.580  0.00  0.00    -0.260 N 
ATOM      5  O8  ZIN A   1      17.015   3.363  13.093  0.00  0.00    -0.247 OA
ATOM      6  C5  ZIN A   1      17.727   5.332  15.957  0.00  0.00     0.157 C 
ATOM      7  C37 ZIN A   1      17.106   5.928  13.677  0.00  0.00     0.319 C 
ATOM      8  C4  ZIN A   1      18.560   6.611  15.988  0.00  0.00     0.146 C 
ATOM      9  N3  ZIN A   1      17.908   7.666  15.211  0.00  0.00    -0.343 N 
ATOM     10  C39 ZIN A   1      17.258   7.364  14.069  0.00  0.00     0.312 C 
ATOM     11  O40 ZIN A   1      16.811   8.244  13.365  0.00  0.00    -0.262 OA
ATOM     12  O38 ZIN A   1      16.726   5.630  12.564  0.00  0.00    -0.262 OA
ATOM     13  H50 ZIN A   1      17.976   2.957  15.999  0.00  0.00     0.165 HD
BRANCH   9  14
ATOM     14  C2  ZIN A   1      17.958   9.053  15.678  0.00  0.00     0.122 C 
ATOM     15  C1  ZIN A   1      17.055   9.212  16.903  0.00  0.00     0.026 C 
ENDBRANCH   9  14
ENDBRANCH   1   2
BRANCH   1  16
ATOM     16  C12 ZIN A   1      18.803   1.216  13.492  0.00  0.00     0.245 C 
ATOM     17  O13 ZIN A   1      19.924   1.668  13.586  0.00  0.00    -0.271 OA
ATOM     18  N14 ZIN A   1      18.411   0.617  12.349  0.00  0.00    -0.344 N 
ATOM     19  H51 ZIN A   1      17.515   0.254  12.273  0.00  0.00     0.163 HD
BRANCH  18  20
ATOM     20  C15 ZIN A   1      19.342   0.513  11.222  0.00  0.00     0.199 C 
ATOM     21  C20 ZIN A   1      20.083  -0.826  11.157  0.00  0.00     0.160 C 
ATOM     22  N19 ZIN A   1      19.247  -1.143   9.978  0.00  0.00    -0.219 NA
ATOM     23  S22 ZIN A   1      19.590  -2.043  12.434  0.00  0.00    -0.135 SA
ATOM     24  C17 ZIN A   1      18.681   0.101   9.923  0.00  0.00     0.227 C 
ATOM     25  C26 ZIN A   1      18.329  -2.272  10.162  0.00  0.00     0.186 C 
ATOM     26  O18 ZIN A   1      17.940   0.656   9.140  0.00  0.00    -0.277 OA
ATOM     27  C23 ZIN A   1      18.902  -3.255  11.229  0.00  0.00     0.029 C 
ATOM     28  C24 ZIN A   1      20.002  -4.146  10.648  0.00  0.00     0.029 C 
ATOM     29  C25 ZIN A   1      17.788  -4.093  11.858  0.00  0.00     0.029 C 
BRANCH  25  30
ATOM     30  C28 ZIN A   1      18.177  -2.995   8.849  0.00  0.00     0.193 C 
ATOM     31  O29 ZIN A   1      17.350  -3.883   8.733  0.00  0.00    -0.647 OA
ATOM     32  O30 ZIN A   1      18.882  -2.691   7.901  0.00  0.00    -0.647 OA
ENDBRANCH  25  30
ENDBRANCH  18  20
ENDBRANCH   1  16
BRANCH   1  33
ATOM     33  C31 ZIN A   1      18.343   0.472  15.793  0.00  0.00    -0.026 A 
ATOM     34  C36 ZIN A   1      18.801   1.069  16.951  0.00  0.00     0.010 A 
ATOM     35  C35 ZIN A   1      19.252   0.288  18.000  0.00  0.00     0.001 A 
ATOM     36  C34 ZIN A   1      19.252  -1.090  17.884  0.00  0.00     0.000 A 
ATOM     37  C33 ZIN A   1      18.799  -1.686  16.723  0.00  0.00     0.001 A 
ATOM     38  C32 ZIN A   1      18.344  -0.906  15.676  0.00  0.00     0.010 A 
ENDBRANCH   1  33
TORSDOF 6
ENDMDL
