MODEL 1
REMARK VINA RESULT:      -8.3      0.000      0.000
REMARK  4 active torsions:
REMARK  status: ('A' for Active; 'I' for Inactive)
REMARK    1  A    between atoms: C5_5  and  C6_6 
REMARK    2  A    between atoms: C14_13  and  C16_14 
REMARK    3  A    between atoms: C16_14  and  O17_15 
REMARK    4  A    between atoms: O17_15  and  C18_16 
ROOT
ATOM      1  C6  ZIN A   1      18.748   1.304   9.435  0.00  0.00     0.028 C 
ATOM      2  C8  ZIN A   1      19.135   1.830   8.050  0.00  0.00     0.037 C 
ATOM      3  C9  ZIN A   1      19.094   0.679   7.044  0.00  0.00     0.233 C 
ATOM      4  N10 ZIN A   1      17.740   0.115   6.994  0.00  0.00    -0.075 N 
ATOM      5  H11 ZIN A   1      17.083   0.843   6.758  0.00  0.00     0.277 HD
ATOM      6  H12 ZIN A   1      17.703  -0.610   6.292  0.00  0.00     0.277 HD
ATOM      7  C13 ZIN A   1      17.390  -0.456   8.300  0.00  0.00     0.239 C 
ATOM      8  C14 ZIN A   1      17.365   0.651   9.356  0.00  0.00     0.044 C 
ENDROOT
BRANCH   8   9
ATOM      9  C16 ZIN A   1      17.001   0.052  10.716  0.00  0.00     0.182 C 
BRANCH   9  10
ATOM     10  O17 ZIN A   1      18.049  -0.818  11.148  0.00  0.00    -0.351 OA
BRANCH  10  11
ATOM     11  C18 ZIN A   1      18.332  -0.831  12.478  0.00  0.00     0.071 A 
ATOM     12  C26 ZIN A   1      17.586  -0.055  13.353  0.00  0.00     0.076 A 
ATOM     13  C25 ZIN A   1      17.871  -0.071  14.708  0.00  0.00     0.107 A 
ATOM     14  C21 ZIN A   1      18.914  -0.859  15.189  0.00  0.00     0.105 A 
ATOM     15  O24 ZIN A   1      17.297   0.583  15.761  0.00  0.00    -0.323 OA
ATOM     16  C20 ZIN A   1      19.659  -1.629  14.311  0.00  0.00     0.042 A 
ATOM     17  O22 ZIN A   1      18.993  -0.699  16.543  0.00  0.00    -0.323 OA
ATOM     18  C19 ZIN A   1      19.370  -1.614  12.960  0.00  0.00     0.039 A 
ATOM     19  C23 ZIN A   1      18.256   0.504  16.831  0.00  0.00     0.352 C 
ENDBRANCH  10  11
ENDBRANCH   9  10
ENDBRANCH   8   9
BRANCH   1  20
ATOM     20  C5  ZIN A   1      18.710   2.447  10.417  0.00  0.00    -0.053 A 
ATOM     21  C4  ZIN A   1      17.754   3.438  10.287  0.00  0.00     0.010 A 
ATOM     22  C3  ZIN A   1      17.719   4.486  11.187  0.00  0.00     0.043 A 
ATOM     23  C2  ZIN A   1      18.640   4.543  12.219  0.00  0.00     0.116 A 
ATOM     24  F1  ZIN A   1      18.606   5.568  13.099  0.00  0.00    -0.206 F 
ATOM     25  C28 ZIN A   1      19.600   3.554  12.344  0.00  0.00     0.043 A 
ATOM     26  C27 ZIN A   1      19.631   2.504  11.446  0.00  0.00     0.010 A 
ENDBRANCH   1  20
TORSDOF 4
ENDMDL
MODEL 2
REMARK VINA RESULT:      -8.3      3.601      5.632
REMARK  4 active torsions:
REMARK  status: ('A' for Active; 'I' for Inactive)
REMARK    1  A    between atoms: C5_5  and  C6_6 
REMARK    2  A    between atoms: C14_13  and  C16_14 
REMARK    3  A    between atoms: C16_14  and  O17_15 
REMARK    4  A    between atoms: O17_15  and  C18_16 
ROOT
ATOM      1  C6  ZIN A   1      18.239   1.311  10.529  0.00  0.00     0.028 C 
ATOM      2  C8  ZIN A   1      17.814   2.761  10.781  0.00  0.00     0.037 C 
ATOM      3  C9  ZIN A   1      17.896   3.058  12.279  0.00  0.00     0.233 C 
ATOM      4  N10 ZIN A   1      19.274   2.862  12.745  0.00  0.00    -0.075 N 
ATOM      5  H11 ZIN A   1      19.895   3.451  12.211  0.00  0.00     0.277 HD
ATOM      6  H12 ZIN A   1      19.337   3.110  13.722  0.00  0.00     0.277 HD
ATOM      7  C13 ZIN A   1      19.664   1.458  12.573  0.00  0.00     0.239 C 
ATOM      8  C14 ZIN A   1      19.650   1.097  11.086  0.00  0.00     0.044 C 
ENDROOT
BRANCH   8   9
ATOM      9  C16 ZIN A   1      20.055  -0.368  10.912  0.00  0.00     0.182 C 
BRANCH   9  10
ATOM     10  O17 ZIN A   1      19.153  -1.201  11.644  0.00  0.00    -0.351 OA
BRANCH  10  11
ATOM     11  C18 ZIN A   1      18.972  -2.468  11.184  0.00  0.00     0.071 A 
ATOM     12  C26 ZIN A   1      17.793  -2.809  10.539  0.00  0.00     0.076 A 
ATOM     13  C25 ZIN A   1      17.611  -4.098  10.066  0.00  0.00     0.107 A 
ATOM     14  C21 ZIN A   1      18.609  -5.052  10.250  0.00  0.00     0.105 A 
ATOM     15  O24 ZIN A   1      16.567  -4.680   9.406  0.00  0.00    -0.323 OA
ATOM     16  C20 ZIN A   1      19.783  -4.708  10.899  0.00  0.00     0.042 A 
ATOM     17  O22 ZIN A   1      18.190  -6.232   9.704  0.00  0.00    -0.323 OA
ATOM     18  C19 ZIN A   1      19.964  -3.420  11.366  0.00  0.00     0.039 A 
ATOM     19  C23 ZIN A   1      16.765  -6.099   9.549  0.00  0.00     0.352 C 
ENDBRANCH  10  11
ENDBRANCH   9  10
ENDBRANCH   8   9
BRANCH   1  20
ATOM     20  C5  ZIN A   1      18.235   1.034   9.048  0.00  0.00    -0.053 A 
ATOM     21  C4  ZIN A   1      19.083   1.737   8.211  0.00  0.00     0.010 A 
ATOM     22  C3  ZIN A   1      19.080   1.482   6.852  0.00  0.00     0.043 A 
ATOM     23  C2  ZIN A   1      18.229   0.523   6.330  0.00  0.00     0.116 A 
ATOM     24  F1  ZIN A   1      18.226   0.275   5.002  0.00  0.00    -0.206 F 
ATOM     25  C28 ZIN A   1      17.377  -0.176   7.168  0.00  0.00     0.043 A 
ATOM     26  C27 ZIN A   1      17.385   0.076   8.527  0.00  0.00     0.010 A 
ENDBRANCH   1  20
TORSDOF 4
ENDMDL
MODEL 3
REMARK VINA RESULT:      -8.3      3.906      7.556
REMARK  4 active torsions:
REMARK  status: ('A' for Active; 'I' for Inactive)
REMARK    1  A    between atoms: C5_5  and  C6_6 
REMARK    2  A    between atoms: C14_13  and  C16_14 
REMARK    3  A    between atoms: C16_14  and  O17_15 
REMARK    4  A    between atoms: O17_15  and  C18_16 
ROOT
ATOM      1  C6  ZIN A   1      19.287  -1.193  13.151  0.00  0.00     0.028 C 
ATOM      2  C8  ZIN A   1      18.508  -1.279  14.467  0.00  0.00     0.037 C 
ATOM      3  C9  ZIN A   1      18.756  -0.011  15.284  0.00  0.00     0.233 C 
ATOM      4  N10 ZIN A   1      18.308   1.162  14.524  0.00  0.00    -0.075 N 
ATOM      5  H11 ZIN A   1      17.333   1.054  14.285  0.00  0.00     0.277 HD
ATOM      6  H12 ZIN A   1      18.424   1.992  15.087  0.00  0.00     0.277 HD
ATOM      7  C13 ZIN A   1      19.100   1.292  13.295  0.00  0.00     0.239 C 
ATOM      8  C14 ZIN A   1      18.866   0.074  12.400  0.00  0.00     0.044 C 
ENDROOT
BRANCH   8   9
ATOM      9  C16 ZIN A   1      19.695   0.212  11.121  0.00  0.00     0.182 C 
BRANCH   9  10
ATOM     10  O17 ZIN A   1      18.849   0.638  10.050  0.00  0.00    -0.351 OA
BRANCH  10  11
ATOM     11  C18 ZIN A   1      18.988  -0.007   8.861  0.00  0.00     0.071 A 
ATOM     12  C26 ZIN A   1      18.965   0.713   7.676  0.00  0.00     0.076 A 
ATOM     13  C25 ZIN A   1      19.111   0.057   6.465  0.00  0.00     0.107 A 
ATOM     14  C21 ZIN A   1      19.271  -1.326   6.440  0.00  0.00     0.105 A 
ATOM     15  O24 ZIN A   1      19.130   0.522   5.181  0.00  0.00    -0.323 OA
ATOM     16  C20 ZIN A   1      19.288  -2.041   7.625  0.00  0.00     0.042 A 
ATOM     17  O22 ZIN A   1      19.388  -1.728   5.139  0.00  0.00    -0.323 OA
ATOM     18  C19 ZIN A   1      19.146  -1.384   8.833  0.00  0.00     0.039 A 
ATOM     19  C23 ZIN A   1      18.891  -0.630   4.352  0.00  0.00     0.352 C 
ENDBRANCH  10  11
ENDBRANCH   9  10
ENDBRANCH   8   9
BRANCH   1  20
ATOM     20  C5  ZIN A   1      18.986  -2.404  12.306  0.00  0.00    -0.053 A 
ATOM     21  C4  ZIN A   1      17.683  -2.680  11.934  0.00  0.00     0.010 A 
ATOM     22  C3  ZIN A   1      17.407  -3.790  11.158  0.00  0.00     0.043 A 
ATOM     23  C2  ZIN A   1      18.435  -4.625  10.753  0.00  0.00     0.116 A 
ATOM     24  F1  ZIN A   1      18.165  -5.710   9.995  0.00  0.00    -0.206 F 
ATOM     25  C28 ZIN A   1      19.738  -4.350  11.131  0.00  0.00     0.043 A 
ATOM     26  C27 ZIN A   1      20.013  -3.236  11.902  0.00  0.00     0.010 A 
ENDBRANCH   1  20
TORSDOF 4
ENDMDL
MODEL 4
REMARK VINA RESULT:      -8.2      3.432      6.942
REMARK  4 active torsions:
REMARK  status: ('A' for Active; 'I' for Inactive)
REMARK    1  A    between atoms: C5_5  and  C6_6 
REMARK    2  A    between atoms: C14_13  and  C16_14 
REMARK    3  A    between atoms: C16_14  and  O17_15 
REMARK    4  A    between atoms: O17_15  and  C18_16 
ROOT
ATOM      1  C6  ZIN A   1      18.806  -0.425  13.876  0.00  0.00     0.028 C 
ATOM      2  C8  ZIN A   1      18.440  -1.271  15.098  0.00  0.00     0.037 C 
ATOM      3  C9  ZIN A   1      18.423  -0.380  16.342  0.00  0.00     0.233 C 
ATOM      4  N10 ZIN A   1      17.432   0.688  16.169  0.00  0.00    -0.075 N 
ATOM      5  H11 ZIN A   1      16.527   0.280  15.988  0.00  0.00     0.277 HD
ATOM      6  H12 ZIN A   1      17.385   1.243  17.012  0.00  0.00     0.277 HD
ATOM      7  C13 ZIN A   1      17.815   1.547  15.043  0.00  0.00     0.239 C 
ATOM      8  C14 ZIN A   1      17.810   0.732  13.748  0.00  0.00     0.044 C 
ENDROOT
BRANCH   8   9
ATOM      9  C16 ZIN A   1      18.211   1.629  12.576  0.00  0.00     0.182 C 
BRANCH   9  10
ATOM     10  O17 ZIN A   1      17.260   1.486  11.519  0.00  0.00    -0.351 OA
BRANCH  10  11
ATOM     11  C18 ZIN A   1      17.754   1.343  10.260  0.00  0.00     0.071 A 
ATOM     12  C26 ZIN A   1      17.260   0.347   9.431  0.00  0.00     0.076 A 
ATOM     13  C25 ZIN A   1      17.760   0.205   8.147  0.00  0.00     0.107 A 
ATOM     14  C21 ZIN A   1      18.766   1.056   7.695  0.00  0.00     0.105 A 
ATOM     15  O24 ZIN A   1      17.449  -0.672   7.148  0.00  0.00    -0.323 OA
ATOM     16  C20 ZIN A   1      19.259   2.045   8.528  0.00  0.00     0.042 A 
ATOM     17  O22 ZIN A   1      19.085   0.711   6.413  0.00  0.00    -0.323 OA
ATOM     18  C19 ZIN A   1      18.756   2.188   9.808  0.00  0.00     0.039 A 
ATOM     19  C23 ZIN A   1      18.555  -0.615   6.228  0.00  0.00     0.352 C 
ENDBRANCH  10  11
ENDBRANCH   9  10
ENDBRANCH   8   9
BRANCH   1  20
ATOM     20  C5  ZIN A   1      18.749  -1.279  12.635  0.00  0.00    -0.053 A 
ATOM     21  C4  ZIN A   1      19.829  -1.319  11.773  0.00  0.00     0.010 A 
ATOM     22  C3  ZIN A   1      19.777  -2.103  10.636  0.00  0.00     0.043 A 
ATOM     23  C2  ZIN A   1      18.642  -2.847  10.360  0.00  0.00     0.116 A 
ATOM     24  F1  ZIN A   1      18.591  -3.612   9.247  0.00  0.00    -0.206 F 
ATOM     25  C28 ZIN A   1      17.559  -2.801  11.220  0.00  0.00     0.043 A 
ATOM     26  C27 ZIN A   1      17.615  -2.021  12.360  0.00  0.00     0.010 A 
ENDBRANCH   1  20
TORSDOF 4
ENDMDL
MODEL 5
REMARK VINA RESULT:      -8.2      2.981      5.532
REMARK  4 active torsions:
REMARK  status: ('A' for Active; 'I' for Inactive)
REMARK    1  A    between atoms: C5_5  and  C6_6 
REMARK    2  A    between atoms: C14_13  and  C16_14 
REMARK    3  A    between atoms: C16_14  and  O17_15 
REMARK    4  A    between atoms: O17_15  and  C18_16 
ROOT
ATOM      1  C6  ZIN A   1      18.458  -0.943  12.561  0.00  0.00     0.028 C 
ATOM      2  C8  ZIN A   1      18.205  -2.405  12.182  0.00  0.00     0.037 C 
ATOM      3  C9  ZIN A   1      18.361  -2.569  10.670  0.00  0.00     0.233 C 
ATOM      4  N10 ZIN A   1      19.721  -2.186  10.270  0.00  0.00    -0.075 N 
ATOM      5  H11 ZIN A   1      20.389  -2.745  10.779  0.00  0.00     0.277 HD
ATOM      6  H12 ZIN A   1      19.837  -2.345   9.280  0.00  0.00     0.277 HD
ATOM      7  C13 ZIN A   1      19.945  -0.766  10.564  0.00  0.00     0.239 C 
ATOM      8  C14 ZIN A   1      19.850  -0.531  12.073  0.00  0.00     0.044 C 
ENDROOT
BRANCH   8   9
ATOM      9  C16 ZIN A   1      20.083   0.951  12.375  0.00  0.00     0.182 C 
BRANCH   9  10
ATOM     10  O17 ZIN A   1      19.612   1.739  11.280  0.00  0.00    -0.351 OA
BRANCH  10  11
ATOM     11  C18 ZIN A   1      18.766   2.762  11.575  0.00  0.00     0.071 A 
ATOM     12  C26 ZIN A   1      18.604   3.170  12.891  0.00  0.00     0.076 A 
ATOM     13  C25 ZIN A   1      17.745   4.214  13.191  0.00  0.00     0.107 A 
ATOM     14  C21 ZIN A   1      17.037   4.845  12.171  0.00  0.00     0.105 A 
ATOM     15  O24 ZIN A   1      17.417   4.802  14.379  0.00  0.00    -0.323 OA
ATOM     16  C20 ZIN A   1      17.198   4.431  10.859  0.00  0.00     0.042 A 
ATOM     17  O22 ZIN A   1      16.264   5.828  12.720  0.00  0.00    -0.323 OA
ATOM     18  C19 ZIN A   1      18.058   3.391  10.562  0.00  0.00     0.039 A 
ATOM     19  C23 ZIN A   1      16.197   5.523  14.126  0.00  0.00     0.352 C 
ENDBRANCH  10  11
ENDBRANCH   9  10
ENDBRANCH   8   9
BRANCH   1  20
ATOM     20  C5  ZIN A   1      18.383  -0.788  14.058  0.00  0.00    -0.053 A 
ATOM     21  C4  ZIN A   1      19.199  -1.550  14.873  0.00  0.00     0.010 A 
ATOM     22  C3  ZIN A   1      19.131  -1.409  16.246  0.00  0.00     0.043 A 
ATOM     23  C2  ZIN A   1      18.245  -0.503  16.805  0.00  0.00     0.116 A 
ATOM     24  F1  ZIN A   1      18.178  -0.365  18.147  0.00  0.00    -0.206 F 
ATOM     25  C28 ZIN A   1      17.424   0.255  15.988  0.00  0.00     0.043 A 
ATOM     26  C27 ZIN A   1      17.498   0.116  14.615  0.00  0.00     0.010 A 
ENDBRANCH   1  20
TORSDOF 4
ENDMDL
MODEL 6
REMARK VINA RESULT:      -8.2      3.070      5.452
REMARK  4 active torsions:
REMARK  status: ('A' for Active; 'I' for Inactive)
REMARK    1  A    between atoms: C5_5  and  C6_6 
REMARK    2  A    between atoms: C14_13  and  C16_14 
REMARK    3  A    between atoms: C16_14  and  O17_15 
REMARK    4  A    between atoms: O17_15  and  C18_16 
ROOT
ATOM      1  C6  ZIN A   1      18.933   4.403  14.055  0.00  0.00     0.028 C 
ATOM      2  C8  ZIN A   1      20.032   5.470  14.082  0.00  0.00     0.037 C 
ATOM      3  C9  ZIN A   1      20.252   5.931  15.524  0.00  0.00     0.233 C 
ATOM      4  N10 ZIN A   1      20.657   4.787  16.351  0.00  0.00    -0.075 N 
ATOM      5  H11 ZIN A   1      21.487   4.369  15.960  0.00  0.00     0.277 HD
ATOM      6  H12 ZIN A   1      20.852   5.104  17.289  0.00  0.00     0.277 HD
ATOM      7  C13 ZIN A   1      19.579   3.792  16.388  0.00  0.00     0.239 C 
ATOM      8  C14 ZIN A   1      19.331   3.248  14.979  0.00  0.00     0.044 C 
ENDROOT
BRANCH   8   9
ATOM      9  C16 ZIN A   1      18.206   2.212  15.022  0.00  0.00     0.182 C 
BRANCH   9  10
ATOM     10  O17 ZIN A   1      18.766   0.899  14.971  0.00  0.00    -0.351 OA
BRANCH  10  11
ATOM     11  C18 ZIN A   1      18.409   0.116  13.918  0.00  0.00     0.071 A 
ATOM     12  C26 ZIN A   1      19.071  -1.081  13.688  0.00  0.00     0.076 A 
ATOM     13  C25 ZIN A   1      18.703  -1.881  12.618  0.00  0.00     0.107 A 
ATOM     14  C21 ZIN A   1      17.676  -1.475  11.770  0.00  0.00     0.105 A 
ATOM     15  O24 ZIN A   1      19.180  -3.084  12.183  0.00  0.00    -0.323 OA
ATOM     16  C20 ZIN A   1      17.021  -0.277  12.000  0.00  0.00     0.042 A 
ATOM     17  O22 ZIN A   1      17.510  -2.424  10.801  0.00  0.00    -0.323 OA
ATOM     18  C19 ZIN A   1      17.387   0.517  13.071  0.00  0.00     0.039 A 
ATOM     19  C23 ZIN A   1      18.715  -3.213  10.827  0.00  0.00     0.352 C 
ENDBRANCH  10  11
ENDBRANCH   9  10
ENDBRANCH   8   9
BRANCH   1  20
ATOM     20  C5  ZIN A   1      18.765   3.888  12.649  0.00  0.00    -0.053 A 
ATOM     21  C4  ZIN A   1      19.780   3.165  12.051  0.00  0.00     0.010 A 
ATOM     22  C3  ZIN A   1      19.626   2.691  10.762  0.00  0.00     0.043 A 
ATOM     23  C2  ZIN A   1      18.454   2.941  10.069  0.00  0.00     0.116 A 
ATOM     24  F1  ZIN A   1      18.303   2.479   8.808  0.00  0.00    -0.206 F 
ATOM     25  C28 ZIN A   1      17.440   3.670  10.666  0.00  0.00     0.043 A 
ATOM     26  C27 ZIN A   1      17.594   4.138  11.958  0.00  0.00     0.010 A 
ENDBRANCH   1  20
TORSDOF 4
ENDMDL
MODEL 7
REMARK VINA RESULT:      -8.1      1.006      1.557
REMARK  4 active torsions:
REMARK  status: ('A' for Active; 'I' for Inactive)
REMARK    1  A    between atoms: C5_5  and  C6_6 
REMARK    2  A    between atoms: C14_13  and  C16_14 
REMARK    3  A    between atoms: C16_14  and  O17_15 
REMARK    4  A    between atoms: O17_15  and  C18_16 
ROOT
ATOM      1  C6  ZIN A   1      19.398   1.551   9.281  0.00  0.00     0.028 C 
ATOM      2  C8  ZIN A   1      18.810   1.973   7.931  0.00  0.00     0.037 C 
ATOM      3  C9  ZIN A   1      19.131   0.904   6.884  0.00  0.00     0.233 C 
ATOM      4  N10 ZIN A   1      18.548  -0.379   7.295  0.00  0.00    -0.075 N 
ATOM      5  H11 ZIN A   1      17.554  -0.268   7.425  0.00  0.00     0.277 HD
ATOM      6  H12 ZIN A   1      18.717  -1.069   6.577  0.00  0.00     0.277 HD
ATOM      7  C13 ZIN A   1      19.160  -0.825   8.551  0.00  0.00     0.239 C 
ATOM      8  C14 ZIN A   1      18.841   0.176   9.664  0.00  0.00     0.044 C 
ENDROOT
BRANCH   8   9
ATOM      9  C16 ZIN A   1      19.481  -0.292  10.972  0.00  0.00     0.182 C 
BRANCH   9  10
ATOM     10  O17 ZIN A   1      18.483  -0.885  11.805  0.00  0.00    -0.351 OA
BRANCH  10  11
ATOM     11  C18 ZIN A   1      18.391  -0.425  13.081  0.00  0.00     0.071 A 
ATOM     12  C26 ZIN A   1      18.878  -1.190  14.130  0.00  0.00     0.076 A 
ATOM     13  C25 ZIN A   1      18.789  -0.720  15.430  0.00  0.00     0.107 A 
ATOM     14  C21 ZIN A   1      18.200   0.517  15.681  0.00  0.00     0.105 A 
ATOM     15  O24 ZIN A   1      19.188  -1.263  16.618  0.00  0.00    -0.323 OA
ATOM     16  C20 ZIN A   1      17.710   1.275  14.631  0.00  0.00     0.042 A 
ATOM     17  O22 ZIN A   1      18.229   0.749  17.027  0.00  0.00    -0.323 OA
ATOM     18  C19 ZIN A   1      17.804   0.806  13.335  0.00  0.00     0.039 A 
ATOM     19  C23 ZIN A   1      18.471  -0.535  17.632  0.00  0.00     0.352 C 
ENDBRANCH  10  11
ENDBRANCH   9  10
ENDBRANCH   8   9
BRANCH   1  20
ATOM     20  C5  ZIN A   1      19.019   2.559  10.334  0.00  0.00    -0.053 A 
ATOM     21  C4  ZIN A   1      17.717   3.019  10.414  0.00  0.00     0.010 A 
ATOM     22  C3  ZIN A   1      17.369   3.944  11.381  0.00  0.00     0.043 A 
ATOM     23  C2  ZIN A   1      18.324   4.409  12.269  0.00  0.00     0.116 A 
ATOM     24  F1  ZIN A   1      17.984   5.313  13.214  0.00  0.00    -0.206 F 
ATOM     25  C28 ZIN A   1      19.628   3.952  12.184  0.00  0.00     0.043 A 
ATOM     26  C27 ZIN A   1      19.973   3.023  11.221  0.00  0.00     0.010 A 
ENDBRANCH   1  20
TORSDOF 4
ENDMDL
MODEL 8
REMARK VINA RESULT:      -8.1      2.605      4.537
REMARK  4 active torsions:
REMARK  status: ('A' for Active; 'I' for Inactive)
REMARK    1  A    between atoms: C5_5  and  C6_6 
REMARK    2  A    between atoms: C14_13  and  C16_14 
REMARK    3  A    between atoms: C16_14  and  O17_15 
REMARK    4  A    between atoms: O17_15  and  C18_16 
ROOT
ATOM      1  C6  ZIN A   1      18.312  -1.211  10.408  0.00  0.00     0.028 C 
ATOM      2  C8  ZIN A   1      18.899  -2.622  10.504  0.00  0.00     0.037 C 
ATOM      3  C9  ZIN A   1      18.757  -3.321   9.151  0.00  0.00     0.233 C 
ATOM      4  N10 ZIN A   1      19.478  -2.558   8.125  0.00  0.00    -0.075 N 
ATOM      5  H11 ZIN A   1      20.444  -2.460   8.397  0.00  0.00     0.277 HD
ATOM      6  H12 ZIN A   1      19.427  -3.049   7.244  0.00  0.00     0.277 HD
ATOM      7  C13 ZIN A   1      18.874  -1.229   7.976  0.00  0.00     0.239 C 
ATOM      8  C14 ZIN A   1      19.019  -0.448   9.284  0.00  0.00     0.044 C 
ENDROOT
BRANCH   8   9
ATOM      9  C16 ZIN A   1      18.387   0.936   9.125  0.00  0.00     0.182 C 
BRANCH   9  10
ATOM     10  O17 ZIN A   1      19.350   1.939   9.457  0.00  0.00    -0.351 OA
BRANCH  10  11
ATOM     11  C18 ZIN A   1      19.018   2.810  10.447  0.00  0.00     0.071 A 
ATOM     12  C26 ZIN A   1      17.724   3.301  10.533  0.00  0.00     0.076 A 
ATOM     13  C25 ZIN A   1      17.384   4.185  11.544  0.00  0.00     0.107 A 
ATOM     14  C21 ZIN A   1      18.348   4.586  12.467  0.00  0.00     0.105 A 
ATOM     15  O24 ZIN A   1      16.204   4.799  11.849  0.00  0.00    -0.323 OA
ATOM     16  C20 ZIN A   1      19.640   4.097  12.374  0.00  0.00     0.042 A 
ATOM     17  O22 ZIN A   1      17.770   5.454  13.350  0.00  0.00    -0.323 OA
ATOM     18  C19 ZIN A   1      19.975   3.213  11.366  0.00  0.00     0.039 A 
ATOM     19  C23 ZIN A   1      16.554   5.894  12.717  0.00  0.00     0.352 C 
ENDBRANCH  10  11
ENDBRANCH   9  10
ENDBRANCH   8   9
BRANCH   1  20
ATOM     20  C5  ZIN A   1      18.518  -0.488  11.714  0.00  0.00    -0.053 A 
ATOM     21  C4  ZIN A   1      17.437   0.062  12.378  0.00  0.00     0.010 A 
ATOM     22  C3  ZIN A   1      17.626   0.725  13.576  0.00  0.00     0.043 A 
ATOM     23  C2  ZIN A   1      18.897   0.837  14.112  0.00  0.00     0.116 A 
ATOM     24  F1  ZIN A   1      19.082   1.485  15.283  0.00  0.00    -0.206 F 
ATOM     25  C28 ZIN A   1      19.980   0.290  13.444  0.00  0.00     0.043 A 
ATOM     26  C27 ZIN A   1      19.788  -0.377  12.249  0.00  0.00     0.010 A 
ENDBRANCH   1  20
TORSDOF 4
ENDMDL
MODEL 9
REMARK VINA RESULT:      -8.0      2.864      4.742
REMARK  4 active torsions:
REMARK  status: ('A' for Active; 'I' for Inactive)
REMARK    1  A    between atoms: C5_5  and  C6_6 
REMARK    2  A    between atoms: C14_13  and  C16_14 
REMARK    3  A    between atoms: C16_14  and  O17_15 
REMARK    4  A    between atoms: O17_15  and  C18_16 
ROOT
ATOM      1  C6  ZIN A   1      17.732   0.409   8.612  0.00  0.00     0.028 C 
ATOM      2  C8  ZIN A   1      17.205  -0.644   7.634  0.00  0.00     0.037 C 
ATOM      3  C9  ZIN A   1      17.150  -0.045   6.227  0.00  0.00     0.233 C 
ATOM      4  N10 ZIN A   1      18.496   0.377   5.818  0.00  0.00    -0.075 N 
ATOM      5  H11 ZIN A   1      19.123  -0.413   5.865  0.00  0.00     0.277 HD
ATOM      6  H12 ZIN A   1      18.465   0.723   4.870  0.00  0.00     0.277 HD
ATOM      7  C13 ZIN A   1      18.978   1.438   6.709  0.00  0.00     0.239 C 
ATOM      8  C14 ZIN A   1      19.104   0.897   8.135  0.00  0.00     0.044 C 
ENDROOT
BRANCH   8   9
ATOM      9  C16 ZIN A   1      19.605   2.007   9.061  0.00  0.00     0.182 C 
BRANCH   9  10
ATOM     10  O17 ZIN A   1      18.590   3.003   9.202  0.00  0.00    -0.351 OA
BRANCH  10  11
ATOM     11  C18 ZIN A   1      18.399   3.517  10.447  0.00  0.00     0.071 A 
ATOM     12  C26 ZIN A   1      17.241   4.224  10.734  0.00  0.00     0.076 A 
ATOM     13  C25 ZIN A   1      17.044   4.743  12.003  0.00  0.00     0.107 A 
ATOM     14  C21 ZIN A   1      18.016   4.563  12.985  0.00  0.00     0.105 A 
ATOM     15  O24 ZIN A   1      16.011   5.458  12.538  0.00  0.00    -0.323 OA
ATOM     16  C20 ZIN A   1      19.172   3.861  12.692  0.00  0.00     0.042 A 
ATOM     17  O22 ZIN A   1      17.591   5.166  14.134  0.00  0.00    -0.323 OA
ATOM     18  C19 ZIN A   1      19.365   3.340  11.426  0.00  0.00     0.039 A 
ATOM     19  C23 ZIN A   1      16.540   6.064  13.731  0.00  0.00     0.352 C 
ENDBRANCH  10  11
ENDBRANCH   9  10
ENDBRANCH   8   9
BRANCH   1  20
ATOM     20  C5  ZIN A   1      17.863  -0.197   9.985  0.00  0.00    -0.053 A 
ATOM     21  C4  ZIN A   1      17.027   0.216  11.006  0.00  0.00     0.010 A 
ATOM     22  C3  ZIN A   1      17.147  -0.341  12.265  0.00  0.00     0.043 A 
ATOM     23  C2  ZIN A   1      18.104  -1.312  12.504  0.00  0.00     0.116 A 
ATOM     24  F1  ZIN A   1      18.221  -1.856  13.736  0.00  0.00    -0.206 F 
ATOM     25  C28 ZIN A   1      18.944  -1.721  11.483  0.00  0.00     0.043 A 
ATOM     26  C27 ZIN A   1      18.819  -1.168  10.223  0.00  0.00     0.010 A 
ENDBRANCH   1  20
TORSDOF 4
ENDMDL
