MODEL 1
REMARK VINA RESULT:      -7.5      0.000      0.000
REMARK  12 active torsions:
REMARK  status: ('A' for Active; 'I' for Inactive)
REMARK    1  A    between atoms: C2_2  and  C3_3 
REMARK    2  A    between atoms: C3_3  and  C4_4 
REMARK    3  A    between atoms: C4_4  and  C5_5 
REMARK    4  A    between atoms: C5_5  and  C6_6 
REMARK    5  A    between atoms: C6_6  and  O8_7 
REMARK    6  A    between atoms: C6_6  and  C9_8 
REMARK    7  A    between atoms: C10_9  and  C11_10 
REMARK    8  A    between atoms: C13_11  and  O15_12 
REMARK    9  A    between atoms: C21_17  and  C22_18 
REMARK   10  A    between atoms: C22_18  and  C23_19 
REMARK   11  A    between atoms: C23_19  and  C24_20 
REMARK   12  A    between atoms: C24_20  and  C25_21 
ROOT
ATOM      1  C11 ZIN A   1      18.195  -2.874   9.645  0.00  0.00     0.043 C 
ATOM      2  C13 ZIN A   1      19.140  -4.090   9.626  0.00  0.00     0.128 C 
ATOM      3  C16 ZIN A   1      19.795  -4.105  11.019  0.00  0.00     0.065 C 
ATOM      4  C17 ZIN A   1      19.832  -2.641  11.488  0.00  0.00     0.136 C 
ATOM      5  O19 ZIN A   1      19.356  -2.566  12.837  0.00  0.00    -0.350 OA
ATOM      6  C20 ZIN A   1      18.498  -1.519  12.972  0.00  0.00     0.043 C 
ATOM      7  C21 ZIN A   1      18.327  -0.777  14.046  0.00  0.00     0.005 C 
ATOM      8  C28 ZIN A   1      17.776  -1.370  11.644  0.00  0.00     0.072 C 
ATOM      9  C29 ZIN A   1      18.836  -1.858  10.600  0.00  0.00     0.031 C 
ENDROOT
BRANCH   1  10
ATOM     10  C10 ZIN A   1      18.077  -2.286   8.263  0.00  0.00    -0.021 C 
ATOM     11  C9  ZIN A   1      18.059  -0.985   8.104  0.00  0.00     0.001 C 
BRANCH  11  12
ATOM     12  C6  ZIN A   1      17.941  -0.397   6.721  0.00  0.00     0.140 C 
BRANCH  12  13
ATOM     13  C5  ZIN A   1      18.585   0.991   6.702  0.00  0.00     0.036 C 
BRANCH  13  14
ATOM     14  C4  ZIN A   1      19.378   1.204   7.993  0.00  0.00     0.003 C 
BRANCH  14  15
ATOM     15  C3  ZIN A   1      18.926   2.504   8.661  0.00  0.00    -0.000 C 
BRANCH  15  16
ATOM     16  C2  ZIN A   1      19.069   2.373  10.179  0.00  0.00    -0.005 C 
ATOM     17  C1  ZIN A   1      17.681   2.347  10.821  0.00  0.00     0.005 C 
ENDBRANCH  15  16
ENDBRANCH  14  15
ENDBRANCH  13  14
ENDBRANCH  12  13
BRANCH  12  18
ATOM     18  O8  ZIN A   1      16.563  -0.287   6.366  0.00  0.00    -0.392 OA
ATOM     19  H42 ZIN A   1      16.121  -1.138   6.232  0.00  0.00     0.210 HD
ENDBRANCH  12  18
ENDBRANCH  11  12
ENDBRANCH   1  10
BRANCH   2  20
ATOM     20  O15 ZIN A   1      18.398  -5.293   9.411  0.00  0.00    -0.395 OA
ATOM     21  H45 ZIN A   1      17.466  -5.147   9.201  0.00  0.00     0.210 HD
ENDBRANCH   2  20
BRANCH   7  22
ATOM     22  C22 ZIN A   1      19.129  -1.059  15.292  0.00  0.00     0.030 C 
BRANCH  22  23
ATOM     23  C23 ZIN A   1      18.262  -0.798  16.525  0.00  0.00     0.014 C 
BRANCH  23  24
ATOM     24  C24 ZIN A   1      19.156  -0.673  17.760  0.00  0.00     0.113 C 
BRANCH  24  25
ATOM     25  C25 ZIN A   1      18.948   0.677  18.396  0.00  0.00     0.172 C 
ATOM     26  O26 ZIN A   1      19.888   1.442  18.522  0.00  0.00    -0.648 OA
ATOM     27  O27 ZIN A   1      17.839   1.003  18.784  0.00  0.00    -0.648 OA
ENDBRANCH  24  25
ENDBRANCH  23  24
ENDBRANCH  22  23
ENDBRANCH   7  22
TORSDOF 12
ENDMDL
MODEL 2
REMARK VINA RESULT:      -7.3      2.968      9.361
REMARK  12 active torsions:
REMARK  status: ('A' for Active; 'I' for Inactive)
REMARK    1  A    between atoms: C2_2  and  C3_3 
REMARK    2  A    between atoms: C3_3  and  C4_4 
REMARK    3  A    between atoms: C4_4  and  C5_5 
REMARK    4  A    between atoms: C5_5  and  C6_6 
REMARK    5  A    between atoms: C6_6  and  O8_7 
REMARK    6  A    between atoms: C6_6  and  C9_8 
REMARK    7  A    between atoms: C10_9  and  C11_10 
REMARK    8  A    between atoms: C13_11  and  O15_12 
REMARK    9  A    between atoms: C21_17  and  C22_18 
REMARK   10  A    between atoms: C22_18  and  C23_19 
REMARK   11  A    between atoms: C23_19  and  C24_20 
REMARK   12  A    between atoms: C24_20  and  C25_21 
ROOT
ATOM      1  C11 ZIN A   1      18.254   3.347  13.793  0.00  0.00     0.043 C 
ATOM      2  C13 ZIN A   1      19.129   4.613  13.738  0.00  0.00     0.128 C 
ATOM      3  C16 ZIN A   1      19.701   4.637  12.309  0.00  0.00     0.065 C 
ATOM      4  C17 ZIN A   1      19.794   3.169  11.862  0.00  0.00     0.136 C 
ATOM      5  O19 ZIN A   1      19.246   3.042  10.544  0.00  0.00    -0.350 OA
ATOM      6  C20 ZIN A   1      18.443   1.947  10.476  0.00  0.00     0.043 C 
ATOM      7  C21 ZIN A   1      18.252   1.176   9.426  0.00  0.00     0.005 C 
ATOM      8  C28 ZIN A   1      17.807   1.784  11.846  0.00  0.00     0.072 C 
ATOM      9  C29 ZIN A   1      18.896   2.349  12.819  0.00  0.00     0.031 C 
ENDROOT
BRANCH   1  10
ATOM     10  C10 ZIN A   1      18.249   2.779  15.189  0.00  0.00    -0.021 C 
ATOM     11  C9  ZIN A   1      19.375   2.426  15.757  0.00  0.00     0.001 C 
BRANCH  11  12
ATOM     12  C6  ZIN A   1      19.369   1.858  17.153  0.00  0.00     0.140 C 
BRANCH  12  13
ATOM     13  C5  ZIN A   1      18.114   1.005  17.351  0.00  0.00     0.036 C 
BRANCH  13  14
ATOM     14  C4  ZIN A   1      18.518  -0.457  17.551  0.00  0.00     0.003 C 
BRANCH  14  15
ATOM     15  C3  ZIN A   1      17.766  -1.336  16.548  0.00  0.00    -0.000 C 
BRANCH  15  16
ATOM     16  C2  ZIN A   1      17.960  -0.779  15.137  0.00  0.00    -0.005 C 
ATOM     17  C1  ZIN A   1      19.267  -1.318  14.552  0.00  0.00     0.005 C 
ENDBRANCH  15  16
ENDBRANCH  14  15
ENDBRANCH  13  14
ENDBRANCH  12  13
BRANCH  12  18
ATOM     18  O8  ZIN A   1      19.373   2.926  18.102  0.00  0.00    -0.392 OA
ATOM     19  H42 ZIN A   1      18.950   2.706  18.944  0.00  0.00     0.210 HD
ENDBRANCH  12  18
ENDBRANCH  11  12
ENDBRANCH   1  10
BRANCH   2  20
ATOM     20  O15 ZIN A   1      18.334   5.777  13.977  0.00  0.00    -0.395 OA
ATOM     21  H45 ZIN A   1      18.446   6.471  13.314  0.00  0.00     0.210 HD
ENDBRANCH   2  20
BRANCH   7  22
ATOM     22  C22 ZIN A   1      18.964   1.478   8.131  0.00  0.00     0.030 C 
BRANCH  22  23
ATOM     23  C23 ZIN A   1      18.460   0.532   7.040  0.00  0.00     0.014 C 
BRANCH  23  24
ATOM     24  C24 ZIN A   1      19.204   0.816   5.734  0.00  0.00     0.113 C 
BRANCH  24  25
ATOM     25  C25 ZIN A   1      19.049  -0.357   4.802  0.00  0.00     0.172 C 
ATOM     26  O26 ZIN A   1      17.961  -0.607   4.313  0.00  0.00    -0.648 OA
ATOM     27  O27 ZIN A   1      20.012  -1.056   4.536  0.00  0.00    -0.648 OA
ENDBRANCH  24  25
ENDBRANCH  23  24
ENDBRANCH  22  23
ENDBRANCH   7  22
TORSDOF 12
ENDMDL
MODEL 3
REMARK VINA RESULT:      -7.2      2.499      8.826
REMARK  12 active torsions:
REMARK  status: ('A' for Active; 'I' for Inactive)
REMARK    1  A    between atoms: C2_2  and  C3_3 
REMARK    2  A    between atoms: C3_3  and  C4_4 
REMARK    3  A    between atoms: C4_4  and  C5_5 
REMARK    4  A    between atoms: C5_5  and  C6_6 
REMARK    5  A    between atoms: C6_6  and  O8_7 
REMARK    6  A    between atoms: C6_6  and  C9_8 
REMARK    7  A    between atoms: C10_9  and  C11_10 
REMARK    8  A    between atoms: C13_11  and  O15_12 
REMARK    9  A    between atoms: C21_17  and  C22_18 
REMARK   10  A    between atoms: C22_18  and  C23_19 
REMARK   11  A    between atoms: C23_19  and  C24_20 
REMARK   12  A    between atoms: C24_20  and  C25_21 
ROOT
ATOM      1  C11 ZIN A   1      17.373   1.509  10.976  0.00  0.00     0.043 C 
ATOM      2  C13 ZIN A   1      17.899   2.955  10.933  0.00  0.00     0.128 C 
ATOM      3  C16 ZIN A   1      18.606   3.078   9.570  0.00  0.00     0.065 C 
ATOM      4  C17 ZIN A   1      19.117   1.670   9.226  0.00  0.00     0.136 C 
ATOM      5  O19 ZIN A   1      18.773   1.362   7.870  0.00  0.00    -0.350 OA
ATOM      6  C20 ZIN A   1      18.285   0.095   7.788  0.00  0.00     0.043 C 
ATOM      7  C21 ZIN A   1      18.417  -0.733   6.773  0.00  0.00     0.005 C 
ATOM      8  C28 ZIN A   1      17.560  -0.181   9.093  0.00  0.00     0.072 C 
ATOM      9  C29 ZIN A   1      18.352   0.679  10.135  0.00  0.00     0.031 C 
ENDROOT
BRANCH   1  10
ATOM     10  C10 ZIN A   1      17.352   1.006  12.396  0.00  0.00    -0.021 C 
ATOM     11  C9  ZIN A   1      18.422   1.112  13.144  0.00  0.00     0.001 C 
BRANCH  11  12
ATOM     12  C6  ZIN A   1      18.400   0.609  14.565  0.00  0.00     0.140 C 
BRANCH  12  13
ATOM     13  C5  ZIN A   1      18.248  -0.914  14.564  0.00  0.00     0.036 C 
BRANCH  13  14
ATOM     14  C4  ZIN A   1      19.366  -1.538  13.726  0.00  0.00     0.003 C 
BRANCH  14  15
ATOM     15  C3  ZIN A   1      18.758  -2.469  12.675  0.00  0.00    -0.000 C 
BRANCH  15  16
ATOM     16  C2  ZIN A   1      19.699  -2.563  11.473  0.00  0.00    -0.005 C 
ATOM     17  C1  ZIN A   1      19.741  -4.008  10.971  0.00  0.00     0.005 C 
ENDBRANCH  15  16
ENDBRANCH  14  15
ENDBRANCH  13  14
ENDBRANCH  12  13
BRANCH  12  18
ATOM     18  O8  ZIN A   1      17.301   1.196  15.263  0.00  0.00    -0.392 OA
ATOM     19  H42 ZIN A   1      17.184   2.140  15.088  0.00  0.00     0.210 HD
ENDBRANCH  12  18
ENDBRANCH  11  12
ENDBRANCH   1  10
BRANCH   2  20
ATOM     20  O15 ZIN A   1      16.814   3.882  11.017  0.00  0.00    -0.395 OA
ATOM     21  H45 ZIN A   1      16.002   3.504  11.380  0.00  0.00     0.210 HD
ENDBRANCH   2  20
BRANCH   7  22
ATOM     22  C22 ZIN A   1      19.172  -0.302   5.542  0.00  0.00     0.030 C 
BRANCH  22  23
ATOM     23  C23 ZIN A   1      18.850  -1.253   4.387  0.00  0.00     0.014 C 
BRANCH  23  24
ATOM     24  C24 ZIN A   1      17.364  -1.613   4.423  0.00  0.00     0.113 C 
BRANCH  24  25
ATOM     25  C25 ZIN A   1      17.181  -3.038   3.970  0.00  0.00     0.172 C 
ATOM     26  O26 ZIN A   1      18.151  -3.766   3.843  0.00  0.00    -0.648 OA
ATOM     27  O27 ZIN A   1      16.064  -3.464   3.732  0.00  0.00    -0.648 OA
ENDBRANCH  24  25
ENDBRANCH  23  24
ENDBRANCH  22  23
ENDBRANCH   7  22
TORSDOF 12
ENDMDL
MODEL 4
REMARK VINA RESULT:      -7.2      2.620      8.369
REMARK  12 active torsions:
REMARK  status: ('A' for Active; 'I' for Inactive)
REMARK    1  A    between atoms: C2_2  and  C3_3 
REMARK    2  A    between atoms: C3_3  and  C4_4 
REMARK    3  A    between atoms: C4_4  and  C5_5 
REMARK    4  A    between atoms: C5_5  and  C6_6 
REMARK    5  A    between atoms: C6_6  and  O8_7 
REMARK    6  A    between atoms: C6_6  and  C9_8 
REMARK    7  A    between atoms: C10_9  and  C11_10 
REMARK    8  A    between atoms: C13_11  and  O15_12 
REMARK    9  A    between atoms: C21_17  and  C22_18 
REMARK   10  A    between atoms: C22_18  and  C23_19 
REMARK   11  A    between atoms: C23_19  and  C24_20 
REMARK   12  A    between atoms: C24_20  and  C25_21 
ROOT
ATOM      1  C11 ZIN A   1      19.816   1.454  11.446  0.00  0.00     0.043 C 
ATOM      2  C13 ZIN A   1      20.635   0.195  11.786  0.00  0.00     0.128 C 
ATOM      3  C16 ZIN A   1      20.717  -0.593  10.466  0.00  0.00     0.065 C 
ATOM      4  C17 ZIN A   1      19.444  -0.241   9.679  0.00  0.00     0.136 C 
ATOM      5  O19 ZIN A   1      19.798   0.073   8.327  0.00  0.00    -0.350 OA
ATOM      6  C20 ZIN A   1      19.131   1.185   7.917  0.00  0.00     0.043 C 
ATOM      7  C21 ZIN A   1      18.714   1.445   6.695  0.00  0.00     0.005 C 
ATOM      8  C28 ZIN A   1      18.958   2.070   9.139  0.00  0.00     0.072 C 
ATOM      9  C29 ZIN A   1      18.861   1.042  10.317  0.00  0.00     0.031 C 
ENDROOT
BRANCH   1  10
ATOM     10  C10 ZIN A   1      19.032   1.906  12.650  0.00  0.00    -0.021 C 
ATOM     11  C9  ZIN A   1      18.957   1.137  13.708  0.00  0.00     0.001 C 
BRANCH  11  12
ATOM     12  C6  ZIN A   1      18.172   1.590  14.914  0.00  0.00     0.140 C 
BRANCH  12  13
ATOM     13  C5  ZIN A   1      17.186   0.494  15.321  0.00  0.00     0.036 C 
BRANCH  13  14
ATOM     14  C4  ZIN A   1      17.247   0.290  16.837  0.00  0.00     0.003 C 
BRANCH  14  15
ATOM     15  C3  ZIN A   1      18.201  -0.863  17.158  0.00  0.00    -0.000 C 
BRANCH  15  16
ATOM     16  C2  ZIN A   1      19.385  -0.333  17.968  0.00  0.00    -0.005 C 
ATOM     17  C1  ZIN A   1      19.066   1.074  18.477  0.00  0.00     0.005 C 
ENDBRANCH  15  16
ENDBRANCH  14  15
ENDBRANCH  13  14
ENDBRANCH  12  13
BRANCH  12  18
ATOM     18  O8  ZIN A   1      17.454   2.782  14.594  0.00  0.00    -0.392 OA
ATOM     19  H42 ZIN A   1      17.809   3.580  15.010  0.00  0.00     0.210 HD
ENDBRANCH  12  18
ENDBRANCH  11  12
ENDBRANCH   1  10
BRANCH   2  20
ATOM     20  O15 ZIN A   1      21.943   0.558  12.233  0.00  0.00    -0.395 OA
ATOM     21  H45 ZIN A   1      22.385  -0.126  12.753  0.00  0.00     0.210 HD
ENDBRANCH   2  20
BRANCH   7  22
ATOM     22  C22 ZIN A   1      18.967   0.455   5.586  0.00  0.00     0.030 C 
BRANCH  22  23
ATOM     23  C23 ZIN A   1      17.755  -0.468   5.441  0.00  0.00     0.014 C 
BRANCH  23  24
ATOM     24  C24 ZIN A   1      18.215  -1.840   4.945  0.00  0.00     0.113 C 
BRANCH  24  25
ATOM     25  C25 ZIN A   1      18.897  -2.577   6.069  0.00  0.00     0.172 C 
ATOM     26  O26 ZIN A   1      19.993  -3.081   5.890  0.00  0.00    -0.648 OA
ATOM     27  O27 ZIN A   1      18.354  -2.669   7.156  0.00  0.00    -0.648 OA
ENDBRANCH  24  25
ENDBRANCH  23  24
ENDBRANCH  22  23
ENDBRANCH   7  22
TORSDOF 12
ENDMDL
MODEL 5
REMARK VINA RESULT:      -7.1      3.744      6.088
REMARK  12 active torsions:
REMARK  status: ('A' for Active; 'I' for Inactive)
REMARK    1  A    between atoms: C2_2  and  C3_3 
REMARK    2  A    between atoms: C3_3  and  C4_4 
REMARK    3  A    between atoms: C4_4  and  C5_5 
REMARK    4  A    between atoms: C5_5  and  C6_6 
REMARK    5  A    between atoms: C6_6  and  O8_7 
REMARK    6  A    between atoms: C6_6  and  C9_8 
REMARK    7  A    between atoms: C10_9  and  C11_10 
REMARK    8  A    between atoms: C13_11  and  O15_12 
REMARK    9  A    between atoms: C21_17  and  C22_18 
REMARK   10  A    between atoms: C22_18  and  C23_19 
REMARK   11  A    between atoms: C23_19  and  C24_20 
REMARK   12  A    between atoms: C24_20  and  C25_21 
ROOT
ATOM      1  C11 ZIN A   1      19.473  -2.130   6.596  0.00  0.00     0.043 C 
ATOM      2  C13 ZIN A   1      18.708  -1.787   5.305  0.00  0.00     0.128 C 
ATOM      3  C16 ZIN A   1      18.094  -0.399   5.565  0.00  0.00     0.065 C 
ATOM      4  C17 ZIN A   1      17.862  -0.314   7.083  0.00  0.00     0.136 C 
ATOM      5  O19 ZIN A   1      18.354   0.943   7.565  0.00  0.00    -0.350 OA
ATOM      6  C20 ZIN A   1      19.059   0.759   8.713  0.00  0.00     0.043 C 
ATOM      7  C21 ZIN A   1      19.148   1.599   9.723  0.00  0.00     0.005 C 
ATOM      8  C28 ZIN A   1      19.723  -0.603   8.607  0.00  0.00     0.072 C 
ATOM      9  C29 ZIN A   1      18.718  -1.427   7.732  0.00  0.00     0.031 C 
ENDROOT
BRANCH   1  10
ATOM     10  C10 ZIN A   1      19.476  -3.620   6.818  0.00  0.00    -0.021 C 
ATOM     11  C9  ZIN A   1      18.349  -4.286   6.803  0.00  0.00     0.001 C 
BRANCH  11  12
ATOM     12  C6  ZIN A   1      18.352  -5.778   7.026  0.00  0.00     0.140 C 
BRANCH  12  13
ATOM     13  C5  ZIN A   1      18.880  -6.082   8.429  0.00  0.00     0.036 C 
BRANCH  13  14
ATOM     14  C4  ZIN A   1      17.737  -5.970   9.440  0.00  0.00     0.003 C 
BRANCH  14  15
ATOM     15  C3  ZIN A   1      18.203  -5.158  10.650  0.00  0.00    -0.000 C 
BRANCH  15  16
ATOM     16  C2  ZIN A   1      19.644  -4.693  10.427  0.00  0.00    -0.005 C 
ATOM     17  C1  ZIN A   1      19.954  -3.527  11.367  0.00  0.00     0.005 C 
ENDBRANCH  15  16
ENDBRANCH  14  15
ENDBRANCH  13  14
ENDBRANCH  12  13
BRANCH  12  18
ATOM     18  O8  ZIN A   1      19.192  -6.402   6.055  0.00  0.00    -0.392 OA
ATOM     19  H42 ZIN A   1      18.768  -6.540   5.196  0.00  0.00     0.210 HD
ENDBRANCH  12  18
ENDBRANCH  11  12
ENDBRANCH   1  10
BRANCH   2  20
ATOM     20  O15 ZIN A   1      19.607  -1.734   4.194  0.00  0.00    -0.395 OA
ATOM     21  H45 ZIN A   1      19.904  -0.841   3.972  0.00  0.00     0.210 HD
ENDBRANCH   2  20
BRANCH   7  22
ATOM     22  C22 ZIN A   1      18.423   2.920   9.670  0.00  0.00     0.030 C 
BRANCH  22  23
ATOM     23  C23 ZIN A   1      17.652   3.129  10.976  0.00  0.00     0.014 C 
BRANCH  23  24
ATOM     24  C24 ZIN A   1      17.817   4.578  11.438  0.00  0.00     0.113 C 
BRANCH  24  25
ATOM     25  C25 ZIN A   1      18.786   4.630  12.590  0.00  0.00     0.172 C 
ATOM     26  O26 ZIN A   1      18.371   4.666  13.736  0.00  0.00    -0.648 OA
ATOM     27  O27 ZIN A   1      19.987   4.635  12.377  0.00  0.00    -0.648 OA
ENDBRANCH  24  25
ENDBRANCH  23  24
ENDBRANCH  22  23
ENDBRANCH   7  22
TORSDOF 12
ENDMDL
MODEL 6
REMARK VINA RESULT:      -7.0      2.582      8.681
REMARK  12 active torsions:
REMARK  status: ('A' for Active; 'I' for Inactive)
REMARK    1  A    between atoms: C2_2  and  C3_3 
REMARK    2  A    between atoms: C3_3  and  C4_4 
REMARK    3  A    between atoms: C4_4  and  C5_5 
REMARK    4  A    between atoms: C5_5  and  C6_6 
REMARK    5  A    between atoms: C6_6  and  O8_7 
REMARK    6  A    between atoms: C6_6  and  C9_8 
REMARK    7  A    between atoms: C10_9  and  C11_10 
REMARK    8  A    between atoms: C13_11  and  O15_12 
REMARK    9  A    between atoms: C21_17  and  C22_18 
REMARK   10  A    between atoms: C22_18  and  C23_19 
REMARK   11  A    between atoms: C23_19  and  C24_20 
REMARK   12  A    between atoms: C24_20  and  C25_21 
ROOT
ATOM      1  C11 ZIN A   1      18.196   2.616  13.187  0.00  0.00     0.043 C 
ATOM      2  C13 ZIN A   1      18.668   4.078  13.280  0.00  0.00     0.128 C 
ATOM      3  C16 ZIN A   1      19.103   4.446  11.850  0.00  0.00     0.065 C 
ATOM      4  C17 ZIN A   1      19.575   3.137  11.197  0.00  0.00     0.136 C 
ATOM      5  O19 ZIN A   1      18.990   3.021   9.894  0.00  0.00    -0.350 OA
ATOM      6  C20 ZIN A   1      18.528   1.757   9.701  0.00  0.00     0.043 C 
ATOM      7  C21 ZIN A   1      18.487   1.102   8.560  0.00  0.00     0.005 C 
ATOM      8  C28 ZIN A   1      18.068   1.246  11.055  0.00  0.00     0.072 C 
ATOM      9  C29 ZIN A   1      19.021   1.978  12.060  0.00  0.00     0.031 C 
ENDROOT
BRANCH   1  10
ATOM     10  C10 ZIN A   1      18.456   1.902  14.488  0.00  0.00    -0.021 C 
ATOM     11  C9  ZIN A   1      17.542   1.112  14.995  0.00  0.00     0.001 C 
BRANCH  11  12
ATOM     12  C6  ZIN A   1      17.802   0.398  16.297  0.00  0.00     0.140 C 
BRANCH  12  13
ATOM     13  C5  ZIN A   1      18.676  -0.832  16.038  0.00  0.00     0.036 C 
BRANCH  13  14
ATOM     14  C4  ZIN A   1      18.327  -1.426  14.671  0.00  0.00     0.003 C 
BRANCH  14  15
ATOM     15  C3  ZIN A   1      19.613  -1.675  13.880  0.00  0.00    -0.000 C 
BRANCH  15  16
ATOM     16  C2  ZIN A   1      19.276  -1.828  12.395  0.00  0.00    -0.005 C 
ATOM     17  C1  ZIN A   1      18.212  -2.915  12.225  0.00  0.00     0.005 C 
ENDBRANCH  15  16
ENDBRANCH  14  15
ENDBRANCH  13  14
ENDBRANCH  12  13
BRANCH  12  18
ATOM     18  O8  ZIN A   1      16.561  -0.013  16.872  0.00  0.00    -0.392 OA
ATOM     19  H42 ZIN A   1      16.564  -0.919  17.210  0.00  0.00     0.210 HD
ENDBRANCH  12  18
ENDBRANCH  11  12
ENDBRANCH   1  10
BRANCH   2  20
ATOM     20  O15 ZIN A   1      17.596   4.921  13.708  0.00  0.00    -0.395 OA
ATOM     21  H45 ZIN A   1      17.011   5.206  12.993  0.00  0.00     0.210 HD
ENDBRANCH   2  20
BRANCH   7  22
ATOM     22  C22 ZIN A   1      18.985   1.757   7.297  0.00  0.00     0.030 C 
BRANCH  22  23
ATOM     23  C23 ZIN A   1      18.909   0.758   6.140  0.00  0.00     0.014 C 
BRANCH  23  24
ATOM     24  C24 ZIN A   1      18.919  -0.667   6.696  0.00  0.00     0.113 C 
BRANCH  24  25
ATOM     25  C25 ZIN A   1      19.471  -1.608   5.657  0.00  0.00     0.172 C 
ATOM     26  O26 ZIN A   1      19.666  -1.213   4.520  0.00  0.00    -0.648 OA
ATOM     27  O27 ZIN A   1      19.724  -2.763   5.953  0.00  0.00    -0.648 OA
ENDBRANCH  24  25
ENDBRANCH  23  24
ENDBRANCH  22  23
ENDBRANCH   7  22
TORSDOF 12
ENDMDL
MODEL 7
REMARK VINA RESULT:      -7.0      2.896      8.973
REMARK  12 active torsions:
REMARK  status: ('A' for Active; 'I' for Inactive)
REMARK    1  A    between atoms: C2_2  and  C3_3 
REMARK    2  A    between atoms: C3_3  and  C4_4 
REMARK    3  A    between atoms: C4_4  and  C5_5 
REMARK    4  A    between atoms: C5_5  and  C6_6 
REMARK    5  A    between atoms: C6_6  and  O8_7 
REMARK    6  A    between atoms: C6_6  and  C9_8 
REMARK    7  A    between atoms: C10_9  and  C11_10 
REMARK    8  A    between atoms: C13_11  and  O15_12 
REMARK    9  A    between atoms: C21_17  and  C22_18 
REMARK   10  A    between atoms: C22_18  and  C23_19 
REMARK   11  A    between atoms: C23_19  and  C24_20 
REMARK   12  A    between atoms: C24_20  and  C25_21 
ROOT
ATOM      1  C11 ZIN A   1      17.714   1.644  13.246  0.00  0.00     0.043 C 
ATOM      2  C13 ZIN A   1      18.682   2.787  13.600  0.00  0.00     0.128 C 
ATOM      3  C16 ZIN A   1      19.431   3.092  12.290  0.00  0.00     0.065 C 
ATOM      4  C17 ZIN A   1      19.466   1.773  11.502  0.00  0.00     0.136 C 
ATOM      5  O19 ZIN A   1      19.081   2.023  10.144  0.00  0.00    -0.350 OA
ATOM      6  C20 ZIN A   1      18.211   1.067   9.722  0.00  0.00     0.043 C 
ATOM      7  C21 ZIN A   1      18.097   0.595   8.499  0.00  0.00     0.005 C 
ATOM      8  C28 ZIN A   1      17.397   0.648  10.934  0.00  0.00     0.072 C 
ATOM      9  C29 ZIN A   1      18.395   0.847  12.125  0.00  0.00     0.031 C 
ENDROOT
BRANCH   1  10
ATOM     10  C10 ZIN A   1      17.489   0.762  14.447  0.00  0.00    -0.021 C 
ATOM     11  C9  ZIN A   1      18.302  -0.237  14.687  0.00  0.00     0.001 C 
BRANCH  11  12
ATOM     12  C6  ZIN A   1      18.076  -1.118  15.890  0.00  0.00     0.140 C 
BRANCH  12  13
ATOM     13  C5  ZIN A   1      17.497  -0.283  17.033  0.00  0.00     0.036 C 
BRANCH  13  14
ATOM     14  C4  ZIN A   1      18.551  -0.119  18.130  0.00  0.00     0.003 C 
BRANCH  14  15
ATOM     15  C3  ZIN A   1      18.656   1.356  18.522  0.00  0.00    -0.000 C 
BRANCH  15  16
ATOM     16  C2  ZIN A   1      19.253   2.151  17.359  0.00  0.00    -0.005 C 
ATOM     17  C1  ZIN A   1      18.765   3.599  17.428  0.00  0.00     0.005 C 
ENDBRANCH  15  16
ENDBRANCH  14  15
ENDBRANCH  13  14
ENDBRANCH  12  13
BRANCH  12  18
ATOM     18  O8  ZIN A   1      19.318  -1.692  16.300  0.00  0.00    -0.392 OA
ATOM     19  H42 ZIN A   1      19.951  -1.816  15.580  0.00  0.00     0.210 HD
ENDBRANCH  12  18
ENDBRANCH  11  12
ENDBRANCH   1  10
BRANCH   2  20
ATOM     20  O15 ZIN A   1      17.955   3.937  14.039  0.00  0.00    -0.395 OA
ATOM     21  H45 ZIN A   1      18.276   4.770  13.668  0.00  0.00     0.210 HD
ENDBRANCH   2  20
BRANCH   7  22
ATOM     22  C22 ZIN A   1      18.987   1.121   7.402  0.00  0.00     0.030 C 
BRANCH  22  23
ATOM     23  C23 ZIN A   1      18.316   0.890   6.046  0.00  0.00     0.014 C 
BRANCH  23  24
ATOM     24  C24 ZIN A   1      19.319   0.253   5.083  0.00  0.00     0.113 C 
BRANCH  24  25
ATOM     25  C25 ZIN A   1      18.848  -1.129   4.710  0.00  0.00     0.172 C 
ATOM     26  O26 ZIN A   1      19.644  -1.951   4.288  0.00  0.00    -0.648 OA
ATOM     27  O27 ZIN A   1      17.672  -1.426   4.830  0.00  0.00    -0.648 OA
ENDBRANCH  24  25
ENDBRANCH  23  24
ENDBRANCH  22  23
ENDBRANCH   7  22
TORSDOF 12
ENDMDL
MODEL 8
REMARK VINA RESULT:      -6.9      2.849      9.134
REMARK  12 active torsions:
REMARK  status: ('A' for Active; 'I' for Inactive)
REMARK    1  A    between atoms: C2_2  and  C3_3 
REMARK    2  A    between atoms: C3_3  and  C4_4 
REMARK    3  A    between atoms: C4_4  and  C5_5 
REMARK    4  A    between atoms: C5_5  and  C6_6 
REMARK    5  A    between atoms: C6_6  and  O8_7 
REMARK    6  A    between atoms: C6_6  and  C9_8 
REMARK    7  A    between atoms: C10_9  and  C11_10 
REMARK    8  A    between atoms: C13_11  and  O15_12 
REMARK    9  A    between atoms: C21_17  and  C22_18 
REMARK   10  A    between atoms: C22_18  and  C23_19 
REMARK   11  A    between atoms: C23_19  and  C24_20 
REMARK   12  A    between atoms: C24_20  and  C25_21 
ROOT
ATOM      1  C11 ZIN A   1      17.686   1.883  11.106  0.00  0.00     0.043 C 
ATOM      2  C13 ZIN A   1      17.854   3.410  11.008  0.00  0.00     0.128 C 
ATOM      3  C16 ZIN A   1      18.314   3.665   9.561  0.00  0.00     0.065 C 
ATOM      4  C17 ZIN A   1      19.082   2.405   9.129  0.00  0.00     0.136 C 
ATOM      5  O19 ZIN A   1      18.630   2.000   7.831  0.00  0.00    -0.350 OA
ATOM      6  C20 ZIN A   1      18.441   0.654   7.803  0.00  0.00     0.043 C 
ATOM      7  C21 ZIN A   1      18.615  -0.142   6.768  0.00  0.00     0.005 C 
ATOM      8  C28 ZIN A   1      17.990   0.244   9.193  0.00  0.00     0.072 C 
ATOM      9  C29 ZIN A   1      18.702   1.283  10.124  0.00  0.00     0.031 C 
ENDROOT
BRANCH   1  10
ATOM     10  C10 ZIN A   1      17.982   1.416  12.509  0.00  0.00    -0.021 C 
ATOM     11  C9  ZIN A   1      19.222   1.318  12.918  0.00  0.00     0.001 C 
BRANCH  11  12
ATOM     12  C6  ZIN A   1      19.518   0.851  14.321  0.00  0.00     0.140 C 
BRANCH  12  13
ATOM     13  C5  ZIN A   1      18.388  -0.062  14.802  0.00  0.00     0.036 C 
BRANCH  13  14
ATOM     14  C4  ZIN A   1      18.958  -1.437  15.154  0.00  0.00     0.003 C 
BRANCH  14  15
ATOM     15  C3  ZIN A   1      19.156  -1.536  16.668  0.00  0.00    -0.000 C 
BRANCH  15  16
ATOM     16  C2  ZIN A   1      18.260  -0.510  17.367  0.00  0.00    -0.005 C 
ATOM     17  C1  ZIN A   1      19.049   0.179  18.482  0.00  0.00     0.005 C 
ENDBRANCH  15  16
ENDBRANCH  14  15
ENDBRANCH  13  14
ENDBRANCH  12  13
BRANCH  12  18
ATOM     18  O8  ZIN A   1      19.619   1.981  15.188  0.00  0.00    -0.392 OA
ATOM     19  H42 ZIN A   1      20.442   2.479  15.091  0.00  0.00     0.210 HD
ENDBRANCH  12  18
ENDBRANCH  11  12
ENDBRANCH   1  10
BRANCH   2  20
ATOM     20  O15 ZIN A   1      16.608   4.064  11.258  0.00  0.00    -0.395 OA
ATOM     21  H45 ZIN A   1      16.272   3.940  12.156  0.00  0.00     0.210 HD
ENDBRANCH   2  20
BRANCH   7  22
ATOM     22  C22 ZIN A   1      19.070   0.428   5.448  0.00  0.00     0.030 C 
BRANCH  22  23
ATOM     23  C23 ZIN A   1      18.627  -0.500   4.314  0.00  0.00     0.014 C 
BRANCH  23  24
ATOM     24  C24 ZIN A   1      19.144  -1.915   4.581  0.00  0.00     0.113 C 
BRANCH  24  25
ATOM     25  C25 ZIN A   1      18.074  -2.915   4.228  0.00  0.00     0.172 C 
ATOM     26  O26 ZIN A   1      16.988  -2.530   3.830  0.00  0.00    -0.648 OA
ATOM     27  O27 ZIN A   1      18.295  -4.109   4.340  0.00  0.00    -0.648 OA
ENDBRANCH  24  25
ENDBRANCH  23  24
ENDBRANCH  22  23
ENDBRANCH   7  22
TORSDOF 12
ENDMDL
MODEL 9
REMARK VINA RESULT:      -6.9      2.381      4.300
REMARK  12 active torsions:
REMARK  status: ('A' for Active; 'I' for Inactive)
REMARK    1  A    between atoms: C2_2  and  C3_3 
REMARK    2  A    between atoms: C3_3  and  C4_4 
REMARK    3  A    between atoms: C4_4  and  C5_5 
REMARK    4  A    between atoms: C5_5  and  C6_6 
REMARK    5  A    between atoms: C6_6  and  O8_7 
REMARK    6  A    between atoms: C6_6  and  C9_8 
REMARK    7  A    between atoms: C10_9  and  C11_10 
REMARK    8  A    between atoms: C13_11  and  O15_12 
REMARK    9  A    between atoms: C21_17  and  C22_18 
REMARK   10  A    between atoms: C22_18  and  C23_19 
REMARK   11  A    between atoms: C23_19  and  C24_20 
REMARK   12  A    between atoms: C24_20  and  C25_21 
ROOT
ATOM      1  C11 ZIN A   1      19.505  -1.340  11.466  0.00  0.00     0.043 C 
ATOM      2  C13 ZIN A   1      20.456  -0.155  11.218  0.00  0.00     0.128 C 
ATOM      3  C16 ZIN A   1      20.573   0.550  12.582  0.00  0.00     0.065 C 
ATOM      4  C17 ZIN A   1      19.247   0.288  13.313  0.00  0.00     0.136 C 
ATOM      5  O19 ZIN A   1      19.523  -0.132  14.655  0.00  0.00    -0.350 OA
ATOM      6  C20 ZIN A   1      18.735  -1.191  14.984  0.00  0.00     0.043 C 
ATOM      7  C21 ZIN A   1      18.255  -1.471  16.178  0.00  0.00     0.005 C 
ATOM      8  C28 ZIN A   1      18.515  -1.987  13.710  0.00  0.00     0.072 C 
ATOM      9  C29 ZIN A   1      18.559  -0.894  12.589  0.00  0.00     0.031 C 
ENDROOT
BRANCH   1  10
ATOM     10  C10 ZIN A   1      18.719  -1.646  10.216  0.00  0.00    -0.021 C 
ATOM     11  C9  ZIN A   1      18.973  -2.735   9.534  0.00  0.00     0.001 C 
BRANCH  11  12
ATOM     12  C6  ZIN A   1      18.187  -3.041   8.284  0.00  0.00     0.140 C 
BRANCH  12  13
ATOM     13  C5  ZIN A   1      18.158  -4.554   8.058  0.00  0.00     0.036 C 
BRANCH  13  14
ATOM     14  C4  ZIN A   1      16.811  -5.113   8.522  0.00  0.00     0.003 C 
BRANCH  14  15
ATOM     15  C3  ZIN A   1      17.006  -5.903   9.819  0.00  0.00    -0.000 C 
BRANCH  15  16
ATOM     16  C2  ZIN A   1      16.589  -5.038  11.010  0.00  0.00    -0.005 C 
ATOM     17  C1  ZIN A   1      17.564  -5.261  12.168  0.00  0.00     0.005 C 
ENDBRANCH  15  16
ENDBRANCH  14  15
ENDBRANCH  13  14
ENDBRANCH  12  13
BRANCH  12  18
ATOM     18  O8  ZIN A   1      18.805  -2.404   7.165  0.00  0.00    -0.392 OA
ATOM     19  H42 ZIN A   1      18.279  -1.690   6.779  0.00  0.00     0.210 HD
ENDBRANCH  12  18
ENDBRANCH  11  12
ENDBRANCH   1  10
BRANCH   2  20
ATOM     20  O15 ZIN A   1      21.735  -0.625  10.787  0.00  0.00    -0.395 OA
ATOM     21  H45 ZIN A   1      22.247   0.028  10.292  0.00  0.00     0.210 HD
ENDBRANCH   2  20
BRANCH   7  22
ATOM     22  C22 ZIN A   1      18.570  -0.572  17.347  0.00  0.00     0.030 C 
BRANCH  22  23
ATOM     23  C23 ZIN A   1      17.590   0.603  17.363  0.00  0.00     0.014 C 
BRANCH  23  24
ATOM     24  C24 ZIN A   1      17.701   1.341  18.699  0.00  0.00     0.113 C 
BRANCH  24  25
ATOM     25  C25 ZIN A   1      18.452   2.631  18.499  0.00  0.00     0.172 C 
ATOM     26  O26 ZIN A   1      19.634   2.609  18.201  0.00  0.00    -0.648 OA
ATOM     27  O27 ZIN A   1      17.878   3.698  18.635  0.00  0.00    -0.648 OA
ENDBRANCH  24  25
ENDBRANCH  23  24
ENDBRANCH  22  23
ENDBRANCH   7  22
TORSDOF 12
ENDMDL
