MODEL 1
REMARK VINA RESULT:      -3.6      0.000      0.000
REMARK  5 active torsions:
REMARK  status: ('A' for Active; 'I' for Inactive)
REMARK    1  A    between atoms: C2_2  and  C4_4 
REMARK    2  A    between atoms: C4_4  and  S6_5 
REMARK    3  A    between atoms: C4_4  and  C7_6 
REMARK    4  A    between atoms: C7_6  and  S9_7 
REMARK    5  A    between atoms: C7_6  and  C10_8 
ROOT
ATOM      1  C4  <0> d   1      17.718   0.925   9.555  0.00  0.00     0.169 C 
ENDROOT
BRANCH   1   2
ATOM      2  C2  <0> d   1      18.801   1.876   9.114  0.00  0.00     0.188 C 
ATOM      3  O1  <0> d   1      19.812   1.447   8.585  0.00  0.00    -0.647 OA
ATOM      4  O3  <0> d   1      18.663   3.076   9.282  0.00  0.00    -0.647 OA
ENDBRANCH   1   2
BRANCH   1   5
ATOM      5  S6  <0> d   1      17.365  -0.249   8.218  0.00  0.00    -0.165 SA
ATOM      6  H13 <0> d   1      16.753   0.516   7.297  0.00  0.00     0.102 HD
ENDBRANCH   1   5
BRANCH   1   7
ATOM      7  C7  <0> d   1      18.185   0.160  10.795  0.00  0.00     0.169 C 
BRANCH   7   8
ATOM      8  S9  <0> d   1      18.908   1.322  11.985  0.00  0.00    -0.165 SA
ATOM      9  H14 <0> d   1      18.781   0.673  13.157  0.00  0.00     0.102 HD
ENDBRANCH   7   8
BRANCH   7  10
ATOM     10  C10 <0> d   1      17.008  -0.538  11.425  0.00  0.00     0.188 C 
ATOM     11  O11 <0> d   1      15.965   0.067  11.605  0.00  0.00    -0.647 OA
ATOM     12  O12 <0> d   1      17.097  -1.710  11.754  0.00  0.00    -0.647 OA
ENDBRANCH   7  10
ENDBRANCH   1   7
TORSDOF 5
ENDMDL
MODEL 2
REMARK VINA RESULT:      -3.6      5.587      7.103
REMARK  5 active torsions:
REMARK  status: ('A' for Active; 'I' for Inactive)
REMARK    1  A    between atoms: C2_2  and  C4_4 
REMARK    2  A    between atoms: C4_4  and  S6_5 
REMARK    3  A    between atoms: C4_4  and  C7_6 
REMARK    4  A    between atoms: C7_6  and  S9_7 
REMARK    5  A    between atoms: C7_6  and  C10_8 
ROOT
ATOM      1  C4  <0> d   1      18.504   1.492  16.703  0.00  0.00     0.169 C 
ENDROOT
BRANCH   1   2
ATOM      2  C2  <0> d   1      18.790   1.090  18.127  0.00  0.00     0.188 C 
ATOM      3  O1  <0> d   1      19.939   0.909  18.491  0.00  0.00    -0.647 OA
ATOM      4  O3  <0> d   1      17.871   0.952  18.918  0.00  0.00    -0.647 OA
ENDBRANCH   1   2
BRANCH   1   5
ATOM      5  S6  <0> d   1      19.314   3.075  16.348  0.00  0.00    -0.165 SA
ATOM      6  H13 <0> d   1      20.058   2.799  15.264  0.00  0.00     0.102 HD
ENDBRANCH   1   5
BRANCH   1   7
ATOM      7  C7  <0> d   1      19.041   0.420  15.753  0.00  0.00     0.169 C 
BRANCH   7   8
ATOM      8  S9  <0> d   1      18.231  -1.164  16.109  0.00  0.00    -0.165 SA
ATOM      9  H14 <0> d   1      17.102  -1.097  15.380  0.00  0.00     0.102 HD
ENDBRANCH   7   8
BRANCH   7  10
ATOM     10  C10 <0> d   1      18.754   0.823  14.330  0.00  0.00     0.188 C 
ATOM     11  O11 <0> d   1      19.670   0.938  13.533  0.00  0.00    -0.647 OA
ATOM     12  O12 <0> d   1      17.606   1.032  13.974  0.00  0.00    -0.647 OA
ENDBRANCH   7  10
ENDBRANCH   1   7
TORSDOF 5
ENDMDL
MODEL 3
REMARK VINA RESULT:      -3.6      3.853      5.269
REMARK  5 active torsions:
REMARK  status: ('A' for Active; 'I' for Inactive)
REMARK    1  A    between atoms: C2_2  and  C4_4 
REMARK    2  A    between atoms: C4_4  and  S6_5 
REMARK    3  A    between atoms: C4_4  and  C7_6 
REMARK    4  A    between atoms: C7_6  and  S9_7 
REMARK    5  A    between atoms: C7_6  and  C10_8 
ROOT
ATOM      1  C4  <0> d   1      19.316  -1.542   7.296  0.00  0.00     0.169 C 
ENDROOT
BRANCH   1   2
ATOM      2  C2  <0> d   1      19.130  -1.030   8.701  0.00  0.00     0.188 C 
ATOM      3  O1  <0> d   1      18.032  -1.082   9.229  0.00  0.00    -0.647 OA
ATOM      4  O3  <0> d   1      20.079  -0.569   9.312  0.00  0.00    -0.647 OA
ENDBRANCH   1   2
BRANCH   1   5
ATOM      5  S6  <0> d   1      18.827  -3.287   7.219  0.00  0.00    -0.165 SA
ATOM      6  H13 <0> d   1      19.748  -3.824   6.400  0.00  0.00     0.102 HD
ENDBRANCH   1   5
BRANCH   1   7
ATOM      7  C7  <0> d   1      18.447  -0.726   6.337  0.00  0.00     0.169 C 
BRANCH   7   8
ATOM      8  S9  <0> d   1      18.871   1.031   6.482  0.00  0.00    -0.165 SA
ATOM      9  H14 <0> d   1      18.889   1.446   5.203  0.00  0.00     0.102 HD
ENDBRANCH   7   8
BRANCH   7  10
ATOM     10  C10 <0> d   1      18.692  -1.187   4.923  0.00  0.00     0.188 C 
ATOM     11  O11 <0> d   1      17.755  -1.532   4.223  0.00  0.00    -0.647 OA
ATOM     12  O12 <0> d   1      19.828  -1.213   4.478  0.00  0.00    -0.647 OA
ENDBRANCH   7  10
ENDBRANCH   1   7
TORSDOF 5
ENDMDL
MODEL 4
REMARK VINA RESULT:      -3.6      5.558      6.567
REMARK  5 active torsions:
REMARK  status: ('A' for Active; 'I' for Inactive)
REMARK    1  A    between atoms: C2_2  and  C4_4 
REMARK    2  A    between atoms: C4_4  and  S6_5 
REMARK    3  A    between atoms: C4_4  and  C7_6 
REMARK    4  A    between atoms: C7_6  and  S9_7 
REMARK    5  A    between atoms: C7_6  and  C10_8 
ROOT
ATOM      1  C4  <0> d   1      19.268   1.398  15.716  0.00  0.00     0.169 C 
ENDROOT
BRANCH   1   2
ATOM      2  C2  <0> d   1      19.036   0.959  14.293  0.00  0.00     0.188 C 
ATOM      3  O1  <0> d   1      17.914   0.993  13.819  0.00  0.00    -0.647 OA
ATOM      4  O3  <0> d   1      19.973   0.574  13.614  0.00  0.00    -0.647 OA
ENDBRANCH   1   2
BRANCH   1   5
ATOM      5  S6  <0> d   1      18.780   3.135  15.899  0.00  0.00    -0.165 SA
ATOM      6  H13 <0> d   1      19.895   3.714  16.377  0.00  0.00     0.102 HD
ENDBRANCH   1   5
BRANCH   1   7
ATOM      7  C7  <0> d   1      18.431   0.531  16.660  0.00  0.00     0.169 C 
BRANCH   7   8
ATOM      8  S9  <0> d   1      18.838  -1.216  16.396  0.00  0.00    -0.165 SA
ATOM      9  H14 <0> d   1      20.174  -1.242  16.546  0.00  0.00     0.102 HD
ENDBRANCH   7   8
BRANCH   7  10
ATOM     10  C10 <0> d   1      18.734   0.908  18.086  0.00  0.00     0.188 C 
ATOM     11  O11 <0> d   1      19.890   0.964  18.470  0.00  0.00    -0.647 OA
ATOM     12  O12 <0> d   1      17.823   1.160  18.858  0.00  0.00    -0.647 OA
ENDBRANCH   7  10
ENDBRANCH   1   7
TORSDOF 5
ENDMDL
MODEL 5
REMARK VINA RESULT:      -3.5      5.395      6.318
REMARK  5 active torsions:
REMARK  status: ('A' for Active; 'I' for Inactive)
REMARK    1  A    between atoms: C2_2  and  C4_4 
REMARK    2  A    between atoms: C4_4  and  S6_5 
REMARK    3  A    between atoms: C4_4  and  C7_6 
REMARK    4  A    between atoms: C7_6  and  S9_7 
REMARK    5  A    between atoms: C7_6  and  C10_8 
ROOT
ATOM      1  C4  <0> d   1      18.419   0.356  15.641  0.00  0.00     0.169 C 
ENDROOT
BRANCH   1   2
ATOM      2  C2  <0> d   1      18.748   0.359  14.171  0.00  0.00     0.188 C 
ATOM      3  O1  <0> d   1      19.907   0.261  13.804  0.00  0.00    -0.647 OA
ATOM      4  O3  <0> d   1      17.854   0.453  13.346  0.00  0.00    -0.647 OA
ENDBRANCH   1   2
BRANCH   1   5
ATOM      5  S6  <0> d   1      18.860  -1.251  16.356  0.00  0.00    -0.165 SA
ATOM      6  H13 <0> d   1      19.187  -1.983  15.277  0.00  0.00     0.102 HD
ENDBRANCH   1   5
BRANCH   1   7
ATOM      7  C7  <0> d   1      19.212   1.461  16.342  0.00  0.00     0.169 C 
BRANCH   7   8
ATOM      8  S9  <0> d   1      18.745   3.072  15.652  0.00  0.00    -0.165 SA
ATOM      9  H14 <0> d   1      18.388   3.776  16.741  0.00  0.00     0.102 HD
ENDBRANCH   7   8
BRANCH   7  10
ATOM     10  C10 <0> d   1      18.906   1.438  17.817  0.00  0.00     0.188 C 
ATOM     11  O11 <0> d   1      17.750   1.502  18.201  0.00  0.00    -0.647 OA
ATOM     12  O12 <0> d   1      19.813   1.355  18.628  0.00  0.00    -0.647 OA
ENDBRANCH   7  10
ENDBRANCH   1   7
TORSDOF 5
ENDMDL
MODEL 6
REMARK VINA RESULT:      -3.4      3.092      4.125
REMARK  5 active torsions:
REMARK  status: ('A' for Active; 'I' for Inactive)
REMARK    1  A    between atoms: C2_2  and  C4_4 
REMARK    2  A    between atoms: C4_4  and  S6_5 
REMARK    3  A    between atoms: C4_4  and  C7_6 
REMARK    4  A    between atoms: C7_6  and  S9_7 
REMARK    5  A    between atoms: C7_6  and  C10_8 
ROOT
ATOM      1  C4  <0> d   1      18.487   3.938  11.399  0.00  0.00     0.169 C 
ENDROOT
BRANCH   1   2
ATOM      2  C2  <0> d   1      17.369   4.648  10.680  0.00  0.00     0.188 C 
ATOM      3  O1  <0> d   1      16.245   4.649  11.152  0.00  0.00    -0.647 OA
ATOM      4  O3  <0> d   1      17.590   5.226   9.630  0.00  0.00    -0.647 OA
ENDBRANCH   1   2
BRANCH   1   5
ATOM      5  S6  <0> d   1      18.795   4.752  12.990  0.00  0.00    -0.165 SA
ATOM      6  H13 <0> d   1      19.675   3.929  13.587  0.00  0.00     0.102 HD
ENDBRANCH   1   5
BRANCH   1   7
ATOM      7  C7  <0> d   1      18.093   2.479  11.640  0.00  0.00     0.169 C 
BRANCH   7   8
ATOM      8  S9  <0> d   1      17.896   1.635  10.047  0.00  0.00    -0.165 SA
ATOM      9  H14 <0> d   1      17.575   0.379  10.407  0.00  0.00     0.102 HD
ENDBRANCH   7   8
BRANCH   7  10
ATOM     10  C10 <0> d   1      19.171   1.795  12.441  0.00  0.00     0.188 C 
ATOM     11  O11 <0> d   1      20.290   1.667  11.974  0.00  0.00    -0.647 OA
ATOM     12  O12 <0> d   1      18.924   1.371  13.558  0.00  0.00    -0.647 OA
ENDBRANCH   7  10
ENDBRANCH   1   7
TORSDOF 5
ENDMDL
MODEL 7
REMARK VINA RESULT:      -3.4      3.947      4.684
REMARK  5 active torsions:
REMARK  status: ('A' for Active; 'I' for Inactive)
REMARK    1  A    between atoms: C2_2  and  C4_4 
REMARK    2  A    between atoms: C4_4  and  S6_5 
REMARK    3  A    between atoms: C4_4  and  C7_6 
REMARK    4  A    between atoms: C7_6  and  S9_7 
REMARK    5  A    between atoms: C7_6  and  C10_8 
ROOT
ATOM      1  C4  <0> d   1      18.442  -1.709   6.281  0.00  0.00     0.169 C 
ENDROOT
BRANCH   1   2
ATOM      2  C2  <0> d   1      18.727  -1.365   4.842  0.00  0.00     0.188 C 
ATOM      3  O1  <0> d   1      17.810  -1.088   4.087  0.00  0.00    -0.647 OA
ATOM      4  O3  <0> d   1      19.876  -1.358   4.433  0.00  0.00    -0.647 OA
ENDBRANCH   1   2
BRANCH   1   5
ATOM      5  S6  <0> d   1      18.996  -3.403   6.619  0.00  0.00    -0.165 SA
ATOM      6  H13 <0> d   1      17.843  -4.066   6.811  0.00  0.00     0.102 HD
ENDBRANCH   1   5
BRANCH   1   7
ATOM      7  C7  <0> d   1      19.189  -0.736   7.195  0.00  0.00     0.169 C 
BRANCH   7   8
ATOM      8  S9  <0> d   1      18.773   0.968   6.734  0.00  0.00    -0.165 SA
ATOM      9  H14 <0> d   1      17.995   0.807   5.649  0.00  0.00     0.102 HD
ENDBRANCH   7   8
BRANCH   7  10
ATOM     10  C10 <0> d   1      18.785  -0.982   8.626  0.00  0.00     0.188 C 
ATOM     11  O11 <0> d   1      19.638  -1.175   9.476  0.00  0.00    -0.647 OA
ATOM     12  O12 <0> d   1      17.604  -0.987   8.934  0.00  0.00    -0.647 OA
ENDBRANCH   7  10
ENDBRANCH   1   7
TORSDOF 5
ENDMDL
MODEL 8
REMARK VINA RESULT:      -3.4      2.111      3.751
REMARK  5 active torsions:
REMARK  status: ('A' for Active; 'I' for Inactive)
REMARK    1  A    between atoms: C2_2  and  C4_4 
REMARK    2  A    between atoms: C4_4  and  S6_5 
REMARK    3  A    between atoms: C4_4  and  C7_6 
REMARK    4  A    between atoms: C7_6  and  S9_7 
REMARK    5  A    between atoms: C7_6  and  C10_8 
ROOT
ATOM      1  C4  <0> d   1      18.123  -0.507  11.227  0.00  0.00     0.169 C 
ENDROOT
BRANCH   1   2
ATOM      2  C2  <0> d   1      16.990   0.120  11.998  0.00  0.00     0.188 C 
ATOM      3  O1  <0> d   1      15.855   0.079  11.555  0.00  0.00    -0.647 OA
ATOM      4  O3  <0> d   1      17.208   0.663  13.068  0.00  0.00    -0.647 OA
ENDBRANCH   1   2
BRANCH   1   5
ATOM      5  S6  <0> d   1      17.856  -2.297  11.109  0.00  0.00    -0.165 SA
ATOM      6  H13 <0> d   1      17.375  -2.451   9.863  0.00  0.00     0.102 HD
ENDBRANCH   1   5
BRANCH   1   7
ATOM      7  C7  <0> d   1      18.176   0.094   9.821  0.00  0.00     0.169 C 
BRANCH   7   8
ATOM      8  S9  <0> d   1      18.327   1.898   9.939  0.00  0.00    -0.165 SA
ATOM      9  H14 <0> d   1      19.055   2.068  11.057  0.00  0.00     0.102 HD
ENDBRANCH   7   8
BRANCH   7  10
ATOM     10  C10 <0> d   1      19.366  -0.462   9.083  0.00  0.00     0.188 C 
ATOM     11  O11 <0> d   1      19.214  -1.005   8.001  0.00  0.00    -0.647 OA
ATOM     12  O12 <0> d   1      20.483  -0.369   9.566  0.00  0.00    -0.647 OA
ENDBRANCH   7  10
ENDBRANCH   1   7
TORSDOF 5
ENDMDL
MODEL 9
REMARK VINA RESULT:      -3.4      2.778      3.851
REMARK  5 active torsions:
REMARK  status: ('A' for Active; 'I' for Inactive)
REMARK    1  A    between atoms: C2_2  and  C4_4 
REMARK    2  A    between atoms: C4_4  and  S6_5 
REMARK    3  A    between atoms: C4_4  and  C7_6 
REMARK    4  A    between atoms: C7_6  and  S9_7 
REMARK    5  A    between atoms: C7_6  and  C10_8 
ROOT
ATOM      1  C4  <0> d   1      18.182   0.683  11.841  0.00  0.00     0.169 C 
ENDROOT
BRANCH   1   2
ATOM      2  C2  <0> d   1      17.009   0.186  11.036  0.00  0.00     0.188 C 
ATOM      3  O1  <0> d   1      17.162  -0.133   9.869  0.00  0.00    -0.647 OA
ATOM      4  O3  <0> d   1      15.908   0.097  11.553  0.00  0.00    -0.647 OA
ENDBRANCH   1   2
BRANCH   1   5
ATOM      5  S6  <0> d   1      17.921   2.424  12.276  0.00  0.00    -0.165 SA
ATOM      6  H13 <0> d   1      17.678   3.001  11.086  0.00  0.00     0.102 HD
ENDBRANCH   1   5
BRANCH   1   7
ATOM      7  C7  <0> d   1      18.312  -0.148  13.119  0.00  0.00     0.169 C 
BRANCH   7   8
ATOM      8  S9  <0> d   1      18.552  -1.892  12.684  0.00  0.00    -0.165 SA
ATOM      9  H14 <0> d   1      18.708  -2.485  13.881  0.00  0.00     0.102 HD
ENDBRANCH   7   8
BRANCH   7  10
ATOM     10  C10 <0> d   1      19.494   0.339  13.915  0.00  0.00     0.188 C 
ATOM     11  O11 <0> d   1      20.604   0.360  13.409  0.00  0.00    -0.647 OA
ATOM     12  O12 <0> d   1      19.343   0.714  15.066  0.00  0.00    -0.647 OA
ENDBRANCH   7  10
ENDBRANCH   1   7
TORSDOF 5
ENDMDL
