MODEL 1
REMARK VINA RESULT:      -7.6      0.000      0.000
REMARK  5 active torsions:
REMARK  status: ('A' for Active; 'I' for Inactive)
REMARK    1  A    between atoms: N2_2  and  C5_5 
REMARK    2  A    between atoms: C5_5  and  C6_6 
REMARK    3  A    between atoms: C6_6  and  C7_7 
REMARK    4  A    between atoms: C7_7  and  C8_8 
REMARK    5  A    between atoms: C8_8  and  C9_9 
ROOT
ATOM      1  C8  <0> d   1      18.708  -0.903  12.195  0.00  0.00     0.116 C 
ATOM      2  O16 <0> d   1      17.571  -0.126  11.780  0.00  0.00    -0.366 OA
ATOM      3  C17 <0> d   1      17.397   0.861  12.813  0.00  0.00     0.209 C 
ATOM      4  C18 <0> d   1      17.930   0.234  14.081  0.00  0.00    -0.023 A 
ATOM      5  C19 <0> d   1      17.760   0.538  15.412  0.00  0.00     0.032 A 
ATOM      6  C20 <0> d   1      18.392  -0.238  16.388  0.00  0.00     0.045 A 
ATOM      7  C21 <0> d   1      18.219   0.071  17.775  0.00  0.00     0.099 C 
ATOM      8  N22 <0> d   1      18.083   0.317  18.876  0.00  0.00    -0.191 NA
ATOM      9  C23 <0> d   1      19.193  -1.315  16.003  0.00  0.00     0.023 A 
ATOM     10  C24 <0> d   1      19.355  -1.609  14.665  0.00  0.00     0.012 A 
ATOM     11  C25 <0> d   1      18.727  -0.838  13.706  0.00  0.00    -0.011 A 
ENDROOT
BRANCH   1  12
ATOM     12  C7  <0> d   1      19.995  -0.301  11.626  0.00  0.00     0.050 C 
BRANCH  12  13
ATOM     13  C6  <0> d   1      19.669   0.494  10.361  0.00  0.00     0.031 C 
BRANCH  13  14
ATOM     14  C5  <0> d   1      20.040  -0.332   9.129  0.00  0.00     0.234 C 
BRANCH  14  15
ATOM     15  N2  <0> d   1      18.828  -0.631   8.355  0.00  0.00    -0.079 N 
ATOM     16  C1  <0> d   1      18.846   0.136   7.102  0.00  0.00     0.269 C 
ATOM     17  H3  <0> d   1      18.014  -0.376   8.895  0.00  0.00     0.278 HD
ATOM     18  C4  <0> d   1      18.782  -2.068   8.051  0.00  0.00     0.269 C 
ENDBRANCH  14  15
ENDBRANCH  13  14
ENDBRANCH  12  13
ENDBRANCH   1  12
BRANCH   1  19
ATOM     19  C9  <0> d   1      18.559  -2.331  11.739  0.00  0.00    -0.019 A 
ATOM     20  C15 <0> d   1      19.681  -3.118  11.555  0.00  0.00     0.013 A 
ATOM     21  C14 <0> d   1      19.546  -4.430  11.140  0.00  0.00     0.043 A 
ATOM     22  C12 <0> d   1      18.286  -4.952  10.900  0.00  0.00     0.116 A 
ATOM     23  C11 <0> d   1      17.165  -4.162  11.079  0.00  0.00     0.043 A 
ATOM     24  F13 <0> d   1      18.154  -6.232  10.490  0.00  0.00    -0.206 F 
ATOM     25  C10 <0> d   1      17.302  -2.853  11.498  0.00  0.00     0.013 A 
ENDBRANCH   1  19
TORSDOF 5
ENDMDL
MODEL 2
REMARK VINA RESULT:      -7.6      3.218      6.849
REMARK  5 active torsions:
REMARK  status: ('A' for Active; 'I' for Inactive)
REMARK    1  A    between atoms: N2_2  and  C5_5 
REMARK    2  A    between atoms: C5_5  and  C6_6 
REMARK    3  A    between atoms: C6_6  and  C7_7 
REMARK    4  A    between atoms: C7_7  and  C8_8 
REMARK    5  A    between atoms: C8_8  and  C9_9 
ROOT
ATOM      1  C8  <0> d   1      18.569   2.017  12.600  0.00  0.00     0.116 C 
ATOM      2  O16 <0> d   1      19.874   2.618  12.515  0.00  0.00    -0.366 OA
ATOM      3  C17 <0> d   1      20.012   3.016  11.139  0.00  0.00     0.209 C 
ATOM      4  C18 <0> d   1      19.160   2.055  10.341  0.00  0.00    -0.023 A 
ATOM      5  C19 <0> d   1      19.129   1.728   9.005  0.00  0.00     0.032 A 
ATOM      6  C20 <0> d   1      18.210   0.781   8.543  0.00  0.00     0.045 A 
ATOM      7  C21 <0> d   1      18.172   0.435   7.154  0.00  0.00     0.099 C 
ATOM      8  N22 <0> d   1      18.141   0.161   6.052  0.00  0.00    -0.191 NA
ATOM      9  C23 <0> d   1      17.331   0.175   9.442  0.00  0.00     0.023 A 
ATOM     10  C24 <0> d   1      17.373   0.512  10.779  0.00  0.00     0.012 A 
ATOM     11  C25 <0> d   1      18.283   1.448  11.229  0.00  0.00    -0.011 A 
ENDROOT
BRANCH   1  12
ATOM     12  C7  <0> d   1      17.524   3.076  12.960  0.00  0.00     0.050 C 
BRANCH  12  13
ATOM     13  C6  <0> d   1      18.230   4.362  13.393  0.00  0.00     0.031 C 
BRANCH  13  14
ATOM     14  C5  <0> d   1      18.280   4.427  14.920  0.00  0.00     0.234 C 
BRANCH  14  15
ATOM     15  N2  <0> d   1      19.643   4.128  15.379  0.00  0.00    -0.079 N 
ATOM     16  C1  <0> d   1      20.302   5.372  15.797  0.00  0.00     0.269 C 
ATOM     17  H3  <0> d   1      20.166   3.706  14.626  0.00  0.00     0.278 HD
ATOM     18  C4  <0> d   1      19.585   3.198  16.515  0.00  0.00     0.269 C 
ENDBRANCH  14  15
ENDBRANCH  13  14
ENDBRANCH  12  13
ENDBRANCH   1  12
BRANCH   1  19
ATOM     19  C9  <0> d   1      18.567   0.917  13.630  0.00  0.00    -0.019 A 
ATOM     20  C15 <0> d   1      17.545   0.843  14.559  0.00  0.00     0.013 A 
ATOM     21  C14 <0> d   1      17.539  -0.168  15.502  0.00  0.00     0.043 A 
ATOM     22  C12 <0> d   1      18.563  -1.101  15.521  0.00  0.00     0.116 A 
ATOM     23  C11 <0> d   1      19.588  -1.021  14.594  0.00  0.00     0.043 A 
ATOM     24  F13 <0> d   1      18.560  -2.086  16.445  0.00  0.00    -0.206 F 
ATOM     25  C10 <0> d   1      19.589  -0.013  13.650  0.00  0.00     0.013 A 
ENDBRANCH   1  19
TORSDOF 5
ENDMDL
MODEL 3
REMARK VINA RESULT:      -7.5      3.285      5.049
REMARK  5 active torsions:
REMARK  status: ('A' for Active; 'I' for Inactive)
REMARK    1  A    between atoms: N2_2  and  C5_5 
REMARK    2  A    between atoms: C5_5  and  C6_6 
REMARK    3  A    between atoms: C6_6  and  C7_7 
REMARK    4  A    between atoms: C7_7  and  C8_8 
REMARK    5  A    between atoms: C8_8  and  C9_9 
ROOT
ATOM      1  C8  <0> d   1      18.227   0.521  10.974  0.00  0.00     0.116 C 
ATOM      2  O16 <0> d   1      19.469   0.023  11.505  0.00  0.00    -0.366 OA
ATOM      3  C17 <0> d   1      19.623   0.684  12.774  0.00  0.00     0.209 C 
ATOM      4  C18 <0> d   1      18.904   2.007  12.643  0.00  0.00    -0.023 A 
ATOM      5  C19 <0> d   1      18.960   3.172  13.373  0.00  0.00     0.032 A 
ATOM      6  C20 <0> d   1      18.160   4.259  13.009  0.00  0.00     0.045 A 
ATOM      7  C21 <0> d   1      18.213   5.475  13.762  0.00  0.00     0.099 C 
ATOM      8  N22 <0> d   1      18.255   6.441  14.361  0.00  0.00    -0.191 NA
ATOM      9  C23 <0> d   1      17.308   4.153  11.908  0.00  0.00     0.023 A 
ATOM     10  C24 <0> d   1      17.262   2.978  11.185  0.00  0.00     0.012 A 
ATOM     11  C25 <0> d   1      18.056   1.908  11.550  0.00  0.00    -0.011 A 
ENDROOT
BRANCH   1  12
ATOM     12  C7  <0> d   1      17.068  -0.378  11.412  0.00  0.00     0.050 C 
BRANCH  12  13
ATOM     13  C6  <0> d   1      17.623  -1.608  12.134  0.00  0.00     0.031 C 
BRANCH  13  14
ATOM     14  C5  <0> d   1      17.618  -2.804  11.180  0.00  0.00     0.234 C 
BRANCH  14  15
ATOM     15  N2  <0> d   1      18.942  -2.942  10.560  0.00  0.00    -0.079 N 
ATOM     16  C1  <0> d   1      19.795  -3.784  11.410  0.00  0.00     0.269 C 
ATOM     17  H3  <0> d   1      19.363  -2.030  10.460  0.00  0.00     0.278 HD
ATOM     18  C4  <0> d   1      18.802  -3.564   9.237  0.00  0.00     0.269 C 
ENDBRANCH  14  15
ENDBRANCH  13  14
ENDBRANCH  12  13
ENDBRANCH   1  12
BRANCH   1  19
ATOM     19  C9  <0> d   1      18.292   0.587   9.470  0.00  0.00    -0.019 A 
ATOM     20  C15 <0> d   1      19.266   1.351   8.854  0.00  0.00     0.013 A 
ATOM     21  C14 <0> d   1      19.330   1.409   7.474  0.00  0.00     0.043 A 
ATOM     22  C12 <0> d   1      18.411   0.710   6.710  0.00  0.00     0.116 A 
ATOM     23  C11 <0> d   1      17.433  -0.049   7.328  0.00  0.00     0.043 A 
ATOM     24  F13 <0> d   1      18.469   0.771   5.362  0.00  0.00    -0.206 F 
ATOM     25  C10 <0> d   1      17.374  -0.110   8.707  0.00  0.00     0.013 A 
ENDBRANCH   1  19
TORSDOF 5
ENDMDL
MODEL 4
REMARK VINA RESULT:      -7.4      3.417      5.514
REMARK  5 active torsions:
REMARK  status: ('A' for Active; 'I' for Inactive)
REMARK    1  A    between atoms: N2_2  and  C5_5 
REMARK    2  A    between atoms: C5_5  and  C6_6 
REMARK    3  A    between atoms: C6_6  and  C7_7 
REMARK    4  A    between atoms: C7_7  and  C8_8 
REMARK    5  A    between atoms: C8_8  and  C9_9 
ROOT
ATOM      1  C8  <0> d   1      18.335  -0.554  12.972  0.00  0.00     0.116 C 
ATOM      2  O16 <0> d   1      17.147  -1.166  12.440  0.00  0.00    -0.366 OA
ATOM      3  C17 <0> d   1      16.909  -0.494  11.189  0.00  0.00     0.209 C 
ATOM      4  C18 <0> d   1      17.487   0.894  11.348  0.00  0.00    -0.023 A 
ATOM      5  C19 <0> d   1      17.300   2.065  10.649  0.00  0.00     0.032 A 
ATOM      6  C20 <0> d   1      17.986   3.220  11.034  0.00  0.00     0.045 A 
ATOM      7  C21 <0> d   1      17.796   4.442  10.313  0.00  0.00     0.099 C 
ATOM      8  N22 <0> d   1      17.646   5.413   9.740  0.00  0.00    -0.191 NA
ATOM      9  C23 <0> d   1      18.857   3.176  12.124  0.00  0.00     0.023 A 
ATOM     10  C24 <0> d   1      19.035   1.996  12.816  0.00  0.00     0.012 A 
ATOM     11  C25 <0> d   1      18.353   0.858  12.431  0.00  0.00    -0.011 A 
ENDROOT
BRANCH   1  12
ATOM     12  C7  <0> d   1      19.577  -1.315  12.501  0.00  0.00     0.050 C 
BRANCH  12  13
ATOM     13  C6  <0> d   1      19.244  -2.802  12.372  0.00  0.00     0.031 C 
BRANCH  13  14
ATOM     14  C5  <0> d   1      19.669  -3.302  10.990  0.00  0.00     0.234 C 
BRANCH  14  15
ATOM     15  N2  <0> d   1      19.302  -4.717  10.845  0.00  0.00    -0.079 N 
ATOM     16  C1  <0> d   1      17.996  -4.950  11.478  0.00  0.00     0.269 C 
ATOM     17  H3  <0> d   1      20.000  -5.292  11.292  0.00  0.00     0.278 HD
ATOM     18  C4  <0> d   1      19.224  -5.060   9.419  0.00  0.00     0.269 C 
ENDBRANCH  14  15
ENDBRANCH  13  14
ENDBRANCH  12  13
ENDBRANCH   1  12
BRANCH   1  19
ATOM     19  C9  <0> d   1      18.281  -0.532  14.477  0.00  0.00    -0.019 A 
ATOM     20  C15 <0> d   1      19.205  -1.255  15.211  0.00  0.00     0.013 A 
ATOM     21  C14 <0> d   1      19.160  -1.232  16.593  0.00  0.00     0.043 A 
ATOM     22  C12 <0> d   1      18.184  -0.495  17.241  0.00  0.00     0.116 A 
ATOM     23  C11 <0> d   1      17.257   0.223  16.505  0.00  0.00     0.043 A 
ATOM     24  F13 <0> d   1      18.136  -0.477  18.590  0.00  0.00    -0.206 F 
ATOM     25  C10 <0> d   1      17.307   0.203  15.125  0.00  0.00     0.013 A 
ENDBRANCH   1  19
TORSDOF 5
ENDMDL
MODEL 5
REMARK VINA RESULT:      -7.4      1.612      2.194
REMARK  5 active torsions:
REMARK  status: ('A' for Active; 'I' for Inactive)
REMARK    1  A    between atoms: N2_2  and  C5_5 
REMARK    2  A    between atoms: C5_5  and  C6_6 
REMARK    3  A    between atoms: C6_6  and  C7_7 
REMARK    4  A    between atoms: C7_7  and  C8_8 
REMARK    5  A    between atoms: C8_8  and  C9_9 
ROOT
ATOM      1  C8  <0> d   1      18.135  -1.218  11.404  0.00  0.00     0.116 C 
ATOM      2  O16 <0> d   1      16.806  -0.673  11.314  0.00  0.00    -0.366 OA
ATOM      3  C17 <0> d   1      16.712   0.262  12.404  0.00  0.00     0.209 C 
ATOM      4  C18 <0> d   1      17.649  -0.250  13.473  0.00  0.00    -0.023 A 
ATOM      5  C19 <0> d   1      17.759   0.016  14.819  0.00  0.00     0.032 A 
ATOM      6  C20 <0> d   1      18.746  -0.623  15.575  0.00  0.00     0.045 A 
ATOM      7  C21 <0> d   1      18.866  -0.352  16.976  0.00  0.00     0.099 C 
ATOM      8  N22 <0> d   1      18.963  -0.137  18.087  0.00  0.00    -0.191 NA
ATOM      9  C23 <0> d   1      19.613  -1.527  14.958  0.00  0.00     0.023 A 
ATOM     10  C24 <0> d   1      19.491  -1.785  13.608  0.00  0.00     0.012 A 
ATOM     11  C25 <0> d   1      18.514  -1.150  12.867  0.00  0.00    -0.011 A 
ENDROOT
BRANCH   1  12
ATOM     12  C7  <0> d   1      19.106  -0.380  10.569  0.00  0.00     0.050 C 
BRANCH  12  13
ATOM     13  C6  <0> d   1      18.319   0.462   9.564  0.00  0.00     0.031 C 
BRANCH  13  14
ATOM     14  C5  <0> d   1      18.895   1.878   9.523  0.00  0.00     0.234 C 
BRANCH  14  15
ATOM     15  N2  <0> d   1      18.583   2.572  10.779  0.00  0.00    -0.079 N 
ATOM     16  C1  <0> d   1      19.817   3.129  11.351  0.00  0.00     0.269 C 
ATOM     17  H3  <0> d   1      18.175   1.919  11.431  0.00  0.00     0.278 HD
ATOM     18  C4  <0> d   1      17.630   3.659  10.516  0.00  0.00     0.269 C 
ENDBRANCH  14  15
ENDBRANCH  13  14
ENDBRANCH  12  13
ENDBRANCH   1  12
BRANCH   1  19
ATOM     19  C9  <0> d   1      18.146  -2.648  10.931  0.00  0.00    -0.019 A 
ATOM     20  C15 <0> d   1      19.096  -3.065  10.017  0.00  0.00     0.013 A 
ATOM     21  C14 <0> d   1      19.111  -4.378   9.585  0.00  0.00     0.043 A 
ATOM     22  C12 <0> d   1      18.166  -5.273  10.061  0.00  0.00     0.116 A 
ATOM     23  C11 <0> d   1      17.213  -4.852  10.972  0.00  0.00     0.043 A 
ATOM     24  F13 <0> d   1      18.177  -6.555   9.636  0.00  0.00    -0.206 F 
ATOM     25  C10 <0> d   1      17.204  -3.541  11.406  0.00  0.00     0.013 A 
ENDBRANCH   1  19
TORSDOF 5
ENDMDL
MODEL 6
REMARK VINA RESULT:      -7.2      3.750      4.813
REMARK  5 active torsions:
REMARK  status: ('A' for Active; 'I' for Inactive)
REMARK    1  A    between atoms: N2_2  and  C5_5 
REMARK    2  A    between atoms: C5_5  and  C6_6 
REMARK    3  A    between atoms: C6_6  and  C7_7 
REMARK    4  A    between atoms: C7_7  and  C8_8 
REMARK    5  A    between atoms: C8_8  and  C9_9 
ROOT
ATOM      1  C8  <0> d   1      18.182   3.006  11.606  0.00  0.00     0.116 C 
ATOM      2  O16 <0> d   1      16.844   3.210  11.118  0.00  0.00    -0.366 OA
ATOM      3  C17 <0> d   1      16.573   4.605  11.347  0.00  0.00     0.209 C 
ATOM      4  C18 <0> d   1      17.408   5.000  12.543  0.00  0.00    -0.023 A 
ATOM      5  C19 <0> d   1      17.349   6.069  13.407  0.00  0.00     0.032 A 
ATOM      6  C20 <0> d   1      18.277   6.174  14.447  0.00  0.00     0.045 A 
ATOM      7  C21 <0> d   1      18.221   7.283  15.351  0.00  0.00     0.099 C 
ATOM      8  N22 <0> d   1      18.177   8.163  16.069  0.00  0.00    -0.191 NA
ATOM      9  C23 <0> d   1      19.258   5.193  14.600  0.00  0.00     0.023 A 
ATOM     10  C24 <0> d   1      19.307   4.126  13.726  0.00  0.00     0.012 A 
ATOM     11  C25 <0> d   1      18.386   4.028  12.701  0.00  0.00    -0.011 A 
ENDROOT
BRANCH   1  12
ATOM     12  C7  <0> d   1      19.194   3.230  10.480  0.00  0.00     0.050 C 
BRANCH  12  13
ATOM     13  C6  <0> d   1      18.685   2.568   9.198  0.00  0.00     0.031 C 
BRANCH  13  14
ATOM     14  C5  <0> d   1      19.732   1.580   8.684  0.00  0.00     0.234 C 
BRANCH  14  15
ATOM     15  N2  <0> d   1      19.094   0.286   8.410  0.00  0.00    -0.079 N 
ATOM     16  C1  <0> d   1      19.659  -0.737   9.300  0.00  0.00     0.269 C 
ATOM     17  H3  <0> d   1      19.260   0.026   7.450  0.00  0.00     0.278 HD
ATOM     18  C4  <0> d   1      17.647   0.394   8.644  0.00  0.00     0.269 C 
ENDBRANCH  14  15
ENDBRANCH  13  14
ENDBRANCH  12  13
ENDBRANCH   1  12
BRANCH   1  19
ATOM     19  C9  <0> d   1      18.327   1.613  12.162  0.00  0.00    -0.019 A 
ATOM     20  C15 <0> d   1      19.574   1.145  12.535  0.00  0.00     0.013 A 
ATOM     21  C14 <0> d   1      19.709  -0.130  13.050  0.00  0.00     0.043 A 
ATOM     22  C12 <0> d   1      18.595  -0.943  13.183  0.00  0.00     0.116 A 
ATOM     23  C11 <0> d   1      17.349  -0.475  12.805  0.00  0.00     0.043 A 
ATOM     24  F13 <0> d   1      18.727  -2.191  13.682  0.00  0.00    -0.206 F 
ATOM     25  C10 <0> d   1      17.216   0.801  12.295  0.00  0.00     0.013 A 
ENDBRANCH   1  19
TORSDOF 5
ENDMDL
MODEL 7
REMARK VINA RESULT:      -7.2      2.949      6.051
REMARK  5 active torsions:
REMARK  status: ('A' for Active; 'I' for Inactive)
REMARK    1  A    between atoms: N2_2  and  C5_5 
REMARK    2  A    between atoms: C5_5  and  C6_6 
REMARK    3  A    between atoms: C6_6  and  C7_7 
REMARK    4  A    between atoms: C7_7  and  C8_8 
REMARK    5  A    between atoms: C8_8  and  C9_9 
ROOT
ATOM      1  C8  <0> d   1      18.405  -0.414  12.486  0.00  0.00     0.116 C 
ATOM      2  O16 <0> d   1      19.674   0.117  12.063  0.00  0.00    -0.366 OA
ATOM      3  C17 <0> d   1      19.946  -0.526  10.804  0.00  0.00     0.209 C 
ATOM      4  C18 <0> d   1      19.249  -1.865  10.862  0.00  0.00    -0.023 A 
ATOM      5  C19 <0> d   1      19.390  -3.021  10.128  0.00  0.00     0.032 A 
ATOM      6  C20 <0> d   1      18.588  -4.129  10.415  0.00  0.00     0.045 A 
ATOM      7  C21 <0> d   1      18.730  -5.335   9.657  0.00  0.00     0.099 C 
ATOM      8  N22 <0> d   1      18.842  -6.292   9.055  0.00  0.00    -0.191 NA
ATOM      9  C23 <0> d   1      17.647  -4.054  11.444  0.00  0.00     0.023 A 
ATOM     10  C24 <0> d   1      17.516  -2.889  12.173  0.00  0.00     0.012 A 
ATOM     11  C25 <0> d   1      18.312  -1.798  11.884  0.00  0.00    -0.011 A 
ENDROOT
BRANCH   1  12
ATOM     12  C7  <0> d   1      17.266   0.465  11.964  0.00  0.00     0.050 C 
BRANCH  12  13
ATOM     13  C6  <0> d   1      17.849   1.709  11.291  0.00  0.00     0.031 C 
BRANCH  13  14
ATOM     14  C5  <0> d   1      17.685   2.914  12.218  0.00  0.00     0.234 C 
BRANCH  14  15
ATOM     15  N2  <0> d   1      18.951   3.169  12.919  0.00  0.00    -0.079 N 
ATOM     16  C1  <0> d   1      19.691   4.229  12.222  0.00  0.00     0.269 C 
ATOM     17  H3  <0> d   1      19.503   2.325  12.933  0.00  0.00     0.278 HD
ATOM     18  C4  <0> d   1      18.671   3.592  14.298  0.00  0.00     0.269 C 
ENDBRANCH  14  15
ENDBRANCH  13  14
ENDBRANCH  12  13
ENDBRANCH   1  12
BRANCH   1  19
ATOM     19  C9  <0> d   1      18.349  -0.496  13.989  0.00  0.00    -0.019 A 
ATOM     20  C15 <0> d   1      17.385   0.212  14.683  0.00  0.00     0.013 A 
ATOM     21  C14 <0> d   1      17.328   0.134  16.062  0.00  0.00     0.043 A 
ATOM     22  C12 <0> d   1      18.245  -0.645  16.748  0.00  0.00     0.116 A 
ATOM     23  C11 <0> d   1      19.213  -1.348  16.052  0.00  0.00     0.043 A 
ATOM     24  F13 <0> d   1      18.194  -0.718  18.096  0.00  0.00    -0.206 F 
ATOM     25  C10 <0> d   1      19.264  -1.273  14.674  0.00  0.00     0.013 A 
ENDBRANCH   1  19
TORSDOF 5
ENDMDL
MODEL 8
REMARK VINA RESULT:      -7.1      2.808      4.550
REMARK  5 active torsions:
REMARK  status: ('A' for Active; 'I' for Inactive)
REMARK    1  A    between atoms: N2_2  and  C5_5 
REMARK    2  A    between atoms: C5_5  and  C6_6 
REMARK    3  A    between atoms: C6_6  and  C7_7 
REMARK    4  A    between atoms: C7_7  and  C8_8 
REMARK    5  A    between atoms: C8_8  and  C9_9 
ROOT
ATOM      1  C8  <0> d   1      18.497  -1.999  10.538  0.00  0.00     0.116 C 
ATOM      2  O16 <0> d   1      19.748  -2.700  10.649  0.00  0.00    -0.366 OA
ATOM      3  C17 <0> d   1      19.863  -3.039  12.043  0.00  0.00     0.209 C 
ATOM      4  C18 <0> d   1      19.098  -1.973  12.794  0.00  0.00    -0.023 A 
ATOM      5  C19 <0> d   1      19.103  -1.579  14.113  0.00  0.00     0.032 A 
ATOM      6  C20 <0> d   1      18.269  -0.537  14.529  0.00  0.00     0.045 A 
ATOM      7  C21 <0> d   1      18.270  -0.121  15.899  0.00  0.00     0.099 C 
ATOM      8  N22 <0> d   1      18.269   0.210  16.987  0.00  0.00    -0.191 NA
ATOM      9  C23 <0> d   1      17.437   0.094  13.604  0.00  0.00     0.023 A 
ATOM     10  C24 <0> d   1      17.441  -0.311  12.285  0.00  0.00     0.012 A 
ATOM     11  C25 <0> d   1      18.268  -1.341  11.880  0.00  0.00    -0.011 A 
ENDROOT
BRANCH   1  12
ATOM     12  C7  <0> d   1      17.365  -2.984  10.235  0.00  0.00     0.050 C 
BRANCH  12  13
ATOM     13  C6  <0> d   1      17.886  -4.092   9.318  0.00  0.00     0.031 C 
BRANCH  13  14
ATOM     14  C5  <0> d   1      16.915  -5.273   9.343  0.00  0.00     0.234 C 
BRANCH  14  15
ATOM     15  N2  <0> d   1      16.120  -5.280   8.107  0.00  0.00    -0.079 N 
ATOM     16  C1  <0> d   1      16.883  -5.940   7.039  0.00  0.00     0.269 C 
ATOM     17  H3  <0> d   1      15.913  -4.331   7.836  0.00  0.00     0.278 HD
ATOM     18  C4  <0> d   1      14.865  -6.009   8.335  0.00  0.00     0.269 C 
ENDBRANCH  14  15
ENDBRANCH  13  14
ENDBRANCH  12  13
ENDBRANCH   1  12
BRANCH   1  19
ATOM     19  C9  <0> d   1      18.578  -0.955   9.454  0.00  0.00    -0.019 A 
ATOM     20  C15 <0> d   1      19.664  -0.101   9.400  0.00  0.00     0.013 A 
ATOM     21  C14 <0> d   1      19.743   0.855   8.404  0.00  0.00     0.043 A 
ATOM     22  C12 <0> d   1      18.729   0.962   7.467  0.00  0.00     0.116 A 
ATOM     23  C11 <0> d   1      17.640   0.110   7.527  0.00  0.00     0.043 A 
ATOM     24  F13 <0> d   1      18.803   1.899   6.496  0.00  0.00    -0.206 F 
ATOM     25  C10 <0> d   1      17.566  -0.847   8.520  0.00  0.00     0.013 A 
ENDBRANCH   1  19
TORSDOF 5
ENDMDL
MODEL 9
REMARK VINA RESULT:      -6.9      3.113      5.508
REMARK  5 active torsions:
REMARK  status: ('A' for Active; 'I' for Inactive)
REMARK    1  A    between atoms: N2_2  and  C5_5 
REMARK    2  A    between atoms: C5_5  and  C6_6 
REMARK    3  A    between atoms: C6_6  and  C7_7 
REMARK    4  A    between atoms: C7_7  and  C8_8 
REMARK    5  A    between atoms: C8_8  and  C9_9 
ROOT
ATOM      1  C8  <0> d   1      18.896  -0.279  12.693  0.00  0.00     0.116 C 
ATOM      2  O16 <0> d   1      20.287  -0.015  12.440  0.00  0.00    -0.366 OA
ATOM      3  C17 <0> d   1      20.579  -0.704  11.210  0.00  0.00     0.209 C 
ATOM      4  C18 <0> d   1      19.627  -1.876  11.154  0.00  0.00    -0.023 A 
ATOM      5  C19 <0> d   1      19.625  -3.039  10.418  0.00  0.00     0.032 A 
ATOM      6  C20 <0> d   1      18.588  -3.962  10.581  0.00  0.00     0.045 A 
ATOM      7  C21 <0> d   1      18.579  -5.175   9.820  0.00  0.00     0.099 C 
ATOM      8  N22 <0> d   1      18.572  -6.137   9.215  0.00  0.00    -0.191 NA
ATOM      9  C23 <0> d   1      17.562  -3.697  11.489  0.00  0.00     0.023 A 
ATOM     10  C24 <0> d   1      17.576  -2.527  12.221  0.00  0.00     0.012 A 
ATOM     11  C25 <0> d   1      18.604  -1.618  12.055  0.00  0.00    -0.011 A 
ENDROOT
BRANCH   1  12
ATOM     12  C7  <0> d   1      18.028   0.808  12.056  0.00  0.00     0.050 C 
BRANCH  12  13
ATOM     13  C6  <0> d   1      17.274   0.222  10.861  0.00  0.00     0.031 C 
BRANCH  13  14
ATOM     14  C5  <0> d   1      17.521   1.091   9.626  0.00  0.00     0.234 C 
BRANCH  14  15
ATOM     15  N2  <0> d   1      18.301   0.332   8.641  0.00  0.00    -0.079 N 
ATOM     16  C1  <0> d   1      17.394  -0.253   7.644  0.00  0.00     0.269 C 
ATOM     17  H3  <0> d   1      18.808  -0.404   9.109  0.00  0.00     0.278 HD
ATOM     18  C4  <0> d   1      19.252   1.230   7.971  0.00  0.00     0.269 C 
ENDBRANCH  14  15
ENDBRANCH  13  14
ENDBRANCH  12  13
ENDBRANCH   1  12
BRANCH   1  19
ATOM     19  C9  <0> d   1      18.639  -0.344  14.177  0.00  0.00    -0.019 A 
ATOM     20  C15 <0> d   1      17.728   0.520  14.757  0.00  0.00     0.013 A 
ATOM     21  C14 <0> d   1      17.488   0.459  16.117  0.00  0.00     0.043 A 
ATOM     22  C12 <0> d   1      18.167  -0.460  16.899  0.00  0.00     0.116 A 
ATOM     23  C11 <0> d   1      19.082  -1.319  16.317  0.00  0.00     0.043 A 
ATOM     24  F13 <0> d   1      17.936  -0.516  18.229  0.00  0.00    -0.206 F 
ATOM     25  C10 <0> d   1      19.317  -1.260  14.957  0.00  0.00     0.013 A 
ENDBRANCH   1  19
TORSDOF 5
ENDMDL
