MODEL 1
REMARK VINA RESULT:      -6.5      0.000      0.000
REMARK  10 active torsions:
REMARK  status: ('A' for Active; 'I' for Inactive)
REMARK    1  A    between atoms: C2_2  and  C4_3 
REMARK    2  A    between atoms: C2_2  and  N11_10 
REMARK    3  A    between atoms: C4_3  and  C5_4 
REMARK       I    between atoms: N11_10  and  C12_11 
REMARK    4  A    between atoms: C12_11  and  C14_13 
REMARK    5  A    between atoms: C14_13  and  N16_14 
REMARK    6  A    between atoms: C14_13  and  C17_15 
REMARK    7  A    between atoms: C17_15  and  C18_16 
REMARK    8  A    between atoms: C18_16  and  C19_17 
REMARK    9  A    between atoms: C19_17  and  C20_18 
REMARK   10  A    between atoms: C20_18  and  N21_19 
ROOT
ATOM      1  N11 <0> d   1      18.541   2.241  11.764  0.00  0.00    -0.355 N 
ATOM      2  C12 <0> d   1      17.853   1.342  12.496  0.00  0.00     0.251 C 
ATOM      3  O13 <0> d   1      16.859   0.823  12.038  0.00  0.00    -0.271 OA
ATOM      4  H35 <0> d   1      19.337   2.658  12.132  0.00  0.00     0.162 HD
ENDROOT
BRANCH   2   5
ATOM      5  C14 <0> d   1      18.319   0.985  13.884  0.00  0.00     0.308 C 
BRANCH   5   6
ATOM      6  N16 <0> d   1      17.694   1.889  14.859  0.00  0.00     0.092 N 
ATOM      7  H36 <0> d   1      17.976   1.658  15.799  0.00  0.00     0.313 HD
ATOM      8  H37 <0> d   1      17.905   2.852  14.645  0.00  0.00     0.313 HD
ENDBRANCH   5   6
BRANCH   5   9
ATOM      9  C17 <0> d   1      17.921  -0.458  14.200  0.00  0.00     0.045 C 
BRANCH   9  10
ATOM     10  C18 <0> d   1      19.100  -1.388  13.910  0.00  0.00     0.004 C 
BRANCH  10  11
ATOM     11  C19 <0> d   1      18.771  -2.270  12.704  0.00  0.00     0.027 C 
BRANCH  11  12
ATOM     12  C20 <0> d   1      19.653  -1.866  11.521  0.00  0.00     0.229 C 
BRANCH  12  13
ATOM     13  N21 <0> d   1      20.681  -2.891  11.305  0.00  0.00    -0.079 N 
ATOM     14  H22 <0> d   1      20.277  -3.806  11.443  0.00  0.00     0.274 HD
ATOM     15  H23 <0> d   1      21.036  -2.819  10.363  0.00  0.00     0.274 HD
ATOM     16  H24 <0> d   1      21.435  -2.756  11.960  0.00  0.00     0.274 HD
ENDBRANCH  12  13
ENDBRANCH  11  12
ENDBRANCH  10  11
ENDBRANCH   9  10
ENDBRANCH   5   9
ENDBRANCH   2   5
BRANCH   1  17
ATOM     17  C2  <0> d   1      18.088   2.589  10.416  0.00  0.00     0.084 C 
ATOM     18  C1  <0> d   1      17.773   4.085  10.354  0.00  0.00     0.032 C 
BRANCH  17  19
ATOM     19  C4  <0> d   1      19.190   2.258   9.406  0.00  0.00     0.063 C 
BRANCH  19  20
ATOM     20  C5  <0> d   1      18.635   1.353   8.337  0.00  0.00    -0.056 A 
ATOM     21  C10 <0> d   1      19.042   1.504   7.024  0.00  0.00     0.007 A 
ATOM     22  C9  <0> d   1      18.536   0.670   6.044  0.00  0.00     0.001 A 
ATOM     23  C8  <0> d   1      17.616  -0.308   6.375  0.00  0.00     0.000 A 
ATOM     24  C7  <0> d   1      17.205  -0.454   7.687  0.00  0.00     0.001 A 
ATOM     25  C6  <0> d   1      17.714   0.377   8.667  0.00  0.00     0.007 A 
ENDBRANCH  19  20
ENDBRANCH  17  19
ENDBRANCH   1  17
TORSDOF 10
ENDMDL
MODEL 2
REMARK VINA RESULT:      -6.5      2.035      4.976
REMARK  10 active torsions:
REMARK  status: ('A' for Active; 'I' for Inactive)
REMARK    1  A    between atoms: C2_2  and  C4_3 
REMARK    2  A    between atoms: C2_2  and  N11_10 
REMARK    3  A    between atoms: C4_3  and  C5_4 
REMARK       I    between atoms: N11_10  and  C12_11 
REMARK    4  A    between atoms: C12_11  and  C14_13 
REMARK    5  A    between atoms: C14_13  and  N16_14 
REMARK    6  A    between atoms: C14_13  and  C17_15 
REMARK    7  A    between atoms: C17_15  and  C18_16 
REMARK    8  A    between atoms: C18_16  and  C19_17 
REMARK    9  A    between atoms: C19_17  and  C20_18 
REMARK   10  A    between atoms: C20_18  and  N21_19 
ROOT
ATOM      1  N11 <0> d   1      18.410   0.887  12.820  0.00  0.00    -0.355 N 
ATOM      2  C12 <0> d   1      19.567   1.444  12.410  0.00  0.00     0.251 C 
ATOM      3  O13 <0> d   1      20.599   0.811  12.472  0.00  0.00    -0.271 OA
ATOM      4  H35 <0> d   1      17.584   1.394  12.771  0.00  0.00     0.162 HD
ENDROOT
BRANCH   2   5
ATOM      5  C14 <0> d   1      19.577   2.853  11.876  0.00  0.00     0.308 C 
BRANCH   5   6
ATOM      6  N16 <0> d   1      20.956   3.245  11.553  0.00  0.00     0.092 N 
ATOM      7  H36 <0> d   1      21.619   2.610  11.973  0.00  0.00     0.313 HD
ATOM      8  H37 <0> d   1      21.092   3.302  10.556  0.00  0.00     0.313 HD
ENDBRANCH   5   6
BRANCH   5   9
ATOM      9  C17 <0> d   1      18.718   2.926  10.611  0.00  0.00     0.045 C 
BRANCH   9  10
ATOM     10  C18 <0> d   1      19.399   2.144   9.486  0.00  0.00     0.004 C 
BRANCH  10  11
ATOM     11  C19 <0> d   1      18.438   1.083   8.948  0.00  0.00     0.027 C 
BRANCH  11  12
ATOM     12  C20 <0> d   1      19.035  -0.308   9.173  0.00  0.00     0.229 C 
BRANCH  12  13
ATOM     13  N21 <0> d   1      20.465  -0.183   9.483  0.00  0.00    -0.079 N 
ATOM     14  H22 <0> d   1      20.668   0.769   9.751  0.00  0.00     0.274 HD
ATOM     15  H23 <0> d   1      20.701  -0.804  10.242  0.00  0.00     0.274 HD
ATOM     16  H24 <0> d   1      21.008  -0.425   8.668  0.00  0.00     0.274 HD
ENDBRANCH  12  13
ENDBRANCH  11  12
ENDBRANCH  10  11
ENDBRANCH   9  10
ENDBRANCH   5   9
ENDBRANCH   2   5
BRANCH   1  17
ATOM     17  C2  <0> d   1      18.399  -0.482  13.339  0.00  0.00     0.084 C 
ATOM     18  C1  <0> d   1      17.940  -0.470  14.799  0.00  0.00     0.032 C 
BRANCH  17  19
ATOM     19  C4  <0> d   1      17.438  -1.336  12.509  0.00  0.00     0.063 C 
BRANCH  19  20
ATOM     20  C5  <0> d   1      18.169  -2.542  11.978  0.00  0.00    -0.056 A 
ATOM     21  C10 <0> d   1      17.464  -3.566  11.373  0.00  0.00     0.007 A 
ATOM     22  C9  <0> d   1      18.135  -4.671  10.882  0.00  0.00     0.001 A 
ATOM     23  C8  <0> d   1      19.510  -4.755  11.004  0.00  0.00     0.000 A 
ATOM     24  C7  <0> d   1      20.213  -3.733  11.613  0.00  0.00     0.001 A 
ATOM     25  C6  <0> d   1      19.542  -2.627  12.100  0.00  0.00     0.007 A 
ENDBRANCH  19  20
ENDBRANCH  17  19
ENDBRANCH   1  17
TORSDOF 10
ENDMDL
MODEL 3
REMARK VINA RESULT:      -6.5      1.649      2.983
REMARK  10 active torsions:
REMARK  status: ('A' for Active; 'I' for Inactive)
REMARK    1  A    between atoms: C2_2  and  C4_3 
REMARK    2  A    between atoms: C2_2  and  N11_10 
REMARK    3  A    between atoms: C4_3  and  C5_4 
REMARK       I    between atoms: N11_10  and  C12_11 
REMARK    4  A    between atoms: C12_11  and  C14_13 
REMARK    5  A    between atoms: C14_13  and  N16_14 
REMARK    6  A    between atoms: C14_13  and  C17_15 
REMARK    7  A    between atoms: C17_15  and  C18_16 
REMARK    8  A    between atoms: C18_16  and  C19_17 
REMARK    9  A    between atoms: C19_17  and  C20_18 
REMARK   10  A    between atoms: C20_18  and  N21_19 
ROOT
ATOM      1  N11 <0> d   1      19.765   1.252  10.249  0.00  0.00    -0.355 N 
ATOM      2  C12 <0> d   1      19.326   0.541  11.307  0.00  0.00     0.251 C 
ATOM      3  O13 <0> d   1      18.137   0.385  11.480  0.00  0.00    -0.271 OA
ATOM      4  H35 <0> d   1      20.717   1.377  10.110  0.00  0.00     0.162 HD
ENDROOT
BRANCH   2   5
ATOM      5  C14 <0> d   1      20.314  -0.058  12.274  0.00  0.00     0.308 C 
BRANCH   5   6
ATOM      6  N16 <0> d   1      21.592   0.660  12.177  0.00  0.00     0.092 N 
ATOM      7  H36 <0> d   1      21.784   1.172  13.024  0.00  0.00     0.313 HD
ATOM      8  H37 <0> d   1      22.346   0.027  11.958  0.00  0.00     0.313 HD
ENDBRANCH   5   6
BRANCH   5   9
ATOM      9  C17 <0> d   1      19.770   0.063  13.700  0.00  0.00     0.045 C 
BRANCH   9  10
ATOM     10  C18 <0> d   1      19.553  -1.334  14.283  0.00  0.00     0.004 C 
BRANCH  10  11
ATOM     11  C19 <0> d   1      18.637  -1.240  15.505  0.00  0.00     0.027 C 
BRANCH  11  12
ATOM     12  C20 <0> d   1      18.521   0.221  15.944  0.00  0.00     0.229 C 
BRANCH  12  13
ATOM     13  N21 <0> d   1      17.113   0.540  16.213  0.00  0.00    -0.079 N 
ATOM     14  H22 <0> d   1      16.923   1.490  15.931  0.00  0.00     0.274 HD
ATOM     15  H23 <0> d   1      16.519  -0.090  15.694  0.00  0.00     0.274 HD
ATOM     16  H24 <0> d   1      16.927   0.440  17.200  0.00  0.00     0.274 HD
ENDBRANCH  12  13
ENDBRANCH  11  12
ENDBRANCH  10  11
ENDBRANCH   9  10
ENDBRANCH   5   9
ENDBRANCH   2   5
BRANCH   1  17
ATOM     17  C2  <0> d   1      18.805   1.835   9.309  0.00  0.00     0.084 C 
ATOM     18  C1  <0> d   1      18.362   3.208   9.818  0.00  0.00     0.032 C 
BRANCH  17  19
ATOM     19  C4  <0> d   1      19.464   1.988   7.936  0.00  0.00     0.063 C 
BRANCH  19  20
ATOM     20  C5  <0> d   1      18.833   1.024   6.965  0.00  0.00    -0.056 A 
ATOM     21  C10 <0> d   1      17.714   0.301   7.337  0.00  0.00     0.007 A 
ATOM     22  C9  <0> d   1      17.133  -0.580   6.445  0.00  0.00     0.001 A 
ATOM     23  C8  <0> d   1      17.675  -0.745   5.183  0.00  0.00     0.000 A 
ATOM     24  C7  <0> d   1      18.796  -0.026   4.814  0.00  0.00     0.001 A 
ATOM     25  C6  <0> d   1      19.375   0.857   5.706  0.00  0.00     0.007 A 
ENDBRANCH  19  20
ENDBRANCH  17  19
ENDBRANCH   1  17
TORSDOF 10
ENDMDL
MODEL 4
REMARK VINA RESULT:      -6.4      2.234      2.749
REMARK  10 active torsions:
REMARK  status: ('A' for Active; 'I' for Inactive)
REMARK    1  A    between atoms: C2_2  and  C4_3 
REMARK    2  A    between atoms: C2_2  and  N11_10 
REMARK    3  A    between atoms: C4_3  and  C5_4 
REMARK       I    between atoms: N11_10  and  C12_11 
REMARK    4  A    between atoms: C12_11  and  C14_13 
REMARK    5  A    between atoms: C14_13  and  N16_14 
REMARK    6  A    between atoms: C14_13  and  C17_15 
REMARK    7  A    between atoms: C17_15  and  C18_16 
REMARK    8  A    between atoms: C18_16  and  C19_17 
REMARK    9  A    between atoms: C19_17  and  C20_18 
REMARK   10  A    between atoms: C20_18  and  N21_19 
ROOT
ATOM      1  N11 <0> d   1      19.630   0.845   9.692  0.00  0.00    -0.355 N 
ATOM      2  C12 <0> d   1      19.250  -0.367  10.144  0.00  0.00     0.251 C 
ATOM      3  O13 <0> d   1      18.141  -0.787   9.893  0.00  0.00    -0.271 OA
ATOM      4  H35 <0> d   1      20.517   1.182   9.895  0.00  0.00     0.162 HD
ENDROOT
BRANCH   2   5
ATOM      5  C14 <0> d   1      20.203  -1.198  10.964  0.00  0.00     0.308 C 
BRANCH   5   6
ATOM      6  N16 <0> d   1      21.526  -0.558  10.976  0.00  0.00     0.092 N 
ATOM      7  H36 <0> d   1      22.197  -1.127  11.469  0.00  0.00     0.313 HD
ATOM      8  H37 <0> d   1      21.839  -0.360  10.038  0.00  0.00     0.313 HD
ENDBRANCH   5   6
BRANCH   5   9
ATOM      9  C17 <0> d   1      19.679  -1.310  12.397  0.00  0.00     0.045 C 
BRANCH   9  10
ATOM     10  C18 <0> d   1      18.982  -2.660  12.582  0.00  0.00     0.004 C 
BRANCH  10  11
ATOM     11  C19 <0> d   1      19.648  -3.704  11.684  0.00  0.00     0.027 C 
BRANCH  11  12
ATOM     12  C20 <0> d   1      18.574  -4.591  11.050  0.00  0.00     0.229 C 
BRANCH  12  13
ATOM     13  N21 <0> d   1      17.760  -3.789  10.128  0.00  0.00    -0.079 N 
ATOM     14  H22 <0> d   1      17.053  -3.291  10.649  0.00  0.00     0.274 HD
ATOM     15  H23 <0> d   1      18.350  -3.127   9.646  0.00  0.00     0.274 HD
ATOM     16  H24 <0> d   1      17.316  -4.395   9.455  0.00  0.00     0.274 HD
ENDBRANCH  12  13
ENDBRANCH  11  12
ENDBRANCH  10  11
ENDBRANCH   9  10
ENDBRANCH   5   9
ENDBRANCH   2   5
BRANCH   1  17
ATOM     17  C2  <0> d   1      18.704   1.654   8.897  0.00  0.00     0.084 C 
ATOM     18  C1  <0> d   1      18.463   2.992   9.598  0.00  0.00     0.032 C 
BRANCH  17  19
ATOM     19  C4  <0> d   1      19.306   1.904   7.512  0.00  0.00     0.063 C 
BRANCH  19  20
ATOM     20  C5  <0> d   1      18.756   0.896   6.536  0.00  0.00    -0.056 A 
ATOM     21  C10 <0> d   1      19.487   0.551   5.414  0.00  0.00     0.007 A 
ATOM     22  C9  <0> d   1      18.984  -0.377   4.521  0.00  0.00     0.001 A 
ATOM     23  C8  <0> d   1      17.748  -0.954   4.746  0.00  0.00     0.000 A 
ATOM     24  C7  <0> d   1      17.016  -0.605   5.865  0.00  0.00     0.001 A 
ATOM     25  C6  <0> d   1      17.520   0.321   6.759  0.00  0.00     0.007 A 
ENDBRANCH  19  20
ENDBRANCH  17  19
ENDBRANCH   1  17
TORSDOF 10
ENDMDL
MODEL 5
REMARK VINA RESULT:      -6.4      1.987      6.423
REMARK  10 active torsions:
REMARK  status: ('A' for Active; 'I' for Inactive)
REMARK    1  A    between atoms: C2_2  and  C4_3 
REMARK    2  A    between atoms: C2_2  and  N11_10 
REMARK    3  A    between atoms: C4_3  and  C5_4 
REMARK       I    between atoms: N11_10  and  C12_11 
REMARK    4  A    between atoms: C12_11  and  C14_13 
REMARK    5  A    between atoms: C14_13  and  N16_14 
REMARK    6  A    between atoms: C14_13  and  C17_15 
REMARK    7  A    between atoms: C17_15  and  C18_16 
REMARK    8  A    between atoms: C18_16  and  C19_17 
REMARK    9  A    between atoms: C19_17  and  C20_18 
REMARK   10  A    between atoms: C20_18  and  N21_19 
ROOT
ATOM      1  N11 <0> d   1      18.802   0.320  12.377  0.00  0.00    -0.355 N 
ATOM      2  C12 <0> d   1      18.193   1.469  12.025  0.00  0.00     0.251 C 
ATOM      3  O13 <0> d   1      16.995   1.590  12.171  0.00  0.00    -0.271 OA
ATOM      4  H35 <0> d   1      19.760   0.223  12.259  0.00  0.00     0.162 HD
ENDROOT
BRANCH   2   5
ATOM      5  C14 <0> d   1      18.999   2.604  11.447  0.00  0.00     0.308 C 
BRANCH   5   6
ATOM      6  N16 <0> d   1      20.431   2.303  11.578  0.00  0.00     0.092 N 
ATOM      7  H36 <0> d   1      20.601   1.311  11.499  0.00  0.00     0.313 HD
ATOM      8  H37 <0> d   1      20.972   2.817  10.900  0.00  0.00     0.313 HD
ENDBRANCH   5   6
BRANCH   5   9
ATOM      9  C17 <0> d   1      18.648   2.777   9.967  0.00  0.00     0.045 C 
BRANCH   9  10
ATOM     10  C18 <0> d   1      19.530   1.855   9.123  0.00  0.00     0.004 C 
BRANCH  10  11
ATOM     11  C19 <0> d   1      18.667   0.763   8.490  0.00  0.00     0.027 C 
BRANCH  11  12
ATOM     12  C20 <0> d   1      19.312  -0.603   8.734  0.00  0.00     0.229 C 
BRANCH  12  13
ATOM     13  N21 <0> d   1      20.568  -0.425   9.475  0.00  0.00    -0.079 N 
ATOM     14  H22 <0> d   1      21.065  -1.302   9.510  0.00  0.00     0.274 HD
ATOM     15  H23 <0> d   1      21.138   0.266   9.010  0.00  0.00     0.274 HD
ATOM     16  H24 <0> d   1      20.365  -0.117  10.413  0.00  0.00     0.274 HD
ENDBRANCH  12  13
ENDBRANCH  11  12
ENDBRANCH  10  11
ENDBRANCH   9  10
ENDBRANCH   5   9
ENDBRANCH   2   5
BRANCH   1  17
ATOM     17  C2  <0> d   1      18.018  -0.783  12.938  0.00  0.00     0.084 C 
ATOM     18  C1  <0> d   1      17.578  -1.721  11.811  0.00  0.00     0.032 C 
BRANCH  17  19
ATOM     19  C4  <0> d   1      18.874  -1.559  13.942  0.00  0.00     0.063 C 
BRANCH  19  20
ATOM     20  C5  <0> d   1      18.594  -1.056  15.335  0.00  0.00    -0.056 A 
ATOM     21  C10 <0> d   1      17.484  -0.268  15.575  0.00  0.00     0.007 A 
ATOM     22  C9  <0> d   1      17.225   0.189  16.853  0.00  0.00     0.001 A 
ATOM     23  C8  <0> d   1      18.080  -0.134  17.890  0.00  0.00     0.000 A 
ATOM     24  C7  <0> d   1      19.193  -0.918  17.648  0.00  0.00     0.001 A 
ATOM     25  C6  <0> d   1      19.450  -1.378  16.370  0.00  0.00     0.007 A 
ENDBRANCH  19  20
ENDBRANCH  17  19
ENDBRANCH   1  17
TORSDOF 10
ENDMDL
MODEL 6
REMARK VINA RESULT:      -6.4      1.980      4.565
REMARK  10 active torsions:
REMARK  status: ('A' for Active; 'I' for Inactive)
REMARK    1  A    between atoms: C2_2  and  C4_3 
REMARK    2  A    between atoms: C2_2  and  N11_10 
REMARK    3  A    between atoms: C4_3  and  C5_4 
REMARK       I    between atoms: N11_10  and  C12_11 
REMARK    4  A    between atoms: C12_11  and  C14_13 
REMARK    5  A    between atoms: C14_13  and  N16_14 
REMARK    6  A    between atoms: C14_13  and  C17_15 
REMARK    7  A    between atoms: C17_15  and  C18_16 
REMARK    8  A    between atoms: C18_16  and  C19_17 
REMARK    9  A    between atoms: C19_17  and  C20_18 
REMARK   10  A    between atoms: C20_18  and  N21_19 
ROOT
ATOM      1  N11 <0> d   1      18.722  -0.442   9.893  0.00  0.00    -0.355 N 
ATOM      2  C12 <0> d   1      19.741  -1.100  10.481  0.00  0.00     0.251 C 
ATOM      3  O13 <0> d   1      20.829  -0.574  10.573  0.00  0.00    -0.271 OA
ATOM      4  H35 <0> d   1      17.851  -0.863   9.818  0.00  0.00     0.162 HD
ENDROOT
BRANCH   2   5
ATOM      5  C14 <0> d   1      19.527  -2.490  11.022  0.00  0.00     0.308 C 
BRANCH   5   6
ATOM      6  N16 <0> d   1      20.806  -3.032  11.499  0.00  0.00     0.092 N 
ATOM      7  H36 <0> d   1      21.207  -2.439  12.210  0.00  0.00     0.313 HD
ATOM      8  H37 <0> d   1      20.695  -3.976  11.837  0.00  0.00     0.313 HD
ENDBRANCH   5   6
BRANCH   5   9
ATOM      9  C17 <0> d   1      18.531  -2.438  12.183  0.00  0.00     0.045 C 
BRANCH   9  10
ATOM     10  C18 <0> d   1      19.181  -1.744  13.382  0.00  0.00     0.004 C 
BRANCH  10  11
ATOM     11  C19 <0> d   1      18.399  -0.474  13.722  0.00  0.00     0.027 C 
BRANCH  11  12
ATOM     12  C20 <0> d   1      19.378   0.663  14.022  0.00  0.00     0.229 C 
BRANCH  12  13
ATOM     13  N21 <0> d   1      20.692   0.340  13.451  0.00  0.00    -0.079 N 
ATOM     14  H22 <0> d   1      20.897   0.980  12.698  0.00  0.00     0.274 HD
ATOM     15  H23 <0> d   1      21.399   0.424  14.166  0.00  0.00     0.274 HD
ATOM     16  H24 <0> d   1      20.682  -0.603  13.097  0.00  0.00     0.274 HD
ENDBRANCH  12  13
ENDBRANCH  11  12
ENDBRANCH  10  11
ENDBRANCH   9  10
ENDBRANCH   5   9
ENDBRANCH   2   5
BRANCH   1  17
ATOM     17  C2  <0> d   1      18.930   0.909   9.366  0.00  0.00     0.084 C 
ATOM     18  C1  <0> d   1      18.951   0.862   7.836  0.00  0.00     0.032 C 
BRANCH  17  19
ATOM     19  C4  <0> d   1      17.792   1.819   9.833  0.00  0.00     0.063 C 
BRANCH  19  20
ATOM     20  C5  <0> d   1      18.330   2.837  10.805  0.00  0.00    -0.056 A 
ATOM     21  C10 <0> d   1      17.468   3.720  11.429  0.00  0.00     0.007 A 
ATOM     22  C9  <0> d   1      17.961   4.650  12.325  0.00  0.00     0.001 A 
ATOM     23  C8  <0> d   1      19.318   4.704  12.589  0.00  0.00     0.000 A 
ATOM     24  C7  <0> d   1      20.179   3.825  11.960  0.00  0.00     0.001 A 
ATOM     25  C6  <0> d   1      19.685   2.892  11.068  0.00  0.00     0.007 A 
ENDBRANCH  19  20
ENDBRANCH  17  19
ENDBRANCH   1  17
TORSDOF 10
ENDMDL
MODEL 7
REMARK VINA RESULT:      -6.4      1.822      3.241
REMARK  10 active torsions:
REMARK  status: ('A' for Active; 'I' for Inactive)
REMARK    1  A    between atoms: C2_2  and  C4_3 
REMARK    2  A    between atoms: C2_2  and  N11_10 
REMARK    3  A    between atoms: C4_3  and  C5_4 
REMARK       I    between atoms: N11_10  and  C12_11 
REMARK    4  A    between atoms: C12_11  and  C14_13 
REMARK    5  A    between atoms: C14_13  and  N16_14 
REMARK    6  A    between atoms: C14_13  and  C17_15 
REMARK    7  A    between atoms: C17_15  and  C18_16 
REMARK    8  A    between atoms: C18_16  and  C19_17 
REMARK    9  A    between atoms: C19_17  and  C20_18 
REMARK   10  A    between atoms: C20_18  and  N21_19 
ROOT
ATOM      1  N11 <0> d   1      18.654   0.403  12.046  0.00  0.00    -0.355 N 
ATOM      2  C12 <0> d   1      17.972  -0.687  12.452  0.00  0.00     0.251 C 
ATOM      3  O13 <0> d   1      16.854  -0.893  12.031  0.00  0.00    -0.271 OA
ATOM      4  H35 <0> d   1      19.549   0.568  12.383  0.00  0.00     0.162 HD
ENDROOT
BRANCH   2   5
ATOM      5  C14 <0> d   1      18.598  -1.648  13.429  0.00  0.00     0.308 C 
BRANCH   5   6
ATOM      6  N16 <0> d   1      19.716  -2.347  12.781  0.00  0.00     0.092 N 
ATOM      7  H36 <0> d   1      19.600  -3.347  12.840  0.00  0.00     0.313 HD
ATOM      8  H37 <0> d   1      19.820  -2.051  11.823  0.00  0.00     0.313 HD
ENDBRANCH   5   6
BRANCH   5   9
ATOM      9  C17 <0> d   1      19.117  -0.874  14.644  0.00  0.00     0.045 C 
BRANCH   9  10
ATOM     10  C18 <0> d   1      18.715  -1.606  15.925  0.00  0.00     0.004 C 
BRANCH  10  11
ATOM     11  C19 <0> d   1      17.732  -0.744  16.718  0.00  0.00     0.027 C 
BRANCH  11  12
ATOM     12  C20 <0> d   1      18.502   0.328  17.492  0.00  0.00     0.229 C 
BRANCH  12  13
ATOM     13  N21 <0> d   1      19.505  -0.315  18.351  0.00  0.00    -0.079 N 
ATOM     14  H22 <0> d   1      19.046  -0.741  19.143  0.00  0.00     0.274 HD
ATOM     15  H23 <0> d   1      19.994  -1.024  17.825  0.00  0.00     0.274 HD
ATOM     16  H24 <0> d   1      20.163   0.376  18.677  0.00  0.00     0.274 HD
ENDBRANCH  12  13
ENDBRANCH  11  12
ENDBRANCH  10  11
ENDBRANCH   9  10
ENDBRANCH   5   9
ENDBRANCH   2   5
BRANCH   1  17
ATOM     17  C2  <0> d   1      18.045   1.337  11.097  0.00  0.00     0.084 C 
ATOM     18  C1  <0> d   1      17.611   2.605  11.836  0.00  0.00     0.032 C 
BRANCH  17  19
ATOM     19  C4  <0> d   1      19.065   1.701  10.014  0.00  0.00     0.063 C 
BRANCH  19  20
ATOM     20  C5  <0> d   1      18.603   1.157   8.687  0.00  0.00    -0.056 A 
ATOM     21  C10 <0> d   1      17.584   0.224   8.639  0.00  0.00     0.007 A 
ATOM     22  C9  <0> d   1      17.157  -0.271   7.420  0.00  0.00     0.001 A 
ATOM     23  C8  <0> d   1      17.756   0.160   6.251  0.00  0.00     0.000 A 
ATOM     24  C7  <0> d   1      18.778   1.089   6.300  0.00  0.00     0.001 A 
ATOM     25  C6  <0> d   1      19.202   1.587   7.518  0.00  0.00     0.007 A 
ENDBRANCH  19  20
ENDBRANCH  17  19
ENDBRANCH   1  17
TORSDOF 10
ENDMDL
MODEL 8
REMARK VINA RESULT:      -6.3      1.653      2.596
REMARK  10 active torsions:
REMARK  status: ('A' for Active; 'I' for Inactive)
REMARK    1  A    between atoms: C2_2  and  C4_3 
REMARK    2  A    between atoms: C2_2  and  N11_10 
REMARK    3  A    between atoms: C4_3  and  C5_4 
REMARK       I    between atoms: N11_10  and  C12_11 
REMARK    4  A    between atoms: C12_11  and  C14_13 
REMARK    5  A    between atoms: C14_13  and  N16_14 
REMARK    6  A    between atoms: C14_13  and  C17_15 
REMARK    7  A    between atoms: C17_15  and  C18_16 
REMARK    8  A    between atoms: C18_16  and  C19_17 
REMARK    9  A    between atoms: C19_17  and  C20_18 
REMARK   10  A    between atoms: C20_18  and  N21_19 
ROOT
ATOM      1  N11 <0> d   1      18.573   2.207  11.905  0.00  0.00    -0.355 N 
ATOM      2  C12 <0> d   1      17.860   1.332  12.642  0.00  0.00     0.251 C 
ATOM      3  O13 <0> d   1      16.843   0.850  12.193  0.00  0.00    -0.271 OA
ATOM      4  H35 <0> d   1      19.387   2.595  12.264  0.00  0.00     0.162 HD
ENDROOT
BRANCH   2   5
ATOM      5  C14 <0> d   1      18.327   0.956  14.024  0.00  0.00     0.308 C 
BRANCH   5   6
ATOM      6  N16 <0> d   1      17.677   1.826  15.014  0.00  0.00     0.092 N 
ATOM      7  H36 <0> d   1      17.075   2.499  14.564  0.00  0.00     0.313 HD
ATOM      8  H37 <0> d   1      17.167   1.282  15.694  0.00  0.00     0.313 HD
ENDBRANCH   5   6
BRANCH   5   9
ATOM      9  C17 <0> d   1      17.957  -0.502  14.308  0.00  0.00     0.045 C 
BRANCH   9  10
ATOM     10  C18 <0> d   1      18.980  -1.110  15.270  0.00  0.00     0.004 C 
BRANCH  10  11
ATOM     11  C19 <0> d   1      18.372  -1.199  16.670  0.00  0.00     0.027 C 
BRANCH  11  12
ATOM     12  C20 <0> d   1      19.228  -0.391  17.650  0.00  0.00     0.229 C 
BRANCH  12  13
ATOM     13  N21 <0> d   1      18.353   0.315  18.595  0.00  0.00    -0.079 N 
ATOM     14  H22 <0> d   1      17.630   0.800  18.085  0.00  0.00     0.274 HD
ATOM     15  H23 <0> d   1      17.932  -0.350  19.226  0.00  0.00     0.274 HD
ATOM     16  H24 <0> d   1      18.896   0.982  19.122  0.00  0.00     0.274 HD
ENDBRANCH  12  13
ENDBRANCH  11  12
ENDBRANCH  10  11
ENDBRANCH   9  10
ENDBRANCH   5   9
ENDBRANCH   2   5
BRANCH   1  17
ATOM     17  C2  <0> d   1      18.119   2.574  10.561  0.00  0.00     0.084 C 
ATOM     18  C1  <0> d   1      17.814   4.073  10.517  0.00  0.00     0.032 C 
BRANCH  17  19
ATOM     19  C4  <0> d   1      19.216   2.246   9.545  0.00  0.00     0.063 C 
BRANCH  19  20
ATOM     20  C5  <0> d   1      18.645   1.380   8.452  0.00  0.00    -0.056 A 
ATOM     21  C10 <0> d   1      19.045   1.568   7.142  0.00  0.00     0.007 A 
ATOM     22  C9  <0> d   1      18.524   0.770   6.140  0.00  0.00     0.001 A 
ATOM     23  C8  <0> d   1      17.597  -0.209   6.447  0.00  0.00     0.000 A 
ATOM     24  C7  <0> d   1      17.194  -0.392   7.757  0.00  0.00     0.001 A 
ATOM     25  C6  <0> d   1      17.718   0.403   8.759  0.00  0.00     0.007 A 
ENDBRANCH  19  20
ENDBRANCH  17  19
ENDBRANCH   1  17
TORSDOF 10
ENDMDL
MODEL 9
REMARK VINA RESULT:      -6.1      2.509      4.697
REMARK  10 active torsions:
REMARK  status: ('A' for Active; 'I' for Inactive)
REMARK    1  A    between atoms: C2_2  and  C4_3 
REMARK    2  A    between atoms: C2_2  and  N11_10 
REMARK    3  A    between atoms: C4_3  and  C5_4 
REMARK       I    between atoms: N11_10  and  C12_11 
REMARK    4  A    between atoms: C12_11  and  C14_13 
REMARK    5  A    between atoms: C14_13  and  N16_14 
REMARK    6  A    between atoms: C14_13  and  C17_15 
REMARK    7  A    between atoms: C17_15  and  C18_16 
REMARK    8  A    between atoms: C18_16  and  C19_17 
REMARK    9  A    between atoms: C19_17  and  C20_18 
REMARK   10  A    between atoms: C20_18  and  N21_19 
ROOT
ATOM      1  N11 <0> d   1      19.147  -1.365  10.626  0.00  0.00    -0.355 N 
ATOM      2  C12 <0> d   1      20.070  -0.383  10.640  0.00  0.00     0.251 C 
ATOM      3  O13 <0> d   1      20.806  -0.230   9.689  0.00  0.00    -0.271 OA
ATOM      4  H35 <0> d   1      18.558  -1.487  11.387  0.00  0.00     0.162 HD
ENDROOT
BRANCH   2   5
ATOM      5  C14 <0> d   1      20.188   0.524  11.838  0.00  0.00     0.308 C 
BRANCH   5   6
ATOM      6  N16 <0> d   1      21.583   0.551  12.297  0.00  0.00     0.092 N 
ATOM      7  H36 <0> d   1      21.971   1.478  12.218  0.00  0.00     0.313 HD
ATOM      8  H37 <0> d   1      21.659   0.206  13.242  0.00  0.00     0.313 HD
ENDBRANCH   5   6
BRANCH   5   9
ATOM      9  C17 <0> d   1      19.752   1.939  11.451  0.00  0.00     0.045 C 
BRANCH   9  10
ATOM     10  C18 <0> d   1      18.347   1.893  10.847  0.00  0.00     0.004 C 
BRANCH  10  11
ATOM     11  C19 <0> d   1      18.148   3.098   9.926  0.00  0.00     0.027 C 
BRANCH  11  12
ATOM     12  C20 <0> d   1      17.967   4.361  10.771  0.00  0.00     0.229 C 
BRANCH  12  13
ATOM     13  N21 <0> d   1      17.168   5.340  10.022  0.00  0.00    -0.079 N 
ATOM     14  H22 <0> d   1      17.621   5.541   9.142  0.00  0.00     0.274 HD
ATOM     15  H23 <0> d   1      16.249   4.961   9.848  0.00  0.00     0.274 HD
ATOM     16  H24 <0> d   1      17.086   6.189  10.559  0.00  0.00     0.274 HD
ENDBRANCH  12  13
ENDBRANCH  11  12
ENDBRANCH  10  11
ENDBRANCH   9  10
ENDBRANCH   5   9
ENDBRANCH   2   5
BRANCH   1  17
ATOM     17  C2  <0> d   1      19.032  -2.246   9.462  0.00  0.00     0.084 C 
ATOM     18  C1  <0> d   1      18.833  -3.689   9.932  0.00  0.00     0.032 C 
BRANCH  17  19
ATOM     19  C4  <0> d   1      17.835  -1.816   8.611  0.00  0.00     0.063 C 
BRANCH  19  20
ATOM     20  C5  <0> d   1      18.324  -1.075   7.394  0.00  0.00    -0.056 A 
ATOM     21  C10 <0> d   1      18.868  -1.773   6.332  0.00  0.00     0.007 A 
ATOM     22  C9  <0> d   1      19.313  -1.092   5.214  0.00  0.00     0.001 A 
ATOM     23  C8  <0> d   1      19.222   0.287   5.161  0.00  0.00     0.000 A 
ATOM     24  C7  <0> d   1      18.682   0.984   6.226  0.00  0.00     0.001 A 
ATOM     25  C6  <0> d   1      18.235   0.303   7.342  0.00  0.00     0.007 A 
ENDBRANCH  19  20
ENDBRANCH  17  19
ENDBRANCH   1  17
TORSDOF 10
ENDMDL
