MODEL 1
REMARK VINA RESULT:      -7.1      0.000      0.000
REMARK  7 active torsions:
REMARK  status: ('A' for Active; 'I' for Inactive)
REMARK    1  A    between atoms: C2_2  and  N3_3 
REMARK    2  A    between atoms: N3_3  and  C4_4 
REMARK       I    between atoms: N3_3  and  C11_11 
REMARK    3  A    between atoms: C4_4  and  C5_5 
REMARK    4  A    between atoms: C11_11  and  C13_13 
REMARK    5  A    between atoms: C13_13  and  C15_14 
REMARK    6  A    between atoms: C13_13  and  C17_16 
REMARK    7  A    between atoms: C15_14  and  O16_15 
ROOT
ATOM      1  N3  ZIN A   1      18.644  -0.645  12.062  0.00  0.00    -0.348 N 
ATOM      2  C11 ZIN A   1      19.281  -0.004  11.062  0.00  0.00     0.230 C 
ATOM      3  O12 ZIN A   1      20.348  -0.417  10.659  0.00  0.00    -0.273 OA
ENDROOT
BRANCH   2   4
ATOM      4  C13 ZIN A   1      18.666   1.225  10.443  0.00  0.00     0.134 C 
BRANCH   4   5
ATOM      5  C15 ZIN A   1      19.610   2.415  10.627  0.00  0.00     0.182 C 
BRANCH   5   6
ATOM      6  O16 ZIN A   1      20.466   2.177  11.745  0.00  0.00    -0.400 OA
ATOM      7  H36 ZIN A   1      20.225   1.399  12.267  0.00  0.00     0.209 HD
ENDBRANCH   5   6
ENDBRANCH   4   5
BRANCH   4   8
ATOM      8  C17 ZIN A   1      18.440   0.986   8.972  0.00  0.00    -0.043 A 
ATOM      9  C22 ZIN A   1      17.473   0.090   8.558  0.00  0.00     0.008 A 
ATOM     10  C21 ZIN A   1      17.262  -0.126   7.209  0.00  0.00     0.001 A 
ATOM     11  C20 ZIN A   1      18.025   0.548   6.274  0.00  0.00     0.000 A 
ATOM     12  C19 ZIN A   1      18.996   1.442   6.688  0.00  0.00     0.001 A 
ATOM     13  C18 ZIN A   1      19.203   1.660   8.037  0.00  0.00     0.008 A 
ENDBRANCH   4   8
ENDBRANCH   2   4
BRANCH   1  14
ATOM     14  C2  ZIN A   1      17.331  -0.177  12.513  0.00  0.00     0.121 C 
ATOM     15  C1  ZIN A   1      17.475   0.511  13.873  0.00  0.00     0.026 C 
ENDBRANCH   1  14
BRANCH   1  16
ATOM     16  C4  ZIN A   1      19.265  -1.809  12.698  0.00  0.00     0.164 C 
BRANCH  16  17
ATOM     17  C5  ZIN A   1      18.951  -3.046  11.898  0.00  0.00    -0.037 A 
ATOM     18  C10 ZIN A   1      17.646  -3.499  11.776  0.00  0.00     0.028 A 
ATOM     19  C9  ZIN A   1      17.393  -4.634  11.029  0.00  0.00     0.116 A 
ATOM     20  N8  ZIN A   1      18.377  -5.290  10.446  0.00  0.00    -0.273 NA
ATOM     21  C7  ZIN A   1      19.630  -4.892  10.546  0.00  0.00     0.116 A 
ATOM     22  C6  ZIN A   1      19.958  -3.761  11.270  0.00  0.00     0.028 A 
ENDBRANCH  16  17
ENDBRANCH   1  16
TORSDOF 7
ENDMDL
MODEL 2
REMARK VINA RESULT:      -7.1      2.568      6.945
REMARK  7 active torsions:
REMARK  status: ('A' for Active; 'I' for Inactive)
REMARK    1  A    between atoms: C2_2  and  N3_3 
REMARK    2  A    between atoms: N3_3  and  C4_4 
REMARK       I    between atoms: N3_3  and  C11_11 
REMARK    3  A    between atoms: C4_4  and  C5_5 
REMARK    4  A    between atoms: C11_11  and  C13_13 
REMARK    5  A    between atoms: C13_13  and  C15_14 
REMARK    6  A    between atoms: C13_13  and  C17_16 
REMARK    7  A    between atoms: C15_14  and  O16_15 
ROOT
ATOM      1  N3  ZIN A   1      18.666   0.909  11.224  0.00  0.00    -0.348 N 
ATOM      2  C11 ZIN A   1      19.329   0.216  12.171  0.00  0.00     0.230 C 
ATOM      3  O12 ZIN A   1      20.393   0.624  12.588  0.00  0.00    -0.273 OA
ENDROOT
BRANCH   2   4
ATOM      4  C13 ZIN A   1      18.748  -1.064  12.712  0.00  0.00     0.134 C 
BRANCH   4   5
ATOM      5  C15 ZIN A   1      19.717  -2.218  12.442  0.00  0.00     0.182 C 
BRANCH   5   6
ATOM      6  O16 ZIN A   1      20.492  -1.928  11.278  0.00  0.00    -0.400 OA
ATOM      7  H36 ZIN A   1      21.081  -2.646  11.008  0.00  0.00     0.209 HD
ENDBRANCH   5   6
ENDBRANCH   4   5
BRANCH   4   8
ATOM      8  C17 ZIN A   1      18.531  -0.928  14.197  0.00  0.00    -0.043 A 
ATOM      9  C22 ZIN A   1      17.573  -0.056  14.679  0.00  0.00     0.008 A 
ATOM     10  C21 ZIN A   1      17.370   0.066  16.040  0.00  0.00     0.001 A 
ATOM     11  C20 ZIN A   1      18.132  -0.678  16.922  0.00  0.00     0.000 A 
ATOM     12  C19 ZIN A   1      19.094  -1.548  16.441  0.00  0.00     0.001 A 
ATOM     13  C18 ZIN A   1      19.294  -1.673  15.079  0.00  0.00     0.008 A 
ENDBRANCH   4   8
ENDBRANCH   2   4
BRANCH   1  14
ATOM     14  C2  ZIN A   1      17.357   0.445  10.758  0.00  0.00     0.121 C 
ATOM     15  C1  ZIN A   1      17.436   0.110   9.267  0.00  0.00     0.026 C 
ENDBRANCH   1  14
BRANCH   1  16
ATOM     16  C4  ZIN A   1      19.254   2.127  10.661  0.00  0.00     0.164 C 
BRANCH  16  17
ATOM     17  C5  ZIN A   1      18.428   3.319  11.069  0.00  0.00    -0.037 A 
ATOM     18  C10 ZIN A   1      17.843   4.137  10.114  0.00  0.00     0.028 A 
ATOM     19  C9  ZIN A   1      17.086   5.218  10.525  0.00  0.00     0.116 A 
ATOM     20  N8  ZIN A   1      16.928   5.482  11.807  0.00  0.00    -0.273 NA
ATOM     21  C7  ZIN A   1      17.475   4.730  12.742  0.00  0.00     0.116 A 
ATOM     22  C6  ZIN A   1      18.239   3.628  12.407  0.00  0.00     0.028 A 
ENDBRANCH  16  17
ENDBRANCH   1  16
TORSDOF 7
ENDMDL
MODEL 3
REMARK VINA RESULT:      -7.0      2.093      4.021
REMARK  7 active torsions:
REMARK  status: ('A' for Active; 'I' for Inactive)
REMARK    1  A    between atoms: C2_2  and  N3_3 
REMARK    2  A    between atoms: N3_3  and  C4_4 
REMARK       I    between atoms: N3_3  and  C11_11 
REMARK    3  A    between atoms: C4_4  and  C5_5 
REMARK    4  A    between atoms: C11_11  and  C13_13 
REMARK    5  A    between atoms: C13_13  and  C15_14 
REMARK    6  A    between atoms: C13_13  and  C17_16 
REMARK    7  A    between atoms: C15_14  and  O16_15 
ROOT
ATOM      1  N3  ZIN A   1      18.620   0.010  12.379  0.00  0.00    -0.348 N 
ATOM      2  C11 ZIN A   1      18.824   1.076  11.580  0.00  0.00     0.230 C 
ATOM      3  O12 ZIN A   1      19.899   1.637  11.579  0.00  0.00    -0.273 OA
ENDROOT
BRANCH   2   4
ATOM      4  C13 ZIN A   1      17.716   1.571  10.687  0.00  0.00     0.134 C 
BRANCH   4   5
ATOM      5  C15 ZIN A   1      17.637   3.096  10.768  0.00  0.00     0.182 C 
BRANCH   5   6
ATOM      6  O16 ZIN A   1      17.558   3.498  12.137  0.00  0.00    -0.400 OA
ATOM      7  H36 ZIN A   1      18.046   2.924  12.744  0.00  0.00     0.209 HD
ENDBRANCH   5   6
ENDBRANCH   4   5
BRANCH   4   8
ATOM      8  C17 ZIN A   1      17.996   1.158   9.264  0.00  0.00    -0.043 A 
ATOM      9  C22 ZIN A   1      18.894   1.879   8.499  0.00  0.00     0.008 A 
ATOM     10  C21 ZIN A   1      19.154   1.498   7.197  0.00  0.00     0.001 A 
ATOM     11  C20 ZIN A   1      18.510   0.402   6.655  0.00  0.00     0.000 A 
ATOM     12  C19 ZIN A   1      17.608  -0.318   7.419  0.00  0.00     0.001 A 
ATOM     13  C18 ZIN A   1      17.351   0.061   8.723  0.00  0.00     0.008 A 
ENDBRANCH   4   8
ENDBRANCH   2   4
BRANCH   1  14
ATOM     14  C2  ZIN A   1      17.339  -0.700  12.341  0.00  0.00     0.121 C 
ATOM     15  C1  ZIN A   1      17.550  -2.103  11.769  0.00  0.00     0.026 C 
ENDBRANCH   1  14
BRANCH   1  16
ATOM     16  C4  ZIN A   1      19.680  -0.440  13.285  0.00  0.00     0.164 C 
BRANCH  16  17
ATOM     17  C5  ZIN A   1      19.259  -0.192  14.710  0.00  0.00    -0.037 A 
ATOM     18  C10 ZIN A   1      18.991  -1.251  15.565  0.00  0.00     0.028 A 
ATOM     19  C9  ZIN A   1      18.614  -0.987  16.868  0.00  0.00     0.116 A 
ATOM     20  N8  ZIN A   1      18.497   0.255  17.297  0.00  0.00    -0.273 NA
ATOM     21  C7  ZIN A   1      18.739   1.286  16.511  0.00  0.00     0.116 A 
ATOM     22  C6  ZIN A   1      19.127   1.099  15.198  0.00  0.00     0.028 A 
ENDBRANCH  16  17
ENDBRANCH   1  16
TORSDOF 7
ENDMDL
MODEL 4
REMARK VINA RESULT:      -6.9      2.278      6.063
REMARK  7 active torsions:
REMARK  status: ('A' for Active; 'I' for Inactive)
REMARK    1  A    between atoms: C2_2  and  N3_3 
REMARK    2  A    between atoms: N3_3  and  C4_4 
REMARK       I    between atoms: N3_3  and  C11_11 
REMARK    3  A    between atoms: C4_4  and  C5_5 
REMARK    4  A    between atoms: C11_11  and  C13_13 
REMARK    5  A    between atoms: C13_13  and  C15_14 
REMARK    6  A    between atoms: C13_13  and  C17_16 
REMARK    7  A    between atoms: C15_14  and  O16_15 
ROOT
ATOM      1  N3  ZIN A   1      18.013  -0.503  11.160  0.00  0.00    -0.348 N 
ATOM      2  C11 ZIN A   1      18.440   0.250  12.193  0.00  0.00     0.230 C 
ATOM      3  O12 ZIN A   1      17.944   1.339  12.396  0.00  0.00    -0.273 OA
ENDROOT
BRANCH   2   4
ATOM      4  C13 ZIN A   1      19.531  -0.261  13.098  0.00  0.00     0.134 C 
BRANCH   4   5
ATOM      5  C15 ZIN A   1      20.751   0.656  12.994  0.00  0.00     0.182 C 
BRANCH   5   6
ATOM      6  O16 ZIN A   1      21.539   0.277  11.865  0.00  0.00    -0.400 OA
ATOM      7  H36 ZIN A   1      22.283  -0.303  12.080  0.00  0.00     0.209 HD
ENDBRANCH   5   6
ENDBRANCH   4   5
BRANCH   4   8
ATOM      8  C17 ZIN A   1      19.036  -0.278  14.522  0.00  0.00    -0.043 A 
ATOM      9  C22 ZIN A   1      19.184   0.842  15.319  0.00  0.00     0.008 A 
ATOM     10  C21 ZIN A   1      18.727   0.828  16.622  0.00  0.00     0.001 A 
ATOM     11  C20 ZIN A   1      18.128  -0.310  17.133  0.00  0.00     0.000 A 
ATOM     12  C19 ZIN A   1      17.984  -1.432  16.337  0.00  0.00     0.001 A 
ATOM     13  C18 ZIN A   1      18.438  -1.416  15.032  0.00  0.00     0.008 A 
ENDBRANCH   4   8
ENDBRANCH   2   4
BRANCH   1  14
ATOM     14  C2  ZIN A   1      18.575  -1.839  10.946  0.00  0.00     0.121 C 
ATOM     15  C1  ZIN A   1      17.530  -2.895  11.313  0.00  0.00     0.026 C 
ENDBRANCH   1  14
BRANCH   1  16
ATOM     16  C4  ZIN A   1      16.989   0.015  10.250  0.00  0.00     0.164 C 
BRANCH  16  17
ATOM     17  C5  ZIN A   1      17.620   0.354   8.924  0.00  0.00    -0.037 A 
ATOM     18  C10 ZIN A   1      18.625   1.305   8.839  0.00  0.00     0.028 A 
ATOM     19  C9  ZIN A   1      19.185   1.586   7.607  0.00  0.00     0.116 A 
ATOM     20  N8  ZIN A   1      18.766   0.969   6.520  0.00  0.00    -0.273 NA
ATOM     21  C7  ZIN A   1      17.809   0.062   6.562  0.00  0.00     0.116 A 
ATOM     22  C6  ZIN A   1      17.206  -0.275   7.760  0.00  0.00     0.028 A 
ENDBRANCH  16  17
ENDBRANCH   1  16
TORSDOF 7
ENDMDL
MODEL 5
REMARK VINA RESULT:      -6.7      2.626      5.282
REMARK  7 active torsions:
REMARK  status: ('A' for Active; 'I' for Inactive)
REMARK    1  A    between atoms: C2_2  and  N3_3 
REMARK    2  A    between atoms: N3_3  and  C4_4 
REMARK       I    between atoms: N3_3  and  C11_11 
REMARK    3  A    between atoms: C4_4  and  C5_5 
REMARK    4  A    between atoms: C11_11  and  C13_13 
REMARK    5  A    between atoms: C13_13  and  C15_14 
REMARK    6  A    between atoms: C13_13  and  C17_16 
REMARK    7  A    between atoms: C15_14  and  O16_15 
ROOT
ATOM      1  N3  ZIN A   1      17.980   0.415   9.614  0.00  0.00    -0.348 N 
ATOM      2  C11 ZIN A   1      17.489   0.533  10.864  0.00  0.00     0.230 C 
ATOM      3  O12 ZIN A   1      16.394   0.085  11.130  0.00  0.00    -0.273 OA
ENDROOT
BRANCH   2   4
ATOM      4  C13 ZIN A   1      18.302   1.220  11.930  0.00  0.00     0.134 C 
BRANCH   4   5
ATOM      5  C15 ZIN A   1      17.647   2.556  12.289  0.00  0.00     0.182 C 
BRANCH   5   6
ATOM      6  O16 ZIN A   1      16.973   3.080  11.144  0.00  0.00    -0.400 OA
ATOM      7  H36 ZIN A   1      16.010   3.113  11.235  0.00  0.00     0.209 HD
ENDBRANCH   5   6
ENDBRANCH   4   5
BRANCH   4   8
ATOM      8  C17 ZIN A   1      18.363   0.346  13.156  0.00  0.00    -0.043 A 
ATOM      9  C22 ZIN A   1      19.150  -0.791  13.155  0.00  0.00     0.008 A 
ATOM     10  C21 ZIN A   1      19.210  -1.591  14.281  0.00  0.00     0.001 A 
ATOM     11  C20 ZIN A   1      18.476  -1.259  15.405  0.00  0.00     0.000 A 
ATOM     12  C19 ZIN A   1      17.686  -0.123  15.404  0.00  0.00     0.001 A 
ATOM     13  C18 ZIN A   1      17.629   0.678  14.280  0.00  0.00     0.008 A 
ENDBRANCH   4   8
ENDBRANCH   2   4
BRANCH   1  14
ATOM     14  C2  ZIN A   1      19.324   0.909   9.304  0.00  0.00     0.121 C 
ATOM     15  C1  ZIN A   1      19.217   2.224   8.529  0.00  0.00     0.026 C 
ENDBRANCH   1  14
BRANCH   1  16
ATOM     16  C4  ZIN A   1      17.169  -0.208   8.565  0.00  0.00     0.164 C 
BRANCH  16  17
ATOM     17  C5  ZIN A   1      18.043  -1.089   7.711  0.00  0.00    -0.037 A 
ATOM     18  C10 ZIN A   1      18.362  -0.727   6.411  0.00  0.00     0.028 A 
ATOM     19  C9  ZIN A   1      19.171  -1.557   5.659  0.00  0.00     0.116 A 
ATOM     20  N8  ZIN A   1      19.629  -2.687   6.161  0.00  0.00    -0.273 NA
ATOM     21  C7  ZIN A   1      19.341  -3.067   7.390  0.00  0.00     0.116 A 
ATOM     22  C6  ZIN A   1      18.543  -2.285   8.204  0.00  0.00     0.028 A 
ENDBRANCH  16  17
ENDBRANCH   1  16
TORSDOF 7
ENDMDL
MODEL 6
REMARK VINA RESULT:      -6.6      2.385      3.686
REMARK  7 active torsions:
REMARK  status: ('A' for Active; 'I' for Inactive)
REMARK    1  A    between atoms: C2_2  and  N3_3 
REMARK    2  A    between atoms: N3_3  and  C4_4 
REMARK       I    between atoms: N3_3  and  C11_11 
REMARK    3  A    between atoms: C4_4  and  C5_5 
REMARK    4  A    between atoms: C11_11  and  C13_13 
REMARK    5  A    between atoms: C13_13  and  C15_14 
REMARK    6  A    between atoms: C13_13  and  C17_16 
REMARK    7  A    between atoms: C15_14  and  O16_15 
ROOT
ATOM      1  N3  ZIN A   1      18.599  -0.092  11.758  0.00  0.00    -0.348 N 
ATOM      2  C11 ZIN A   1      18.004   0.887  11.047  0.00  0.00     0.230 C 
ATOM      3  O12 ZIN A   1      16.847   0.768  10.702  0.00  0.00    -0.273 OA
ENDROOT
BRANCH   2   4
ATOM      4  C13 ZIN A   1      18.775   2.128  10.683  0.00  0.00     0.134 C 
BRANCH   4   5
ATOM      5  C15 ZIN A   1      18.881   2.235   9.160  0.00  0.00     0.182 C 
BRANCH   5   6
ATOM      6  O16 ZIN A   1      20.017   1.497   8.708  0.00  0.00    -0.400 OA
ATOM      7  H36 ZIN A   1      20.028   1.336   7.754  0.00  0.00     0.209 HD
ENDBRANCH   5   6
ENDBRANCH   4   5
BRANCH   4   8
ATOM      8  C17 ZIN A   1      18.059   3.340  11.223  0.00  0.00    -0.043 A 
ATOM      9  C22 ZIN A   1      17.571   4.298  10.354  0.00  0.00     0.008 A 
ATOM     10  C21 ZIN A   1      16.911   5.407  10.848  0.00  0.00     0.001 A 
ATOM     11  C20 ZIN A   1      16.747   5.564  12.212  0.00  0.00     0.000 A 
ATOM     12  C19 ZIN A   1      17.239   4.608  13.081  0.00  0.00     0.001 A 
ATOM     13  C18 ZIN A   1      17.896   3.496  12.587  0.00  0.00     0.008 A 
ENDBRANCH   4   8
ENDBRANCH   2   4
BRANCH   1  14
ATOM     14  C2  ZIN A   1      19.979   0.074  12.220  0.00  0.00     0.121 C 
ATOM     15  C1  ZIN A   1      19.986   0.320  13.731  0.00  0.00     0.026 C 
ENDBRANCH   1  14
BRANCH   1  16
ATOM     16  C4  ZIN A   1      17.866  -1.321  12.069  0.00  0.00     0.164 C 
BRANCH  16  17
ATOM     17  C5  ZIN A   1      18.467  -2.471  11.302  0.00  0.00    -0.037 A 
ATOM     18  C10 ZIN A   1      19.296  -3.387  11.932  0.00  0.00     0.028 A 
ATOM     19  C9  ZIN A   1      19.825  -4.433  11.199  0.00  0.00     0.116 A 
ATOM     20  N8  ZIN A   1      19.557  -4.558   9.914  0.00  0.00    -0.273 NA
ATOM     21  C7  ZIN A   1      18.778  -3.703   9.281  0.00  0.00     0.116 A 
ATOM     22  C6  ZIN A   1      18.208  -2.636   9.950  0.00  0.00     0.028 A 
ENDBRANCH  16  17
ENDBRANCH   1  16
TORSDOF 7
ENDMDL
MODEL 7
REMARK VINA RESULT:      -6.5      2.412      5.664
REMARK  7 active torsions:
REMARK  status: ('A' for Active; 'I' for Inactive)
REMARK    1  A    between atoms: C2_2  and  N3_3 
REMARK    2  A    between atoms: N3_3  and  C4_4 
REMARK       I    between atoms: N3_3  and  C11_11 
REMARK    3  A    between atoms: C4_4  and  C5_5 
REMARK    4  A    between atoms: C11_11  and  C13_13 
REMARK    5  A    between atoms: C13_13  and  C15_14 
REMARK    6  A    between atoms: C13_13  and  C17_16 
REMARK    7  A    between atoms: C15_14  and  O16_15 
ROOT
ATOM      1  N3  ZIN A   1      18.450  -1.530  11.204  0.00  0.00    -0.348 N 
ATOM      2  C11 ZIN A   1      17.876  -0.609  12.004  0.00  0.00     0.230 C 
ATOM      3  O12 ZIN A   1      16.683  -0.400  11.930  0.00  0.00    -0.273 OA
ENDROOT
BRANCH   2   4
ATOM      4  C13 ZIN A   1      18.715   0.160  12.991  0.00  0.00     0.134 C 
BRANCH   4   5
ATOM      5  C15 ZIN A   1      18.465   1.659  12.816  0.00  0.00     0.182 C 
BRANCH   5   6
ATOM      6  O16 ZIN A   1      19.712   2.355  12.822  0.00  0.00    -0.400 OA
ATOM      7  H36 ZIN A   1      20.208   2.267  13.649  0.00  0.00     0.209 HD
ENDBRANCH   5   6
ENDBRANCH   4   5
BRANCH   4   8
ATOM      8  C17 ZIN A   1      18.343  -0.251  14.393  0.00  0.00    -0.043 A 
ATOM      9  C22 ZIN A   1      18.867  -1.409  14.937  0.00  0.00     0.008 A 
ATOM     10  C21 ZIN A   1      18.530  -1.783  16.223  0.00  0.00     0.001 A 
ATOM     11  C20 ZIN A   1      17.660  -1.004  16.964  0.00  0.00     0.000 A 
ATOM     12  C19 ZIN A   1      17.132   0.152  16.419  0.00  0.00     0.001 A 
ATOM     13  C18 ZIN A   1      17.473   0.529  15.134  0.00  0.00     0.008 A 
ENDBRANCH   4   8
ENDBRANCH   2   4
BRANCH   1  14
ATOM     14  C2  ZIN A   1      19.880  -1.819  11.330  0.00  0.00     0.121 C 
ATOM     15  C1  ZIN A   1      20.075  -3.306  11.632  0.00  0.00     0.026 C 
ENDBRANCH   1  14
BRANCH   1  16
ATOM     16  C4  ZIN A   1      17.644  -2.240  10.209  0.00  0.00     0.164 C 
BRANCH  16  17
ATOM     17  C5  ZIN A   1      17.962  -1.711   8.835  0.00  0.00    -0.037 A 
ATOM     18  C10 ZIN A   1      18.777  -2.426   7.970  0.00  0.00     0.028 A 
ATOM     19  C9  ZIN A   1      19.043  -1.913   6.715  0.00  0.00     0.116 A 
ATOM     20  N8  ZIN A   1      18.539  -0.753   6.341  0.00  0.00    -0.273 NA
ATOM     21  C7  ZIN A   1      17.765  -0.043   7.138  0.00  0.00     0.116 A 
ATOM     22  C6  ZIN A   1      17.451  -0.496   8.406  0.00  0.00     0.028 A 
ENDBRANCH  16  17
ENDBRANCH   1  16
TORSDOF 7
ENDMDL
MODEL 8
REMARK VINA RESULT:      -6.5      2.673      4.779
REMARK  7 active torsions:
REMARK  status: ('A' for Active; 'I' for Inactive)
REMARK    1  A    between atoms: C2_2  and  N3_3 
REMARK    2  A    between atoms: N3_3  and  C4_4 
REMARK       I    between atoms: N3_3  and  C11_11 
REMARK    3  A    between atoms: C4_4  and  C5_5 
REMARK    4  A    between atoms: C11_11  and  C13_13 
REMARK    5  A    between atoms: C13_13  and  C15_14 
REMARK    6  A    between atoms: C13_13  and  C17_16 
REMARK    7  A    between atoms: C15_14  and  O16_15 
ROOT
ATOM      1  N3  ZIN A   1      18.893   0.205  11.116  0.00  0.00    -0.348 N 
ATOM      2  C11 ZIN A   1      19.188   1.282  11.873  0.00  0.00     0.230 C 
ATOM      3  O12 ZIN A   1      20.283   1.798  11.792  0.00  0.00    -0.273 OA
ENDROOT
BRANCH   2   4
ATOM      4  C13 ZIN A   1      18.157   1.844  12.816  0.00  0.00     0.134 C 
BRANCH   4   5
ATOM      5  C15 ZIN A   1      18.768   1.991  14.211  0.00  0.00     0.182 C 
BRANCH   5   6
ATOM      6  O16 ZIN A   1      19.842   1.062  14.362  0.00  0.00    -0.400 OA
ATOM      7  H36 ZIN A   1      20.465   1.290  15.067  0.00  0.00     0.209 HD
ENDBRANCH   5   6
ENDBRANCH   4   5
BRANCH   4   8
ATOM      8  C17 ZIN A   1      17.706   3.194  12.320  0.00  0.00    -0.043 A 
ATOM      9  C22 ZIN A   1      17.526   3.409  10.967  0.00  0.00     0.008 A 
ATOM     10  C21 ZIN A   1      17.108   4.645  10.512  0.00  0.00     0.001 A 
ATOM     11  C20 ZIN A   1      16.880   5.671  11.410  0.00  0.00     0.000 A 
ATOM     12  C19 ZIN A   1      17.065   5.458  12.764  0.00  0.00     0.001 A 
ATOM     13  C18 ZIN A   1      17.479   4.220  13.219  0.00  0.00     0.008 A 
ENDBRANCH   4   8
ENDBRANCH   2   4
BRANCH   1  14
ATOM     14  C2  ZIN A   1      17.555  -0.386  11.174  0.00  0.00     0.121 C 
ATOM     15  C1  ZIN A   1      17.629  -1.750  11.864  0.00  0.00     0.026 C 
ENDBRANCH   1  14
BRANCH   1  16
ATOM     16  C4  ZIN A   1      19.912  -0.372  10.237  0.00  0.00     0.164 C 
BRANCH  16  17
ATOM     17  C5  ZIN A   1      19.520  -0.150   8.799  0.00  0.00    -0.037 A 
ATOM     18  C10 ZIN A   1      19.360   1.133   8.298  0.00  0.00     0.028 A 
ATOM     19  C9  ZIN A   1      19.004   1.300   6.973  0.00  0.00     0.116 A 
ATOM     20  N8  ZIN A   1      18.808   0.257   6.192  0.00  0.00    -0.273 NA
ATOM     21  C7  ZIN A   1      18.945  -0.977   6.635  0.00  0.00     0.116 A 
ATOM     22  C6  ZIN A   1      19.305  -1.222   7.947  0.00  0.00     0.028 A 
ENDBRANCH  16  17
ENDBRANCH   1  16
TORSDOF 7
ENDMDL
MODEL 9
REMARK VINA RESULT:      -6.4      2.278      5.773
REMARK  7 active torsions:
REMARK  status: ('A' for Active; 'I' for Inactive)
REMARK    1  A    between atoms: C2_2  and  N3_3 
REMARK    2  A    between atoms: N3_3  and  C4_4 
REMARK       I    between atoms: N3_3  and  C11_11 
REMARK    3  A    between atoms: C4_4  and  C5_5 
REMARK    4  A    between atoms: C11_11  and  C13_13 
REMARK    5  A    between atoms: C13_13  and  C15_14 
REMARK    6  A    between atoms: C13_13  and  C17_16 
REMARK    7  A    between atoms: C15_14  and  O16_15 
ROOT
ATOM      1  N3  ZIN A   1      18.632   0.252  10.373  0.00  0.00    -0.348 N 
ATOM      2  C11 ZIN A   1      18.815  -0.797  11.199  0.00  0.00     0.230 C 
ATOM      3  O12 ZIN A   1      19.874  -1.390  11.202  0.00  0.00    -0.273 OA
ENDROOT
BRANCH   2   4
ATOM      4  C13 ZIN A   1      17.706  -1.233  12.121  0.00  0.00     0.134 C 
BRANCH   4   5
ATOM      5  C15 ZIN A   1      17.563  -2.755  12.063  0.00  0.00     0.182 C 
BRANCH   5   6
ATOM      6  O16 ZIN A   1      17.515  -3.179  10.700  0.00  0.00    -0.400 OA
ATOM      7  H36 ZIN A   1      17.682  -2.471  10.062  0.00  0.00     0.209 HD
ENDBRANCH   5   6
ENDBRANCH   4   5
BRANCH   4   8
ATOM      8  C17 ZIN A   1      18.031  -0.812  13.531  0.00  0.00    -0.043 A 
ATOM      9  C22 ZIN A   1      18.748  -1.658  14.357  0.00  0.00     0.008 A 
ATOM     10  C21 ZIN A   1      19.050  -1.271  15.649  0.00  0.00     0.001 A 
ATOM     11  C20 ZIN A   1      18.627  -0.042  16.119  0.00  0.00     0.000 A 
ATOM     12  C19 ZIN A   1      17.906   0.803  15.294  0.00  0.00     0.001 A 
ATOM     13  C18 ZIN A   1      17.608   0.417  14.001  0.00  0.00     0.008 A 
ENDBRANCH   4   8
ENDBRANCH   2   4
BRANCH   1  14
ATOM     14  C2  ZIN A   1      17.373   1.000  10.407  0.00  0.00     0.121 C 
ATOM     15  C1  ZIN A   1      17.667   2.482  10.646  0.00  0.00     0.026 C 
ENDBRANCH   1  14
BRANCH   1  16
ATOM     16  C4  ZIN A   1      19.691   0.643   9.440  0.00  0.00     0.164 C 
BRANCH  16  17
ATOM     17  C5  ZIN A   1      19.318   0.211   8.046  0.00  0.00    -0.037 A 
ATOM     18  C10 ZIN A   1      18.990   1.147   7.077  0.00  0.00     0.028 A 
ATOM     19  C9  ZIN A   1      18.658   0.714   5.807  0.00  0.00     0.116 A 
ATOM     20  N8  ZIN A   1      18.641  -0.572   5.516  0.00  0.00    -0.273 NA
ATOM     21  C7  ZIN A   1      18.941  -1.490   6.414  0.00  0.00     0.116 A 
ATOM     22  C6  ZIN A   1      19.289  -1.132   7.703  0.00  0.00     0.028 A 
ENDBRANCH  16  17
ENDBRANCH   1  16
TORSDOF 7
ENDMDL
