MODEL 1
REMARK VINA RESULT:      -5.9      0.000      0.000
REMARK  5 active torsions:
REMARK  status: ('A' for Active; 'I' for Inactive)
REMARK    1  A    between atoms: C2_2  and  N3_3 
REMARK    2  A    between atoms: N3_3  and  C4_4 
REMARK    3  A    between atoms: N3_3  and  C6_6 
REMARK    4  A    between atoms: C6_6  and  C9_8 
REMARK    5  A    between atoms: C9_8  and  C11_10 
ROOT
ATOM      1  C9  ZIN A   1      17.234   0.395  11.246  0.00  0.00     0.192 C 
ATOM      2  O10 ZIN A   1      16.052   0.170  11.405  0.00  0.00    -0.290 OA
ENDROOT
BRANCH   1   3
ATOM      3  C6  ZIN A   1      18.163   0.422  12.433  0.00  0.00     0.293 C 
ATOM      4  C8  ZIN A   1      17.917   1.695  13.244  0.00  0.00     0.051 C 
BRANCH   3   5
ATOM      5  N3  ZIN A   1      17.910  -0.754  13.279  0.00  0.00     0.099 N 
BRANCH   5   6
ATOM      6  C2  ZIN A   1      18.911  -1.801  13.037  0.00  0.00     0.269 C 
ATOM      7  C1  ZIN A   1      18.306  -2.890  12.148  0.00  0.00     0.037 C 
ENDBRANCH   5   6
BRANCH   5   8
ATOM      8  C4  ZIN A   1      17.870  -0.381  14.699  0.00  0.00     0.269 C 
ATOM      9  C5  ZIN A   1      18.805  -1.296  15.492  0.00  0.00     0.037 C 
ENDBRANCH   5   8
ENDBRANCH   3   5
ENDBRANCH   1   3
BRANCH   1  10
ATOM     10  C11 ZIN A   1      17.761   0.642   9.894  0.00  0.00     0.012 A 
ATOM     11  C16 ZIN A   1      17.367  -0.171   8.827  0.00  0.00     0.015 A 
ATOM     12  C15 ZIN A   1      17.860   0.070   7.562  0.00  0.00     0.001 A 
ATOM     13  C14 ZIN A   1      18.751   1.107   7.350  0.00  0.00     0.000 A 
ATOM     14  C13 ZIN A   1      19.151   1.913   8.402  0.00  0.00     0.001 A 
ATOM     15  C12 ZIN A   1      18.661   1.688   9.671  0.00  0.00     0.015 A 
ENDBRANCH   1  10
TORSDOF 5
ENDMDL
MODEL 2
REMARK VINA RESULT:      -5.8      1.884      2.437
REMARK  5 active torsions:
REMARK  status: ('A' for Active; 'I' for Inactive)
REMARK    1  A    between atoms: C2_2  and  N3_3 
REMARK    2  A    between atoms: N3_3  and  C4_4 
REMARK    3  A    between atoms: N3_3  and  C6_6 
REMARK    4  A    between atoms: C6_6  and  C9_8 
REMARK    5  A    between atoms: C9_8  and  C11_10 
ROOT
ATOM      1  C9  ZIN A   1      18.143   2.364  10.720  0.00  0.00     0.192 C 
ATOM      2  O10 ZIN A   1      17.138   2.974  11.018  0.00  0.00    -0.290 OA
ENDROOT
BRANCH   1   3
ATOM      3  C6  ZIN A   1      19.340   2.388  11.636  0.00  0.00     0.293 C 
ATOM      4  C8  ZIN A   1      19.201   3.546  12.626  0.00  0.00     0.051 C 
BRANCH   3   5
ATOM      5  N3  ZIN A   1      19.416   1.119  12.374  0.00  0.00     0.099 N 
BRANCH   5   6
ATOM      6  C2  ZIN A   1      20.733   0.492  12.207  0.00  0.00     0.269 C 
ATOM      7  C1  ZIN A   1      20.687  -0.487  11.032  0.00  0.00     0.037 C 
ENDBRANCH   5   6
BRANCH   5   8
ATOM      8  C4  ZIN A   1      19.103   1.318  13.795  0.00  0.00     0.269 C 
ATOM      9  C5  ZIN A   1      17.889   0.467  14.174  0.00  0.00     0.037 C 
ENDBRANCH   5   8
ENDBRANCH   3   5
ENDBRANCH   1   3
BRANCH   1  10
ATOM     10  C11 ZIN A   1      18.194   1.598   9.464  0.00  0.00     0.012 A 
ATOM     11  C16 ZIN A   1      19.020   2.020   8.417  0.00  0.00     0.015 A 
ATOM     12  C15 ZIN A   1      19.067   1.294   7.246  0.00  0.00     0.001 A 
ATOM     13  C14 ZIN A   1      18.291   0.157   7.100  0.00  0.00     0.000 A 
ATOM     14  C13 ZIN A   1      17.466  -0.263   8.129  0.00  0.00     0.001 A 
ATOM     15  C12 ZIN A   1      17.413   0.449   9.309  0.00  0.00     0.015 A 
ENDBRANCH   1  10
TORSDOF 5
ENDMDL
MODEL 3
REMARK VINA RESULT:      -5.7      2.002      5.489
REMARK  5 active torsions:
REMARK  status: ('A' for Active; 'I' for Inactive)
REMARK    1  A    between atoms: C2_2  and  N3_3 
REMARK    2  A    between atoms: N3_3  and  C4_4 
REMARK    3  A    between atoms: N3_3  and  C6_6 
REMARK    4  A    between atoms: C6_6  and  C9_8 
REMARK    5  A    between atoms: C9_8  and  C11_10 
ROOT
ATOM      1  C9  ZIN A   1      17.266   0.501  12.111  0.00  0.00     0.192 C 
ATOM      2  O10 ZIN A   1      16.171   0.153  11.723  0.00  0.00    -0.290 OA
ENDROOT
BRANCH   1   3
ATOM      3  C6  ZIN A   1      18.066   1.502  11.316  0.00  0.00     0.293 C 
ATOM      4  C8  ZIN A   1      17.798   1.298   9.824  0.00  0.00     0.051 C 
BRANCH   3   5
ATOM      5  N3  ZIN A   1      17.670   2.863  11.704  0.00  0.00     0.099 N 
BRANCH   5   6
ATOM      6  C2  ZIN A   1      18.654   3.458  12.617  0.00  0.00     0.269 C 
ATOM      7  C1  ZIN A   1      20.020   3.511  11.931  0.00  0.00     0.037 C 
ENDBRANCH   5   6
BRANCH   5   8
ATOM      8  C4  ZIN A   1      17.470   3.709  10.521  0.00  0.00     0.269 C 
ATOM      9  C5  ZIN A   1      16.761   5.002  10.932  0.00  0.00     0.037 C 
ENDBRANCH   5   8
ENDBRANCH   3   5
ENDBRANCH   1   3
BRANCH   1  10
ATOM     10  C11 ZIN A   1      17.815  -0.055  13.359  0.00  0.00     0.012 A 
ATOM     11  C16 ZIN A   1      18.791  -1.055  13.313  0.00  0.00     0.015 A 
ATOM     12  C15 ZIN A   1      19.305  -1.566  14.486  0.00  0.00     0.001 A 
ATOM     13  C14 ZIN A   1      18.849  -1.099  15.707  0.00  0.00     0.000 A 
ATOM     14  C13 ZIN A   1      17.880  -0.113  15.760  0.00  0.00     0.001 A 
ATOM     15  C12 ZIN A   1      17.361   0.413  14.596  0.00  0.00     0.015 A 
ENDBRANCH   1  10
TORSDOF 5
ENDMDL
MODEL 4
REMARK VINA RESULT:      -5.7      1.614      2.452
REMARK  5 active torsions:
REMARK  status: ('A' for Active; 'I' for Inactive)
REMARK    1  A    between atoms: C2_2  and  N3_3 
REMARK    2  A    between atoms: N3_3  and  C4_4 
REMARK    3  A    between atoms: N3_3  and  C6_6 
REMARK    4  A    between atoms: C6_6  and  C9_8 
REMARK    5  A    between atoms: C9_8  and  C11_10 
ROOT
ATOM      1  C9  ZIN A   1      17.325  -0.282  10.611  0.00  0.00     0.192 C 
ATOM      2  O10 ZIN A   1      16.255   0.085  11.049  0.00  0.00    -0.290 OA
ENDROOT
BRANCH   1   3
ATOM      3  C6  ZIN A   1      18.170  -1.251  11.398  0.00  0.00     0.293 C 
ATOM      4  C8  ZIN A   1      17.757  -1.208  12.871  0.00  0.00     0.051 C 
BRANCH   3   5
ATOM      5  N3  ZIN A   1      17.974  -2.610  10.874  0.00  0.00     0.099 N 
BRANCH   5   6
ATOM      6  C2  ZIN A   1      19.222  -3.144  10.315  0.00  0.00     0.269 C 
ATOM      7  C1  ZIN A   1      20.149  -3.572  11.454  0.00  0.00     0.037 C 
ENDBRANCH   5   6
BRANCH   5   8
ATOM      8  C4  ZIN A   1      17.437  -3.500  11.911  0.00  0.00     0.269 C 
ATOM      9  C5  ZIN A   1      16.709  -4.673  11.249  0.00  0.00     0.037 C 
ENDBRANCH   5   8
ENDBRANCH   3   5
ENDBRANCH   1   3
BRANCH   1  10
ATOM     10  C11 ZIN A   1      17.798   0.218   9.310  0.00  0.00     0.012 A 
ATOM     11  C16 ZIN A   1      17.317  -0.344   8.124  0.00  0.00     0.015 A 
ATOM     12  C15 ZIN A   1      17.760   0.134   6.909  0.00  0.00     0.001 A 
ATOM     13  C14 ZIN A   1      18.688   1.159   6.862  0.00  0.00     0.000 A 
ATOM     14  C13 ZIN A   1      19.174   1.717   8.031  0.00  0.00     0.001 A 
ATOM     15  C12 ZIN A   1      18.735   1.254   9.254  0.00  0.00     0.015 A 
ENDBRANCH   1  10
TORSDOF 5
ENDMDL
MODEL 5
REMARK VINA RESULT:      -5.6      1.315      2.634
REMARK  5 active torsions:
REMARK  status: ('A' for Active; 'I' for Inactive)
REMARK    1  A    between atoms: C2_2  and  N3_3 
REMARK    2  A    between atoms: N3_3  and  C4_4 
REMARK    3  A    between atoms: N3_3  and  C6_6 
REMARK    4  A    between atoms: C6_6  and  C9_8 
REMARK    5  A    between atoms: C9_8  and  C11_10 
ROOT
ATOM      1  C9  ZIN A   1      16.882  -0.054  11.333  0.00  0.00     0.192 C 
ATOM      2  O10 ZIN A   1      15.685   0.081  11.475  0.00  0.00    -0.290 OA
ENDROOT
BRANCH   1   3
ATOM      3  C6  ZIN A   1      17.649  -0.988  12.234  0.00  0.00     0.293 C 
ATOM      4  C8  ZIN A   1      17.656  -2.391  11.626  0.00  0.00     0.051 C 
BRANCH   3   5
ATOM      5  N3  ZIN A   1      19.031  -0.508  12.374  0.00  0.00     0.099 N 
BRANCH   5   6
ATOM      6  C2  ZIN A   1      19.353  -0.234  13.781  0.00  0.00     0.269 C 
ATOM      7  C1  ZIN A   1      18.764  -1.337  14.663  0.00  0.00     0.037 C 
ENDBRANCH   5   6
BRANCH   5   8
ATOM      8  C4  ZIN A   1      19.981  -1.464  11.792  0.00  0.00     0.269 C 
ATOM      9  C5  ZIN A   1      20.916  -0.731  10.827  0.00  0.00     0.037 C 
ENDBRANCH   5   8
ENDBRANCH   3   5
ENDBRANCH   1   3
BRANCH   1  10
ATOM     10  C11 ZIN A   1      17.587   0.695  10.279  0.00  0.00     0.012 A 
ATOM     11  C16 ZIN A   1      18.035   1.997  10.522  0.00  0.00     0.015 A 
ATOM     12  C15 ZIN A   1      18.699   2.690   9.533  0.00  0.00     0.001 A 
ATOM     13  C14 ZIN A   1      18.914   2.103   8.298  0.00  0.00     0.000 A 
ATOM     14  C13 ZIN A   1      18.469   0.817   8.047  0.00  0.00     0.001 A 
ATOM     15  C12 ZIN A   1      17.808   0.109   9.029  0.00  0.00     0.015 A 
ENDBRANCH   1  10
TORSDOF 5
ENDMDL
MODEL 6
REMARK VINA RESULT:      -5.6      1.490      5.515
REMARK  5 active torsions:
REMARK  status: ('A' for Active; 'I' for Inactive)
REMARK    1  A    between atoms: C2_2  and  N3_3 
REMARK    2  A    between atoms: N3_3  and  C4_4 
REMARK    3  A    between atoms: N3_3  and  C6_6 
REMARK    4  A    between atoms: C6_6  and  C9_8 
REMARK    5  A    between atoms: C9_8  and  C11_10 
ROOT
ATOM      1  C9  ZIN A   1      17.173  -0.096  11.836  0.00  0.00     0.192 C 
ATOM      2  O10 ZIN A   1      15.980   0.040  11.662  0.00  0.00    -0.290 OA
ENDROOT
BRANCH   1   3
ATOM      3  C6  ZIN A   1      18.108  -0.130  10.653  0.00  0.00     0.293 C 
ATOM      4  C8  ZIN A   1      17.926  -1.447   9.898  0.00  0.00     0.051 C 
BRANCH   3   5
ATOM      5  N3  ZIN A   1      17.804   0.995   9.757  0.00  0.00     0.099 N 
BRANCH   5   6
ATOM      6  C2  ZIN A   1      18.587   2.183  10.119  0.00  0.00     0.269 C 
ATOM      7  C1  ZIN A   1      17.642   3.295  10.581  0.00  0.00     0.037 C 
ENDBRANCH   5   6
BRANCH   5   8
ATOM      8  C4  ZIN A   1      18.028   0.624   8.354  0.00  0.00     0.269 C 
ATOM      9  C5  ZIN A   1      19.190   1.443   7.789  0.00  0.00     0.037 C 
ENDBRANCH   5   8
ENDBRANCH   3   5
ENDBRANCH   1   3
BRANCH   1  10
ATOM     10  C11 ZIN A   1      17.708  -0.226  13.200  0.00  0.00     0.012 A 
ATOM     11  C16 ZIN A   1      18.508  -1.322  13.539  0.00  0.00     0.015 A 
ATOM     12  C15 ZIN A   1      19.011  -1.435  14.818  0.00  0.00     0.001 A 
ATOM     13  C14 ZIN A   1      18.717  -0.472  15.768  0.00  0.00     0.000 A 
ATOM     14  C13 ZIN A   1      17.921   0.612  15.443  0.00  0.00     0.001 A 
ATOM     15  C12 ZIN A   1      17.416   0.742  14.166  0.00  0.00     0.015 A 
ENDBRANCH   1  10
TORSDOF 5
ENDMDL
MODEL 7
REMARK VINA RESULT:      -5.4      2.375      4.290
REMARK  5 active torsions:
REMARK  status: ('A' for Active; 'I' for Inactive)
REMARK    1  A    between atoms: C2_2  and  N3_3 
REMARK    2  A    between atoms: N3_3  and  C4_4 
REMARK    3  A    between atoms: N3_3  and  C6_6 
REMARK    4  A    between atoms: C6_6  and  C9_8 
REMARK    5  A    between atoms: C9_8  and  C11_10 
ROOT
ATOM      1  C9  ZIN A   1      18.586   1.812   9.369  0.00  0.00     0.192 C 
ATOM      2  O10 ZIN A   1      19.364   1.875   8.440  0.00  0.00    -0.290 OA
ENDROOT
BRANCH   1   3
ATOM      3  C6  ZIN A   1      17.611   0.666   9.460  0.00  0.00     0.293 C 
ATOM      4  C8  ZIN A   1      17.657  -0.147   8.165  0.00  0.00     0.051 C 
BRANCH   3   5
ATOM      5  N3  ZIN A   1      17.976  -0.197  10.593  0.00  0.00     0.099 N 
BRANCH   5   6
ATOM      6  C2  ZIN A   1      16.904  -0.231  11.596  0.00  0.00     0.269 C 
ATOM      7  C1  ZIN A   1      17.346   0.540  12.841  0.00  0.00     0.037 C 
ENDBRANCH   5   6
BRANCH   5   8
ATOM      8  C4  ZIN A   1      18.312  -1.551  10.135  0.00  0.00     0.269 C 
ATOM      9  C5  ZIN A   1      17.627  -2.580  11.038  0.00  0.00     0.037 C 
ENDBRANCH   5   8
ENDBRANCH   3   5
ENDBRANCH   1   3
BRANCH   1  10
ATOM     10  C11 ZIN A   1      18.593   2.856  10.408  0.00  0.00     0.012 A 
ATOM     11  C16 ZIN A   1      19.718   3.030  11.220  0.00  0.00     0.015 A 
ATOM     12  C15 ZIN A   1      19.719   4.013  12.187  0.00  0.00     0.001 A 
ATOM     13  C14 ZIN A   1      18.608   4.819  12.361  0.00  0.00     0.000 A 
ATOM     14  C13 ZIN A   1      17.489   4.649  11.565  0.00  0.00     0.001 A 
ATOM     15  C12 ZIN A   1      17.474   3.674  10.589  0.00  0.00     0.015 A 
ENDBRANCH   1  10
TORSDOF 5
ENDMDL
MODEL 8
REMARK VINA RESULT:      -5.4      1.973      5.693
REMARK  5 active torsions:
REMARK  status: ('A' for Active; 'I' for Inactive)
REMARK    1  A    between atoms: C2_2  and  N3_3 
REMARK    2  A    between atoms: N3_3  and  C4_4 
REMARK    3  A    between atoms: N3_3  and  C6_6 
REMARK    4  A    between atoms: C6_6  and  C9_8 
REMARK    5  A    between atoms: C9_8  and  C11_10 
ROOT
ATOM      1  C9  ZIN A   1      18.869   0.590  13.002  0.00  0.00     0.192 C 
ATOM      2  O10 ZIN A   1      19.402   1.680  12.977  0.00  0.00    -0.290 OA
ENDROOT
BRANCH   1   3
ATOM      3  C6  ZIN A   1      18.574  -0.135  11.714  0.00  0.00     0.293 C 
ATOM      4  C8  ZIN A   1      17.063  -0.165  11.480  0.00  0.00     0.051 C 
BRANCH   3   5
ATOM      5  N3  ZIN A   1      19.229   0.563  10.598  0.00  0.00     0.099 N 
BRANCH   5   6
ATOM      6  C2  ZIN A   1      20.096  -0.349   9.842  0.00  0.00     0.269 C 
ATOM      7  C1  ZIN A   1      19.427  -0.704   8.512  0.00  0.00     0.037 C 
ENDBRANCH   5   6
BRANCH   5   8
ATOM      8  C4  ZIN A   1      18.237   1.197   9.720  0.00  0.00     0.269 C 
ATOM      9  C5  ZIN A   1      18.499   2.703   9.659  0.00  0.00     0.037 C 
ENDBRANCH   5   8
ENDBRANCH   3   5
ENDBRANCH   1   3
BRANCH   1  10
ATOM     10  C11 ZIN A   1      18.509  -0.024  14.291  0.00  0.00     0.012 A 
ATOM     11  C16 ZIN A   1      17.525   0.558  15.096  0.00  0.00     0.015 A 
ATOM     12  C15 ZIN A   1      17.189  -0.026  16.299  0.00  0.00     0.001 A 
ATOM     13  C14 ZIN A   1      17.832  -1.180  16.715  0.00  0.00     0.000 A 
ATOM     14  C13 ZIN A   1      18.811  -1.758  15.927  0.00  0.00     0.001 A 
ATOM     15  C12 ZIN A   1      19.153  -1.189  14.718  0.00  0.00     0.015 A 
ENDBRANCH   1  10
TORSDOF 5
ENDMDL
MODEL 9
REMARK VINA RESULT:      -5.3      4.558      7.085
REMARK  5 active torsions:
REMARK  status: ('A' for Active; 'I' for Inactive)
REMARK    1  A    between atoms: C2_2  and  N3_3 
REMARK    2  A    between atoms: N3_3  and  C4_4 
REMARK    3  A    between atoms: N3_3  and  C6_6 
REMARK    4  A    between atoms: C6_6  and  C9_8 
REMARK    5  A    between atoms: C9_8  and  C11_10 
ROOT
ATOM      1  C9  ZIN A   1      19.109  -1.120   5.415  0.00  0.00     0.192 C 
ATOM      2  O10 ZIN A   1      19.913  -0.915   4.531  0.00  0.00    -0.290 OA
ENDROOT
BRANCH   1   3
ATOM      3  C6  ZIN A   1      18.076  -2.207   5.259  0.00  0.00     0.293 C 
ATOM      4  C8  ZIN A   1      17.106  -1.831   4.137  0.00  0.00     0.051 C 
BRANCH   3   5
ATOM      5  N3  ZIN A   1      18.744  -3.473   4.925  0.00  0.00     0.099 N 
BRANCH   5   6
ATOM      6  C2  ZIN A   1      18.730  -4.393   6.070  0.00  0.00     0.269 C 
ATOM      7  C1  ZIN A   1      20.102  -4.386   6.747  0.00  0.00     0.037 C 
ENDBRANCH   5   6
BRANCH   5   8
ATOM      8  C4  ZIN A   1      18.134  -4.093   3.742  0.00  0.00     0.269 C 
ATOM      9  C5  ZIN A   1      17.627  -5.491   4.104  0.00  0.00     0.037 C 
ENDBRANCH   5   8
ENDBRANCH   3   5
ENDBRANCH   1   3
BRANCH   1  10
ATOM     10  C11 ZIN A   1      19.141  -0.307   6.642  0.00  0.00     0.012 A 
ATOM     11  C16 ZIN A   1      18.992   1.081   6.570  0.00  0.00     0.015 A 
ATOM     12  C15 ZIN A   1      19.017   1.835   7.724  0.00  0.00     0.001 A 
ATOM     13  C14 ZIN A   1      19.200   1.222   8.951  0.00  0.00     0.000 A 
ATOM     14  C13 ZIN A   1      19.354  -0.151   9.031  0.00  0.00     0.001 A 
ATOM     15  C12 ZIN A   1      19.325  -0.919   7.886  0.00  0.00     0.015 A 
ENDBRANCH   1  10
TORSDOF 5
ENDMDL
