MODEL 1
REMARK VINA RESULT:      -8.7      0.000      0.000
REMARK  8 active torsions:
REMARK  status: ('A' for Active; 'I' for Inactive)
REMARK    1  A    between atoms: C2_2  and  C4_4 
REMARK    2  A    between atoms: C4_4  and  C5_5 
REMARK    3  A    between atoms: C5_5  and  C6_6 
REMARK    4  A    between atoms: C6_6  and  N7_7 
REMARK    5  A    between atoms: C11_11  and  O12_12 
REMARK    6  A    between atoms: O12_12  and  C13_13 
REMARK    7  A    between atoms: C13_13  and  C15_14 
REMARK    8  A    between atoms: C13_13  and  C22_21 
ROOT
ATOM      1  O12 <0> d   1      19.651   0.768  10.667  0.00  0.00    -0.370 OA
ENDROOT
BRANCH   1   2
ATOM      2  C11 <0> d   1      19.679  -0.057  11.835  0.00  0.00     0.126 C 
ATOM      3  C10 <0> d   1      18.334  -0.770  11.991  0.00  0.00     0.059 C 
ATOM      4  C9  <0> d   1      18.343  -1.588  13.284  0.00  0.00     0.237 C 
ATOM      5  N7  <0> d   1      18.561  -0.697  14.429  0.00  0.00    -0.071 N 
ATOM      6  H8  <0> d   1      17.848   0.017  14.440  0.00  0.00     0.279 HD
ATOM      7  C29 <0> d   1      19.881  -0.065  14.322  0.00  0.00     0.237 C 
ATOM      8  C28 <0> d   1      19.931   0.813  13.070  0.00  0.00     0.059 C 
BRANCH   5   9
ATOM      9  C6  <0> d   1      18.491  -1.475  15.674  0.00  0.00     0.235 C 
BRANCH   9  10
ATOM     10  C5  <0> d   1      17.909  -0.603  16.788  0.00  0.00     0.038 C 
BRANCH  10  11
ATOM     11  C4  <0> d   1      18.967  -0.388  17.872  0.00  0.00     0.115 C 
BRANCH  11  12
ATOM     12  C2  <0> d   1      18.807   0.989  18.464  0.00  0.00     0.172 C 
ATOM     13  O1  <0> d   1      19.777   1.717  18.586  0.00  0.00    -0.648 OA
ATOM     14  O3  <0> d   1      17.705   1.377  18.815  0.00  0.00    -0.648 OA
ENDBRANCH  11  12
ENDBRANCH  10  11
ENDBRANCH   9  10
ENDBRANCH   5   9
ENDBRANCH   1   2
BRANCH   1  15
ATOM     15  C13 <0> d   1      18.336   1.024  10.169  0.00  0.00     0.206 C 
BRANCH  15  16
ATOM     16  C15 <0> d   1      18.300   0.760   8.686  0.00  0.00    -0.023 A 
ATOM     17  C21 <0> d   1      19.256   1.323   7.861  0.00  0.00     0.012 A 
ATOM     18  C20 <0> d   1      19.226   1.075   6.502  0.00  0.00     0.024 A 
ATOM     19  C18 <0> d   1      18.234   0.274   5.966  0.00  0.00     0.034 A 
ATOM     20  C17 <0> d   1      17.275  -0.284   6.791  0.00  0.00     0.024 A 
ATOM     21 Cl19 <0> d   1      18.192  -0.030   4.256  0.00  0.00    -0.084 Cl
ATOM     22  C16 <0> d   1      17.308  -0.041   8.151  0.00  0.00     0.012 A 
ENDBRANCH  15  16
BRANCH  15  23
ATOM     23  C22 <0> d   1      17.972   2.462  10.432  0.00  0.00     0.067 A 
ATOM     24  N27 <0> d   1      17.352   2.783  11.551  0.00  0.00    -0.263 NA
ATOM     25  C26 <0> d   1      17.019   4.030  11.825  0.00  0.00     0.117 A 
ATOM     26  C25 <0> d   1      17.302   5.050  10.937  0.00  0.00     0.019 A 
ATOM     27  C24 <0> d   1      17.949   4.750   9.749  0.00  0.00     0.003 A 
ATOM     28  C23 <0> d   1      18.288   3.430   9.497  0.00  0.00     0.030 A 
ENDBRANCH  15  23
ENDBRANCH   1  15
TORSDOF 8
ENDMDL
MODEL 2
REMARK VINA RESULT:      -8.5      3.712      7.981
REMARK  8 active torsions:
REMARK  status: ('A' for Active; 'I' for Inactive)
REMARK    1  A    between atoms: C2_2  and  C4_4 
REMARK    2  A    between atoms: C4_4  and  C5_5 
REMARK    3  A    between atoms: C5_5  and  C6_6 
REMARK    4  A    between atoms: C6_6  and  N7_7 
REMARK    5  A    between atoms: C11_11  and  O12_12 
REMARK    6  A    between atoms: O12_12  and  C13_13 
REMARK    7  A    between atoms: C13_13  and  C15_14 
REMARK    8  A    between atoms: C13_13  and  C22_21 
ROOT
ATOM      1  O12 <0> d   1      17.349   2.762  11.715  0.00  0.00    -0.370 OA
ENDROOT
BRANCH   1   2
ATOM      2  C11 <0> d   1      17.555   2.266  10.391  0.00  0.00     0.126 C 
ATOM      3  C10 <0> d   1      17.270   0.762  10.358  0.00  0.00     0.059 C 
ATOM      4  C9  <0> d   1      17.567   0.222   8.958  0.00  0.00     0.237 C 
ATOM      5  N7  <0> d   1      18.977   0.461   8.627  0.00  0.00    -0.071 N 
ATOM      6  H8  <0> d   1      19.563   0.034   9.327  0.00  0.00     0.279 HD
ATOM      7  C29 <0> d   1      19.239   1.905   8.585  0.00  0.00     0.237 C 
ATOM      8  C28 <0> d   1      19.007   2.510   9.971  0.00  0.00     0.059 C 
BRANCH   5   9
ATOM      9  C6  <0> d   1      19.277  -0.127   7.314  0.00  0.00     0.235 C 
BRANCH   9  10
ATOM     10  C5  <0> d   1      18.541   0.654   6.224  0.00  0.00     0.038 C 
BRANCH  10  11
ATOM     11  C4  <0> d   1      19.124   0.294   4.857  0.00  0.00     0.115 C 
BRANCH  11  12
ATOM     12  C2  <0> d   1      18.754  -1.126   4.512  0.00  0.00     0.172 C 
ATOM     13  O1  <0> d   1      17.581  -1.446   4.425  0.00  0.00    -0.648 OA
ATOM     14  O3  <0> d   1      19.628  -1.953   4.313  0.00  0.00    -0.648 OA
ENDBRANCH  11  12
ENDBRANCH  10  11
ENDBRANCH   9  10
ENDBRANCH   5   9
ENDBRANCH   1   2
BRANCH   1  15
ATOM     15  C13 <0> d   1      18.554   2.928  12.467  0.00  0.00     0.206 C 
BRANCH  15  16
ATOM     16  C15 <0> d   1      18.698   1.790  13.443  0.00  0.00    -0.023 A 
ATOM     17  C21 <0> d   1      17.821   1.677  14.506  0.00  0.00     0.012 A 
ATOM     18  C20 <0> d   1      17.950   0.629  15.399  0.00  0.00     0.024 A 
ATOM     19  C18 <0> d   1      18.962  -0.298  15.235  0.00  0.00     0.034 A 
ATOM     20  C17 <0> d   1      19.843  -0.181  14.175  0.00  0.00     0.024 A 
ATOM     21 Cl19 <0> d   1      19.129  -1.610  16.361  0.00  0.00    -0.084 Cl
ATOM     22  C16 <0> d   1      19.710   0.863  13.279  0.00  0.00     0.012 A 
ENDBRANCH  15  16
BRANCH  15  23
ATOM     23  C22 <0> d   1      18.499   4.232  13.219  0.00  0.00     0.067 A 
ATOM     24  N27 <0> d   1      19.589   4.695  13.800  0.00  0.00    -0.263 NA
ATOM     25  C26 <0> d   1      19.589   5.835  14.465  0.00  0.00     0.117 A 
ATOM     26  C25 <0> d   1      18.435   6.584  14.585  0.00  0.00     0.019 A 
ATOM     27  C24 <0> d   1      17.269   6.127  13.991  0.00  0.00     0.003 A 
ATOM     28  C23 <0> d   1      17.308   4.928  13.297  0.00  0.00     0.030 A 
ENDBRANCH  15  23
ENDBRANCH   1  15
TORSDOF 8
ENDMDL
MODEL 3
REMARK VINA RESULT:      -8.4      3.238      7.968
REMARK  8 active torsions:
REMARK  status: ('A' for Active; 'I' for Inactive)
REMARK    1  A    between atoms: C2_2  and  C4_4 
REMARK    2  A    between atoms: C4_4  and  C5_5 
REMARK    3  A    between atoms: C5_5  and  C6_6 
REMARK    4  A    between atoms: C6_6  and  N7_7 
REMARK    5  A    between atoms: C11_11  and  O12_12 
REMARK    6  A    between atoms: O12_12  and  C13_13 
REMARK    7  A    between atoms: C13_13  and  C15_14 
REMARK    8  A    between atoms: C13_13  and  C22_21 
ROOT
ATOM      1  O12 <0> d   1      18.486   0.142  11.970  0.00  0.00    -0.370 OA
ENDROOT
BRANCH   1   2
ATOM      2  C11 <0> d   1      18.729   0.094  10.562  0.00  0.00     0.126 C 
ATOM      3  C10 <0> d   1      19.617   1.273  10.155  0.00  0.00     0.059 C 
ATOM      4  C9  <0> d   1      19.808   1.260   8.638  0.00  0.00     0.237 C 
ATOM      5  N7  <0> d   1      18.504   1.379   7.976  0.00  0.00    -0.071 N 
ATOM      6  H8  <0> d   1      18.043   2.218   8.291  0.00  0.00     0.279 HD
ATOM      7  C29 <0> d   1      17.673   0.214   8.304  0.00  0.00     0.237 C 
ATOM      8  C28 <0> d   1      17.399   0.186   9.809  0.00  0.00     0.059 C 
BRANCH   5   9
ATOM      9  C6  <0> d   1      18.698   1.445   6.521  0.00  0.00     0.235 C 
BRANCH   9  10
ATOM     10  C5  <0> d   1      17.875   0.347   5.846  0.00  0.00     0.038 C 
BRANCH  10  11
ATOM     11  C4  <0> d   1      18.629  -0.177   4.622  0.00  0.00     0.115 C 
BRANCH  11  12
ATOM     12  C2  <0> d   1      19.311  -1.475   4.970  0.00  0.00     0.172 C 
ATOM     13  O1  <0> d   1      19.643  -1.700   6.122  0.00  0.00    -0.648 OA
ATOM     14  O3  <0> d   1      19.526  -2.303   4.101  0.00  0.00    -0.648 OA
ENDBRANCH  11  12
ENDBRANCH  10  11
ENDBRANCH   9  10
ENDBRANCH   5   9
ENDBRANCH   1   2
BRANCH   1  15
ATOM     15  C13 <0> d   1      19.156  -0.881  12.711  0.00  0.00     0.206 C 
BRANCH  15  16
ATOM     16  C15 <0> d   1      18.803  -2.229  12.137  0.00  0.00    -0.023 A 
ATOM     17  C21 <0> d   1      19.805  -3.099  11.752  0.00  0.00     0.012 A 
ATOM     18  C20 <0> d   1      19.481  -4.338  11.231  0.00  0.00     0.024 A 
ATOM     19  C18 <0> d   1      18.155  -4.701  11.084  0.00  0.00     0.034 A 
ATOM     20  C17 <0> d   1      17.153  -3.827  11.465  0.00  0.00     0.024 A 
ATOM     21 Cl19 <0> d   1      17.748  -6.255  10.423  0.00  0.00    -0.084 Cl
ATOM     22  C16 <0> d   1      17.476  -2.591  11.991  0.00  0.00     0.012 A 
ENDBRANCH  15  16
BRANCH  15  23
ATOM     23  C22 <0> d   1      18.724  -0.820  14.153  0.00  0.00     0.067 A 
ATOM     24  N27 <0> d   1      17.726  -0.032  14.501  0.00  0.00    -0.263 NA
ATOM     25  C26 <0> d   1      17.311   0.050  15.751  0.00  0.00     0.117 A 
ATOM     26  C25 <0> d   1      17.920  -0.686  16.748  0.00  0.00     0.019 A 
ATOM     27  C24 <0> d   1      18.976  -1.523  16.421  0.00  0.00     0.003 A 
ATOM     28  C23 <0> d   1      19.381  -1.586  15.096  0.00  0.00     0.030 A 
ENDBRANCH  15  23
ENDBRANCH   1  15
TORSDOF 8
ENDMDL
MODEL 4
REMARK VINA RESULT:      -8.3      2.441      4.198
REMARK  8 active torsions:
REMARK  status: ('A' for Active; 'I' for Inactive)
REMARK    1  A    between atoms: C2_2  and  C4_4 
REMARK    2  A    between atoms: C4_4  and  C5_5 
REMARK    3  A    between atoms: C5_5  and  C6_6 
REMARK    4  A    between atoms: C6_6  and  N7_7 
REMARK    5  A    between atoms: C11_11  and  O12_12 
REMARK    6  A    between atoms: O12_12  and  C13_13 
REMARK    7  A    between atoms: C13_13  and  C15_14 
REMARK    8  A    between atoms: C13_13  and  C22_21 
ROOT
ATOM      1  O12 <0> d   1      18.541  -0.210  11.045  0.00  0.00    -0.370 OA
ENDROOT
BRANCH   1   2
ATOM      2  C11 <0> d   1      18.797  -0.168  12.451  0.00  0.00     0.126 C 
ATOM      3  C10 <0> d   1      19.435  -1.487  12.895  0.00  0.00     0.059 C 
ATOM      4  C9  <0> d   1      19.634  -1.466  14.412  0.00  0.00     0.237 C 
ATOM      5  N7  <0> d   1      18.336  -1.300  15.077  0.00  0.00    -0.071 N 
ATOM      6  H8  <0> d   1      17.714  -2.040  14.788  0.00  0.00     0.279 HD
ATOM      7  C29 <0> d   1      17.753  -0.004  14.711  0.00  0.00     0.237 C 
ATOM      8  C28 <0> d   1      17.480   0.031  13.206  0.00  0.00     0.059 C 
BRANCH   5   9
ATOM      9  C6  <0> d   1      18.522  -1.359  16.533  0.00  0.00     0.235 C 
BRANCH   9  10
ATOM     10  C5  <0> d   1      17.846  -0.149  17.182  0.00  0.00     0.038 C 
BRANCH  10  11
ATOM     11  C4  <0> d   1      18.668   0.306  18.390  0.00  0.00     0.115 C 
BRANCH  11  12
ATOM     12  C2  <0> d   1      19.321   1.629  18.082  0.00  0.00     0.172 C 
ATOM     13  O1  <0> d   1      19.604   2.395  18.987  0.00  0.00    -0.648 OA
ATOM     14  O3  <0> d   1      19.571   1.932  16.927  0.00  0.00    -0.648 OA
ENDBRANCH  11  12
ENDBRANCH  10  11
ENDBRANCH   9  10
ENDBRANCH   5   9
ENDBRANCH   1   2
BRANCH   1  15
ATOM     15  C13 <0> d   1      19.178   0.834  10.306  0.00  0.00     0.206 C 
BRANCH  15  16
ATOM     16  C15 <0> d   1      18.769   2.170  10.870  0.00  0.00    -0.023 A 
ATOM     17  C21 <0> d   1      17.489   2.646  10.657  0.00  0.00     0.012 A 
ATOM     18  C20 <0> d   1      17.111   3.869  11.179  0.00  0.00     0.024 A 
ATOM     19  C18 <0> d   1      18.018   4.621  11.904  0.00  0.00     0.034 A 
ATOM     20  C17 <0> d   1      19.300   4.146  12.112  0.00  0.00     0.024 A 
ATOM     21 Cl19 <0> d   1      17.546   6.161  12.554  0.00  0.00    -0.084 Cl
ATOM     22  C16 <0> d   1      19.675   2.921  11.595  0.00  0.00     0.012 A 
ENDBRANCH  15  16
BRANCH  15  23
ATOM     23  C22 <0> d   1      18.764   0.750   8.860  0.00  0.00     0.067 A 
ATOM     24  N27 <0> d   1      19.408   1.462   7.956  0.00  0.00    -0.263 NA
ATOM     25  C26 <0> d   1      19.083   1.416   6.678  0.00  0.00     0.117 A 
ATOM     26  C25 <0> d   1      18.041   0.621   6.241  0.00  0.00     0.019 A 
ATOM     27  C24 <0> d   1      17.338  -0.138   7.164  0.00  0.00     0.003 A 
ATOM     28  C23 <0> d   1      17.711  -0.068   8.497  0.00  0.00     0.030 A 
ENDBRANCH  15  23
ENDBRANCH   1  15
TORSDOF 8
ENDMDL
MODEL 5
REMARK VINA RESULT:      -8.2      3.747      7.368
REMARK  8 active torsions:
REMARK  status: ('A' for Active; 'I' for Inactive)
REMARK    1  A    between atoms: C2_2  and  C4_4 
REMARK    2  A    between atoms: C4_4  and  C5_5 
REMARK    3  A    between atoms: C5_5  and  C6_6 
REMARK    4  A    between atoms: C6_6  and  N7_7 
REMARK    5  A    between atoms: C11_11  and  O12_12 
REMARK    6  A    between atoms: O12_12  and  C13_13 
REMARK    7  A    between atoms: C13_13  and  C15_14 
REMARK    8  A    between atoms: C13_13  and  C22_21 
ROOT
ATOM      1  O12 <0> d   1      19.751  -0.400  11.784  0.00  0.00    -0.370 OA
ENDROOT
BRANCH   1   2
ATOM      2  C11 <0> d   1      19.628   0.793  11.007  0.00  0.00     0.126 C 
ATOM      3  C10 <0> d   1      19.762   2.015  11.920  0.00  0.00     0.059 C 
ATOM      4  C9  <0> d   1      19.551   3.287  11.097  0.00  0.00     0.237 C 
ATOM      5  N7  <0> d   1      18.212   3.268  10.498  0.00  0.00    -0.071 N 
ATOM      6  H8  <0> d   1      17.520   3.171  11.225  0.00  0.00     0.279 HD
ATOM      7  C29 <0> d   1      18.101   2.140   9.565  0.00  0.00     0.237 C 
ATOM      8  C28 <0> d   1      18.255   0.824  10.329  0.00  0.00     0.059 C 
BRANCH   5   9
ATOM      9  C6  <0> d   1      17.984   4.526   9.772  0.00  0.00     0.235 C 
BRANCH   9  10
ATOM     10  C5  <0> d   1      17.280   5.525  10.693  0.00  0.00     0.038 C 
BRANCH  10  11
ATOM     11  C4  <0> d   1      16.536   4.767  11.793  0.00  0.00     0.115 C 
BRANCH  11  12
ATOM     12  C2  <0> d   1      16.772   5.446  13.118  0.00  0.00     0.172 C 
ATOM     13  O1  <0> d   1      15.830   5.885  13.755  0.00  0.00    -0.648 OA
ATOM     14  O3  <0> d   1      17.906   5.550  13.556  0.00  0.00    -0.648 OA
ENDBRANCH  11  12
ENDBRANCH  10  11
ENDBRANCH   9  10
ENDBRANCH   5   9
ENDBRANCH   1   2
BRANCH   1  15
ATOM     15  C13 <0> d   1      18.505  -0.919  12.253  0.00  0.00     0.206 C 
BRANCH  15  16
ATOM     16  C15 <0> d   1      18.419  -0.746  13.748  0.00  0.00    -0.023 A 
ATOM     17  C21 <0> d   1      17.525   0.159  14.287  0.00  0.00     0.012 A 
ATOM     18  C20 <0> d   1      17.442   0.314  15.658  0.00  0.00     0.024 A 
ATOM     19  C18 <0> d   1      18.264  -0.426  16.489  0.00  0.00     0.034 A 
ATOM     20  C17 <0> d   1      19.163  -1.327  15.947  0.00  0.00     0.024 A 
ATOM     21 Cl19 <0> d   1      18.166  -0.226  18.211  0.00  0.00    -0.084 Cl
ATOM     22  C16 <0> d   1      19.241  -1.486  14.577  0.00  0.00     0.012 A 
ENDBRANCH  15  16
BRANCH  15  23
ATOM     23  C22 <0> d   1      18.411  -2.383  11.911  0.00  0.00     0.067 A 
ATOM     24  N27 <0> d   1      17.226  -2.949  11.786  0.00  0.00    -0.263 NA
ATOM     25  C26 <0> d   1      17.096  -4.226  11.483  0.00  0.00     0.117 A 
ATOM     26  C25 <0> d   1      18.207  -5.025  11.294  0.00  0.00     0.019 A 
ATOM     27  C24 <0> d   1      19.469  -4.467  11.421  0.00  0.00     0.003 A 
ATOM     28  C23 <0> d   1      19.567  -3.120  11.736  0.00  0.00     0.030 A 
ENDBRANCH  15  23
ENDBRANCH   1  15
TORSDOF 8
ENDMDL
MODEL 6
REMARK VINA RESULT:      -8.2      2.935      4.671
REMARK  8 active torsions:
REMARK  status: ('A' for Active; 'I' for Inactive)
REMARK    1  A    between atoms: C2_2  and  C4_4 
REMARK    2  A    between atoms: C4_4  and  C5_5 
REMARK    3  A    between atoms: C5_5  and  C6_6 
REMARK    4  A    between atoms: C6_6  and  N7_7 
REMARK    5  A    between atoms: C11_11  and  O12_12 
REMARK    6  A    between atoms: O12_12  and  C13_13 
REMARK    7  A    between atoms: C13_13  and  C15_14 
REMARK    8  A    between atoms: C13_13  and  C22_21 
ROOT
ATOM      1  O12 <0> d   1      17.602  -1.645  10.391  0.00  0.00    -0.370 OA
ENDROOT
BRANCH   1   2
ATOM      2  C11 <0> d   1      18.194  -0.990  11.515  0.00  0.00     0.126 C 
ATOM      3  C10 <0> d   1      18.785  -2.037  12.464  0.00  0.00     0.059 C 
ATOM      4  C9  <0> d   1      19.347  -1.335  13.702  0.00  0.00     0.237 C 
ATOM      5  N7  <0> d   1      18.273  -0.604  14.385  0.00  0.00    -0.071 N 
ATOM      6  H8  <0> d   1      17.529  -1.243  14.619  0.00  0.00     0.279 HD
ATOM      7  C29 <0> d   1      17.752   0.449  13.505  0.00  0.00     0.237 C 
ATOM      8  C28 <0> d   1      17.127  -0.184  12.260  0.00  0.00     0.059 C 
BRANCH   5   9
ATOM      9  C6  <0> d   1      18.800   0.003  15.614  0.00  0.00     0.235 C 
BRANCH   9  10
ATOM     10  C5  <0> d   1      18.373  -0.835  16.821  0.00  0.00     0.038 C 
BRANCH  10  11
ATOM     11  C4  <0> d   1      19.229  -0.458  18.032  0.00  0.00     0.115 C 
BRANCH  11  12
ATOM     12  C2  <0> d   1      18.867   0.932  18.489  0.00  0.00     0.172 C 
ATOM     13  O1  <0> d   1      19.733   1.782  18.603  0.00  0.00    -0.648 OA
ATOM     14  O3  <0> d   1      17.705   1.209  18.739  0.00  0.00    -0.648 OA
ENDBRANCH  11  12
ENDBRANCH  10  11
ENDBRANCH   9  10
ENDBRANCH   5   9
ENDBRANCH   1   2
BRANCH   1  15
ATOM     15  C13 <0> d   1      18.539  -2.328   9.555  0.00  0.00     0.206 C 
BRANCH  15  16
ATOM     16  C15 <0> d   1      18.512  -1.727   8.174  0.00  0.00    -0.023 A 
ATOM     17  C21 <0> d   1      17.672  -0.663   7.901  0.00  0.00     0.012 A 
ATOM     18  C20 <0> d   1      17.652  -0.107   6.635  0.00  0.00     0.024 A 
ATOM     19  C18 <0> d   1      18.462  -0.624   5.640  0.00  0.00     0.034 A 
ATOM     20  C17 <0> d   1      19.298  -1.692   5.913  0.00  0.00     0.024 A 
ATOM     21 Cl19 <0> d   1      18.431   0.069   4.048  0.00  0.00    -0.084 Cl
ATOM     22  C16 <0> d   1      19.322  -2.243   7.180  0.00  0.00     0.012 A 
ENDBRANCH  15  16
BRANCH  15  23
ATOM     23  C22 <0> d   1      18.170  -3.786   9.476  0.00  0.00     0.067 A 
ATOM     24  N27 <0> d   1      16.906  -4.131   9.325  0.00  0.00    -0.263 NA
ATOM     25  C26 <0> d   1      16.537  -5.395   9.245  0.00  0.00     0.117 A 
ATOM     26  C25 <0> d   1      17.470  -6.411   9.328  0.00  0.00     0.019 A 
ATOM     27  C24 <0> d   1      18.808  -6.088   9.491  0.00  0.00     0.003 A 
ATOM     28  C23 <0> d   1      19.158  -4.748   9.566  0.00  0.00     0.030 A 
ENDBRANCH  15  23
ENDBRANCH   1  15
TORSDOF 8
ENDMDL
MODEL 7
REMARK VINA RESULT:      -8.2      3.842      7.824
REMARK  8 active torsions:
REMARK  status: ('A' for Active; 'I' for Inactive)
REMARK    1  A    between atoms: C2_2  and  C4_4 
REMARK    2  A    between atoms: C4_4  and  C5_5 
REMARK    3  A    between atoms: C5_5  and  C6_6 
REMARK    4  A    between atoms: C6_6  and  N7_7 
REMARK    5  A    between atoms: C11_11  and  O12_12 
REMARK    6  A    between atoms: O12_12  and  C13_13 
REMARK    7  A    between atoms: C13_13  and  C15_14 
REMARK    8  A    between atoms: C13_13  and  C22_21 
ROOT
ATOM      1  O12 <0> d   1      17.237   0.313  10.841  0.00  0.00    -0.370 OA
ENDROOT
BRANCH   1   2
ATOM      2  C11 <0> d   1      17.505  -0.484   9.685  0.00  0.00     0.126 C 
ATOM      3  C10 <0> d   1      17.667  -1.949  10.100  0.00  0.00     0.059 C 
ATOM      4  C9  <0> d   1      18.032  -2.785   8.872  0.00  0.00     0.237 C 
ATOM      5  N7  <0> d   1      19.292  -2.296   8.300  0.00  0.00    -0.071 N 
ATOM      6  H8  <0> d   1      20.014  -2.325   9.004  0.00  0.00     0.279 HD
ATOM      7  C29 <0> d   1      19.122  -0.914   7.834  0.00  0.00     0.237 C 
ATOM      8  C28 <0> d   1      18.801  -0.006   9.023  0.00  0.00     0.059 C 
BRANCH   5   9
ATOM      9  C6  <0> d   1      19.679  -3.149   7.168  0.00  0.00     0.235 C 
BRANCH   9  10
ATOM     10  C5  <0> d   1      18.504  -3.270   6.196  0.00  0.00     0.038 C 
BRANCH  10  11
ATOM     11  C4  <0> d   1      18.998  -3.036   4.767  0.00  0.00     0.115 C 
BRANCH  11  12
ATOM     12  C2  <0> d   1      18.942  -1.563   4.452  0.00  0.00     0.172 C 
ATOM     13  O1  <0> d   1      17.878  -1.039   4.170  0.00  0.00    -0.648 OA
ATOM     14  O3  <0> d   1      19.961  -0.893   4.485  0.00  0.00    -0.648 OA
ENDBRANCH  11  12
ENDBRANCH  10  11
ENDBRANCH   9  10
ENDBRANCH   5   9
ENDBRANCH   1   2
BRANCH   1  15
ATOM     15  C13 <0> d   1      18.409   0.813  11.487  0.00  0.00     0.206 C 
BRANCH  15  16
ATOM     16  C15 <0> d   1      18.522   0.208  12.862  0.00  0.00    -0.023 A 
ATOM     17  C21 <0> d   1      19.542  -0.681  13.143  0.00  0.00     0.012 A 
ATOM     18  C20 <0> d   1      19.649  -1.232  14.407  0.00  0.00     0.024 A 
ATOM     19  C18 <0> d   1      18.729  -0.903  15.385  0.00  0.00     0.034 A 
ATOM     20  C17 <0> d   1      17.705  -0.018  15.101  0.00  0.00     0.024 A 
ATOM     21 Cl19 <0> d   1      18.858  -1.601  16.970  0.00  0.00    -0.084 Cl
ATOM     22  C16 <0> d   1      17.602   0.537  13.840  0.00  0.00     0.012 A 
ENDBRANCH  15  16
BRANCH  15  23
ATOM     23  C22 <0> d   1      18.316   2.312  11.604  0.00  0.00     0.067 A 
ATOM     24  N27 <0> d   1      17.210   2.927  11.233  0.00  0.00    -0.263 NA
ATOM     25  C26 <0> d   1      17.082   4.237  11.322  0.00  0.00     0.117 A 
ATOM     26  C25 <0> d   1      18.116   5.018  11.803  0.00  0.00     0.019 A 
ATOM     27  C24 <0> d   1      19.296   4.408  12.198  0.00  0.00     0.003 A 
ATOM     28  C23 <0> d   1      19.392   3.028  12.094  0.00  0.00     0.030 A 
ENDBRANCH  15  23
ENDBRANCH   1  15
TORSDOF 8
ENDMDL
MODEL 8
REMARK VINA RESULT:      -8.1      4.359      7.914
REMARK  8 active torsions:
REMARK  status: ('A' for Active; 'I' for Inactive)
REMARK    1  A    between atoms: C2_2  and  C4_4 
REMARK    2  A    between atoms: C4_4  and  C5_5 
REMARK    3  A    between atoms: C5_5  and  C6_6 
REMARK    4  A    between atoms: C6_6  and  N7_7 
REMARK    5  A    between atoms: C11_11  and  O12_12 
REMARK    6  A    between atoms: O12_12  and  C13_13 
REMARK    7  A    between atoms: C13_13  and  C15_14 
REMARK    8  A    between atoms: C13_13  and  C22_21 
ROOT
ATOM      1  O12 <0> d   1      17.763  -1.480  12.575  0.00  0.00    -0.370 OA
ENDROOT
BRANCH   1   2
ATOM      2  C11 <0> d   1      18.185  -2.746  12.064  0.00  0.00     0.126 C 
ATOM      3  C10 <0> d   1      19.704  -2.742  11.875  0.00  0.00     0.059 C 
ATOM      4  C9  <0> d   1      20.140  -4.071  11.255  0.00  0.00     0.237 C 
ATOM      5  N7  <0> d   1      19.485  -4.246   9.954  0.00  0.00    -0.071 N 
ATOM      6  H8  <0> d   1      19.706  -3.462   9.359  0.00  0.00     0.279 HD
ATOM      7  C29 <0> d   1      18.030  -4.323  10.136  0.00  0.00     0.237 C 
ATOM      8  C28 <0> d   1      17.513  -3.004  10.712  0.00  0.00     0.059 C 
BRANCH   5   9
ATOM      9  C6  <0> d   1      19.966  -5.485   9.327  0.00  0.00     0.235 C 
BRANCH   9  10
ATOM     10  C5  <0> d   1      19.469  -5.551   7.882  0.00  0.00     0.038 C 
BRANCH  10  11
ATOM     11  C4  <0> d   1      20.429  -4.775   6.977  0.00  0.00     0.115 C 
BRANCH  11  12
ATOM     12  C2  <0> d   1      19.785  -3.479   6.558  0.00  0.00     0.172 C 
ATOM     13  O1  <0> d   1      19.574  -3.256   5.378  0.00  0.00    -0.648 OA
ATOM     14  O3  <0> d   1      19.470  -2.654   7.400  0.00  0.00    -0.648 OA
ENDBRANCH  11  12
ENDBRANCH  10  11
ENDBRANCH   9  10
ENDBRANCH   5   9
ENDBRANCH   1   2
BRANCH   1  15
ATOM     15  C13 <0> d   1      18.837  -0.634  12.991  0.00  0.00     0.206 C 
BRANCH  15  16
ATOM     16  C15 <0> d   1      18.699  -0.332  14.460  0.00  0.00    -0.023 A 
ATOM     17  C21 <0> d   1      18.959   0.942  14.931  0.00  0.00     0.012 A 
ATOM     18  C20 <0> d   1      18.826   1.220  16.278  0.00  0.00     0.024 A 
ATOM     19  C18 <0> d   1      18.445   0.222  17.157  0.00  0.00     0.034 A 
ATOM     20  C17 <0> d   1      18.190  -1.054  16.685  0.00  0.00     0.024 A 
ATOM     21 Cl19 <0> d   1      18.285   0.570  18.851  0.00  0.00    -0.084 Cl
ATOM     22  C16 <0> d   1      18.317  -1.330  15.338  0.00  0.00     0.012 A 
ENDBRANCH  15  16
BRANCH  15  23
ATOM     23  C22 <0> d   1      18.795   0.652  12.207  0.00  0.00     0.067 A 
ATOM     24  N27 <0> d   1      19.888   1.382  12.093  0.00  0.00    -0.263 NA
ATOM     25  C26 <0> d   1      19.899   2.512  11.412  0.00  0.00     0.117 A 
ATOM     26  C25 <0> d   1      18.753   2.979  10.798  0.00  0.00     0.019 A 
ATOM     27  C24 <0> d   1      17.584   2.241  10.899  0.00  0.00     0.003 A 
ATOM     28  C23 <0> d   1      17.612   1.056  11.619  0.00  0.00     0.030 A 
ENDBRANCH  15  23
ENDBRANCH   1  15
TORSDOF 8
ENDMDL
MODEL 9
REMARK VINA RESULT:      -8.0      3.954      8.943
REMARK  8 active torsions:
REMARK  status: ('A' for Active; 'I' for Inactive)
REMARK    1  A    between atoms: C2_2  and  C4_4 
REMARK    2  A    between atoms: C4_4  and  C5_5 
REMARK    3  A    between atoms: C5_5  and  C6_6 
REMARK    4  A    between atoms: C6_6  and  N7_7 
REMARK    5  A    between atoms: C11_11  and  O12_12 
REMARK    6  A    between atoms: O12_12  and  C13_13 
REMARK    7  A    between atoms: C13_13  and  C15_14 
REMARK    8  A    between atoms: C13_13  and  C22_21 
ROOT
ATOM      1  O12 <0> d   1      19.928  -0.523  11.614  0.00  0.00    -0.370 OA
ENDROOT
BRANCH   1   2
ATOM      2  C11 <0> d   1      19.874   0.036  10.299  0.00  0.00     0.126 C 
ATOM      3  C10 <0> d   1      18.763   1.087  10.236  0.00  0.00     0.059 C 
ATOM      4  C9  <0> d   1      18.657   1.625   8.808  0.00  0.00     0.237 C 
ATOM      5  N7  <0> d   1      18.343   0.524   7.889  0.00  0.00    -0.071 N 
ATOM      6  H8  <0> d   1      17.491   0.072   8.186  0.00  0.00     0.279 HD
ATOM      7  C29 <0> d   1      19.439  -0.452   7.891  0.00  0.00     0.237 C 
ATOM      8  C28 <0> d   1      19.574  -1.071   9.284  0.00  0.00     0.059 C 
BRANCH   5   9
ATOM      9  C6  <0> d   1      18.165   1.057   6.531  0.00  0.00     0.235 C 
BRANCH   9  10
ATOM     10  C5  <0> d   1      19.364   0.661   5.667  0.00  0.00     0.038 C 
BRANCH  10  11
ATOM     11  C4  <0> d   1      18.869   0.129   4.321  0.00  0.00     0.115 C 
BRANCH  11  12
ATOM     12  C2  <0> d   1      18.702  -1.366   4.403  0.00  0.00     0.172 C 
ATOM     13  O1  <0> d   1      19.674  -2.080   4.579  0.00  0.00    -0.648 OA
ATOM     14  O3  <0> d   1      17.593  -1.863   4.297  0.00  0.00    -0.648 OA
ENDBRANCH  11  12
ENDBRANCH  10  11
ENDBRANCH   9  10
ENDBRANCH   5   9
ENDBRANCH   1   2
BRANCH   1  15
ATOM     15  C13 <0> d   1      18.673  -1.016  12.089  0.00  0.00     0.206 C 
BRANCH  15  16
ATOM     16  C15 <0> d   1      18.568  -0.776  13.572  0.00  0.00    -0.023 A 
ATOM     17  C21 <0> d   1      17.695   0.179  14.057  0.00  0.00     0.012 A 
ATOM     18  C20 <0> d   1      17.594   0.395  15.419  0.00  0.00     0.024 A 
ATOM     19  C18 <0> d   1      18.377  -0.336  16.295  0.00  0.00     0.034 A 
ATOM     20  C17 <0> d   1      19.255  -1.287  15.808  0.00  0.00     0.024 A 
ATOM     21 Cl19 <0> d   1      18.257  -0.059  18.005  0.00  0.00    -0.084 Cl
ATOM     22  C16 <0> d   1      19.351  -1.507  14.447  0.00  0.00     0.012 A 
ENDBRANCH  15  16
BRANCH  15  23
ATOM     23  C22 <0> d   1      18.576  -2.493  11.810  0.00  0.00     0.067 A 
ATOM     24  N27 <0> d   1      19.678  -3.211  11.709  0.00  0.00    -0.263 NA
ATOM     25  C26 <0> d   1      19.641  -4.508  11.471  0.00  0.00     0.117 A 
ATOM     26  C25 <0> d   1      18.435  -5.163  11.308  0.00  0.00     0.019 A 
ATOM     27  C24 <0> d   1      17.256  -4.441  11.403  0.00  0.00     0.003 A 
ATOM     28  C23 <0> d   1      17.334  -3.081  11.659  0.00  0.00     0.030 A 
ENDBRANCH  15  23
ENDBRANCH   1  15
TORSDOF 8
ENDMDL
