MODEL 1
REMARK VINA RESULT:      -8.2      0.000      0.000
REMARK  6 active torsions:
REMARK  status: ('A' for Active; 'I' for Inactive)
REMARK    1  A    between atoms: O2_2  and  C3_3 
REMARK    2  A    between atoms: C7_7  and  C8_8 
REMARK    3  A    between atoms: C9_9  and  C10_10 
REMARK    4  A    between atoms: C12_12  and  C13_13 
REMARK    5  A    between atoms: C14_14  and  C15_15 
REMARK    6  A    between atoms: C17_17  and  C18_18 
ROOT
ATOM      1  C8  ZIN A   1      18.961  -0.924   9.714  0.00  0.00     0.013 C 
ATOM      2  C9  ZIN A   1      20.094  -0.845  10.457  0.00  0.00     0.007 C 
ENDROOT
BRANCH   1   3
ATOM      3  C7  ZIN A   1      19.030  -1.353   8.312  0.00  0.00    -0.024 A 
ATOM      4  C5  ZIN A   1      19.035  -2.718   7.995  0.00  0.00    -0.049 A 
ATOM      5  C4  ZIN A   1      19.101  -3.115   6.678  0.00  0.00     0.044 A 
ATOM      6  C6  ZIN A   1      18.969  -3.749   9.091  0.00  0.00     0.049 C 
ATOM      7  C3  ZIN A   1      19.162  -2.164   5.665  0.00  0.00     0.075 A 
ATOM      8  C23 ZIN A   1      19.163  -0.809   5.975  0.00  0.00    -0.022 A 
ATOM      9  C21 ZIN A   1      19.092  -0.400   7.287  0.00  0.00    -0.043 A 
ATOM     10  C24 ZIN A   1      19.230   0.216   4.872  0.00  0.00     0.052 C 
ATOM     11  C22 ZIN A   1      19.088   1.069   7.621  0.00  0.00     0.049 C 
BRANCH   7  12
ATOM     12  O2  ZIN A   1      19.226  -2.561   4.367  0.00  0.00    -0.355 OA
ATOM     13  C1  ZIN A   1      18.391  -3.654   3.982  0.00  0.00     0.210 C 
ENDBRANCH   7  12
ENDBRANCH   1   3
BRANCH   2  14
ATOM     14  C10 ZIN A   1      20.018  -0.534  11.826  0.00  0.00    -0.062 C 
ATOM     15  C11 ZIN A   1      20.678   0.716  12.351  0.00  0.00     0.048 C 
ATOM     16  C12 ZIN A   1      19.348  -1.361  12.679  0.00  0.00     0.007 C 
BRANCH  16  17
ATOM     17  C13 ZIN A   1      19.273  -1.049  14.043  0.00  0.00     0.001 C 
ATOM     18  C14 ZIN A   1      18.140  -0.451  14.551  0.00  0.00     0.007 C 
BRANCH  18  19
ATOM     19  C15 ZIN A   1      18.064  -0.140  15.914  0.00  0.00    -0.056 C 
ATOM     20  C16 ZIN A   1      17.296  -1.036  16.850  0.00  0.00     0.048 C 
ATOM     21  C17 ZIN A   1      18.694   0.986  16.398  0.00  0.00     0.091 C 
BRANCH  21  22
ATOM     22  C18 ZIN A   1      18.755   1.214  17.782  0.00  0.00     0.199 C 
ATOM     23  O19 ZIN A   1      19.845   0.865  18.468  0.00  0.00    -0.644 OA
ATOM     24  O20 ZIN A   1      17.723   1.780  18.411  0.00  0.00    -0.644 OA
ENDBRANCH  21  22
ENDBRANCH  18  19
ENDBRANCH  16  17
ENDBRANCH   2  14
TORSDOF 6
ENDMDL
MODEL 2
REMARK VINA RESULT:      -8.0      1.848     10.084
REMARK  6 active torsions:
REMARK  status: ('A' for Active; 'I' for Inactive)
REMARK    1  A    between atoms: O2_2  and  C3_3 
REMARK    2  A    between atoms: C7_7  and  C8_8 
REMARK    3  A    between atoms: C9_9  and  C10_10 
REMARK    4  A    between atoms: C12_12  and  C13_13 
REMARK    5  A    between atoms: C14_14  and  C15_15 
REMARK    6  A    between atoms: C17_17  and  C18_18 
ROOT
ATOM      1  C8  ZIN A   1      18.765   0.740  13.342  0.00  0.00     0.013 C 
ATOM      2  C9  ZIN A   1      17.570   0.274  12.898  0.00  0.00     0.007 C 
ENDROOT
BRANCH   1   3
ATOM      3  C7  ZIN A   1      18.888   1.266  14.707  0.00  0.00    -0.024 A 
ATOM      4  C5  ZIN A   1      18.909   2.650  14.926  0.00  0.00    -0.049 A 
ATOM      5  C4  ZIN A   1      19.025   3.138  16.209  0.00  0.00     0.044 A 
ATOM      6  C6  ZIN A   1      18.806   3.602  13.763  0.00  0.00     0.049 C 
ATOM      7  C3  ZIN A   1      19.121   2.261  17.283  0.00  0.00     0.075 A 
ATOM      8  C23 ZIN A   1      19.106   0.887  17.069  0.00  0.00    -0.022 A 
ATOM      9  C21 ZIN A   1      18.985   0.387  15.793  0.00  0.00    -0.043 A 
ATOM     10  C24 ZIN A   1      19.210  -0.058  18.240  0.00  0.00     0.052 C 
ATOM     11  C22 ZIN A   1      18.963  -1.101  15.564  0.00  0.00     0.049 C 
BRANCH   7  12
ATOM     12  O2  ZIN A   1      19.234   2.748  18.546  0.00  0.00    -0.355 OA
ATOM     13  C1  ZIN A   1      18.172   3.579  19.018  0.00  0.00     0.210 C 
ENDBRANCH   7  12
ENDBRANCH   1   3
BRANCH   2  14
ATOM     14  C10 ZIN A   1      17.474  -0.323  11.629  0.00  0.00    -0.062 C 
ATOM     15  C11 ZIN A   1      17.381  -1.823  11.508  0.00  0.00     0.048 C 
ATOM     16  C12 ZIN A   1      17.465   0.454  10.508  0.00  0.00     0.007 C 
BRANCH  16  17
ATOM     17  C13 ZIN A   1      17.369  -0.142   9.243  0.00  0.00     0.001 C 
ATOM     18  C14 ZIN A   1      18.305   0.145   8.273  0.00  0.00     0.007 C 
BRANCH  18  19
ATOM     19  C15 ZIN A   1      18.209  -0.451   7.010  0.00  0.00    -0.056 C 
ATOM     20  C16 ZIN A   1      17.134  -0.013   6.050  0.00  0.00     0.048 C 
ATOM     21  C17 ZIN A   1      19.100  -1.437   6.646  0.00  0.00     0.091 C 
BRANCH  21  22
ATOM     22  C18 ZIN A   1      19.108  -1.922   5.329  0.00  0.00     0.199 C 
ATOM     23  O19 ZIN A   1      19.804  -1.283   4.386  0.00  0.00    -0.644 OA
ATOM     24  O20 ZIN A   1      18.419  -3.022   5.019  0.00  0.00    -0.644 OA
ENDBRANCH  21  22
ENDBRANCH  18  19
ENDBRANCH  16  17
ENDBRANCH   2  14
TORSDOF 6
ENDMDL
MODEL 3
REMARK VINA RESULT:      -7.7      3.692      4.417
REMARK  6 active torsions:
REMARK  status: ('A' for Active; 'I' for Inactive)
REMARK    1  A    between atoms: O2_2  and  C3_3 
REMARK    2  A    between atoms: C7_7  and  C8_8 
REMARK    3  A    between atoms: C9_9  and  C10_10 
REMARK    4  A    between atoms: C12_12  and  C13_13 
REMARK    5  A    between atoms: C14_14  and  C15_15 
REMARK    6  A    between atoms: C17_17  and  C18_18 
ROOT
ATOM      1  C8  ZIN A   1      19.362   1.432   9.355  0.00  0.00     0.013 C 
ATOM      2  C9  ZIN A   1      18.246   2.036   9.836  0.00  0.00     0.007 C 
ENDROOT
BRANCH   1   3
ATOM      3  C7  ZIN A   1      19.242   0.297   8.432  0.00  0.00    -0.024 A 
ATOM      4  C5  ZIN A   1      19.303  -1.015   8.921  0.00  0.00    -0.049 A 
ATOM      5  C4  ZIN A   1      19.191  -2.076   8.050  0.00  0.00     0.044 A 
ATOM      6  C6  ZIN A   1      19.490  -1.265  10.395  0.00  0.00     0.049 C 
ATOM      7  C3  ZIN A   1      19.019  -1.847   6.689  0.00  0.00     0.075 A 
ATOM      8  C23 ZIN A   1      18.964  -0.547   6.199  0.00  0.00    -0.022 A 
ATOM      9  C21 ZIN A   1      19.069   0.521   7.059  0.00  0.00    -0.043 A 
ATOM     10  C24 ZIN A   1      18.777  -0.308   4.723  0.00  0.00     0.052 C 
ATOM     11  C22 ZIN A   1      19.004   1.929   6.527  0.00  0.00     0.049 C 
BRANCH   7  12
ATOM     12  O2  ZIN A   1      18.908  -2.898   5.836  0.00  0.00    -0.355 OA
ATOM     13  C1  ZIN A   1      19.350  -4.170   6.313  0.00  0.00     0.210 C 
ENDBRANCH   7  12
ENDBRANCH   1   3
BRANCH   2  14
ATOM     14  C10 ZIN A   1      18.358   3.185  10.638  0.00  0.00    -0.062 C 
ATOM     15  C11 ZIN A   1      17.283   4.242  10.594  0.00  0.00     0.048 C 
ATOM     16  C12 ZIN A   1      19.438   3.344  11.456  0.00  0.00     0.007 C 
BRANCH  16  17
ATOM     17  C13 ZIN A   1      19.548   4.490  12.256  0.00  0.00     0.001 C 
ATOM     18  C14 ZIN A   1      19.216   4.432  13.592  0.00  0.00     0.007 C 
BRANCH  18  19
ATOM     19  C15 ZIN A   1      19.326   5.577  14.391  0.00  0.00    -0.056 C 
ATOM     20  C16 ZIN A   1      20.685   6.076  14.807  0.00  0.00     0.048 C 
ATOM     21  C17 ZIN A   1      18.192   6.245  14.796  0.00  0.00     0.091 C 
BRANCH  21  22
ATOM     22  C18 ZIN A   1      18.303   7.477  15.460  0.00  0.00     0.199 C 
ATOM     23  O19 ZIN A   1      18.301   8.614  14.761  0.00  0.00    -0.644 OA
ATOM     24  O20 ZIN A   1      18.412   7.511  16.789  0.00  0.00    -0.644 OA
ENDBRANCH  21  22
ENDBRANCH  18  19
ENDBRANCH  16  17
ENDBRANCH   2  14
TORSDOF 6
ENDMDL
MODEL 4
REMARK VINA RESULT:      -7.6      3.156      9.949
REMARK  6 active torsions:
REMARK  status: ('A' for Active; 'I' for Inactive)
REMARK    1  A    between atoms: O2_2  and  C3_3 
REMARK    2  A    between atoms: C7_7  and  C8_8 
REMARK    3  A    between atoms: C9_9  and  C10_10 
REMARK    4  A    between atoms: C12_12  and  C13_13 
REMARK    5  A    between atoms: C14_14  and  C15_15 
REMARK    6  A    between atoms: C17_17  and  C18_18 
ROOT
ATOM      1  C8  ZIN A   1      17.991  -0.500  13.801  0.00  0.00     0.013 C 
ATOM      2  C9  ZIN A   1      18.875  -1.348  13.216  0.00  0.00     0.007 C 
ENDROOT
BRANCH   1   3
ATOM      3  C7  ZIN A   1      18.395   0.288  14.972  0.00  0.00    -0.024 A 
ATOM      4  C5  ZIN A   1      18.820   1.614  14.813  0.00  0.00    -0.049 A 
ATOM      5  C4  ZIN A   1      19.198   2.349  15.914  0.00  0.00     0.044 A 
ATOM      6  C6  ZIN A   1      18.863   2.235  13.441  0.00  0.00     0.049 C 
ATOM      7  C3  ZIN A   1      19.159   1.777  17.182  0.00  0.00     0.075 A 
ATOM      8  C23 ZIN A   1      18.744   0.460  17.343  0.00  0.00    -0.022 A 
ATOM      9  C21 ZIN A   1      18.358  -0.282  16.251  0.00  0.00    -0.043 A 
ATOM     10  C24 ZIN A   1      18.705  -0.152  18.720  0.00  0.00     0.052 C 
ATOM     11  C22 ZIN A   1      17.903  -1.707  16.429  0.00  0.00     0.049 C 
BRANCH   7  12
ATOM     12  O2  ZIN A   1      19.533   2.507  18.265  0.00  0.00    -0.355 OA
ATOM     13  C1  ZIN A   1      18.608   3.490  18.734  0.00  0.00     0.210 C 
ENDBRANCH   7  12
ENDBRANCH   1   3
BRANCH   2  14
ATOM     14  C10 ZIN A   1      18.523  -2.026  12.036  0.00  0.00    -0.062 C 
ATOM     15  C11 ZIN A   1      17.534  -1.409  11.079  0.00  0.00     0.048 C 
ATOM     16  C12 ZIN A   1      19.076  -3.242  11.756  0.00  0.00     0.007 C 
BRANCH  16  17
ATOM     17  C13 ZIN A   1      18.724  -3.917  10.579  0.00  0.00     0.001 C 
ATOM     18  C14 ZIN A   1      18.011  -5.094  10.648  0.00  0.00     0.007 C 
BRANCH  18  19
ATOM     19  C15 ZIN A   1      17.660  -5.768   9.472  0.00  0.00    -0.056 C 
ATOM     20  C16 ZIN A   1      16.212  -6.053   9.171  0.00  0.00     0.048 C 
ATOM     21  C17 ZIN A   1      18.639  -6.170   8.590  0.00  0.00     0.091 C 
BRANCH  21  22
ATOM     22  C18 ZIN A   1      18.284  -6.701   7.341  0.00  0.00     0.199 C 
ATOM     23  O19 ZIN A   1      18.199  -8.023   7.178  0.00  0.00    -0.644 OA
ATOM     24  O20 ZIN A   1      18.032  -5.885   6.316  0.00  0.00    -0.644 OA
ENDBRANCH  21  22
ENDBRANCH  18  19
ENDBRANCH  16  17
ENDBRANCH   2  14
TORSDOF 6
ENDMDL
MODEL 5
REMARK VINA RESULT:      -7.5      3.254      9.665
REMARK  6 active torsions:
REMARK  status: ('A' for Active; 'I' for Inactive)
REMARK    1  A    between atoms: O2_2  and  C3_3 
REMARK    2  A    between atoms: C7_7  and  C8_8 
REMARK    3  A    between atoms: C9_9  and  C10_10 
REMARK    4  A    between atoms: C12_12  and  C13_13 
REMARK    5  A    between atoms: C14_14  and  C15_15 
REMARK    6  A    between atoms: C17_17  and  C18_18 
ROOT
ATOM      1  C8  ZIN A   1      18.236  -1.363  13.639  0.00  0.00     0.013 C 
ATOM      2  C9  ZIN A   1      19.299  -1.936  13.018  0.00  0.00     0.007 C 
ENDROOT
BRANCH   1   3
ATOM      3  C7  ZIN A   1      18.431  -0.180  14.486  0.00  0.00    -0.024 A 
ATOM      4  C5  ZIN A   1      18.247   1.103  13.954  0.00  0.00    -0.049 A 
ATOM      5  C4  ZIN A   1      18.431   2.209  14.753  0.00  0.00     0.044 A 
ATOM      6  C6  ZIN A   1      17.850   1.272  12.510  0.00  0.00     0.049 C 
ATOM      7  C3  ZIN A   1      18.799   2.054  16.085  0.00  0.00     0.075 A 
ATOM      8  C23 ZIN A   1      18.987   0.783  16.616  0.00  0.00    -0.022 A 
ATOM      9  C21 ZIN A   1      18.801  -0.330  15.830  0.00  0.00    -0.043 A 
ATOM     10  C24 ZIN A   1      19.385   0.624  18.061  0.00  0.00     0.052 C 
ATOM     11  C22 ZIN A   1      19.000  -1.706  16.408  0.00  0.00     0.049 C 
BRANCH   7  12
ATOM     12  O2  ZIN A   1      18.978   3.149  16.869  0.00  0.00    -0.355 OA
ATOM     13  C1  ZIN A   1      19.777   4.205  16.333  0.00  0.00     0.210 C 
ENDBRANCH   7  12
ENDBRANCH   1   3
BRANCH   2  14
ATOM     14  C10 ZIN A   1      19.101  -3.005  12.127  0.00  0.00    -0.062 C 
ATOM     15  C11 ZIN A   1      20.283  -3.793  11.623  0.00  0.00     0.048 C 
ATOM     16  C12 ZIN A   1      17.841  -3.329  11.718  0.00  0.00     0.007 C 
BRANCH  16  17
ATOM     17  C13 ZIN A   1      17.645  -4.395  10.830  0.00  0.00     0.001 C 
ATOM     18  C14 ZIN A   1      17.389  -4.145   9.499  0.00  0.00     0.007 C 
BRANCH  18  19
ATOM     19  C15 ZIN A   1      17.194  -5.210   8.611  0.00  0.00    -0.056 C 
ATOM     20  C16 ZIN A   1      15.826  -5.822   8.459  0.00  0.00     0.048 C 
ATOM     21  C17 ZIN A   1      18.253  -5.697   7.878  0.00  0.00     0.091 C 
BRANCH  21  22
ATOM     22  C18 ZIN A   1      18.031  -6.654   6.875  0.00  0.00     0.199 C 
ATOM     23  O19 ZIN A   1      17.659  -6.265   5.654  0.00  0.00    -0.644 OA
ATOM     24  O20 ZIN A   1      18.191  -7.950   7.143  0.00  0.00    -0.644 OA
ENDBRANCH  21  22
ENDBRANCH  18  19
ENDBRANCH  16  17
ENDBRANCH   2  14
TORSDOF 6
ENDMDL
MODEL 6
REMARK VINA RESULT:      -7.5      3.178      3.631
REMARK  6 active torsions:
REMARK  status: ('A' for Active; 'I' for Inactive)
REMARK    1  A    between atoms: O2_2  and  C3_3 
REMARK    2  A    between atoms: C7_7  and  C8_8 
REMARK    3  A    between atoms: C9_9  and  C10_10 
REMARK    4  A    between atoms: C12_12  and  C13_13 
REMARK    5  A    between atoms: C14_14  and  C15_15 
REMARK    6  A    between atoms: C17_17  and  C18_18 
ROOT
ATOM      1  C8  ZIN A   1      18.810  -0.051   9.267  0.00  0.00     0.013 C 
ATOM      2  C9  ZIN A   1      17.587   0.190   9.804  0.00  0.00     0.007 C 
ENDROOT
BRANCH   1   3
ATOM      3  C7  ZIN A   1      18.926  -0.795   8.006  0.00  0.00    -0.024 A 
ATOM      4  C5  ZIN A   1      19.029  -2.192   8.023  0.00  0.00    -0.049 A 
ATOM      5  C4  ZIN A   1      19.137  -2.885   6.838  0.00  0.00     0.044 A 
ATOM      6  C6  ZIN A   1      19.021  -2.935   9.333  0.00  0.00     0.049 C 
ATOM      7  C3  ZIN A   1      19.145  -2.200   5.627  0.00  0.00     0.075 A 
ATOM      8  C23 ZIN A   1      19.049  -0.813   5.607  0.00  0.00    -0.022 A 
ATOM      9  C21 ZIN A   1      18.935  -0.110   6.784  0.00  0.00    -0.043 A 
ATOM     10  C24 ZIN A   1      19.059  -0.078   4.291  0.00  0.00     0.052 C 
ATOM     11  C22 ZIN A   1      18.825   1.392   6.759  0.00  0.00     0.049 C 
BRANCH   7  12
ATOM     12  O2  ZIN A   1      19.252  -2.889   4.461  0.00  0.00    -0.355 OA
ATOM     13  C1  ZIN A   1      18.194  -3.795   4.145  0.00  0.00     0.210 C 
ENDBRANCH   7  12
ENDBRANCH   1   3
BRANCH   2  14
ATOM     14  C10 ZIN A   1      17.469   0.988  10.955  0.00  0.00    -0.062 C 
ATOM     15  C11 ZIN A   1      17.021   0.370  12.256  0.00  0.00     0.048 C 
ATOM     16  C12 ZIN A   1      17.759   2.319  10.896  0.00  0.00     0.007 C 
BRANCH  16  17
ATOM     17  C13 ZIN A   1      17.640   3.114  12.045  0.00  0.00     0.001 C 
ATOM     18  C14 ZIN A   1      18.514   4.159  12.251  0.00  0.00     0.007 C 
BRANCH  18  19
ATOM     19  C15 ZIN A   1      18.395   4.954  13.399  0.00  0.00    -0.056 C 
ATOM     20  C16 ZIN A   1      17.057   5.107  14.073  0.00  0.00     0.048 C 
ATOM     21  C17 ZIN A   1      19.503   5.593  13.910  0.00  0.00     0.091 C 
BRANCH  21  22
ATOM     22  C18 ZIN A   1      19.422   6.257  15.144  0.00  0.00     0.199 C 
ATOM     23  O19 ZIN A   1      19.800   5.634  16.262  0.00  0.00    -0.644 OA
ATOM     24  O20 ZIN A   1      18.966   7.509  15.199  0.00  0.00    -0.644 OA
ENDBRANCH  21  22
ENDBRANCH  18  19
ENDBRANCH  16  17
ENDBRANCH   2  14
TORSDOF 6
ENDMDL
MODEL 7
REMARK VINA RESULT:      -7.4      1.517      9.848
REMARK  6 active torsions:
REMARK  status: ('A' for Active; 'I' for Inactive)
REMARK    1  A    between atoms: O2_2  and  C3_3 
REMARK    2  A    between atoms: C7_7  and  C8_8 
REMARK    3  A    between atoms: C9_9  and  C10_10 
REMARK    4  A    between atoms: C12_12  and  C13_13 
REMARK    5  A    between atoms: C14_14  and  C15_15 
REMARK    6  A    between atoms: C17_17  and  C18_18 
ROOT
ATOM      1  C8  ZIN A   1      18.305  -0.006  13.748  0.00  0.00     0.013 C 
ATOM      2  C9  ZIN A   1      19.254  -0.693  13.063  0.00  0.00     0.007 C 
ENDROOT
BRANCH   1   3
ATOM      3  C7  ZIN A   1      18.638   0.627  15.031  0.00  0.00    -0.024 A 
ATOM      4  C5  ZIN A   1      18.590  -0.120  16.215  0.00  0.00    -0.049 A 
ATOM      5  C4  ZIN A   1      18.903   0.479  17.415  0.00  0.00     0.044 A 
ATOM      6  C6  ZIN A   1      18.197  -1.574  16.177  0.00  0.00     0.049 C 
ATOM      7  C3  ZIN A   1      19.266   1.821  17.452  0.00  0.00     0.075 A 
ATOM      8  C23 ZIN A   1      19.309   2.567  16.280  0.00  0.00    -0.022 A 
ATOM      9  C21 ZIN A   1      19.004   1.979  15.074  0.00  0.00    -0.043 A 
ATOM     10  C24 ZIN A   1      19.703   4.021  16.328  0.00  0.00     0.052 C 
ATOM     11  C22 ZIN A   1      19.058   2.787  13.804  0.00  0.00     0.049 C 
BRANCH   7  12
ATOM     12  O2  ZIN A   1      19.574   2.406  18.639  0.00  0.00    -0.355 OA
ATOM     13  C1  ZIN A   1      18.552   3.185  19.263  0.00  0.00     0.210 C 
ENDBRANCH   7  12
ENDBRANCH   1   3
BRANCH   2  14
ATOM     14  C10 ZIN A   1      18.966  -1.212  11.789  0.00  0.00    -0.062 C 
ATOM     15  C11 ZIN A   1      18.136  -2.464  11.657  0.00  0.00     0.048 C 
ATOM     16  C12 ZIN A   1      19.435  -0.584  10.673  0.00  0.00     0.007 C 
BRANCH  16  17
ATOM     17  C13 ZIN A   1      19.146  -1.102   9.404  0.00  0.00     0.001 C 
ATOM     18  C14 ZIN A   1      18.765  -0.256   8.385  0.00  0.00     0.007 C 
BRANCH  18  19
ATOM     19  C15 ZIN A   1      18.477  -0.774   7.116  0.00  0.00    -0.056 C 
ATOM     20  C16 ZIN A   1      17.364  -0.179   6.295  0.00  0.00     0.048 C 
ATOM     21  C17 ZIN A   1      19.213  -1.827   6.620  0.00  0.00     0.091 C 
BRANCH  21  22
ATOM     22  C18 ZIN A   1      19.034  -2.244   5.291  0.00  0.00     0.199 C 
ATOM     23  O19 ZIN A   1      18.203  -3.250   5.014  0.00  0.00    -0.644 OA
ATOM     24  O20 ZIN A   1      19.696  -1.635   4.306  0.00  0.00    -0.644 OA
ENDBRANCH  21  22
ENDBRANCH  18  19
ENDBRANCH  16  17
ENDBRANCH   2  14
TORSDOF 6
ENDMDL
MODEL 8
REMARK VINA RESULT:      -7.4      3.878     10.524
REMARK  6 active torsions:
REMARK  status: ('A' for Active; 'I' for Inactive)
REMARK    1  A    between atoms: O2_2  and  C3_3 
REMARK    2  A    between atoms: C7_7  and  C8_8 
REMARK    3  A    between atoms: C9_9  and  C10_10 
REMARK    4  A    between atoms: C12_12  and  C13_13 
REMARK    5  A    between atoms: C14_14  and  C15_15 
REMARK    6  A    between atoms: C17_17  and  C18_18 
ROOT
ATOM      1  C8  ZIN A   1      17.889   3.141  13.145  0.00  0.00     0.013 C 
ATOM      2  C9  ZIN A   1      18.702   3.152  12.058  0.00  0.00     0.007 C 
ENDROOT
BRANCH   1   3
ATOM      3  C7  ZIN A   1      17.994   4.203  14.153  0.00  0.00    -0.024 A 
ATOM      4  C5  ZIN A   1      18.659   3.960  15.362  0.00  0.00    -0.049 A 
ATOM      5  C4  ZIN A   1      18.755   4.960  16.304  0.00  0.00     0.044 A 
ATOM      6  C6  ZIN A   1      19.269   2.609  15.631  0.00  0.00     0.049 C 
ATOM      7  C3  ZIN A   1      18.192   6.207  16.057  0.00  0.00     0.075 A 
ATOM      8  C23 ZIN A   1      17.525   6.451  14.861  0.00  0.00    -0.022 A 
ATOM      9  C21 ZIN A   1      17.428   5.462  13.910  0.00  0.00    -0.043 A 
ATOM     10  C24 ZIN A   1      16.918   7.806  14.601  0.00  0.00     0.052 C 
ATOM     11  C22 ZIN A   1      16.712   5.729  12.613  0.00  0.00     0.049 C 
BRANCH   7  12
ATOM     12  O2  ZIN A   1      18.290   7.190  16.990  0.00  0.00    -0.355 OA
ATOM     13  C1  ZIN A   1      17.589   6.989  18.219  0.00  0.00     0.210 C 
ENDBRANCH   7  12
ENDBRANCH   1   3
BRANCH   2  14
ATOM     14  C10 ZIN A   1      18.534   2.195  11.043  0.00  0.00    -0.062 C 
ATOM     15  C11 ZIN A   1      17.448   1.155  11.161  0.00  0.00     0.048 C 
ATOM     16  C12 ZIN A   1      19.352   2.206   9.952  0.00  0.00     0.007 C 
BRANCH  16  17
ATOM     17  C13 ZIN A   1      19.183   1.250   8.940  0.00  0.00     0.001 C 
ATOM     18  C14 ZIN A   1      18.653   1.622   7.724  0.00  0.00     0.007 C 
BRANCH  18  19
ATOM     19  C15 ZIN A   1      18.485   0.668   6.713  0.00  0.00    -0.056 C 
ATOM     20  C16 ZIN A   1      17.286  -0.244   6.729  0.00  0.00     0.048 C 
ATOM     21  C17 ZIN A   1      19.416   0.564   5.703  0.00  0.00     0.091 C 
BRANCH  21  22
ATOM     22  C18 ZIN A   1      19.172  -0.278   4.607  0.00  0.00     0.199 C 
ATOM     23  O19 ZIN A   1      19.809  -1.446   4.508  0.00  0.00    -0.644 OA
ATOM     24  O20 ZIN A   1      18.304   0.091   3.663  0.00  0.00    -0.644 OA
ENDBRANCH  21  22
ENDBRANCH  18  19
ENDBRANCH  16  17
ENDBRANCH   2  14
TORSDOF 6
ENDMDL
MODEL 9
REMARK VINA RESULT:      -7.1      3.120      9.670
REMARK  6 active torsions:
REMARK  status: ('A' for Active; 'I' for Inactive)
REMARK    1  A    between atoms: O2_2  and  C3_3 
REMARK    2  A    between atoms: C7_7  and  C8_8 
REMARK    3  A    between atoms: C9_9  and  C10_10 
REMARK    4  A    between atoms: C12_12  and  C13_13 
REMARK    5  A    between atoms: C14_14  and  C15_15 
REMARK    6  A    between atoms: C17_17  and  C18_18 
ROOT
ATOM      1  C8  ZIN A   1      18.214  -0.620  13.942  0.00  0.00     0.013 C 
ATOM      2  C9  ZIN A   1      19.175  -1.293  13.259  0.00  0.00     0.007 C 
ENDROOT
BRANCH   1   3
ATOM      3  C7  ZIN A   1      18.574   0.185  15.116  0.00  0.00    -0.024 A 
ATOM      4  C5  ZIN A   1      18.577  -0.396  16.391  0.00  0.00    -0.049 A 
ATOM      5  C4  ZIN A   1      18.915   0.364  17.489  0.00  0.00     0.044 A 
ATOM      6  C6  ZIN A   1      18.211  -1.847  16.562  0.00  0.00     0.049 C 
ATOM      7  C3  ZIN A   1      19.253   1.704  17.333  0.00  0.00     0.075 A 
ATOM      8  C23 ZIN A   1      19.245   2.286  16.070  0.00  0.00    -0.022 A 
ATOM      9  C21 ZIN A   1      18.915   1.536  14.965  0.00  0.00    -0.043 A 
ATOM     10  C24 ZIN A   1      19.613   3.739  15.909  0.00  0.00     0.052 C 
ATOM     11  C22 ZIN A   1      18.914   2.166  13.597  0.00  0.00     0.049 C 
BRANCH   7  12
ATOM     12  O2  ZIN A   1      19.586   2.449  18.419  0.00  0.00    -0.355 OA
ATOM     13  C1  ZIN A   1      18.537   3.192  19.042  0.00  0.00     0.210 C 
ENDBRANCH   7  12
ENDBRANCH   1   3
BRANCH   2  14
ATOM     14  C10 ZIN A   1      18.848  -1.981  12.078  0.00  0.00    -0.062 C 
ATOM     15  C11 ZIN A   1      19.632  -1.724  10.816  0.00  0.00     0.048 C 
ATOM     16  C12 ZIN A   1      17.822  -2.880  12.073  0.00  0.00     0.007 C 
BRANCH  16  17
ATOM     17  C13 ZIN A   1      17.497  -3.565  10.894  0.00  0.00     0.001 C 
ATOM     18  C14 ZIN A   1      17.822  -4.898  10.761  0.00  0.00     0.007 C 
BRANCH  18  19
ATOM     19  C15 ZIN A   1      17.496  -5.583   9.584  0.00  0.00    -0.056 C 
ATOM     20  C16 ZIN A   1      16.147  -5.385   8.945  0.00  0.00     0.048 C 
ATOM     21  C17 ZIN A   1      18.412  -6.437   9.010  0.00  0.00     0.091 C 
BRANCH  21  22
ATOM     22  C18 ZIN A   1      18.153  -7.000   7.750  0.00  0.00     0.199 C 
ATOM     23  O19 ZIN A   1      18.756  -6.512   6.665  0.00  0.00    -0.644 OA
ATOM     24  O20 ZIN A   1      17.302  -8.022   7.639  0.00  0.00    -0.644 OA
ENDBRANCH  21  22
ENDBRANCH  18  19
ENDBRANCH  16  17
ENDBRANCH   2  14
TORSDOF 6
ENDMDL
