MODEL 1
REMARK VINA RESULT:      -6.8      0.000      0.000
REMARK  8 active torsions:
REMARK  status: ('A' for Active; 'I' for Inactive)
REMARK    1  A    between atoms: C2_2  and  N3_3 
REMARK    2  A    between atoms: N3_3  and  C5_5 
REMARK    3  A    between atoms: N3_3  and  C7_7 
REMARK    4  A    between atoms: C7_7  and  C8_8 
REMARK    5  A    between atoms: C8_8  and  O9_9 
REMARK    6  A    between atoms: O9_9  and  C10_10 
REMARK    7  A    between atoms: C10_10  and  C12_12 
REMARK    8  A    between atoms: C12_12  and  C13_13 
ROOT
ATOM      1  C12 ZIN A   1      18.936   0.224   8.527  0.00  0.00     0.051 C 
ATOM      2  C19 ZIN A   1      17.455   0.143   8.906  0.00  0.00     0.020 C 
ATOM      3  C20 ZIN A   1      17.254   0.721  10.308  0.00  0.00     0.001 C 
ATOM      4  C21 ZIN A   1      17.706   2.183  10.327  0.00  0.00     0.000 C 
ATOM      5  C22 ZIN A   1      19.186   2.264   9.948  0.00  0.00     0.001 C 
ATOM      6  C23 ZIN A   1      19.387   1.686   8.546  0.00  0.00     0.020 C 
ENDROOT
BRANCH   1   7
ATOM      7  C10 ZIN A   1      19.751  -0.566   9.519  0.00  0.00     0.268 C 
ATOM      8  O11 ZIN A   1      20.883  -0.228   9.776  0.00  0.00    -0.264 OA
BRANCH   7   9
ATOM      9  O9  ZIN A   1      19.222  -1.644  10.117  0.00  0.00    -0.319 OA
BRANCH   9  10
ATOM     10  C8  ZIN A   1      19.798  -2.044  11.387  0.00  0.00     0.206 C 
BRANCH  10  11
ATOM     11  C7  ZIN A   1      20.026  -3.556  11.392  0.00  0.00     0.261 C 
BRANCH  11  12
ATOM     12  N3  ZIN A   1      18.939  -4.218  10.657  0.00  0.00    -0.070 N 
ATOM     13  H4  ZIN A   1      18.413  -3.527  10.141  0.00  0.00     0.279 HD
BRANCH  12  14
ATOM     14  C2  ZIN A   1      19.506  -5.199   9.723  0.00  0.00     0.230 C 
ATOM     15  C1  ZIN A   1      19.455  -4.638   8.300  0.00  0.00     0.034 C 
ENDBRANCH  12  14
BRANCH  12  16
ATOM     16  C5  ZIN A   1      18.050  -4.901  11.605  0.00  0.00     0.230 C 
ATOM     17  C6  ZIN A   1      17.269  -5.995  10.875  0.00  0.00     0.034 C 
ENDBRANCH  12  16
ENDBRANCH  11  12
ENDBRANCH  10  11
ENDBRANCH   9  10
ENDBRANCH   7   9
ENDBRANCH   1   7
BRANCH   1  18
ATOM     18  C13 ZIN A   1      19.137  -0.354   7.126  0.00  0.00     0.004 C 
ATOM     19  C18 ZIN A   1      18.958   0.755   6.087  0.00  0.00     0.006 C 
ATOM     20  C17 ZIN A   1      19.159   0.178   4.684  0.00  0.00     0.000 C 
ATOM     21  C16 ZIN A   1      18.128  -0.925   4.434  0.00  0.00     0.000 C 
ATOM     22  C15 ZIN A   1      18.307  -2.034   5.473  0.00  0.00     0.000 C 
ATOM     23  C14 ZIN A   1      18.106  -1.457   6.876  0.00  0.00     0.006 C 
ENDBRANCH   1  18
TORSDOF 8
ENDMDL
MODEL 2
REMARK VINA RESULT:      -6.7      3.501      5.381
REMARK  8 active torsions:
REMARK  status: ('A' for Active; 'I' for Inactive)
REMARK    1  A    between atoms: C2_2  and  N3_3 
REMARK    2  A    between atoms: N3_3  and  C5_5 
REMARK    3  A    between atoms: N3_3  and  C7_7 
REMARK    4  A    between atoms: C7_7  and  C8_8 
REMARK    5  A    between atoms: C8_8  and  O9_9 
REMARK    6  A    between atoms: O9_9  and  C10_10 
REMARK    7  A    between atoms: C10_10  and  C12_12 
REMARK    8  A    between atoms: C12_12  and  C13_13 
ROOT
ATOM      1  C12 ZIN A   1      18.089  -0.293  10.533  0.00  0.00     0.051 C 
ATOM      2  C19 ZIN A   1      19.572  -0.282  10.911  0.00  0.00     0.020 C 
ATOM      3  C20 ZIN A   1      19.754  -0.937  12.282  0.00  0.00     0.001 C 
ATOM      4  C21 ZIN A   1      19.252  -2.381  12.228  0.00  0.00     0.000 C 
ATOM      5  C22 ZIN A   1      17.770  -2.392  11.850  0.00  0.00     0.001 C 
ATOM      6  C23 ZIN A   1      17.588  -1.738  10.479  0.00  0.00     0.020 C 
ENDROOT
BRANCH   1   7
ATOM      7  C10 ZIN A   1      17.302   0.473  11.565  0.00  0.00     0.268 C 
ATOM      8  O11 ZIN A   1      16.153   0.174  11.792  0.00  0.00    -0.264 OA
BRANCH   7   9
ATOM      9  O9  ZIN A   1      17.876   1.487  12.231  0.00  0.00    -0.319 OA
BRANCH   9  10
ATOM     10  C8  ZIN A   1      17.562   1.611  13.642  0.00  0.00     0.206 C 
BRANCH  10  11
ATOM     11  C7  ZIN A   1      18.834   1.947  14.421  0.00  0.00     0.261 C 
BRANCH  11  12
ATOM     12  N3  ZIN A   1      19.030   0.958  15.490  0.00  0.00    -0.070 N 
ATOM     13  H4  ZIN A   1      19.913   0.488  15.354  0.00  0.00     0.279 HD
BRANCH  12  14
ATOM     14  C2  ZIN A   1      19.034   1.639  16.792  0.00  0.00     0.230 C 
ATOM     15  C1  ZIN A   1      19.509   3.082  16.613  0.00  0.00     0.034 C 
ENDBRANCH  12  14
BRANCH  12  16
ATOM     16  C5  ZIN A   1      17.941  -0.026  15.454  0.00  0.00     0.230 C 
ATOM     17  C6  ZIN A   1      18.480  -1.397  15.867  0.00  0.00     0.034 C 
ENDBRANCH  12  16
ENDBRANCH  11  12
ENDBRANCH  10  11
ENDBRANCH   9  10
ENDBRANCH   7   9
ENDBRANCH   1   7
BRANCH   1  18
ATOM     18  C13 ZIN A   1      17.907   0.361   9.162  0.00  0.00     0.004 C 
ATOM     19  C18 ZIN A   1      17.523  -0.706   8.135  0.00  0.00     0.006 C 
ATOM     20  C17 ZIN A   1      17.341  -0.052   6.764  0.00  0.00     0.000 C 
ATOM     21  C16 ZIN A   1      18.650   0.616   6.339  0.00  0.00     0.000 C 
ATOM     22  C15 ZIN A   1      19.034   1.683   7.367  0.00  0.00     0.000 C 
ATOM     23  C14 ZIN A   1      19.216   1.029   8.738  0.00  0.00     0.006 C 
ENDBRANCH   1  18
TORSDOF 8
ENDMDL
MODEL 3
REMARK VINA RESULT:      -6.7      3.101      6.126
REMARK  8 active torsions:
REMARK  status: ('A' for Active; 'I' for Inactive)
REMARK    1  A    between atoms: C2_2  and  N3_3 
REMARK    2  A    between atoms: N3_3  and  C5_5 
REMARK    3  A    between atoms: N3_3  and  C7_7 
REMARK    4  A    between atoms: C7_7  and  C8_8 
REMARK    5  A    between atoms: C8_8  and  O9_9 
REMARK    6  A    between atoms: O9_9  and  C10_10 
REMARK    7  A    between atoms: C10_10  and  C12_12 
REMARK    8  A    between atoms: C12_12  and  C13_13 
ROOT
ATOM      1  C12 ZIN A   1      18.278  -0.438  12.975  0.00  0.00     0.051 C 
ATOM      2  C19 ZIN A   1      19.570   0.377  12.882  0.00  0.00     0.020 C 
ATOM      3  C20 ZIN A   1      19.816   0.779  11.426  0.00  0.00     0.001 C 
ATOM      4  C21 ZIN A   1      18.642   1.624  10.925  0.00  0.00     0.000 C 
ATOM      5  C22 ZIN A   1      17.351   0.809  11.018  0.00  0.00     0.001 C 
ATOM      6  C23 ZIN A   1      17.105   0.407  12.474  0.00  0.00     0.020 C 
ENDROOT
BRANCH   1   7
ATOM      7  C10 ZIN A   1      18.404  -1.677  12.125  0.00  0.00     0.268 C 
ATOM      8  O11 ZIN A   1      19.497  -2.118  11.860  0.00  0.00    -0.264 OA
BRANCH   7   9
ATOM      9  O9  ZIN A   1      17.303  -2.290  11.665  0.00  0.00    -0.319 OA
BRANCH   9  10
ATOM     10  C8  ZIN A   1      17.417  -3.702  11.348  0.00  0.00     0.206 C 
BRANCH  10  11
ATOM     11  C7  ZIN A   1      17.259  -3.902   9.840  0.00  0.00     0.261 C 
BRANCH  11  12
ATOM     12  N3  ZIN A   1      18.510  -3.532   9.163  0.00  0.00    -0.070 N 
ATOM     13  H4  ZIN A   1      19.192  -3.248   9.850  0.00  0.00     0.279 HD
BRANCH  12  14
ATOM     14  C2  ZIN A   1      19.021  -4.688   8.415  0.00  0.00     0.230 C 
ATOM     15  C1  ZIN A   1      19.968  -5.495   9.306  0.00  0.00     0.034 C 
ENDBRANCH  12  14
BRANCH  12  16
ATOM     16  C5  ZIN A   1      18.256  -2.422   8.236  0.00  0.00     0.230 C 
ATOM     17  C6  ZIN A   1      19.281  -1.311   8.479  0.00  0.00     0.034 C 
ENDBRANCH  12  16
ENDBRANCH  11  12
ENDBRANCH  10  11
ENDBRANCH   9  10
ENDBRANCH   7   9
ENDBRANCH   1   7
BRANCH   1  18
ATOM     18  C13 ZIN A   1      18.033  -0.840  14.430  0.00  0.00     0.004 C 
ATOM     19  C18 ZIN A   1      17.421   0.340  15.189  0.00  0.00     0.006 C 
ATOM     20  C17 ZIN A   1      17.176  -0.061  16.645  0.00  0.00     0.000 C 
ATOM     21  C16 ZIN A   1      18.503  -0.454  17.297  0.00  0.00     0.000 C 
ATOM     22  C15 ZIN A   1      19.114  -1.634  16.538  0.00  0.00     0.000 C 
ATOM     23  C14 ZIN A   1      19.360  -1.232  15.082  0.00  0.00     0.006 C 
ENDBRANCH   1  18
TORSDOF 8
ENDMDL
MODEL 4
REMARK VINA RESULT:      -6.7      3.334      5.850
REMARK  8 active torsions:
REMARK  status: ('A' for Active; 'I' for Inactive)
REMARK    1  A    between atoms: C2_2  and  N3_3 
REMARK    2  A    between atoms: N3_3  and  C5_5 
REMARK    3  A    between atoms: N3_3  and  C7_7 
REMARK    4  A    between atoms: C7_7  and  C8_8 
REMARK    5  A    between atoms: C8_8  and  O9_9 
REMARK    6  A    between atoms: O9_9  and  C10_10 
REMARK    7  A    between atoms: C10_10  and  C12_12 
REMARK    8  A    between atoms: C12_12  and  C13_13 
ROOT
ATOM      1  C12 ZIN A   1      18.112   0.626  10.209  0.00  0.00     0.051 C 
ATOM      2  C19 ZIN A   1      19.320  -0.293  10.402  0.00  0.00     0.020 C 
ATOM      3  C20 ZIN A   1      19.533  -0.549  11.896  0.00  0.00     0.001 C 
ATOM      4  C21 ZIN A   1      18.286  -1.214  12.483  0.00  0.00     0.000 C 
ATOM      5  C22 ZIN A   1      17.079  -0.295  12.289  0.00  0.00     0.001 C 
ATOM      6  C23 ZIN A   1      16.866  -0.040  10.795  0.00  0.00     0.020 C 
ENDROOT
BRANCH   1   7
ATOM      7  C10 ZIN A   1      18.360   1.936  10.913  0.00  0.00     0.268 C 
ATOM      8  O11 ZIN A   1      19.481   2.236  11.252  0.00  0.00    -0.264 OA
BRANCH   7   9
ATOM      9  O9  ZIN A   1      17.338   2.769  11.161  0.00  0.00    -0.319 OA
BRANCH   9  10
ATOM     10  C8  ZIN A   1      17.673   4.124  11.557  0.00  0.00     0.206 C 
BRANCH  10  11
ATOM     11  C7  ZIN A   1      17.395   4.304  13.050  0.00  0.00     0.261 C 
BRANCH  11  12
ATOM     12  N3  ZIN A   1      18.506   3.740  13.827  0.00  0.00    -0.070 N 
ATOM     13  H4  ZIN A   1      19.243   3.452  13.200  0.00  0.00     0.279 HD
BRANCH  12  14
ATOM     14  C2  ZIN A   1      19.023   4.757  14.753  0.00  0.00     0.230 C 
ATOM     15  C1  ZIN A   1      20.024   5.652  14.021  0.00  0.00     0.034 C 
ENDBRANCH  12  14
BRANCH  12  16
ATOM     16  C5  ZIN A   1      18.031   2.579  14.591  0.00  0.00     0.230 C 
ATOM     17  C6  ZIN A   1      19.200   1.625  14.847  0.00  0.00     0.034 C 
ENDBRANCH  12  16
ENDBRANCH  11  12
ENDBRANCH  10  11
ENDBRANCH   9  10
ENDBRANCH   7   9
ENDBRANCH   1   7
BRANCH   1  18
ATOM     18  C13 ZIN A   1      17.899   0.881   8.716  0.00  0.00     0.004 C 
ATOM     19  C18 ZIN A   1      17.277  -0.359   8.070  0.00  0.00     0.006 C 
ATOM     20  C17 ZIN A   1      17.064  -0.104   6.577  0.00  0.00     0.000 C 
ATOM     21  C16 ZIN A   1      18.410   0.195   5.913  0.00  0.00     0.000 C 
ATOM     22  C15 ZIN A   1      19.032   1.435   6.559  0.00  0.00     0.000 C 
ATOM     23  C14 ZIN A   1      19.245   1.180   8.053  0.00  0.00     0.006 C 
ENDBRANCH   1  18
TORSDOF 8
ENDMDL
MODEL 5
REMARK VINA RESULT:      -6.7      3.156      6.051
REMARK  8 active torsions:
REMARK  status: ('A' for Active; 'I' for Inactive)
REMARK    1  A    between atoms: C2_2  and  N3_3 
REMARK    2  A    between atoms: N3_3  and  C5_5 
REMARK    3  A    between atoms: N3_3  and  C7_7 
REMARK    4  A    between atoms: C7_7  and  C8_8 
REMARK    5  A    between atoms: C8_8  and  O9_9 
REMARK    6  A    between atoms: O9_9  and  C10_10 
REMARK    7  A    between atoms: C10_10  and  C12_12 
REMARK    8  A    between atoms: C12_12  and  C13_13 
ROOT
ATOM      1  C12 ZIN A   1      18.296  -0.530  12.998  0.00  0.00     0.051 C 
ATOM      2  C19 ZIN A   1      19.712   0.031  12.839  0.00  0.00     0.020 C 
ATOM      3  C20 ZIN A   1      19.952   0.400  11.373  0.00  0.00     0.001 C 
ATOM      4  C21 ZIN A   1      18.933   1.456  10.939  0.00  0.00     0.000 C 
ATOM      5  C22 ZIN A   1      17.519   0.895  11.099  0.00  0.00     0.001 C 
ATOM      6  C23 ZIN A   1      17.278   0.526  12.564  0.00  0.00     0.020 C 
ENDROOT
BRANCH   1   7
ATOM      7  C10 ZIN A   1      18.143  -1.758  12.138  0.00  0.00     0.268 C 
ATOM      8  O11 ZIN A   1      17.070  -2.022  11.649  0.00  0.00    -0.264 OA
BRANCH   7   9
ATOM      9  O9  ZIN A   1      19.197  -2.558  11.916  0.00  0.00    -0.319 OA
BRANCH   9  10
ATOM     10  C8  ZIN A   1      18.916  -3.915  11.485  0.00  0.00     0.206 C 
BRANCH  10  11
ATOM     11  C7  ZIN A   1      19.246  -4.057   9.998  0.00  0.00     0.261 C 
BRANCH  11  12
ATOM     12  N3  ZIN A   1      18.030  -3.833   9.203  0.00  0.00    -0.070 N 
ATOM     13  H4  ZIN A   1      17.345  -3.351   9.766  0.00  0.00     0.279 HD
BRANCH  12  14
ATOM     14  C2  ZIN A   1      18.358  -3.017   8.026  0.00  0.00     0.230 C 
ATOM     15  C1  ZIN A   1      18.997  -1.702   8.479  0.00  0.00     0.034 C 
ENDBRANCH  12  14
BRANCH  12  16
ATOM     16  C5  ZIN A   1      17.484  -5.124   8.767  0.00  0.00     0.230 C 
ATOM     17  C6  ZIN A   1      16.116  -5.344   9.416  0.00  0.00     0.034 C 
ENDBRANCH  12  16
ENDBRANCH  11  12
ENDBRANCH  10  11
ENDBRANCH   9  10
ENDBRANCH   7   9
ENDBRANCH   1   7
BRANCH   1  18
ATOM     18  C13 ZIN A   1      18.055  -0.898  14.463  0.00  0.00     0.004 C 
ATOM     19  C18 ZIN A   1      17.422   0.290  15.190  0.00  0.00     0.006 C 
ATOM     20  C17 ZIN A   1      17.181  -0.079  16.656  0.00  0.00     0.000 C 
ATOM     21  C16 ZIN A   1      18.514  -0.430  17.319  0.00  0.00     0.000 C 
ATOM     22  C15 ZIN A   1      19.148  -1.619  16.592  0.00  0.00     0.000 C 
ATOM     23  C14 ZIN A   1      19.388  -1.250  15.126  0.00  0.00     0.006 C 
ENDBRANCH   1  18
TORSDOF 8
ENDMDL
MODEL 6
REMARK VINA RESULT:      -6.6      3.272      6.305
REMARK  8 active torsions:
REMARK  status: ('A' for Active; 'I' for Inactive)
REMARK    1  A    between atoms: C2_2  and  N3_3 
REMARK    2  A    between atoms: N3_3  and  C5_5 
REMARK    3  A    between atoms: N3_3  and  C7_7 
REMARK    4  A    between atoms: C7_7  and  C8_8 
REMARK    5  A    between atoms: C8_8  and  O9_9 
REMARK    6  A    between atoms: O9_9  and  C10_10 
REMARK    7  A    between atoms: C10_10  and  C12_12 
REMARK    8  A    between atoms: C12_12  and  C13_13 
ROOT
ATOM      1  C12 ZIN A   1      18.295   0.282  10.185  0.00  0.00     0.051 C 
ATOM      2  C19 ZIN A   1      19.747  -0.193  10.293  0.00  0.00     0.020 C 
ATOM      3  C20 ZIN A   1      20.041  -0.608  11.737  0.00  0.00     0.001 C 
ATOM      4  C21 ZIN A   1      19.101  -1.745  12.142  0.00  0.00     0.000 C 
ATOM      5  C22 ZIN A   1      17.651  -1.271  12.034  0.00  0.00     0.001 C 
ATOM      6  C23 ZIN A   1      17.356  -0.856  10.591  0.00  0.00     0.020 C 
ENDROOT
BRANCH   1   7
ATOM      7  C10 ZIN A   1      18.082   1.460  11.101  0.00  0.00     0.268 C 
ATOM      8  O11 ZIN A   1      16.993   1.660  11.583  0.00  0.00    -0.264 OA
BRANCH   7   9
ATOM      9  O9  ZIN A   1      19.102   2.285  11.381  0.00  0.00    -0.319 OA
BRANCH   9  10
ATOM     10  C8  ZIN A   1      19.119   2.888  12.701  0.00  0.00     0.206 C 
BRANCH  10  11
ATOM     11  C7  ZIN A   1      18.693   4.353  12.599  0.00  0.00     0.261 C 
BRANCH  11  12
ATOM     12  N3  ZIN A   1      17.265   4.472  12.924  0.00  0.00    -0.070 N 
ATOM     13  H4  ZIN A   1      16.829   3.564  12.858  0.00  0.00     0.279 HD
BRANCH  12  14
ATOM     14  C2  ZIN A   1      17.116   4.988  14.291  0.00  0.00     0.230 C 
ATOM     15  C1  ZIN A   1      17.342   6.501  14.294  0.00  0.00     0.034 C 
ENDBRANCH  12  14
BRANCH  12  16
ATOM     16  C5  ZIN A   1      16.622   5.394  11.980  0.00  0.00     0.230 C 
ATOM     17  C6  ZIN A   1      17.077   5.066  10.556  0.00  0.00     0.034 C 
ENDBRANCH  12  16
ENDBRANCH  11  12
ENDBRANCH  10  11
ENDBRANCH   9  10
ENDBRANCH   7   9
ENDBRANCH   1   7
BRANCH   1  18
ATOM     18  C13 ZIN A   1      18.001   0.696   8.743  0.00  0.00     0.004 C 
ATOM     19  C18 ZIN A   1      17.392  -0.487   7.986  0.00  0.00     0.006 C 
ATOM     20  C17 ZIN A   1      17.097  -0.072   6.543  0.00  0.00     0.000 C 
ATOM     21  C16 ZIN A   1      18.397   0.355   5.859  0.00  0.00     0.000 C 
ATOM     22  C15 ZIN A   1      19.006   1.538   6.616  0.00  0.00     0.000 C 
ATOM     23  C14 ZIN A   1      19.301   1.123   8.059  0.00  0.00     0.006 C 
ENDBRANCH   1  18
TORSDOF 8
ENDMDL
MODEL 7
REMARK VINA RESULT:      -6.6      1.397      2.146
REMARK  8 active torsions:
REMARK  status: ('A' for Active; 'I' for Inactive)
REMARK    1  A    between atoms: C2_2  and  N3_3 
REMARK    2  A    between atoms: N3_3  and  C5_5 
REMARK    3  A    between atoms: N3_3  and  C7_7 
REMARK    4  A    between atoms: C7_7  and  C8_8 
REMARK    5  A    between atoms: C8_8  and  O9_9 
REMARK    6  A    between atoms: O9_9  and  C10_10 
REMARK    7  A    between atoms: C10_10  and  C12_12 
REMARK    8  A    between atoms: C12_12  and  C13_13 
ROOT
ATOM      1  C12 ZIN A   1      18.690   0.522  10.034  0.00  0.00     0.051 C 
ATOM      2  C19 ZIN A   1      17.267   0.426  10.590  0.00  0.00     0.020 C 
ATOM      3  C20 ZIN A   1      17.275   0.778  12.079  0.00  0.00     0.001 C 
ATOM      4  C21 ZIN A   1      17.799   2.204  12.263  0.00  0.00     0.000 C 
ATOM      5  C22 ZIN A   1      19.221   2.300  11.708  0.00  0.00     0.001 C 
ATOM      6  C23 ZIN A   1      19.213   1.948  10.218  0.00  0.00     0.020 C 
ENDROOT
BRANCH   1   7
ATOM      7  C10 ZIN A   1      19.583  -0.440  10.774  0.00  0.00     0.268 C 
ATOM      8  O11 ZIN A   1      20.781  -0.393  10.620  0.00  0.00    -0.264 OA
BRANCH   7   9
ATOM      9  O9  ZIN A   1      19.050  -1.349  11.605  0.00  0.00    -0.319 OA
BRANCH   9  10
ATOM     10  C8  ZIN A   1      19.365  -2.742  11.349  0.00  0.00     0.206 C 
BRANCH  10  11
ATOM     11  C7  ZIN A   1      18.549  -3.239  10.154  0.00  0.00     0.261 C 
BRANCH  11  12
ATOM     12  N3  ZIN A   1      19.455  -3.796   9.141  0.00  0.00    -0.070 N 
ATOM     13  H4  ZIN A   1      20.275  -3.212   9.065  0.00  0.00     0.279 HD
BRANCH  12  14
ATOM     14  C2  ZIN A   1      19.856  -5.154   9.536  0.00  0.00     0.230 C 
ATOM     15  C1  ZIN A   1      18.854  -6.165   8.975  0.00  0.00     0.034 C 
ENDBRANCH  12  14
BRANCH  12  16
ATOM     16  C5  ZIN A   1      18.769  -3.846   7.843  0.00  0.00     0.230 C 
ATOM     17  C6  ZIN A   1      19.685  -3.274   6.760  0.00  0.00     0.034 C 
ENDBRANCH  12  16
ENDBRANCH  11  12
ENDBRANCH  10  11
ENDBRANCH   9  10
ENDBRANCH   7   9
ENDBRANCH   1   7
BRANCH   1  18
ATOM     18  C13 ZIN A   1      18.681   0.170   8.546  0.00  0.00     0.004 C 
ATOM     19  C18 ZIN A   1      19.168   1.373   7.735  0.00  0.00     0.006 C 
ATOM     20  C17 ZIN A   1      19.160   1.021   6.246  0.00  0.00     0.000 C 
ATOM     21  C16 ZIN A   1      17.737   0.658   5.815  0.00  0.00     0.000 C 
ATOM     22  C15 ZIN A   1      17.251  -0.545   6.627  0.00  0.00     0.000 C 
ATOM     23  C14 ZIN A   1      17.259  -0.193   8.116  0.00  0.00     0.006 C 
ENDBRANCH   1  18
TORSDOF 8
ENDMDL
MODEL 8
REMARK VINA RESULT:      -6.5      2.100      5.115
REMARK  8 active torsions:
REMARK  status: ('A' for Active; 'I' for Inactive)
REMARK    1  A    between atoms: C2_2  and  N3_3 
REMARK    2  A    between atoms: N3_3  and  C5_5 
REMARK    3  A    between atoms: N3_3  and  C7_7 
REMARK    4  A    between atoms: C7_7  and  C8_8 
REMARK    5  A    between atoms: C8_8  and  O9_9 
REMARK    6  A    between atoms: O9_9  and  C10_10 
REMARK    7  A    between atoms: C10_10  and  C12_12 
REMARK    8  A    between atoms: C12_12  and  C13_13 
ROOT
ATOM      1  C12 ZIN A   1      18.722  -1.502  11.875  0.00  0.00     0.051 C 
ATOM      2  C19 ZIN A   1      19.442  -1.940  13.153  0.00  0.00     0.020 C 
ATOM      3  C20 ZIN A   1      19.525  -0.759  14.122  0.00  0.00     0.001 C 
ATOM      4  C21 ZIN A   1      18.112  -0.283  14.469  0.00  0.00     0.000 C 
ATOM      5  C22 ZIN A   1      17.394   0.155  13.192  0.00  0.00     0.001 C 
ATOM      6  C23 ZIN A   1      17.311  -1.027  12.223  0.00  0.00     0.020 C 
ENDROOT
BRANCH   1   7
ATOM      7  C10 ZIN A   1      19.488  -0.375  11.230  0.00  0.00     0.268 C 
ATOM      8  O11 ZIN A   1      20.693  -0.339  11.312  0.00  0.00    -0.264 OA
BRANCH   7   9
ATOM      9  O9  ZIN A   1      18.832   0.587  10.564  0.00  0.00    -0.319 OA
BRANCH   9  10
ATOM     10  C8  ZIN A   1      18.855   0.520   9.114  0.00  0.00     0.206 C 
BRANCH  10  11
ATOM     11  C7  ZIN A   1      17.478   0.098   8.600  0.00  0.00     0.261 C 
BRANCH  11  12
ATOM     12  N3  ZIN A   1      17.639  -0.837   7.478  0.00  0.00    -0.070 N 
ATOM     13  H4  ZIN A   1      17.082  -1.662   7.647  0.00  0.00     0.279 HD
BRANCH  12  14
ATOM     14  C2  ZIN A   1      17.194  -0.192   6.236  0.00  0.00     0.230 C 
ATOM     15  C1  ZIN A   1      18.410   0.325   5.465  0.00  0.00     0.034 C 
ENDBRANCH  12  14
BRANCH  12  16
ATOM     16  C5  ZIN A   1      19.051  -1.217   7.354  0.00  0.00     0.230 C 
ATOM     17  C6  ZIN A   1      19.161  -2.738   7.231  0.00  0.00     0.034 C 
ENDBRANCH  12  16
ENDBRANCH  11  12
ENDBRANCH  10  11
ENDBRANCH   9  10
ENDBRANCH   7   9
ENDBRANCH   1   7
BRANCH   1  18
ATOM     18  C13 ZIN A   1      18.639  -2.683  10.906  0.00  0.00     0.004 C 
ATOM     19  C18 ZIN A   1      17.262  -3.341  11.022  0.00  0.00     0.006 C 
ATOM     20  C17 ZIN A   1      17.178  -4.522  10.054  0.00  0.00     0.000 C 
ATOM     21  C16 ZIN A   1      18.263  -5.544  10.400  0.00  0.00     0.000 C 
ATOM     22  C15 ZIN A   1      19.639  -4.886  10.284  0.00  0.00     0.000 C 
ATOM     23  C14 ZIN A   1      19.723  -3.704  11.253  0.00  0.00     0.006 C 
ENDBRANCH   1  18
TORSDOF 8
ENDMDL
MODEL 9
REMARK VINA RESULT:      -6.5      2.985      5.962
REMARK  8 active torsions:
REMARK  status: ('A' for Active; 'I' for Inactive)
REMARK    1  A    between atoms: C2_2  and  N3_3 
REMARK    2  A    between atoms: N3_3  and  C5_5 
REMARK    3  A    between atoms: N3_3  and  C7_7 
REMARK    4  A    between atoms: C7_7  and  C8_8 
REMARK    5  A    between atoms: C8_8  and  O9_9 
REMARK    6  A    between atoms: O9_9  and  C10_10 
REMARK    7  A    between atoms: C10_10  and  C12_12 
REMARK    8  A    between atoms: C12_12  and  C13_13 
ROOT
ATOM      1  C12 ZIN A   1      18.051  -0.388  10.457  0.00  0.00     0.051 C 
ATOM      2  C19 ZIN A   1      19.535  -0.448  10.827  0.00  0.00     0.020 C 
ATOM      3  C20 ZIN A   1      19.695  -1.147  12.179  0.00  0.00     0.001 C 
ATOM      4  C21 ZIN A   1      19.134  -2.567  12.090  0.00  0.00     0.000 C 
ATOM      5  C22 ZIN A   1      17.651  -2.507  11.719  0.00  0.00     0.001 C 
ATOM      6  C23 ZIN A   1      17.490  -1.809  10.367  0.00  0.00     0.020 C 
ENDROOT
BRANCH   1   7
ATOM      7  C10 ZIN A   1      17.301   0.382  11.513  0.00  0.00     0.268 C 
ATOM      8  O11 ZIN A   1      16.167   0.072  11.796  0.00  0.00    -0.264 OA
BRANCH   7   9
ATOM      9  O9  ZIN A   1      17.891   1.411  12.140  0.00  0.00    -0.319 OA
BRANCH   9  10
ATOM     10  C8  ZIN A   1      17.680   1.521  13.571  0.00  0.00     0.206 C 
BRANCH  10  11
ATOM     11  C7  ZIN A   1      17.909   2.967  14.013  0.00  0.00     0.261 C 
BRANCH  11  12
ATOM     12  N3  ZIN A   1      18.081   3.819  12.828  0.00  0.00    -0.070 N 
ATOM     13  H4  ZIN A   1      17.977   3.260  11.994  0.00  0.00     0.279 HD
BRANCH  12  14
ATOM     14  C2  ZIN A   1      17.065   4.880  12.837  0.00  0.00     0.230 C 
ATOM     15  C1  ZIN A   1      16.588   5.141  11.407  0.00  0.00     0.034 C 
ENDBRANCH  12  14
BRANCH  12  16
ATOM     16  C5  ZIN A   1      19.419   4.423  12.848  0.00  0.00     0.230 C 
ATOM     17  C6  ZIN A   1      20.291   3.767  11.775  0.00  0.00     0.034 C 
ENDBRANCH  12  16
ENDBRANCH  11  12
ENDBRANCH  10  11
ENDBRANCH   9  10
ENDBRANCH   7   9
ENDBRANCH   1   7
BRANCH   1  18
ATOM     18  C13 ZIN A   1      17.890   0.309   9.105  0.00  0.00     0.004 C 
ATOM     19  C18 ZIN A   1      17.498  -0.721   8.043  0.00  0.00     0.006 C 
ATOM     20  C17 ZIN A   1      17.338  -0.023   6.691  0.00  0.00     0.000 C 
ATOM     21  C16 ZIN A   1      18.660   0.637   6.297  0.00  0.00     0.000 C 
ATOM     22  C15 ZIN A   1      19.052   1.667   7.359  0.00  0.00     0.000 C 
ATOM     23  C14 ZIN A   1      19.213   0.969   8.711  0.00  0.00     0.006 C 
ENDBRANCH   1  18
TORSDOF 8
ENDMDL
