MODEL 1
REMARK VINA RESULT:      -8.9      0.000      0.000
REMARK  11 active torsions:
REMARK  status: ('A' for Active; 'I' for Inactive)
REMARK    1  A    between atoms: N1_1  and  C2_2 
REMARK    2  A    between atoms: N9_9  and  C10_10 
REMARK    3  A    between atoms: C12_12  and  C14_13 
REMARK    4  A    between atoms: C14_13  and  N15_14 
REMARK    5  A    between atoms: N15_14  and  C16_15 
REMARK    6  A    between atoms: C19_18  and  C20_19 
REMARK       I    between atoms: C20_19  and  N22_21 
REMARK    7  A    between atoms: N22_21  and  C23_22 
REMARK    8  A    between atoms: C23_22  and  C25_23 
REMARK    9  A    between atoms: C23_22  and  C30_28 
REMARK   10  A    between atoms: C25_23  and  C26_24 
REMARK   11  A    between atoms: C26_24  and  C27_25 
ROOT
ATOM      1  N15 ZIN A   1      19.030   2.176   8.178  0.00  0.00    -0.388 N 
ATOM      2  H43 ZIN A   1      18.874   2.774   7.430  0.00  0.00     0.159 HD
ENDROOT
BRANCH   1   3
ATOM      3  C14 ZIN A   1      19.437   0.789   7.937  0.00  0.00     0.147 C 
BRANCH   3   4
ATOM      4  C12 ZIN A   1      18.386   0.094   7.067  0.00  0.00     0.128 C 
ATOM      5  N9  ZIN A   1      18.901  -1.207   6.610  0.00  0.00    -0.309 N 
ATOM      6  C5  ZIN A   1      18.940  -2.275   7.529  0.00  0.00     0.153 A 
ATOM      7  C4  ZIN A   1      18.209  -2.206   8.709  0.00  0.00     0.175 A 
ATOM      8  C6  ZIN A   1      19.706  -3.417   7.269  0.00  0.00     0.290 A 
ATOM      9  N3  ZIN A   1      18.250  -3.228   9.571  0.00  0.00    -0.045 NA
ATOM     10  N36 ZIN A   1      17.450  -1.082   8.985  0.00  0.00    -0.370 N 
ATOM     11  C2  ZIN A   1      18.972  -4.300   9.320  0.00  0.00     0.703 A 
ATOM     12  N8  ZIN A   1      19.711  -4.412   8.183  0.00  0.00    -0.152 N 
ATOM     13  H39 ZIN A   1      20.236  -5.212   8.025  0.00  0.00     0.187 HD
ATOM     14  C35 ZIN A   1      17.115  -0.160   7.891  0.00  0.00     0.148 C 
ATOM     15  H55 ZIN A   1      17.142  -0.906   9.888  0.00  0.00     0.161 HD
ATOM     16  O7  ZIN A   1      20.361  -3.509   6.243  0.00  0.00    -0.265 OA
BRANCH   5  17
ATOM     17  C10 ZIN A   1      19.326  -1.374   5.342  0.00  0.00     0.356 C 
ATOM     18  O11 ZIN A   1      19.914  -0.475   4.777  0.00  0.00    -0.283 OA
ENDBRANCH   5  17
BRANCH  11  19
ATOM     19  N1  ZIN A   1      18.986  -5.325  10.231  0.00  0.00    -0.233 N 
ATOM     20  H37 ZIN A   1      18.335  -5.344  10.949  0.00  0.00     0.174 HD
ATOM     21  H38 ZIN A   1      19.645  -6.033  10.154  0.00  0.00     0.174 HD
ENDBRANCH  11  19
ENDBRANCH   3   4
ENDBRANCH   1   3
BRANCH   1  22
ATOM     22  C16 ZIN A   1      18.866   2.635   9.480  0.00  0.00     0.028 A 
ATOM     23  C34 ZIN A   1      19.406   1.915  10.543  0.00  0.00     0.030 A 
ATOM     24  C33 ZIN A   1      19.251   2.369  11.833  0.00  0.00     0.019 A 
ATOM     25  C19 ZIN A   1      18.542   3.549  12.076  0.00  0.00     0.032 A 
ATOM     26  C18 ZIN A   1      17.996   4.266  11.007  0.00  0.00     0.019 A 
ATOM     27  C17 ZIN A   1      18.160   3.810   9.719  0.00  0.00     0.030 A 
BRANCH  25  28
ATOM     28  C20 ZIN A   1      18.368   4.036  13.458  0.00  0.00     0.252 C 
ATOM     29  O21 ZIN A   1      17.291   4.464  13.821  0.00  0.00    -0.268 OA
ATOM     30  N22 ZIN A   1      19.405   4.003  14.319  0.00  0.00    -0.342 N 
ATOM     31  H46 ZIN A   1      20.266   3.661  14.030  0.00  0.00     0.163 HD
BRANCH  30  32
ATOM     32  C23 ZIN A   1      19.234   4.486  15.691  0.00  0.00     0.186 C 
BRANCH  32  33
ATOM     33  C25 ZIN A   1      19.829   3.470  16.668  0.00  0.00     0.046 C 
BRANCH  33  34
ATOM     34  C26 ZIN A   1      19.130   2.121  16.491  0.00  0.00     0.116 C 
BRANCH  34  35
ATOM     35  C27 ZIN A   1      18.921   1.484  17.841  0.00  0.00     0.172 C 
ATOM     36  O28 ZIN A   1      19.870   1.310  18.586  0.00  0.00    -0.648 OA
ATOM     37  O29 ZIN A   1      17.803   1.142  18.187  0.00  0.00    -0.648 OA
ENDBRANCH  34  35
ENDBRANCH  33  34
ENDBRANCH  32  33
BRANCH  32  38
ATOM     38  C30 ZIN A   1      19.937   5.809  15.850  0.00  0.00     0.196 C 
ATOM     39  O31 ZIN A   1      21.124   5.905  15.589  0.00  0.00    -0.646 OA
ATOM     40  O32 ZIN A   1      19.318   6.786  16.238  0.00  0.00    -0.646 OA
ENDBRANCH  32  38
ENDBRANCH  30  32
ENDBRANCH  25  28
ENDBRANCH   1  22
TORSDOF 11
ENDMDL
MODEL 2
REMARK VINA RESULT:      -8.6      3.088      9.776
REMARK  11 active torsions:
REMARK  status: ('A' for Active; 'I' for Inactive)
REMARK    1  A    between atoms: N1_1  and  C2_2 
REMARK    2  A    between atoms: N9_9  and  C10_10 
REMARK    3  A    between atoms: C12_12  and  C14_13 
REMARK    4  A    between atoms: C14_13  and  N15_14 
REMARK    5  A    between atoms: N15_14  and  C16_15 
REMARK    6  A    between atoms: C19_18  and  C20_19 
REMARK       I    between atoms: C20_19  and  N22_21 
REMARK    7  A    between atoms: N22_21  and  C23_22 
REMARK    8  A    between atoms: C23_22  and  C25_23 
REMARK    9  A    between atoms: C23_22  and  C30_28 
REMARK   10  A    between atoms: C25_23  and  C26_24 
REMARK   11  A    between atoms: C26_24  and  C27_25 
ROOT
ATOM      1  N15 ZIN A   1      19.230   2.311   8.718  0.00  0.00    -0.388 N 
ATOM      2  H43 ZIN A   1      19.331   3.206   8.359  0.00  0.00     0.159 HD
ENDROOT
BRANCH   1   3
ATOM      3  C14 ZIN A   1      19.185   2.102  10.168  0.00  0.00     0.147 C 
BRANCH   3   4
ATOM      4  C12 ZIN A   1      17.732   2.170  10.647  0.00  0.00     0.128 C 
ATOM      5  N9  ZIN A   1      17.555   1.300  11.821  0.00  0.00    -0.309 N 
ATOM      6  C5  ZIN A   1      18.053   1.739  13.065  0.00  0.00     0.153 A 
ATOM      7  C4  ZIN A   1      18.387   3.075  13.249  0.00  0.00     0.175 A 
ATOM      8  C6  ZIN A   1      18.214   0.845  14.129  0.00  0.00     0.290 A 
ATOM      9  N3  ZIN A   1      18.853   3.481  14.435  0.00  0.00    -0.045 NA
ATOM     10  N36 ZIN A   1      18.239   3.973  12.206  0.00  0.00    -0.370 N 
ATOM     11  C2  ZIN A   1      19.002   2.634  15.432  0.00  0.00     0.703 A 
ATOM     12  N8  ZIN A   1      18.697   1.315  15.299  0.00  0.00    -0.152 N 
ATOM     13  H39 ZIN A   1      18.818   0.712  16.050  0.00  0.00     0.187 HD
ATOM     14  C35 ZIN A   1      17.389   3.607  11.064  0.00  0.00     0.148 C 
ATOM     15  H55 ZIN A   1      18.689   4.832  12.229  0.00  0.00     0.161 HD
ATOM     16  O7  ZIN A   1      17.931  -0.336  14.000  0.00  0.00    -0.265 OA
BRANCH   5  17
ATOM     17  C10 ZIN A   1      16.931   0.111  11.710  0.00  0.00     0.356 C 
ATOM     18  O11 ZIN A   1      15.724   0.068  11.596  0.00  0.00    -0.283 OA
ENDBRANCH   5  17
BRANCH  11  19
ATOM     19  N1  ZIN A   1      19.484   3.092  16.631  0.00  0.00    -0.233 N 
ATOM     20  H37 ZIN A   1      19.445   4.038  16.841  0.00  0.00     0.174 HD
ATOM     21  H38 ZIN A   1      19.860   2.469  17.272  0.00  0.00     0.174 HD
ENDBRANCH  11  19
ENDBRANCH   3   4
ENDBRANCH   1   3
BRANCH   1  22
ATOM     22  C16 ZIN A   1      19.128   1.224   7.857  0.00  0.00     0.028 A 
ATOM     23  C34 ZIN A   1      19.308  -0.068   8.345  0.00  0.00     0.030 A 
ATOM     24  C33 ZIN A   1      19.201  -1.147   7.497  0.00  0.00     0.019 A 
ATOM     25  C19 ZIN A   1      18.923  -0.943   6.141  0.00  0.00     0.032 A 
ATOM     26  C18 ZIN A   1      18.749   0.356   5.654  0.00  0.00     0.019 A 
ATOM     27  C17 ZIN A   1      18.851   1.429   6.509  0.00  0.00     0.030 A 
BRANCH  25  28
ATOM     28  C20 ZIN A   1      18.815  -2.097   5.228  0.00  0.00     0.252 C 
ATOM     29  O21 ZIN A   1      19.572  -2.195   4.283  0.00  0.00    -0.268 OA
ATOM     30  N22 ZIN A   1      17.877  -3.040   5.443  0.00  0.00    -0.342 N 
ATOM     31  H46 ZIN A   1      17.273  -2.962   6.198  0.00  0.00     0.163 HD
BRANCH  30  32
ATOM     32  C23 ZIN A   1      17.770  -4.186   4.536  0.00  0.00     0.186 C 
BRANCH  32  33
ATOM     33  C25 ZIN A   1      17.797  -5.483   5.347  0.00  0.00     0.046 C 
BRANCH  33  34
ATOM     34  C26 ZIN A   1      17.973  -5.154   6.831  0.00  0.00     0.116 C 
BRANCH  34  35
ATOM     35  C27 ZIN A   1      19.388  -5.465   7.249  0.00  0.00     0.172 C 
ATOM     36  O28 ZIN A   1      20.297  -4.719   6.926  0.00  0.00    -0.648 OA
ATOM     37  O29 ZIN A   1      19.622  -6.462   7.910  0.00  0.00    -0.648 OA
ENDBRANCH  34  35
ENDBRANCH  33  34
ENDBRANCH  32  33
BRANCH  32  38
ATOM     38  C30 ZIN A   1      16.476  -4.099   3.769  0.00  0.00     0.196 C 
ATOM     39  O31 ZIN A   1      15.480  -4.666   4.186  0.00  0.00    -0.646 OA
ATOM     40  O32 ZIN A   1      16.424  -3.462   2.731  0.00  0.00    -0.646 OA
ENDBRANCH  32  38
ENDBRANCH  30  32
ENDBRANCH  25  28
ENDBRANCH   1  22
TORSDOF 11
ENDMDL
MODEL 3
REMARK VINA RESULT:      -8.5      3.345      5.975
REMARK  11 active torsions:
REMARK  status: ('A' for Active; 'I' for Inactive)
REMARK    1  A    between atoms: N1_1  and  C2_2 
REMARK    2  A    between atoms: N9_9  and  C10_10 
REMARK    3  A    between atoms: C12_12  and  C14_13 
REMARK    4  A    between atoms: C14_13  and  N15_14 
REMARK    5  A    between atoms: N15_14  and  C16_15 
REMARK    6  A    between atoms: C19_18  and  C20_19 
REMARK       I    between atoms: C20_19  and  N22_21 
REMARK    7  A    between atoms: N22_21  and  C23_22 
REMARK    8  A    between atoms: C23_22  and  C25_23 
REMARK    9  A    between atoms: C23_22  and  C30_28 
REMARK   10  A    between atoms: C25_23  and  C26_24 
REMARK   11  A    between atoms: C26_24  and  C27_25 
ROOT
ATOM      1  N15 ZIN A   1      18.363  -5.703   9.194  0.00  0.00    -0.388 N 
ATOM      2  H43 ZIN A   1      18.613  -6.614   9.414  0.00  0.00     0.159 HD
ENDROOT
BRANCH   1   3
ATOM      3  C14 ZIN A   1      17.773  -5.400   7.887  0.00  0.00     0.147 C 
BRANCH   3   4
ATOM      4  C12 ZIN A   1      18.722  -5.862   6.779  0.00  0.00     0.128 C 
ATOM      5  N9  ZIN A   1      18.298  -5.291   5.490  0.00  0.00    -0.309 N 
ATOM      6  C5  ZIN A   1      18.564  -3.930   5.238  0.00  0.00     0.153 A 
ATOM      7  C4  ZIN A   1      19.486  -3.243   6.019  0.00  0.00     0.175 A 
ATOM      8  C6  ZIN A   1      17.911  -3.252   4.203  0.00  0.00     0.290 A 
ATOM      9  N3  ZIN A   1      19.733  -1.953   5.767  0.00  0.00    -0.045 NA
ATOM     10  N36 ZIN A   1      20.137  -3.896   7.051  0.00  0.00    -0.370 N 
ATOM     11  C2  ZIN A   1      19.116  -1.322   4.791  0.00  0.00     0.703 A 
ATOM     12  N8  ZIN A   1      18.200  -1.947   4.003  0.00  0.00    -0.152 N 
ATOM     13  H39 ZIN A   1      17.757  -1.457   3.292  0.00  0.00     0.187 HD
ATOM     14  C35 ZIN A   1      20.145  -5.366   7.074  0.00  0.00     0.148 C 
ATOM     15  H55 ZIN A   1      20.582  -3.391   7.750  0.00  0.00     0.161 HD
ATOM     16  O7  ZIN A   1      17.094  -3.825   3.499  0.00  0.00    -0.265 OA
BRANCH   5  17
ATOM     17  C10 ZIN A   1      17.670  -6.051   4.573  0.00  0.00     0.356 C 
ATOM     18  O11 ZIN A   1      18.023  -7.199   4.392  0.00  0.00    -0.283 OA
ENDBRANCH   5  17
BRANCH  11  19
ATOM     19  N1  ZIN A   1      19.399   0.001   4.566  0.00  0.00    -0.233 N 
ATOM     20  H37 ZIN A   1      19.217   0.396   3.699  0.00  0.00     0.174 HD
ATOM     21  H38 ZIN A   1      19.777   0.543   5.276  0.00  0.00     0.174 HD
ENDBRANCH  11  19
ENDBRANCH   3   4
ENDBRANCH   1   3
BRANCH   1  22
ATOM     22  C16 ZIN A   1      18.566  -4.684  10.117  0.00  0.00     0.028 A 
ATOM     23  C34 ZIN A   1      17.519  -3.828  10.447  0.00  0.00     0.030 A 
ATOM     24  C33 ZIN A   1      17.713  -2.822  11.366  0.00  0.00     0.019 A 
ATOM     25  C19 ZIN A   1      18.968  -2.653  11.960  0.00  0.00     0.032 A 
ATOM     26  C18 ZIN A   1      20.019  -3.512  11.622  0.00  0.00     0.019 A 
ATOM     27  C17 ZIN A   1      19.815  -4.519  10.708  0.00  0.00     0.030 A 
BRANCH  25  28
ATOM     28  C20 ZIN A   1      19.183  -1.572  12.940  0.00  0.00     0.252 C 
ATOM     29  O21 ZIN A   1      20.157  -0.853  12.847  0.00  0.00    -0.268 OA
ATOM     30  N22 ZIN A   1      18.296  -1.382  13.938  0.00  0.00    -0.342 N 
ATOM     31  H46 ZIN A   1      17.518  -1.956  14.012  0.00  0.00     0.163 HD
BRANCH  30  32
ATOM     32  C23 ZIN A   1      18.509  -0.308  14.911  0.00  0.00     0.186 C 
BRANCH  32  33
ATOM     33  C25 ZIN A   1      17.517   0.826  14.646  0.00  0.00     0.046 C 
BRANCH  33  34
ATOM     34  C26 ZIN A   1      18.161   1.861  13.721  0.00  0.00     0.116 C 
BRANCH  34  35
ATOM     35  C27 ZIN A   1      17.437   1.873  12.399  0.00  0.00     0.172 C 
ATOM     36  O28 ZIN A   1      16.971   0.839  11.950  0.00  0.00    -0.648 OA
ATOM     37  O29 ZIN A   1      17.318   2.915  11.779  0.00  0.00    -0.648 OA
ENDBRANCH  34  35
ENDBRANCH  33  34
ENDBRANCH  32  33
BRANCH  32  38
ATOM     38  C30 ZIN A   1      18.300  -0.844  16.304  0.00  0.00     0.196 C 
ATOM     39  O31 ZIN A   1      19.211  -1.411  16.883  0.00  0.00    -0.646 OA
ATOM     40  O32 ZIN A   1      17.219  -0.709  16.854  0.00  0.00    -0.646 OA
ENDBRANCH  32  38
ENDBRANCH  30  32
ENDBRANCH  25  28
ENDBRANCH   1  22
TORSDOF 11
ENDMDL
MODEL 4
REMARK VINA RESULT:      -8.3      2.625      5.036
REMARK  11 active torsions:
REMARK  status: ('A' for Active; 'I' for Inactive)
REMARK    1  A    between atoms: N1_1  and  C2_2 
REMARK    2  A    between atoms: N9_9  and  C10_10 
REMARK    3  A    between atoms: C12_12  and  C14_13 
REMARK    4  A    between atoms: C14_13  and  N15_14 
REMARK    5  A    between atoms: N15_14  and  C16_15 
REMARK    6  A    between atoms: C19_18  and  C20_19 
REMARK       I    between atoms: C20_19  and  N22_21 
REMARK    7  A    between atoms: N22_21  and  C23_22 
REMARK    8  A    between atoms: C23_22  and  C25_23 
REMARK    9  A    between atoms: C23_22  and  C30_28 
REMARK   10  A    between atoms: C25_23  and  C26_24 
REMARK   11  A    between atoms: C26_24  and  C27_25 
ROOT
ATOM      1  N15 ZIN A   1      19.490  -1.868  13.856  0.00  0.00    -0.388 N 
ATOM      2  H43 ZIN A   1      19.715  -2.771  14.130  0.00  0.00     0.159 HD
ENDROOT
BRANCH   1   3
ATOM      3  C14 ZIN A   1      19.303  -1.557  12.436  0.00  0.00     0.147 C 
BRANCH   3   4
ATOM      4  C12 ZIN A   1      17.850  -1.831  12.041  0.00  0.00     0.128 C 
ATOM      5  N9  ZIN A   1      17.502  -1.042  10.848  0.00  0.00    -0.309 N 
ATOM      6  C5  ZIN A   1      17.990  -1.467   9.596  0.00  0.00     0.153 A 
ATOM      7  C4  ZIN A   1      18.486  -2.756   9.441  0.00  0.00     0.175 A 
ATOM      8  C6  ZIN A   1      17.980  -0.606   8.492  0.00  0.00     0.290 A 
ATOM      9  N3  ZIN A   1      18.941  -3.150   8.247  0.00  0.00    -0.045 NA
ATOM     10  N36 ZIN A   1      18.508  -3.620  10.523  0.00  0.00    -0.370 N 
ATOM     11  C2  ZIN A   1      18.928  -2.335   7.213  0.00  0.00     0.703 A 
ATOM     12  N8  ZIN A   1      18.460  -1.061   7.315  0.00  0.00    -0.152 N 
ATOM     13  H39 ZIN A   1      18.464  -0.481   6.537  0.00  0.00     0.187 HD
ATOM     14  C35 ZIN A   1      17.677  -3.317  11.696  0.00  0.00     0.148 C 
ATOM     15  H55 ZIN A   1      19.065  -4.414  10.506  0.00  0.00     0.161 HD
ATOM     16  O7  ZIN A   1      17.552   0.533   8.594  0.00  0.00    -0.265 OA
BRANCH   5  17
ATOM     17  C10 ZIN A   1      16.735   0.061  10.950  0.00  0.00     0.356 C 
ATOM     18  O11 ZIN A   1      16.878   0.813  11.892  0.00  0.00    -0.283 OA
ENDBRANCH   5  17
BRANCH  11  19
ATOM     19  N1  ZIN A   1      19.404  -2.778   6.007  0.00  0.00    -0.233 N 
ATOM     20  H37 ZIN A   1      19.613  -2.143   5.304  0.00  0.00     0.174 HD
ATOM     21  H38 ZIN A   1      19.535  -3.728   5.857  0.00  0.00     0.174 HD
ENDBRANCH  11  19
ENDBRANCH   3   4
ENDBRANCH   1   3
BRANCH   1  22
ATOM     22  C16 ZIN A   1      19.343  -0.868  14.811  0.00  0.00     0.028 A 
ATOM     23  C34 ZIN A   1      19.084  -1.206  16.137  0.00  0.00     0.030 A 
ATOM     24  C33 ZIN A   1      18.945  -0.220  17.086  0.00  0.00     0.019 A 
ATOM     25  C19 ZIN A   1      19.051   1.125  16.715  0.00  0.00     0.032 A 
ATOM     26  C18 ZIN A   1      19.305   1.460  15.382  0.00  0.00     0.019 A 
ATOM     27  C17 ZIN A   1      19.450   0.469  14.439  0.00  0.00     0.030 A 
BRANCH  25  28
ATOM     28  C20 ZIN A   1      18.895   2.185  17.729  0.00  0.00     0.252 C 
ATOM     29  O21 ZIN A   1      19.617   2.202  18.705  0.00  0.00    -0.268 OA
ATOM     30  N22 ZIN A   1      17.952   3.135  17.570  0.00  0.00    -0.342 N 
ATOM     31  H46 ZIN A   1      17.376   3.122  16.790  0.00  0.00     0.163 HD
BRANCH  30  32
ATOM     32  C23 ZIN A   1      17.797   4.188  18.576  0.00  0.00     0.186 C 
BRANCH  32  33
ATOM     33  C25 ZIN A   1      17.826   5.557  17.892  0.00  0.00     0.046 C 
BRANCH  33  34
ATOM     34  C26 ZIN A   1      17.980   5.368  16.381  0.00  0.00     0.116 C 
BRANCH  34  35
ATOM     35  C27 ZIN A   1      19.384   5.732  15.971  0.00  0.00     0.172 C 
ATOM     36  O28 ZIN A   1      19.601   6.797  15.418  0.00  0.00    -0.648 OA
ATOM     37  O29 ZIN A   1      20.303   4.962  16.194  0.00  0.00    -0.648 OA
ENDBRANCH  34  35
ENDBRANCH  33  34
ENDBRANCH  32  33
BRANCH  32  38
ATOM     38  C30 ZIN A   1      16.483   4.010  19.291  0.00  0.00     0.196 C 
ATOM     39  O31 ZIN A   1      15.506   4.652  18.941  0.00  0.00    -0.646 OA
ATOM     40  O32 ZIN A   1      16.394   3.224  20.219  0.00  0.00    -0.646 OA
ENDBRANCH  32  38
ENDBRANCH  30  32
ENDBRANCH  25  28
ENDBRANCH   1  22
TORSDOF 11
ENDMDL
MODEL 5
REMARK VINA RESULT:      -8.3      2.642     10.244
REMARK  11 active torsions:
REMARK  status: ('A' for Active; 'I' for Inactive)
REMARK    1  A    between atoms: N1_1  and  C2_2 
REMARK    2  A    between atoms: N9_9  and  C10_10 
REMARK    3  A    between atoms: C12_12  and  C14_13 
REMARK    4  A    between atoms: C14_13  and  N15_14 
REMARK    5  A    between atoms: N15_14  and  C16_15 
REMARK    6  A    between atoms: C19_18  and  C20_19 
REMARK       I    between atoms: C20_19  and  N22_21 
REMARK    7  A    between atoms: N22_21  and  C23_22 
REMARK    8  A    between atoms: C23_22  and  C25_23 
REMARK    9  A    between atoms: C23_22  and  C30_28 
REMARK   10  A    between atoms: C25_23  and  C26_24 
REMARK   11  A    between atoms: C26_24  and  C27_25 
ROOT
ATOM      1  N15 ZIN A   1      18.645   5.155  13.601  0.00  0.00    -0.388 N 
ATOM      2  H43 ZIN A   1      19.399   5.728  13.396  0.00  0.00     0.159 HD
ENDROOT
BRANCH   1   3
ATOM      3  C14 ZIN A   1      17.825   5.418  14.787  0.00  0.00     0.147 C 
BRANCH   3   4
ATOM      4  C12 ZIN A   1      18.712   5.963  15.909  0.00  0.00     0.128 C 
ATOM      5  N9  ZIN A   1      18.206   5.501  17.212  0.00  0.00    -0.309 N 
ATOM      6  C5  ZIN A   1      18.443   4.163  17.588  0.00  0.00     0.153 A 
ATOM      7  C4  ZIN A   1      19.403   3.410  16.921  0.00  0.00     0.175 A 
ATOM      8  C6  ZIN A   1      17.724   3.574  18.634  0.00  0.00     0.290 A 
ATOM      9  N3  ZIN A   1      19.622   2.144  17.290  0.00  0.00    -0.045 NA
ATOM     10  N36 ZIN A   1      20.120   3.975  15.881  0.00  0.00    -0.370 N 
ATOM     11  C2  ZIN A   1      18.942   1.596  18.275  0.00  0.00     0.703 A 
ATOM     12  N8  ZIN A   1      17.987   2.288  18.954  0.00  0.00    -0.152 N 
ATOM     13  H39 ZIN A   1      17.499   1.859  19.674  0.00  0.00     0.187 HD
ATOM     14  C35 ZIN A   1      20.145   5.438  15.740  0.00  0.00     0.148 C 
ATOM     15  H55 ZIN A   1      20.601   3.413  15.253  0.00  0.00     0.161 HD
ATOM     16  O7  ZIN A   1      16.872   4.206  19.239  0.00  0.00    -0.265 OA
BRANCH   5  17
ATOM     17  C10 ZIN A   1      17.533   6.336  18.026  0.00  0.00     0.356 C 
ATOM     18  O11 ZIN A   1      18.125   7.215  18.617  0.00  0.00    -0.283 OA
ENDBRANCH   5  17
BRANCH  11  19
ATOM     19  N1  ZIN A   1      19.198   0.295  18.622  0.00  0.00    -0.233 N 
ATOM     20  H37 ZIN A   1      20.112   0.002  18.767  0.00  0.00     0.174 HD
ATOM     21  H38 ZIN A   1      18.466  -0.333  18.725  0.00  0.00     0.174 HD
ENDBRANCH  11  19
ENDBRANCH   3   4
ENDBRANCH   1   3
BRANCH   1  22
ATOM     22  C16 ZIN A   1      18.341   4.082  12.772  0.00  0.00     0.028 A 
ATOM     23  C34 ZIN A   1      18.044   2.838  13.324  0.00  0.00     0.030 A 
ATOM     24  C33 ZIN A   1      17.737   1.775  12.506  0.00  0.00     0.019 A 
ATOM     25  C19 ZIN A   1      17.733   1.942  11.118  0.00  0.00     0.032 A 
ATOM     26  C18 ZIN A   1      18.038   3.190  10.566  0.00  0.00     0.019 A 
ATOM     27  C17 ZIN A   1      18.338   4.250  11.390  0.00  0.00     0.030 A 
BRANCH  25  28
ATOM     28  C20 ZIN A   1      17.411   0.803  10.238  0.00  0.00     0.252 C 
ATOM     29  O21 ZIN A   1      16.646  -0.061  10.618  0.00  0.00    -0.268 OA
ATOM     30  N22 ZIN A   1      17.964   0.722   9.011  0.00  0.00    -0.342 N 
ATOM     31  H46 ZIN A   1      18.574   1.411   8.707  0.00  0.00     0.163 HD
BRANCH  30  32
ATOM     32  C23 ZIN A   1      17.644  -0.409   8.137  0.00  0.00     0.186 C 
BRANCH  32  33
ATOM     33  C25 ZIN A   1      17.471   0.088   6.700  0.00  0.00     0.046 C 
BRANCH  33  34
ATOM     34  C26 ZIN A   1      18.820   0.571   6.162  0.00  0.00     0.116 C 
BRANCH  34  35
ATOM     35  C27 ZIN A   1      19.095  -0.089   4.835  0.00  0.00     0.172 C 
ATOM     36  O28 ZIN A   1      18.411   0.186   3.864  0.00  0.00    -0.648 OA
ATOM     37  O29 ZIN A   1      20.001  -0.899   4.734  0.00  0.00    -0.648 OA
ENDBRANCH  34  35
ENDBRANCH  33  34
ENDBRANCH  32  33
BRANCH  32  38
ATOM     38  C30 ZIN A   1      18.762  -1.417   8.189  0.00  0.00     0.196 C 
ATOM     39  O31 ZIN A   1      18.659  -2.476   7.593  0.00  0.00    -0.646 OA
ATOM     40  O32 ZIN A   1      19.773  -1.174   8.827  0.00  0.00    -0.646 OA
ENDBRANCH  32  38
ENDBRANCH  30  32
ENDBRANCH  25  28
ENDBRANCH   1  22
TORSDOF 11
ENDMDL
MODEL 6
REMARK VINA RESULT:      -8.3      2.550      9.793
REMARK  11 active torsions:
REMARK  status: ('A' for Active; 'I' for Inactive)
REMARK    1  A    between atoms: N1_1  and  C2_2 
REMARK    2  A    between atoms: N9_9  and  C10_10 
REMARK    3  A    between atoms: C12_12  and  C14_13 
REMARK    4  A    between atoms: C14_13  and  N15_14 
REMARK    5  A    between atoms: N15_14  and  C16_15 
REMARK    6  A    between atoms: C19_18  and  C20_19 
REMARK       I    between atoms: C20_19  and  N22_21 
REMARK    7  A    between atoms: N22_21  and  C23_22 
REMARK    8  A    between atoms: C23_22  and  C25_23 
REMARK    9  A    between atoms: C23_22  and  C30_28 
REMARK   10  A    between atoms: C25_23  and  C26_24 
REMARK   11  A    between atoms: C26_24  and  C27_25 
ROOT
ATOM      1  N15 ZIN A   1      16.994   4.513  11.682  0.00  0.00    -0.388 N 
ATOM      2  H43 ZIN A   1      16.511   5.221  11.228  0.00  0.00     0.159 HD
ENDROOT
BRANCH   1   3
ATOM      3  C14 ZIN A   1      17.139   4.541  13.140  0.00  0.00     0.147 C 
BRANCH   3   4
ATOM      4  C12 ZIN A   1      18.321   5.438  13.517  0.00  0.00     0.128 C 
ATOM      5  N9  ZIN A   1      18.153   5.930  14.894  0.00  0.00    -0.309 N 
ATOM      6  C5  ZIN A   1      18.404   5.041  15.960  0.00  0.00     0.153 A 
ATOM      7  C4  ZIN A   1      19.108   3.865  15.736  0.00  0.00     0.175 A 
ATOM      8  C6  ZIN A   1      17.954   5.329  17.254  0.00  0.00     0.290 A 
ATOM      9  N3  ZIN A   1      19.345   3.033  16.757  0.00  0.00    -0.045 NA
ATOM     10  N36 ZIN A   1      19.556   3.562  14.462  0.00  0.00    -0.370 N 
ATOM     11  C2  ZIN A   1      18.919   3.310  17.971  0.00  0.00     0.703 A 
ATOM     12  N8  ZIN A   1      18.219   4.445  18.240  0.00  0.00    -0.152 N 
ATOM     13  H39 ZIN A   1      17.915   4.624  19.144  0.00  0.00     0.187 HD
ATOM     14  C35 ZIN A   1      19.626   4.630  13.456  0.00  0.00     0.148 C 
ATOM     15  H55 ZIN A   1      19.820   2.655  14.237  0.00  0.00     0.161 HD
ATOM     16  O7  ZIN A   1      17.331   6.354  17.485  0.00  0.00    -0.265 OA
BRANCH   5  17
ATOM     17  C10 ZIN A   1      17.768   7.198  15.131  0.00  0.00     0.356 C 
ATOM     18  O11 ZIN A   1      18.532   8.115  14.912  0.00  0.00    -0.283 OA
ENDBRANCH   5  17
BRANCH  11  19
ATOM     19  N1  ZIN A   1      19.183   2.430  18.989  0.00  0.00    -0.233 N 
ATOM     20  H37 ZIN A   1      18.453   1.996  19.457  0.00  0.00     0.174 HD
ATOM     21  H38 ZIN A   1      20.101   2.238  19.238  0.00  0.00     0.174 HD
ENDBRANCH  11  19
ENDBRANCH   3   4
ENDBRANCH   1   3
BRANCH   1  22
ATOM     22  C16 ZIN A   1      17.550   3.471  10.949  0.00  0.00     0.028 A 
ATOM     23  C34 ZIN A   1      18.229   3.740   9.764  0.00  0.00     0.030 A 
ATOM     24  C33 ZIN A   1      18.786   2.711   9.039  0.00  0.00     0.019 A 
ATOM     25  C19 ZIN A   1      18.660   1.393   9.488  0.00  0.00     0.032 A 
ATOM     26  C18 ZIN A   1      17.972   1.126  10.676  0.00  0.00     0.019 A 
ATOM     27  C17 ZIN A   1      17.423   2.160  11.399  0.00  0.00     0.030 A 
BRANCH  25  28
ATOM     28  C20 ZIN A   1      19.249   0.287   8.710  0.00  0.00     0.252 C 
ATOM     29  O21 ZIN A   1      20.233  -0.291   9.127  0.00  0.00    -0.268 OA
ATOM     30  N22 ZIN A   1      18.696  -0.082   7.538  0.00  0.00    -0.342 N 
ATOM     31  H46 ZIN A   1      17.910   0.380   7.205  0.00  0.00     0.163 HD
BRANCH  30  32
ATOM     32  C23 ZIN A   1      19.281  -1.180   6.765  0.00  0.00     0.186 C 
BRANCH  32  33
ATOM     33  C25 ZIN A   1      18.387  -2.416   6.876  0.00  0.00     0.046 C 
BRANCH  33  34
ATOM     34  C26 ZIN A   1      18.911  -3.326   7.990  0.00  0.00     0.116 C 
BRANCH  34  35
ATOM     35  C27 ZIN A   1      17.855  -3.473   9.055  0.00  0.00     0.172 C 
ATOM     36  O28 ZIN A   1      17.872  -2.746  10.034  0.00  0.00    -0.648 OA
ATOM     37  O29 ZIN A   1      16.985  -4.319   8.939  0.00  0.00    -0.648 OA
ENDBRANCH  34  35
ENDBRANCH  33  34
ENDBRANCH  32  33
BRANCH  32  38
ATOM     38  C30 ZIN A   1      19.397  -0.771   5.319  0.00  0.00     0.196 C 
ATOM     39  O31 ZIN A   1      19.094   0.360   4.979  0.00  0.00    -0.646 OA
ATOM     40  O32 ZIN A   1      19.794  -1.571   4.489  0.00  0.00    -0.646 OA
ENDBRANCH  32  38
ENDBRANCH  30  32
ENDBRANCH  25  28
ENDBRANCH   1  22
TORSDOF 11
ENDMDL
MODEL 7
REMARK VINA RESULT:      -8.2      2.550      9.245
REMARK  11 active torsions:
REMARK  status: ('A' for Active; 'I' for Inactive)
REMARK    1  A    between atoms: N1_1  and  C2_2 
REMARK    2  A    between atoms: N9_9  and  C10_10 
REMARK    3  A    between atoms: C12_12  and  C14_13 
REMARK    4  A    between atoms: C14_13  and  N15_14 
REMARK    5  A    between atoms: N15_14  and  C16_15 
REMARK    6  A    between atoms: C19_18  and  C20_19 
REMARK       I    between atoms: C20_19  and  N22_21 
REMARK    7  A    between atoms: N22_21  and  C23_22 
REMARK    8  A    between atoms: C23_22  and  C25_23 
REMARK    9  A    between atoms: C23_22  and  C30_28 
REMARK   10  A    between atoms: C25_23  and  C26_24 
REMARK   11  A    between atoms: C26_24  and  C27_25 
ROOT
ATOM      1  N15 ZIN A   1      18.967   2.525   8.826  0.00  0.00    -0.388 N 
ATOM      2  H43 ZIN A   1      18.814   3.244   8.194  0.00  0.00     0.159 HD
ENDROOT
BRANCH   1   3
ATOM      3  C14 ZIN A   1      19.117   2.822  10.253  0.00  0.00     0.147 C 
BRANCH   3   4
ATOM      4  C12 ZIN A   1      17.740   2.816  10.922  0.00  0.00     0.128 C 
ATOM      5  N9  ZIN A   1      17.791   2.023  12.160  0.00  0.00    -0.309 N 
ATOM      6  C5  ZIN A   1      18.410   2.588  13.294  0.00  0.00     0.153 A 
ATOM      7  C4  ZIN A   1      18.654   3.956  13.347  0.00  0.00     0.175 A 
ATOM      8  C6  ZIN A   1      18.784   1.789  14.380  0.00  0.00     0.290 A 
ATOM      9  N3  ZIN A   1      19.236   4.481  14.431  0.00  0.00    -0.045 NA
ATOM     10  N36 ZIN A   1      18.295   4.761  12.281  0.00  0.00    -0.370 N 
ATOM     11  C2  ZIN A   1      19.585   3.722  15.449  0.00  0.00     0.703 A 
ATOM     12  N8  ZIN A   1      19.376   2.378  15.442  0.00  0.00    -0.152 N 
ATOM     13  H39 ZIN A   1      19.645   1.843  16.205  0.00  0.00     0.187 HD
ATOM     14  C35 ZIN A   1      17.336   4.251  11.291  0.00  0.00     0.148 C 
ATOM     15  H55 ZIN A   1      18.671   5.651  12.188  0.00  0.00     0.161 HD
ATOM     16  O7  ZIN A   1      18.587   0.584  14.365  0.00  0.00    -0.265 OA
BRANCH   5  17
ATOM     17  C10 ZIN A   1      17.260   0.787  12.211  0.00  0.00     0.356 C 
ATOM     18  O11 ZIN A   1      16.393   0.467  11.424  0.00  0.00    -0.283 OA
ENDBRANCH   5  17
BRANCH  11  19
ATOM     19  N1  ZIN A   1      20.180   4.301  16.540  0.00  0.00    -0.233 N 
ATOM     20  H37 ZIN A   1      20.693   3.758  17.158  0.00  0.00     0.174 HD
ATOM     21  H38 ZIN A   1      20.092   5.255  16.691  0.00  0.00     0.174 HD
ENDBRANCH  11  19
ENDBRANCH   3   4
ENDBRANCH   1   3
BRANCH   1  22
ATOM     22  C16 ZIN A   1      19.044   1.211   8.378  0.00  0.00     0.028 A 
ATOM     23  C34 ZIN A   1      18.764   0.913   7.047  0.00  0.00     0.030 A 
ATOM     24  C33 ZIN A   1      18.846  -0.386   6.599  0.00  0.00     0.019 A 
ATOM     25  C19 ZIN A   1      19.199  -1.408   7.485  0.00  0.00     0.032 A 
ATOM     26  C18 ZIN A   1      19.473  -1.106   8.822  0.00  0.00     0.019 A 
ATOM     27  C17 ZIN A   1      19.396   0.195   9.262  0.00  0.00     0.030 A 
BRANCH  25  28
ATOM     28  C20 ZIN A   1      19.280  -2.802   7.009  0.00  0.00     0.252 C 
ATOM     29  O21 ZIN A   1      19.965  -3.076   6.044  0.00  0.00    -0.268 OA
ATOM     30  N22 ZIN A   1      18.595  -3.772   7.647  0.00  0.00    -0.342 N 
ATOM     31  H46 ZIN A   1      18.048  -3.555   8.417  0.00  0.00     0.163 HD
BRANCH  30  32
ATOM     32  C23 ZIN A   1      18.675  -5.157   7.175  0.00  0.00     0.186 C 
BRANCH  32  33
ATOM     33  C25 ZIN A   1      18.914  -6.089   8.365  0.00  0.00     0.046 C 
BRANCH  33  34
ATOM     34  C26 ZIN A   1      19.046  -5.260   9.644  0.00  0.00     0.116 C 
BRANCH  34  35
ATOM     35  C27 ZIN A   1      17.730  -5.260  10.379  0.00  0.00     0.172 C 
ATOM     36  O28 ZIN A   1      17.239  -6.312  10.751  0.00  0.00    -0.648 OA
ATOM     37  O29 ZIN A   1      17.157  -4.207  10.602  0.00  0.00    -0.648 OA
ENDBRANCH  34  35
ENDBRANCH  33  34
ENDBRANCH  32  33
BRANCH  32  38
ATOM     38  C30 ZIN A   1      17.385  -5.531   6.493  0.00  0.00     0.196 C 
ATOM     39  O31 ZIN A   1      16.594  -6.274   7.050  0.00  0.00    -0.646 OA
ATOM     40  O32 ZIN A   1      17.130  -5.091   5.385  0.00  0.00    -0.646 OA
ENDBRANCH  32  38
ENDBRANCH  30  32
ENDBRANCH  25  28
ENDBRANCH   1  22
TORSDOF 11
ENDMDL
MODEL 8
REMARK VINA RESULT:      -8.2      3.167     10.784
REMARK  11 active torsions:
REMARK  status: ('A' for Active; 'I' for Inactive)
REMARK    1  A    between atoms: N1_1  and  C2_2 
REMARK    2  A    between atoms: N9_9  and  C10_10 
REMARK    3  A    between atoms: C12_12  and  C14_13 
REMARK    4  A    between atoms: C14_13  and  N15_14 
REMARK    5  A    between atoms: N15_14  and  C16_15 
REMARK    6  A    between atoms: C19_18  and  C20_19 
REMARK       I    between atoms: C20_19  and  N22_21 
REMARK    7  A    between atoms: N22_21  and  C23_22 
REMARK    8  A    between atoms: C23_22  and  C25_23 
REMARK    9  A    between atoms: C23_22  and  C30_28 
REMARK   10  A    between atoms: C25_23  and  C26_24 
REMARK   11  A    between atoms: C26_24  and  C27_25 
ROOT
ATOM      1  N15 ZIN A   1      19.994  -1.640  13.410  0.00  0.00    -0.388 N 
ATOM      2  H43 ZIN A   1      20.583  -2.141  13.996  0.00  0.00     0.159 HD
ENDROOT
BRANCH   1   3
ATOM      3  C14 ZIN A   1      19.695  -0.234  13.697  0.00  0.00     0.147 C 
BRANCH   3   4
ATOM      4  C12 ZIN A   1      18.358  -0.140  14.437  0.00  0.00     0.128 C 
ATOM      5  N9  ZIN A   1      18.584   0.315  15.818  0.00  0.00    -0.309 N 
ATOM      6  C5  ZIN A   1      18.875   1.677  16.038  0.00  0.00     0.153 A 
ATOM      7  C4  ZIN A   1      18.620   2.614  15.043  0.00  0.00     0.175 A 
ATOM      8  C6  ZIN A   1      19.417   2.107  17.254  0.00  0.00     0.290 A 
ATOM      9  N3  ZIN A   1      18.895   3.903  15.265  0.00  0.00    -0.045 NA
ATOM     10  N36 ZIN A   1      18.089   2.205  13.832  0.00  0.00    -0.370 N 
ATOM     11  C2  ZIN A   1      19.405   4.301  16.412  0.00  0.00     0.703 A 
ATOM     12  N8  ZIN A   1      19.679   3.423  17.414  0.00  0.00    -0.152 N 
ATOM     13  H39 ZIN A   1      20.057   3.743  18.248  0.00  0.00     0.187 HD
ATOM     14  C35 ZIN A   1      17.450   0.885  13.740  0.00  0.00     0.148 C 
ATOM     15  H55 ZIN A   1      18.137   2.783  13.054  0.00  0.00     0.161 HD
ATOM     16  O7  ZIN A   1      19.654   1.310  18.148  0.00  0.00    -0.265 OA
BRANCH   5  17
ATOM     17  C10 ZIN A   1      18.516  -0.549  16.849  0.00  0.00     0.356 C 
ATOM     18  O11 ZIN A   1      18.290  -1.724  16.641  0.00  0.00    -0.283 OA
ENDBRANCH   5  17
BRANCH  11  19
ATOM     19  N1  ZIN A   1      19.672   5.633  16.598  0.00  0.00    -0.233 N 
ATOM     20  H37 ZIN A   1      18.945   6.275  16.625  0.00  0.00     0.174 HD
ATOM     21  H38 ZIN A   1      20.588   5.933  16.708  0.00  0.00     0.174 HD
ENDBRANCH  11  19
ENDBRANCH   3   4
ENDBRANCH   1   3
BRANCH   1  22
ATOM     22  C16 ZIN A   1      19.435  -2.255  12.295  0.00  0.00     0.028 A 
ATOM     23  C34 ZIN A   1      19.739  -1.788  11.019  0.00  0.00     0.030 A 
ATOM     24  C33 ZIN A   1      19.192  -2.398   9.913  0.00  0.00     0.019 A 
ATOM     25  C19 ZIN A   1      18.321  -3.481  10.073  0.00  0.00     0.032 A 
ATOM     26  C18 ZIN A   1      18.014  -3.942  11.356  0.00  0.00     0.019 A 
ATOM     27  C17 ZIN A   1      18.569  -3.332  12.457  0.00  0.00     0.030 A 
BRANCH  25  28
ATOM     28  C20 ZIN A   1      17.728  -4.133   8.890  0.00  0.00     0.252 C 
ATOM     29  O21 ZIN A   1      16.585  -4.544   8.933  0.00  0.00    -0.268 OA
ATOM     30  N22 ZIN A   1      18.453  -4.271   7.763  0.00  0.00    -0.342 N 
ATOM     31  H46 ZIN A   1      19.365  -3.943   7.729  0.00  0.00     0.163 HD
BRANCH  30  32
ATOM     32  C23 ZIN A   1      17.865  -4.919   6.588  0.00  0.00     0.186 C 
BRANCH  32  33
ATOM     33  C25 ZIN A   1      18.256  -4.145   5.328  0.00  0.00     0.046 C 
BRANCH  33  34
ATOM     34  C26 ZIN A   1      19.214  -3.012   5.702  0.00  0.00     0.116 C 
BRANCH  34  35
ATOM     35  C27 ZIN A   1      18.970  -1.830   4.801  0.00  0.00     0.172 C 
ATOM     36  O28 ZIN A   1      19.902  -1.126   4.451  0.00  0.00    -0.648 OA
ATOM     37  O29 ZIN A   1      17.839  -1.576   4.421  0.00  0.00    -0.648 OA
ENDBRANCH  34  35
ENDBRANCH  33  34
ENDBRANCH  32  33
BRANCH  32  38
ATOM     38  C30 ZIN A   1      18.372  -6.334   6.487  0.00  0.00     0.196 C 
ATOM     39  O31 ZIN A   1      18.515  -6.855   5.394  0.00  0.00    -0.646 OA
ATOM     40  O32 ZIN A   1      18.641  -6.960   7.499  0.00  0.00    -0.646 OA
ENDBRANCH  32  38
ENDBRANCH  30  32
ENDBRANCH  25  28
ENDBRANCH   1  22
TORSDOF 11
ENDMDL
MODEL 9
REMARK VINA RESULT:      -8.1      3.067     10.020
REMARK  11 active torsions:
REMARK  status: ('A' for Active; 'I' for Inactive)
REMARK    1  A    between atoms: N1_1  and  C2_2 
REMARK    2  A    between atoms: N9_9  and  C10_10 
REMARK    3  A    between atoms: C12_12  and  C14_13 
REMARK    4  A    between atoms: C14_13  and  N15_14 
REMARK    5  A    between atoms: N15_14  and  C16_15 
REMARK    6  A    between atoms: C19_18  and  C20_19 
REMARK       I    between atoms: C20_19  and  N22_21 
REMARK    7  A    between atoms: N22_21  and  C23_22 
REMARK    8  A    between atoms: C23_22  and  C25_23 
REMARK    9  A    between atoms: C23_22  and  C30_28 
REMARK   10  A    between atoms: C25_23  and  C26_24 
REMARK   11  A    between atoms: C26_24  and  C27_25 
ROOT
ATOM      1  N15 ZIN A   1      18.848   1.791   9.327  0.00  0.00    -0.388 N 
ATOM      2  H43 ZIN A   1      19.018   2.718   9.098  0.00  0.00     0.159 HD
ENDROOT
BRANCH   1   3
ATOM      3  C14 ZIN A   1      18.628   1.408  10.724  0.00  0.00     0.147 C 
BRANCH   3   4
ATOM      4  C12 ZIN A   1      19.813   1.873  11.573  0.00  0.00     0.128 C 
ATOM      5  N9  ZIN A   1      19.327   2.426  12.847  0.00  0.00    -0.309 N 
ATOM      6  C5  ZIN A   1      18.883   1.530  13.842  0.00  0.00     0.153 A 
ATOM      7  C4  ZIN A   1      19.211   0.182  13.762  0.00  0.00     0.175 A 
ATOM      8  C6  ZIN A   1      18.115   1.981  14.922  0.00  0.00     0.290 A 
ATOM      9  N3  ZIN A   1      18.789  -0.657  14.715  0.00  0.00    -0.045 NA
ATOM     10  N36 ZIN A   1      19.965  -0.282  12.699  0.00  0.00    -0.370 N 
ATOM     11  C2  ZIN A   1      18.067  -0.226  15.728  0.00  0.00     0.703 A 
ATOM     12  N8  ZIN A   1      17.714   1.082  15.847  0.00  0.00    -0.152 N 
ATOM     13  H39 ZIN A   1      17.179   1.372  16.603  0.00  0.00     0.187 HD
ATOM     14  C35 ZIN A   1      20.726   0.679  11.889  0.00  0.00     0.148 C 
ATOM     15  H55 ZIN A   1      19.992  -1.230  12.492  0.00  0.00     0.161 HD
ATOM     16  O7  ZIN A   1      17.809   3.159  15.021  0.00  0.00    -0.265 OA
BRANCH   5  17
ATOM     17  C10 ZIN A   1      19.304   3.756  13.059  0.00  0.00     0.356 C 
ATOM     18  O11 ZIN A   1      19.693   4.514  12.194  0.00  0.00    -0.283 OA
ENDBRANCH   5  17
BRANCH  11  19
ATOM     19  N1  ZIN A   1      17.655  -1.120  16.683  0.00  0.00    -0.233 N 
ATOM     20  H37 ZIN A   1      16.791  -1.011  17.109  0.00  0.00     0.174 HD
ATOM     21  H38 ZIN A   1      18.227  -1.864  16.930  0.00  0.00     0.174 HD
ENDBRANCH  11  19
ENDBRANCH   3   4
ENDBRANCH   1   3
BRANCH   1  22
ATOM     22  C16 ZIN A   1      18.815   0.824   8.329  0.00  0.00     0.028 A 
ATOM     23  C34 ZIN A   1      18.862   1.205   6.990  0.00  0.00     0.030 A 
ATOM     24  C33 ZIN A   1      18.835   0.250   5.999  0.00  0.00     0.019 A 
ATOM     25  C19 ZIN A   1      18.748  -1.105   6.338  0.00  0.00     0.032 A 
ATOM     26  C18 ZIN A   1      18.694  -1.483   7.683  0.00  0.00     0.019 A 
ATOM     27  C17 ZIN A   1      18.728  -0.523   8.669  0.00  0.00     0.030 A 
BRANCH  25  28
ATOM     28  C20 ZIN A   1      18.712  -2.130   5.279  0.00  0.00     0.252 C 
ATOM     29  O21 ZIN A   1      19.503  -2.080   4.358  0.00  0.00    -0.268 OA
ATOM     30  N22 ZIN A   1      17.803  -3.124   5.334  0.00  0.00    -0.342 N 
ATOM     31  H46 ZIN A   1      17.172  -3.164   6.070  0.00  0.00     0.163 HD
BRANCH  30  32
ATOM     32  C23 ZIN A   1      17.767  -4.143   4.282  0.00  0.00     0.186 C 
BRANCH  32  33
ATOM     33  C25 ZIN A   1      17.881  -5.532   4.913  0.00  0.00     0.046 C 
BRANCH  33  34
ATOM     34  C26 ZIN A   1      17.878  -5.402   6.437  0.00  0.00     0.116 C 
BRANCH  34  35
ATOM     35  C27 ZIN A   1      18.254  -6.725   7.054  0.00  0.00     0.172 C 
ATOM     36  O28 ZIN A   1      18.104  -7.757   6.422  0.00  0.00    -0.648 OA
ATOM     37  O29 ZIN A   1      18.707  -6.763   8.185  0.00  0.00    -0.648 OA
ENDBRANCH  34  35
ENDBRANCH  33  34
ENDBRANCH  32  33
BRANCH  32  38
ATOM     38  C30 ZIN A   1      16.468  -4.038   3.526  0.00  0.00     0.196 C 
ATOM     39  O31 ZIN A   1      16.445  -3.527   2.419  0.00  0.00    -0.646 OA
ATOM     40  O32 ZIN A   1      15.438  -4.467   4.020  0.00  0.00    -0.646 OA
ENDBRANCH  32  38
ENDBRANCH  30  32
ENDBRANCH  25  28
ENDBRANCH   1  22
TORSDOF 11
ENDMDL
