MODEL 1
REMARK VINA RESULT:      -7.2      0.000      0.000
REMARK  4 active torsions:
REMARK  status: ('A' for Active; 'I' for Inactive)
REMARK    1  A    between atoms: C2_2  and  C4_3 
REMARK    2  A    between atoms: C2_2  and  C20_19 
REMARK    3  A    between atoms: C4_3  and  N5_4 
REMARK    4  A    between atoms: C20_19  and  N21_20 
ROOT
ATOM      1  N5  ZIN A   1      18.904   1.873  10.890  0.00  0.00    -0.346 N 
ATOM      2  C6  ZIN A   1      18.605   1.341   9.631  0.00  0.00     0.041 A 
ATOM      3  C7  ZIN A   1      19.390   1.744   8.555  0.00  0.00     0.030 A 
ATOM      4  C8  ZIN A   1      19.168   1.232   7.294  0.00  0.00     0.002 A 
ATOM      5  C9  ZIN A   1      18.156   0.306   7.111  0.00  0.00     0.001 A 
ATOM      6  C10 ZIN A   1      17.371  -0.082   8.172  0.00  0.00     0.009 A 
ATOM      7  C11 ZIN A   1      17.567   0.439   9.453  0.00  0.00    -0.031 A 
ATOM      8  C12 ZIN A   1      16.568  -0.034  10.486  0.00  0.00     0.045 C 
ATOM      9  C13 ZIN A   1      16.771   0.609  11.847  0.00  0.00     0.045 C 
ATOM     10  C14 ZIN A   1      18.123   0.265  12.418  0.00  0.00    -0.031 A 
ATOM     11  C15 ZIN A   1      18.301  -0.702  13.380  0.00  0.00     0.009 A 
ATOM     12  C16 ZIN A   1      19.580  -0.930  13.868  0.00  0.00     0.001 A 
ATOM     13  C17 ZIN A   1      20.652  -0.196  13.395  0.00  0.00     0.002 A 
ATOM     14  C18 ZIN A   1      20.465   0.770  12.418  0.00  0.00     0.030 A 
ATOM     15  C19 ZIN A   1      19.192   0.979  11.929  0.00  0.00     0.041 A 
ENDROOT
BRANCH   1  16
ATOM     16  C4  ZIN A   1      18.922   3.321  11.113  0.00  0.00     0.135 C 
BRANCH  16  17
ATOM     17  C2  ZIN A   1      17.486   3.839  11.218  0.00  0.00     0.026 C 
ATOM     18  C1  ZIN A   1      17.306   5.036  10.281  0.00  0.00     0.013 C 
BRANCH  17  19
ATOM     19  C20 ZIN A   1      17.202   4.270  12.657  0.00  0.00     0.239 C 
BRANCH  19  20
ATOM     20  N21 ZIN A   1      18.433   4.162  13.453  0.00  0.00    -0.078 N 
ATOM     21  H22 ZIN A   1      19.167   3.770  12.884  0.00  0.00     0.278 HD
ATOM     22  C23 ZIN A   1      18.833   5.497  13.919  0.00  0.00     0.269 C 
ATOM     23  C24 ZIN A   1      18.192   3.292  14.611  0.00  0.00     0.269 C 
ENDBRANCH  19  20
ENDBRANCH  17  19
ENDBRANCH  16  17
ENDBRANCH   1  16
TORSDOF 4
ENDMDL
MODEL 2
REMARK VINA RESULT:      -6.7      2.144      4.777
REMARK  4 active torsions:
REMARK  status: ('A' for Active; 'I' for Inactive)
REMARK    1  A    between atoms: C2_2  and  C4_3 
REMARK    2  A    between atoms: C2_2  and  C20_19 
REMARK    3  A    between atoms: C4_3  and  N5_4 
REMARK    4  A    between atoms: C20_19  and  N21_20 
ROOT
ATOM      1  N5  ZIN A   1      17.720  -0.581  10.588  0.00  0.00    -0.346 N 
ATOM      2  C6  ZIN A   1      18.280  -1.800  10.988  0.00  0.00     0.041 A 
ATOM      3  C7  ZIN A   1      17.414  -2.790  11.445  0.00  0.00     0.030 A 
ATOM      4  C8  ZIN A   1      17.899  -4.025  11.822  0.00  0.00     0.002 A 
ATOM      5  C9  ZIN A   1      19.258  -4.271  11.737  0.00  0.00     0.001 A 
ATOM      6  C10 ZIN A   1      20.115  -3.288  11.298  0.00  0.00     0.009 A 
ATOM      7  C11 ZIN A   1      19.646  -2.025  10.929  0.00  0.00    -0.031 A 
ATOM      8  C12 ZIN A   1      20.727  -1.038  10.546  0.00  0.00     0.045 C 
ATOM      9  C13 ZIN A   1      20.185   0.342  10.221  0.00  0.00     0.045 C 
ATOM     10  C14 ZIN A   1      19.253   0.298   9.037  0.00  0.00    -0.031 A 
ATOM     11  C15 ZIN A   1      19.638   0.677   7.772  0.00  0.00     0.009 A 
ATOM     12  C16 ZIN A   1      18.702   0.630   6.748  0.00  0.00     0.001 A 
ATOM     13  C17 ZIN A   1      17.408   0.213   6.999  0.00  0.00     0.002 A 
ATOM     14  C18 ZIN A   1      17.031  -0.175   8.275  0.00  0.00     0.030 A 
ATOM     15  C19 ZIN A   1      17.972  -0.140   9.284  0.00  0.00     0.041 A 
ENDROOT
BRANCH   1  16
ATOM     16  C4  ZIN A   1      16.890   0.205  11.504  0.00  0.00     0.135 C 
BRANCH  16  17
ATOM     17  C2  ZIN A   1      17.789   0.961  12.485  0.00  0.00     0.026 C 
ATOM     18  C1  ZIN A   1      17.484   0.505  13.913  0.00  0.00     0.013 C 
BRANCH  17  19
ATOM     19  C20 ZIN A   1      17.528   2.464  12.363  0.00  0.00     0.239 C 
BRANCH  19  20
ATOM     20  N21 ZIN A   1      18.580   3.079  11.542  0.00  0.00    -0.078 N 
ATOM     21  H22 ZIN A   1      19.288   2.391  11.333  0.00  0.00     0.278 HD
ATOM     22  C23 ZIN A   1      17.996   3.578  10.290  0.00  0.00     0.269 C 
ATOM     23  C24 ZIN A   1      19.185   4.196  12.280  0.00  0.00     0.269 C 
ENDBRANCH  19  20
ENDBRANCH  17  19
ENDBRANCH  16  17
ENDBRANCH   1  16
TORSDOF 4
ENDMDL
MODEL 3
REMARK VINA RESULT:      -6.6      2.594      3.948
REMARK  4 active torsions:
REMARK  status: ('A' for Active; 'I' for Inactive)
REMARK    1  A    between atoms: C2_2  and  C4_3 
REMARK    2  A    between atoms: C2_2  and  C20_19 
REMARK    3  A    between atoms: C4_3  and  N5_4 
REMARK    4  A    between atoms: C20_19  and  N21_20 
ROOT
ATOM      1  N5  ZIN A   1      19.207  -0.183  12.830  0.00  0.00    -0.346 N 
ATOM      2  C6  ZIN A   1      19.033   0.903  11.964  0.00  0.00     0.041 A 
ATOM      3  C7  ZIN A   1      20.066   1.831  11.878  0.00  0.00     0.030 A 
ATOM      4  C8  ZIN A   1      19.971   2.906  11.018  0.00  0.00     0.002 A 
ATOM      5  C9  ZIN A   1      18.837   3.048  10.239  0.00  0.00     0.001 A 
ATOM      6  C10 ZIN A   1      17.810   2.138  10.334  0.00  0.00     0.009 A 
ATOM      7  C11 ZIN A   1      17.879   1.053  11.212  0.00  0.00    -0.031 A 
ATOM      8  C12 ZIN A   1      16.634   0.194  11.251  0.00  0.00     0.045 C 
ATOM      9  C13 ZIN A   1      16.720  -0.931  12.267  0.00  0.00     0.045 C 
ATOM     10  C14 ZIN A   1      17.845  -1.880  11.939  0.00  0.00    -0.031 A 
ATOM     11  C15 ZIN A   1      17.640  -3.094  11.325  0.00  0.00     0.009 A 
ATOM     12  C16 ZIN A   1      18.734  -3.914  11.088  0.00  0.00     0.001 A 
ATOM     13  C17 ZIN A   1      20.003  -3.517  11.465  0.00  0.00     0.002 A 
ATOM     14  C18 ZIN A   1      20.202  -2.288  12.075  0.00  0.00     0.030 A 
ATOM     15  C19 ZIN A   1      19.110  -1.473  12.293  0.00  0.00     0.041 A 
ENDROOT
BRANCH   1  16
ATOM     16  C4  ZIN A   1      19.488   0.023  14.253  0.00  0.00     0.135 C 
BRANCH  16  17
ATOM     17  C2  ZIN A   1      18.352   0.829  14.886  0.00  0.00     0.026 C 
ATOM     18  C1  ZIN A   1      18.865   2.217  15.274  0.00  0.00     0.013 C 
BRANCH  17  19
ATOM     19  C20 ZIN A   1      17.846   0.105  16.135  0.00  0.00     0.239 C 
BRANCH  19  20
ATOM     20  N21 ZIN A   1      18.475   0.687  17.328  0.00  0.00    -0.078 N 
ATOM     21  H22 ZIN A   1      19.024   1.490  17.059  0.00  0.00     0.278 HD
ATOM     22  C23 ZIN A   1      17.434   1.101  18.278  0.00  0.00     0.269 C 
ATOM     23  C24 ZIN A   1      19.345  -0.313  17.960  0.00  0.00     0.269 C 
ENDBRANCH  19  20
ENDBRANCH  17  19
ENDBRANCH  16  17
ENDBRANCH   1  16
TORSDOF 4
ENDMDL
MODEL 4
REMARK VINA RESULT:      -6.5      2.852      6.570
REMARK  4 active torsions:
REMARK  status: ('A' for Active; 'I' for Inactive)
REMARK    1  A    between atoms: C2_2  and  C4_3 
REMARK    2  A    between atoms: C2_2  and  C20_19 
REMARK    3  A    between atoms: C4_3  and  N5_4 
REMARK    4  A    between atoms: C20_19  and  N21_20 
ROOT
ATOM      1  N5  ZIN A   1      18.836  -1.629  11.524  0.00  0.00    -0.346 N 
ATOM      2  C6  ZIN A   1      18.667  -1.176  12.837  0.00  0.00     0.041 A 
ATOM      3  C7  ZIN A   1      19.557  -1.641  13.801  0.00  0.00     0.030 A 
ATOM      4  C8  ZIN A   1      19.465  -1.207  15.107  0.00  0.00     0.002 A 
ATOM      5  C9  ZIN A   1      18.478  -0.299  15.448  0.00  0.00     0.001 A 
ATOM      6  C10 ZIN A   1      17.590   0.150  14.499  0.00  0.00     0.009 A 
ATOM      7  C11 ZIN A   1      17.655  -0.291  13.175  0.00  0.00    -0.031 A 
ATOM      8  C12 ZIN A   1      16.557   0.239  12.279  0.00  0.00     0.045 C 
ATOM      9  C13 ZIN A   1      16.619  -0.318  10.868  0.00  0.00     0.045 C 
ATOM     10  C14 ZIN A   1      17.907   0.066  10.185  0.00  0.00    -0.031 A 
ATOM     11  C15 ZIN A   1      17.988   1.091   9.270  0.00  0.00     0.009 A 
ATOM     12  C16 ZIN A   1      19.212   1.354   8.671  0.00  0.00     0.001 A 
ATOM     13  C17 ZIN A   1      20.325   0.598   8.986  0.00  0.00     0.002 A 
ATOM     14  C18 ZIN A   1      20.236  -0.427   9.916  0.00  0.00     0.030 A 
ATOM     15  C19 ZIN A   1      19.019  -0.672  10.518  0.00  0.00     0.041 A 
ENDROOT
BRANCH   1  16
ATOM     16  C4  ZIN A   1      18.829  -3.060  11.212  0.00  0.00     0.135 C 
BRANCH  16  17
ATOM     17  C2  ZIN A   1      17.424  -3.480  10.776  0.00  0.00     0.026 C 
ATOM     18  C1  ZIN A   1      16.978  -4.696  11.590  0.00  0.00     0.013 C 
BRANCH  17  19
ATOM     19  C20 ZIN A   1      17.436  -3.839   9.289  0.00  0.00     0.239 C 
BRANCH  19  20
ATOM     20  N21 ZIN A   1      18.825  -3.974   8.829  0.00  0.00    -0.078 N 
ATOM     21  H22 ZIN A   1      19.451  -3.681   9.563  0.00  0.00     0.278 HD
ATOM     22  C23 ZIN A   1      19.093  -5.378   8.488  0.00  0.00     0.269 C 
ATOM     23  C24 ZIN A   1      19.031  -3.134   7.642  0.00  0.00     0.269 C 
ENDBRANCH  19  20
ENDBRANCH  17  19
ENDBRANCH  16  17
ENDBRANCH   1  16
TORSDOF 4
ENDMDL
MODEL 5
REMARK VINA RESULT:      -6.5      3.344      6.273
REMARK  4 active torsions:
REMARK  status: ('A' for Active; 'I' for Inactive)
REMARK    1  A    between atoms: C2_2  and  C4_3 
REMARK    2  A    between atoms: C2_2  and  C20_19 
REMARK    3  A    between atoms: C4_3  and  N5_4 
REMARK    4  A    between atoms: C20_19  and  N21_20 
ROOT
ATOM      1  N5  ZIN A   1      18.522  -2.215   9.737  0.00  0.00    -0.346 N 
ATOM      2  C6  ZIN A   1      18.169  -1.193  10.625  0.00  0.00     0.041 A 
ATOM      3  C7  ZIN A   1      17.476  -0.101  10.111  0.00  0.00     0.030 A 
ATOM      4  C8  ZIN A   1      17.070   0.924  10.940  0.00  0.00     0.002 A 
ATOM      5  C9  ZIN A   1      17.357   0.853  12.292  0.00  0.00     0.001 A 
ATOM      6  C10 ZIN A   1      18.054  -0.220  12.797  0.00  0.00     0.009 A 
ATOM      7  C11 ZIN A   1      18.490  -1.259  11.972  0.00  0.00    -0.031 A 
ATOM      8  C12 ZIN A   1      19.309  -2.320  12.674  0.00  0.00     0.045 C 
ATOM      9  C13 ZIN A   1      19.825  -3.393  11.731  0.00  0.00     0.045 C 
ATOM     10  C14 ZIN A   1      18.688  -4.139  11.079  0.00  0.00    -0.031 A 
ATOM     11  C15 ZIN A   1      18.274  -5.382  11.499  0.00  0.00     0.009 A 
ATOM     12  C16 ZIN A   1      17.237  -6.004  10.818  0.00  0.00     0.001 A 
ATOM     13  C17 ZIN A   1      16.636  -5.387   9.737  0.00  0.00     0.002 A 
ATOM     14  C18 ZIN A   1      17.054  -4.130   9.326  0.00  0.00     0.030 A 
ATOM     15  C19 ZIN A   1      18.076  -3.512  10.018  0.00  0.00     0.041 A 
ENDROOT
BRANCH   1  16
ATOM     16  C4  ZIN A   1      19.328  -1.936   8.546  0.00  0.00     0.135 C 
BRANCH  16  17
ATOM     17  C2  ZIN A   1      18.558  -2.370   7.297  0.00  0.00     0.026 C 
ATOM     18  C1  ZIN A   1      19.485  -3.165   6.376  0.00  0.00     0.013 C 
BRANCH  17  19
ATOM     19  C20 ZIN A   1      18.044  -1.132   6.558  0.00  0.00     0.239 C 
BRANCH  19  20
ATOM     20  N21 ZIN A   1      19.171  -0.240   6.253  0.00  0.00    -0.078 N 
ATOM     21  H22 ZIN A   1      20.021  -0.634   6.626  0.00  0.00     0.278 HD
ATOM     22  C23 ZIN A   1      19.297  -0.091   4.797  0.00  0.00     0.269 C 
ATOM     23  C24 ZIN A   1      18.932   1.075   6.862  0.00  0.00     0.269 C 
ENDBRANCH  19  20
ENDBRANCH  17  19
ENDBRANCH  16  17
ENDBRANCH   1  16
TORSDOF 4
ENDMDL
MODEL 6
REMARK VINA RESULT:      -6.5      2.902      5.658
REMARK  4 active torsions:
REMARK  status: ('A' for Active; 'I' for Inactive)
REMARK    1  A    between atoms: C2_2  and  C4_3 
REMARK    2  A    between atoms: C2_2  and  C20_19 
REMARK    3  A    between atoms: C4_3  and  N5_4 
REMARK    4  A    between atoms: C20_19  and  N21_20 
ROOT
ATOM      1  N5  ZIN A   1      18.887  -1.441   8.785  0.00  0.00    -0.346 N 
ATOM      2  C6  ZIN A   1      18.405  -2.548   9.493  0.00  0.00     0.041 A 
ATOM      3  C7  ZIN A   1      17.837  -2.318  10.743  0.00  0.00     0.030 A 
ATOM      4  C8  ZIN A   1      17.313  -3.362  11.477  0.00  0.00     0.002 A 
ATOM      5  C9  ZIN A   1      17.356  -4.642  10.953  0.00  0.00     0.001 A 
ATOM      6  C10 ZIN A   1      17.929  -4.871   9.724  0.00  0.00     0.009 A 
ATOM      7  C11 ZIN A   1      18.481  -3.831   8.973  0.00  0.00    -0.031 A 
ATOM      8  C12 ZIN A   1      19.141  -4.265   7.683  0.00  0.00     0.045 C 
ATOM      9  C13 ZIN A   1      19.791  -3.117   6.931  0.00  0.00     0.045 C 
ATOM     10  C14 ZIN A   1      18.772  -2.083   6.525  0.00  0.00    -0.031 A 
ATOM     11  C15 ZIN A   1      18.263  -1.998   5.250  0.00  0.00     0.009 A 
ATOM     12  C16 ZIN A   1      17.349  -0.994   4.962  0.00  0.00     0.001 A 
ATOM     13  C17 ZIN A   1      16.962  -0.096   5.938  0.00  0.00     0.002 A 
ATOM     14  C18 ZIN A   1      17.473  -0.194   7.223  0.00  0.00     0.030 A 
ATOM     15  C19 ZIN A   1      18.369  -1.204   7.505  0.00  0.00     0.041 A 
ENDROOT
BRANCH   1  16
ATOM     16  C4  ZIN A   1      19.895  -0.553   9.367  0.00  0.00     0.135 C 
BRANCH  16  17
ATOM     17  C2  ZIN A   1      19.201   0.602  10.091  0.00  0.00     0.026 C 
ATOM     18  C1  ZIN A   1      19.296   1.870   9.239  0.00  0.00     0.013 C 
BRANCH  17  19
ATOM     19  C20 ZIN A   1      19.881   0.843  11.440  0.00  0.00     0.239 C 
BRANCH  19  20
ATOM     20  N21 ZIN A   1      19.014   0.352  12.520  0.00  0.00    -0.078 N 
ATOM     21  H22 ZIN A   1      18.810  -0.624  12.370  0.00  0.00     0.278 HD
ATOM     22  C23 ZIN A   1      19.698   0.516  13.810  0.00  0.00     0.269 C 
ATOM     23  C24 ZIN A   1      17.762   1.119  12.529  0.00  0.00     0.269 C 
ENDBRANCH  19  20
ENDBRANCH  17  19
ENDBRANCH  16  17
ENDBRANCH   1  16
TORSDOF 4
ENDMDL
MODEL 7
REMARK VINA RESULT:      -6.4      2.709      4.892
REMARK  4 active torsions:
REMARK  status: ('A' for Active; 'I' for Inactive)
REMARK    1  A    between atoms: C2_2  and  C4_3 
REMARK    2  A    between atoms: C2_2  and  C20_19 
REMARK    3  A    between atoms: C4_3  and  N5_4 
REMARK    4  A    between atoms: C20_19  and  N21_20 
ROOT
ATOM      1  N5  ZIN A   1      18.179  -0.031  12.522  0.00  0.00    -0.346 N 
ATOM      2  C6  ZIN A   1      18.405  -1.225  11.828  0.00  0.00     0.041 A 
ATOM      3  C7  ZIN A   1      17.373  -2.158  11.792  0.00  0.00     0.030 A 
ATOM      4  C8  ZIN A   1      17.520  -3.340  11.097  0.00  0.00     0.002 A 
ATOM      5  C9  ZIN A   1      18.708  -3.587  10.432  0.00  0.00     0.001 A 
ATOM      6  C10 ZIN A   1      19.734  -2.671  10.479  0.00  0.00     0.009 A 
ATOM      7  C11 ZIN A   1      19.611  -1.477  11.192  0.00  0.00    -0.031 A 
ATOM      8  C12 ZIN A   1      20.858  -0.620  11.207  0.00  0.00     0.045 C 
ATOM      9  C13 ZIN A   1      20.708   0.634  12.050  0.00  0.00     0.045 C 
ATOM     10  C14 ZIN A   1      19.620   1.528  11.512  0.00  0.00    -0.031 A 
ATOM     11  C15 ZIN A   1      19.882   2.646  10.755  0.00  0.00     0.009 A 
ATOM     12  C16 ZIN A   1      18.817   3.426  10.326  0.00  0.00     0.001 A 
ATOM     13  C17 ZIN A   1      17.519   3.084  10.658  0.00  0.00     0.002 A 
ATOM     14  C18 ZIN A   1      17.264   1.950  11.414  0.00  0.00     0.030 A 
ATOM     15  C19 ZIN A   1      18.328   1.173  11.823  0.00  0.00     0.041 A 
ENDROOT
BRANCH   1  16
ATOM     16  C4  ZIN A   1      17.790  -0.040  13.934  0.00  0.00     0.135 C 
BRANCH  16  17
ATOM     17  C2  ZIN A   1      19.042  -0.151  14.807  0.00  0.00     0.026 C 
ATOM     18  C1  ZIN A   1      19.255  -1.612  15.211  0.00  0.00     0.013 C 
BRANCH  17  19
ATOM     19  C20 ZIN A   1      18.867   0.704  16.063  0.00  0.00     0.239 C 
BRANCH  19  20
ATOM     20  N21 ZIN A   1      18.378  -0.136  17.165  0.00  0.00    -0.078 N 
ATOM     21  H22 ZIN A   1      18.402  -1.104  16.884  0.00  0.00     0.278 HD
ATOM     22  C23 ZIN A   1      19.236   0.053  18.342  0.00  0.00     0.269 C 
ATOM     23  C24 ZIN A   1      17.000   0.245  17.497  0.00  0.00     0.269 C 
ENDBRANCH  19  20
ENDBRANCH  17  19
ENDBRANCH  16  17
ENDBRANCH   1  16
TORSDOF 4
ENDMDL
MODEL 8
REMARK VINA RESULT:      -6.4      2.591      5.187
REMARK  4 active torsions:
REMARK  status: ('A' for Active; 'I' for Inactive)
REMARK    1  A    between atoms: C2_2  and  C4_3 
REMARK    2  A    between atoms: C2_2  and  C20_19 
REMARK    3  A    between atoms: C4_3  and  N5_4 
REMARK    4  A    between atoms: C20_19  and  N21_20 
ROOT
ATOM      1  N5  ZIN A   1      18.707   3.252  14.069  0.00  0.00    -0.346 N 
ATOM      2  C6  ZIN A   1      18.634   1.856  14.137  0.00  0.00     0.041 A 
ATOM      3  C7  ZIN A   1      18.057   1.293  15.272  0.00  0.00     0.030 A 
ATOM      4  C8  ZIN A   1      17.925  -0.075  15.385  0.00  0.00     0.002 A 
ATOM      5  C9  ZIN A   1      18.369  -0.883  14.354  0.00  0.00     0.001 A 
ATOM      6  C10 ZIN A   1      18.952  -0.328  13.238  0.00  0.00     0.009 A 
ATOM      7  C11 ZIN A   1      19.111   1.054  13.112  0.00  0.00    -0.031 A 
ATOM      8  C12 ZIN A   1      19.841   1.493  11.861  0.00  0.00     0.045 C 
ATOM      9  C13 ZIN A   1      20.058   2.995  11.795  0.00  0.00     0.045 C 
ATOM     10  C14 ZIN A   1      18.745   3.736  11.769  0.00  0.00    -0.031 A 
ATOM     11  C15 ZIN A   1      18.202   4.246  10.612  0.00  0.00     0.009 A 
ATOM     12  C16 ZIN A   1      17.002   4.940  10.689  0.00  0.00     0.001 A 
ATOM     13  C17 ZIN A   1      16.369   5.115  11.906  0.00  0.00     0.002 A 
ATOM     14  C18 ZIN A   1      16.920   4.590  13.065  0.00  0.00     0.030 A 
ATOM     15  C19 ZIN A   1      18.105   3.888  12.977  0.00  0.00     0.041 A 
ENDROOT
BRANCH   1  16
ATOM     16  C4  ZIN A   1      19.385   4.024  15.113  0.00  0.00     0.135 C 
BRANCH  16  17
ATOM     17  C2  ZIN A   1      19.091   5.513  14.918  0.00  0.00     0.026 C 
ATOM     18  C1  ZIN A   1      20.377   6.240  14.518  0.00  0.00     0.013 C 
BRANCH  17  19
ATOM     19  C20 ZIN A   1      18.557   6.103  16.225  0.00  0.00     0.239 C 
BRANCH  19  20
ATOM     20  N21 ZIN A   1      17.331   5.395  16.618  0.00  0.00    -0.078 N 
ATOM     21  H22 ZIN A   1      17.260   4.534  16.098  0.00  0.00     0.278 HD
ATOM     22  C23 ZIN A   1      17.378   5.097  18.056  0.00  0.00     0.269 C 
ATOM     23  C24 ZIN A   1      16.165   6.240  16.331  0.00  0.00     0.269 C 
ENDBRANCH  19  20
ENDBRANCH  17  19
ENDBRANCH  16  17
ENDBRANCH   1  16
TORSDOF 4
ENDMDL
MODEL 9
REMARK VINA RESULT:      -6.3      2.276      5.714
REMARK  4 active torsions:
REMARK  status: ('A' for Active; 'I' for Inactive)
REMARK    1  A    between atoms: C2_2  and  C4_3 
REMARK    2  A    between atoms: C2_2  and  C20_19 
REMARK    3  A    between atoms: C4_3  and  N5_4 
REMARK    4  A    between atoms: C20_19  and  N21_20 
ROOT
ATOM      1  N5  ZIN A   1      19.043   0.185   9.832  0.00  0.00    -0.346 N 
ATOM      2  C6  ZIN A   1      18.964   1.459  10.404  0.00  0.00     0.041 A 
ATOM      3  C7  ZIN A   1      18.101   2.380   9.816  0.00  0.00     0.030 A 
ATOM      4  C8  ZIN A   1      17.952   3.642  10.352  0.00  0.00     0.002 A 
ATOM      5  C9  ZIN A   1      18.668   3.982  11.486  0.00  0.00     0.001 A 
ATOM      6  C10 ZIN A   1      19.531   3.077  12.060  0.00  0.00     0.009 A 
ATOM      7  C11 ZIN A   1      19.710   1.800  11.522  0.00  0.00    -0.031 A 
ATOM      8  C12 ZIN A   1      20.752   0.959  12.226  0.00  0.00     0.045 C 
ATOM      9  C13 ZIN A   1      20.968  -0.393  11.570  0.00  0.00     0.045 C 
ATOM     10  C14 ZIN A   1      19.709  -1.221  11.595  0.00  0.00    -0.031 A 
ATOM     11  C15 ZIN A   1      19.500  -2.232  12.505  0.00  0.00     0.009 A 
ATOM     12  C16 ZIN A   1      18.321  -2.960  12.433  0.00  0.00     0.001 A 
ATOM     13  C17 ZIN A   1      17.377  -2.674  11.464  0.00  0.00     0.002 A 
ATOM     14  C18 ZIN A   1      17.592  -1.648  10.558  0.00  0.00     0.030 A 
ATOM     15  C19 ZIN A   1      18.760  -0.919  10.645  0.00  0.00     0.041 A 
ENDROOT
BRANCH   1  16
ATOM     16  C4  ZIN A   1      19.403   0.011   8.422  0.00  0.00     0.135 C 
BRANCH  16  17
ATOM     17  C2  ZIN A   1      18.459  -1.005   7.776  0.00  0.00     0.026 C 
ATOM     18  C1  ZIN A   1      19.252  -2.247   7.362  0.00  0.00     0.013 C 
BRANCH  17  19
ATOM     19  C20 ZIN A   1      17.805  -0.382   6.542  0.00  0.00     0.239 C 
BRANCH  19  20
ATOM     20  N21 ZIN A   1      18.486  -0.861   5.332  0.00  0.00    -0.078 N 
ATOM     21  H22 ZIN A   1      19.112  -1.613   5.575  0.00  0.00     0.278 HD
ATOM     22  C23 ZIN A   1      17.489  -1.345   4.368  0.00  0.00     0.269 C 
ATOM     23  C24 ZIN A   1      19.252   0.240   4.733  0.00  0.00     0.269 C 
ENDBRANCH  19  20
ENDBRANCH  17  19
ENDBRANCH  16  17
ENDBRANCH   1  16
TORSDOF 4
ENDMDL
