MODEL 1
REMARK VINA RESULT:      -9.9      0.000      0.000
REMARK  3 active torsions:
REMARK  status: ('A' for Active; 'I' for Inactive)
REMARK    1  A    between atoms: C5_5  and  N6_6 
REMARK    2  A    between atoms: C11_11  and  C12_12 
REMARK       I    between atoms: C12_12  and  N14_14 
REMARK    3  A    between atoms: N17_17  and  C18_18 
ROOT
ATOM      1  C12 ZIN A   1      18.332   2.539  14.009  0.00  0.00     0.256 C 
ATOM      2  O13 ZIN A   1      17.623   3.478  13.704  0.00  0.00    -0.267 OA
ATOM      3  N14 ZIN A   1      19.197   2.029  13.109  0.00  0.00    -0.342 N 
ATOM      4  C15 ZIN A   1      19.950   0.808  13.466  0.00  0.00     0.141 C 
ATOM      5  C16 ZIN A   1      20.022  -0.178  12.286  0.00  0.00     0.119 C 
ATOM      6  N17 ZIN A   1      18.751  -0.205  11.595  0.00  0.00    -0.245 NA
ATOM      7  C28 ZIN A   1      18.756   0.728  10.467  0.00  0.00     0.101 C 
ATOM      8  C29 ZIN A   1      18.350   2.104  10.814  0.00  0.00     0.040 C 
ATOM      9  C30 ZIN A   1      19.345   2.698  11.835  0.00  0.00     0.084 C 
ATOM     10  C32 ZIN A   1      19.062   4.192  12.011  0.00  0.00     0.032 C 
ENDROOT
BRANCH   1  11
ATOM     11  C11 ZIN A   1      18.245   1.956  15.363  0.00  0.00     0.063 A 
ATOM     12  C5  ZIN A   1      18.672   2.694  16.476  0.00  0.00     0.094 A 
ATOM     13  C4  ZIN A   1      18.587   2.136  17.743  0.00  0.00     0.035 A 
ATOM     14  C3  ZIN A   1      18.083   0.859  17.905  0.00  0.00     0.009 A 
ATOM     15  C2  ZIN A   1      17.661   0.128  16.808  0.00  0.00    -0.061 A 
ATOM     16  C1  ZIN A   1      17.113  -1.262  16.999  0.00  0.00     0.048 C 
ATOM     17  C33 ZIN A   1      17.744   0.666  15.540  0.00  0.00     0.026 A 
BRANCH  12  18
ATOM     18  N6  ZIN A   1      19.181   3.985  16.309  0.00  0.00    -0.151 N 
ATOM     19  N10 ZIN A   1      20.398   4.254  15.995  0.00  0.00    -0.161 NA
ATOM     20  C9  ZIN A   1      20.536   5.559  15.918  0.00  0.00     0.162 A 
ATOM     21  C8  ZIN A   1      19.281   6.094  16.226  0.00  0.00     0.162 A 
ATOM     22  N7  ZIN A   1      18.497   5.064  16.456  0.00  0.00    -0.161 NA
ENDBRANCH  12  18
ENDBRANCH   1  11
BRANCH   6  23
ATOM     23  C18 ZIN A   1      18.443  -1.479  11.177  0.00  0.00     0.227 A 
ATOM     24  O27 ZIN A   1      17.542  -2.286  11.765  0.00  0.00    -0.280 OA
ATOM     25  C26 ZIN A   1      17.507  -3.452  11.077  0.00  0.00     0.107 A 
ATOM     26  C20 ZIN A   1      18.443  -3.328  10.040  0.00  0.00     0.096 A 
ATOM     27  C25 ZIN A   1      16.784  -4.625  11.217  0.00  0.00     0.041 A 
ATOM     28  N19 ZIN A   1      18.989  -2.086  10.154  0.00  0.00    -0.211 NA
ATOM     29  C21 ZIN A   1      18.638  -4.387   9.154  0.00  0.00     0.058 A 
ATOM     30  C22 ZIN A   1      17.910  -5.549   9.307  0.00  0.00     0.036 A 
ATOM     31 Cl23 ZIN A   1      18.150  -6.870   8.206  0.00  0.00    -0.084 Cl
ATOM     32  C24 ZIN A   1      16.986  -5.668  10.335  0.00  0.00     0.026 A 
ENDBRANCH   6  23
TORSDOF 3
ENDMDL
MODEL 2
REMARK VINA RESULT:      -9.5      3.598      8.631
REMARK  3 active torsions:
REMARK  status: ('A' for Active; 'I' for Inactive)
REMARK    1  A    between atoms: C5_5  and  N6_6 
REMARK    2  A    between atoms: C11_11  and  C12_12 
REMARK       I    between atoms: C12_12  and  N14_14 
REMARK    3  A    between atoms: N17_17  and  C18_18 
ROOT
ATOM      1  C12 ZIN A   1      18.081  -1.505   8.963  0.00  0.00     0.256 C 
ATOM      2  O13 ZIN A   1      17.091  -2.101   8.586  0.00  0.00    -0.267 OA
ATOM      3  N14 ZIN A   1      18.919  -2.085   9.846  0.00  0.00    -0.342 N 
ATOM      4  C15 ZIN A   1      20.042  -1.287  10.382  0.00  0.00     0.141 C 
ATOM      5  C16 ZIN A   1      20.231  -1.520  11.893  0.00  0.00     0.119 C 
ATOM      6  N17 ZIN A   1      18.938  -1.602  12.538  0.00  0.00    -0.245 NA
ATOM      7  C28 ZIN A   1      18.505  -2.995  12.651  0.00  0.00     0.101 C 
ATOM      8  C29 ZIN A   1      17.766  -3.499  11.477  0.00  0.00     0.040 C 
ATOM      9  C30 ZIN A   1      18.677  -3.458  10.231  0.00  0.00     0.084 C 
ATOM     10  C32 ZIN A   1      17.995  -4.196   9.076  0.00  0.00     0.032 C 
ENDROOT
BRANCH   1  11
ATOM     11  C11 ZIN A   1      18.367  -0.149   8.454  0.00  0.00     0.063 A 
ATOM     12  C5  ZIN A   1      18.668   0.045   7.099  0.00  0.00     0.094 A 
ATOM     13  C4  ZIN A   1      18.936   1.324   6.632  0.00  0.00     0.035 A 
ATOM     14  C3  ZIN A   1      18.905   2.399   7.500  0.00  0.00     0.009 A 
ATOM     15  C2  ZIN A   1      18.608   2.209   8.839  0.00  0.00    -0.061 A 
ATOM     16  C1  ZIN A   1      18.576   3.390   9.774  0.00  0.00     0.048 C 
ATOM     17  C33 ZIN A   1      18.344   0.944   9.321  0.00  0.00     0.026 A 
BRANCH  12  18
ATOM     18  N6  ZIN A   1      18.699  -1.043   6.223  0.00  0.00    -0.151 N 
ATOM     19  N10 ZIN A   1      19.631  -1.928   6.191  0.00  0.00    -0.161 NA
ATOM     20  C9  ZIN A   1      19.347  -2.808   5.256  0.00  0.00     0.162 A 
ATOM     21  C8  ZIN A   1      18.142  -2.385   4.689  0.00  0.00     0.162 A 
ATOM     22  N7  ZIN A   1      17.803  -1.292   5.335  0.00  0.00    -0.161 NA
ENDBRANCH  12  18
ENDBRANCH   1  11
BRANCH   6  23
ATOM     23  C18 ZIN A   1      18.963  -0.993  13.773  0.00  0.00     0.227 A 
ATOM     24  O27 ZIN A   1      18.946  -1.640  14.951  0.00  0.00    -0.280 OA
ATOM     25  C26 ZIN A   1      18.986  -0.717  15.940  0.00  0.00     0.107 A 
ATOM     26  C20 ZIN A   1      19.017   0.537  15.311  0.00  0.00     0.096 A 
ATOM     27  C25 ZIN A   1      18.993  -0.794  17.323  0.00  0.00     0.041 A 
ATOM     28  N19 ZIN A   1      19.001   0.300  13.970  0.00  0.00    -0.211 NA
ATOM     29  C21 ZIN A   1      19.056   1.698  16.083  0.00  0.00     0.058 A 
ATOM     30  C22 ZIN A   1      19.062   1.603  17.459  0.00  0.00     0.036 A 
ATOM     31 Cl23 ZIN A   1      19.110   3.046  18.423  0.00  0.00    -0.084 Cl
ATOM     32  C24 ZIN A   1      19.030   0.362  18.077  0.00  0.00     0.026 A 
ENDBRANCH   6  23
TORSDOF 3
ENDMDL
MODEL 3
REMARK VINA RESULT:      -9.5      2.623      3.258
REMARK  3 active torsions:
REMARK  status: ('A' for Active; 'I' for Inactive)
REMARK    1  A    between atoms: C5_5  and  N6_6 
REMARK    2  A    between atoms: C11_11  and  C12_12 
REMARK       I    between atoms: C12_12  and  N14_14 
REMARK    3  A    between atoms: N17_17  and  C18_18 
ROOT
ATOM      1  C12 ZIN A   1      17.705   3.468  13.679  0.00  0.00     0.256 C 
ATOM      2  O13 ZIN A   1      16.629   4.002  13.861  0.00  0.00    -0.267 OA
ATOM      3  N14 ZIN A   1      18.481   3.852  12.646  0.00  0.00    -0.342 N 
ATOM      4  C15 ZIN A   1      19.722   3.097  12.375  0.00  0.00     0.141 C 
ATOM      5  C16 ZIN A   1      19.925   2.864  10.867  0.00  0.00     0.119 C 
ATOM      6  N17 ZIN A   1      18.655   2.550  10.247  0.00  0.00    -0.245 NA
ATOM      7  C28 ZIN A   1      18.033   3.758   9.703  0.00  0.00     0.101 C 
ATOM      8  C29 ZIN A   1      17.193   4.495  10.666  0.00  0.00     0.040 C 
ATOM      9  C30 ZIN A   1      18.059   4.983  11.847  0.00  0.00     0.084 C 
ATOM     10  C32 ZIN A   1      17.242   5.941  12.717  0.00  0.00     0.032 C 
ENDROOT
BRANCH   1  11
ATOM     11  C11 ZIN A   1      18.164   2.399  14.589  0.00  0.00     0.063 A 
ATOM     12  C5  ZIN A   1      18.748   2.725  15.821  0.00  0.00     0.094 A 
ATOM     13  C4  ZIN A   1      19.176   1.713  16.667  0.00  0.00     0.035 A 
ATOM     14  C3  ZIN A   1      19.025   0.390  16.296  0.00  0.00     0.009 A 
ATOM     15  C2  ZIN A   1      18.447   0.065  15.081  0.00  0.00    -0.061 A 
ATOM     16  C1  ZIN A   1      18.288  -1.381  14.689  0.00  0.00     0.048 C 
ATOM     17  C33 ZIN A   1      18.022   1.060  14.224  0.00  0.00     0.026 A 
BRANCH  12  18
ATOM     18  N6  ZIN A   1      18.900   4.064  16.194  0.00  0.00    -0.151 N 
ATOM     19  N10 ZIN A   1      19.878   4.816  15.831  0.00  0.00    -0.161 NA
ATOM     20  C9  ZIN A   1      19.709   6.010  16.354  0.00  0.00     0.162 A 
ATOM     21  C8  ZIN A   1      18.528   5.937  17.097  0.00  0.00     0.162 A 
ATOM     22  N7  ZIN A   1      18.085   4.708  16.951  0.00  0.00    -0.161 NA
ENDBRANCH  12  18
ENDBRANCH   1  11
BRANCH   6  23
ATOM     23  C18 ZIN A   1      18.807   1.592   9.270  0.00  0.00     0.227 A 
ATOM     24  O27 ZIN A   1      18.811   1.833   7.947  0.00  0.00    -0.280 OA
ATOM     25  C26 ZIN A   1      18.987   0.656   7.303  0.00  0.00     0.107 A 
ATOM     26  C20 ZIN A   1      19.079  -0.329   8.298  0.00  0.00     0.096 A 
ATOM     27  C25 ZIN A   1      19.073   0.298   5.968  0.00  0.00     0.041 A 
ATOM     28  N19 ZIN A   1      18.961   0.311   9.493  0.00  0.00    -0.211 NA
ATOM     29  C21 ZIN A   1      19.260  -1.664   7.934  0.00  0.00     0.058 A 
ATOM     30  C22 ZIN A   1      19.344  -2.003   6.600  0.00  0.00     0.036 A 
ATOM     31 Cl23 ZIN A   1      19.569  -3.663   6.144  0.00  0.00    -0.084 Cl
ATOM     32  C24 ZIN A   1      19.251  -1.026   5.620  0.00  0.00     0.026 A 
ENDBRANCH   6  23
TORSDOF 3
ENDMDL
MODEL 4
REMARK VINA RESULT:      -9.2      3.745      9.465
REMARK  3 active torsions:
REMARK  status: ('A' for Active; 'I' for Inactive)
REMARK    1  A    between atoms: C5_5  and  N6_6 
REMARK    2  A    between atoms: C11_11  and  C12_12 
REMARK       I    between atoms: C12_12  and  N14_14 
REMARK    3  A    between atoms: N17_17  and  C18_18 
ROOT
ATOM      1  C12 ZIN A   1      18.567  -2.218   9.170  0.00  0.00     0.256 C 
ATOM      2  O13 ZIN A   1      17.658  -3.022   9.242  0.00  0.00    -0.267 OA
ATOM      3  N14 ZIN A   1      19.394  -2.042  10.219  0.00  0.00    -0.342 N 
ATOM      4  C15 ZIN A   1      20.407  -0.967  10.148  0.00  0.00     0.141 C 
ATOM      5  C16 ZIN A   1      20.518  -0.206  11.482  0.00  0.00     0.119 C 
ATOM      6  N17 ZIN A   1      19.199  -0.015  12.047  0.00  0.00    -0.245 NA
ATOM      7  C28 ZIN A   1      18.884  -1.086  12.993  0.00  0.00     0.101 C 
ATOM      8  C29 ZIN A   1      18.268  -2.278  12.380  0.00  0.00     0.040 C 
ATOM      9  C30 ZIN A   1      19.249  -2.909  11.368  0.00  0.00     0.084 C 
ATOM     10  C32 ZIN A   1      18.709  -4.267  10.913  0.00  0.00     0.032 C 
ENDROOT
BRANCH   1  11
ATOM     11  C11 ZIN A   1      18.764  -1.434   7.934  0.00  0.00     0.063 A 
ATOM     12  C5  ZIN A   1      19.091  -2.082   6.735  0.00  0.00     0.094 A 
ATOM     13  C4  ZIN A   1      19.276  -1.336   5.580  0.00  0.00     0.035 A 
ATOM     14  C3  ZIN A   1      19.136   0.038   5.614  0.00  0.00     0.009 A 
ATOM     15  C2  ZIN A   1      18.812   0.680   6.797  0.00  0.00    -0.061 A 
ATOM     16  C1  ZIN A   1      18.661   2.180   6.819  0.00  0.00     0.048 C 
ATOM     17  C33 ZIN A   1      18.631  -0.045   7.956  0.00  0.00     0.026 A 
BRANCH  12  18
ATOM     18  N6  ZIN A   1      19.233  -3.472   6.703  0.00  0.00    -0.151 N 
ATOM     19  N10 ZIN A   1      20.281  -4.108   7.090  0.00  0.00    -0.161 NA
ATOM     20  C9  ZIN A   1      20.077  -5.397   6.928  0.00  0.00     0.162 A 
ATOM     21  C8  ZIN A   1      18.794  -5.515   6.386  0.00  0.00     0.162 A 
ATOM     22  N7  ZIN A   1      18.335  -4.288   6.276  0.00  0.00    -0.161 NA
ENDBRANCH  12  18
ENDBRANCH   1  11
BRANCH   6  23
ATOM     23  C18 ZIN A   1      19.093   1.219  12.647  0.00  0.00     0.227 A 
ATOM     24  O27 ZIN A   1      19.359   2.392  12.048  0.00  0.00    -0.280 OA
ATOM     25  C26 ZIN A   1      19.138   3.384  12.942  0.00  0.00     0.107 A 
ATOM     26  C20 ZIN A   1      18.731   2.760  14.132  0.00  0.00     0.096 A 
ATOM     27  C25 ZIN A   1      19.243   4.763  12.889  0.00  0.00     0.041 A 
ATOM     28  N19 ZIN A   1      18.722   1.421  13.886  0.00  0.00    -0.211 NA
ATOM     29  C21 ZIN A   1      18.433   3.535  15.252  0.00  0.00     0.058 A 
ATOM     30  C22 ZIN A   1      18.543   4.908  15.182  0.00  0.00     0.036 A 
ATOM     31 Cl23 ZIN A   1      18.172   5.876  16.575  0.00  0.00    -0.084 Cl
ATOM     32  C24 ZIN A   1      18.946   5.521  14.005  0.00  0.00     0.026 A 
ENDBRANCH   6  23
TORSDOF 3
ENDMDL
MODEL 5
REMARK VINA RESULT:      -9.2      3.601      8.471
REMARK  3 active torsions:
REMARK  status: ('A' for Active; 'I' for Inactive)
REMARK    1  A    between atoms: C5_5  and  N6_6 
REMARK    2  A    between atoms: C11_11  and  C12_12 
REMARK       I    between atoms: C12_12  and  N14_14 
REMARK    3  A    between atoms: N17_17  and  C18_18 
ROOT
ATOM      1  C12 ZIN A   1      19.161  -0.672   8.566  0.00  0.00     0.256 C 
ATOM      2  O13 ZIN A   1      20.089  -0.216   7.928  0.00  0.00    -0.267 OA
ATOM      3  N14 ZIN A   1      18.237   0.156   9.094  0.00  0.00    -0.342 N 
ATOM      4  C15 ZIN A   1      17.194  -0.417   9.972  0.00  0.00     0.141 C 
ATOM      5  C16 ZIN A   1      16.935   0.477  11.199  0.00  0.00     0.119 C 
ATOM      6  N17 ZIN A   1      18.190   1.000  11.696  0.00  0.00    -0.245 NA
ATOM      7  C28 ZIN A   1      18.460   2.320  11.127  0.00  0.00     0.101 C 
ATOM      8  C29 ZIN A   1      19.173   2.293   9.836  0.00  0.00     0.040 C 
ATOM      9  C30 ZIN A   1      18.311   1.566   8.780  0.00  0.00     0.084 C 
ATOM     10  C32 ZIN A   1      18.941   1.745   7.397  0.00  0.00     0.032 C 
ENDROOT
BRANCH   1  11
ATOM     11  C11 ZIN A   1      19.045  -2.130   8.765  0.00  0.00     0.063 A 
ATOM     12  C5  ZIN A   1      18.809  -2.973   7.669  0.00  0.00     0.094 A 
ATOM     13  C4  ZIN A   1      18.701  -4.342   7.867  0.00  0.00     0.035 A 
ATOM     14  C3  ZIN A   1      18.827  -4.870   9.138  0.00  0.00     0.009 A 
ATOM     15  C2  ZIN A   1      19.060  -4.040  10.221  0.00  0.00    -0.061 A 
ATOM     16  C1  ZIN A   1      19.196  -4.629  11.602  0.00  0.00     0.048 C 
ATOM     17  C33 ZIN A   1      19.164  -2.676  10.043  0.00  0.00     0.026 A 
BRANCH  12  18
ATOM     18  N6  ZIN A   1      18.682  -2.437   6.385  0.00  0.00    -0.151 N 
ATOM     19  N10 ZIN A   1      19.557  -2.565   5.451  0.00  0.00    -0.161 NA
ATOM     20  C9  ZIN A   1      19.122  -1.944   4.377  0.00  0.00     0.162 A 
ATOM     21  C8  ZIN A   1      17.884  -1.398   4.727  0.00  0.00     0.162 A 
ATOM     22  N7  ZIN A   1      17.679  -1.743   5.979  0.00  0.00    -0.161 NA
ENDBRANCH  12  18
ENDBRANCH   1  11
BRANCH   6  23
ATOM     23  C18 ZIN A   1      18.196   1.046  13.071  0.00  0.00     0.227 A 
ATOM     24  O27 ZIN A   1      17.541   0.188  13.874  0.00  0.00    -0.280 OA
ATOM     25  C26 ZIN A   1      17.784   0.542  15.158  0.00  0.00     0.107 A 
ATOM     26  C20 ZIN A   1      18.615   1.671  15.107  0.00  0.00     0.096 A 
ATOM     27  C25 ZIN A   1      17.385   0.034  16.383  0.00  0.00     0.041 A 
ATOM     28  N19 ZIN A   1      18.835   1.934  13.789  0.00  0.00    -0.211 NA
ATOM     29  C21 ZIN A   1      19.035   2.274  16.292  0.00  0.00     0.058 A 
ATOM     30  C22 ZIN A   1      18.629   1.756  17.504  0.00  0.00     0.036 A 
ATOM     31 Cl23 ZIN A   1      19.151   2.504  18.981  0.00  0.00    -0.084 Cl
ATOM     32  C24 ZIN A   1      17.807   0.640  17.550  0.00  0.00     0.026 A 
ENDBRANCH   6  23
TORSDOF 3
ENDMDL
MODEL 6
REMARK VINA RESULT:      -9.2      1.946      4.251
REMARK  3 active torsions:
REMARK  status: ('A' for Active; 'I' for Inactive)
REMARK    1  A    between atoms: C5_5  and  N6_6 
REMARK    2  A    between atoms: C11_11  and  C12_12 
REMARK       I    between atoms: C12_12  and  N14_14 
REMARK    3  A    between atoms: N17_17  and  C18_18 
ROOT
ATOM      1  C12 ZIN A   1      18.977   2.006  12.963  0.00  0.00     0.256 C 
ATOM      2  O13 ZIN A   1      19.935   2.322  13.641  0.00  0.00    -0.267 OA
ATOM      3  N14 ZIN A   1      18.184   0.987  13.351  0.00  0.00    -0.342 N 
ATOM      4  C15 ZIN A   1      17.106   0.545  12.442  0.00  0.00     0.141 C 
ATOM      5  C16 ZIN A   1      17.003  -0.991  12.393  0.00  0.00     0.119 C 
ATOM      6  N17 ZIN A   1      18.330  -1.569  12.389  0.00  0.00    -0.245 NA
ATOM      7  C28 ZIN A   1      18.748  -1.909  13.749  0.00  0.00     0.101 C 
ATOM      8  C29 ZIN A   1      19.410  -0.809  14.476  0.00  0.00     0.040 C 
ATOM      9  C30 ZIN A   1      18.428   0.372  14.638  0.00  0.00     0.084 C 
ATOM     10  C32 ZIN A   1      19.031   1.409  15.589  0.00  0.00     0.032 C 
ENDROOT
BRANCH   1  11
ATOM     11  C11 ZIN A   1      18.682   2.736  11.714  0.00  0.00     0.063 A 
ATOM     12  C5  ZIN A   1      18.173   4.042  11.766  0.00  0.00     0.094 A 
ATOM     13  C4  ZIN A   1      17.898   4.719  10.587  0.00  0.00     0.035 A 
ATOM     14  C3  ZIN A   1      18.127   4.108   9.369  0.00  0.00     0.009 A 
ATOM     15  C2  ZIN A   1      18.630   2.819   9.315  0.00  0.00    -0.061 A 
ATOM     16  C1  ZIN A   1      18.877   2.166   7.979  0.00  0.00     0.048 C 
ATOM     17  C33 ZIN A   1      18.904   2.130  10.477  0.00  0.00     0.026 A 
BRANCH  12  18
ATOM     18  N6  ZIN A   1      17.942   4.657  13.000  0.00  0.00    -0.151 N 
ATOM     19  N10 ZIN A   1      16.886   4.486  13.714  0.00  0.00    -0.161 NA
ATOM     20  C9  ZIN A   1      16.995   5.207  14.808  0.00  0.00     0.162 A 
ATOM     21  C8  ZIN A   1      18.225   5.863  14.711  0.00  0.00     0.162 A 
ATOM     22  N7  ZIN A   1      18.752   5.476  13.571  0.00  0.00    -0.161 NA
ENDBRANCH  12  18
ENDBRANCH   1  11
BRANCH   6  23
ATOM     23  C18 ZIN A   1      18.386  -2.671  11.567  0.00  0.00     0.227 A 
ATOM     24  O27 ZIN A   1      19.510  -3.177  11.031  0.00  0.00    -0.280 OA
ATOM     25  C26 ZIN A   1      19.176  -4.257  10.287  0.00  0.00     0.107 A 
ATOM     26  C20 ZIN A   1      17.782  -4.387  10.382  0.00  0.00     0.096 A 
ATOM     27  C25 ZIN A   1      19.901  -5.156   9.523  0.00  0.00     0.041 A 
ATOM     28  N19 ZIN A   1      17.351  -3.377  11.187  0.00  0.00    -0.211 NA
ATOM     29  C21 ZIN A   1      17.136  -5.422   9.707  0.00  0.00     0.058 A 
ATOM     30  C22 ZIN A   1      17.873  -6.309   8.950  0.00  0.00     0.036 A 
ATOM     31 Cl23 ZIN A   1      17.072  -7.599   8.108  0.00  0.00    -0.084 Cl
ATOM     32  C24 ZIN A   1      19.250  -6.177   8.858  0.00  0.00     0.026 A 
ENDBRANCH   6  23
TORSDOF 3
ENDMDL
MODEL 7
REMARK VINA RESULT:      -8.8      2.633      4.297
REMARK  3 active torsions:
REMARK  status: ('A' for Active; 'I' for Inactive)
REMARK    1  A    between atoms: C5_5  and  N6_6 
REMARK    2  A    between atoms: C11_11  and  C12_12 
REMARK       I    between atoms: C12_12  and  N14_14 
REMARK    3  A    between atoms: N17_17  and  C18_18 
ROOT
ATOM      1  C12 ZIN A   1      19.007   1.010  14.150  0.00  0.00     0.256 C 
ATOM      2  O13 ZIN A   1      20.016   0.719  14.763  0.00  0.00    -0.267 OA
ATOM      3  N14 ZIN A   1      18.186   0.038  13.705  0.00  0.00    -0.342 N 
ATOM      4  C15 ZIN A   1      17.039   0.417  12.854  0.00  0.00     0.141 C 
ATOM      5  C16 ZIN A   1      16.855  -0.565  11.682  0.00  0.00     0.119 C 
ATOM      6  N17 ZIN A   1      18.149  -0.936  11.149  0.00  0.00    -0.245 NA
ATOM      7  C28 ZIN A   1      18.623  -2.176  11.763  0.00  0.00     0.101 C 
ATOM      8  C29 ZIN A   1      19.379  -1.986  13.015  0.00  0.00     0.040 C 
ATOM      9  C30 ZIN A   1      18.469  -1.331  14.078  0.00  0.00     0.084 C 
ATOM     10  C32 ZIN A   1      19.175  -1.351  15.436  0.00  0.00     0.032 C 
ENDROOT
BRANCH   1  11
ATOM     11  C11 ZIN A   1      18.682   2.427  13.893  0.00  0.00     0.063 A 
ATOM     12  C5  ZIN A   1      18.511   3.316  14.963  0.00  0.00     0.094 A 
ATOM     13  C4  ZIN A   1      18.204   4.645  14.710  0.00  0.00     0.035 A 
ATOM     14  C3  ZIN A   1      18.069   5.088  13.408  0.00  0.00     0.009 A 
ATOM     15  C2  ZIN A   1      18.238   4.213  12.349  0.00  0.00    -0.061 A 
ATOM     16  C1  ZIN A   1      18.089   4.710  10.934  0.00  0.00     0.048 C 
ATOM     17  C33 ZIN A   1      18.538   2.887  12.583  0.00  0.00     0.026 A 
BRANCH  12  18
ATOM     18  N6  ZIN A   1      18.648   2.865  16.279  0.00  0.00    -0.151 N 
ATOM     19  N10 ZIN A   1      17.818   2.082  16.872  0.00  0.00    -0.161 NA
ATOM     20  C9  ZIN A   1      18.248   1.857  18.094  0.00  0.00     0.162 A 
ATOM     21  C8  ZIN A   1      19.435   2.586  18.220  0.00  0.00     0.162 A 
ATOM     22  N7  ZIN A   1      19.617   3.181  17.063  0.00  0.00    -0.161 NA
ENDBRANCH  12  18
ENDBRANCH   1  11
BRANCH   6  23
ATOM     23  C18 ZIN A   1      18.103  -1.050   9.778  0.00  0.00     0.227 A 
ATOM     24  O27 ZIN A   1      17.513  -0.171   8.950  0.00  0.00    -0.280 OA
ATOM     25  C26 ZIN A   1      17.675  -0.611   7.681  0.00  0.00     0.107 A 
ATOM     26  C20 ZIN A   1      18.387  -1.817   7.768  0.00  0.00     0.096 A 
ATOM     27  C25 ZIN A   1      17.289  -0.127   6.442  0.00  0.00     0.041 A 
ATOM     28  N19 ZIN A   1      18.624  -2.035   9.091  0.00  0.00    -0.211 NA
ATOM     29  C21 ZIN A   1      18.704  -2.518   6.604  0.00  0.00     0.058 A 
ATOM     30  C22 ZIN A   1      18.312  -2.022   5.379  0.00  0.00     0.036 A 
ATOM     31 Cl23 ZIN A   1      18.705  -2.893   3.929  0.00  0.00    -0.084 Cl
ATOM     32  C24 ZIN A   1      17.607  -0.830   5.297  0.00  0.00     0.026 A 
ENDBRANCH   6  23
TORSDOF 3
ENDMDL
MODEL 8
REMARK VINA RESULT:      -8.4      3.594      7.629
REMARK  3 active torsions:
REMARK  status: ('A' for Active; 'I' for Inactive)
REMARK    1  A    between atoms: C5_5  and  N6_6 
REMARK    2  A    between atoms: C11_11  and  C12_12 
REMARK       I    between atoms: C12_12  and  N14_14 
REMARK    3  A    between atoms: N17_17  and  C18_18 
ROOT
ATOM      1  C12 ZIN A   1      18.796  -1.189   9.040  0.00  0.00     0.256 C 
ATOM      2  O13 ZIN A   1      19.765  -1.344   8.322  0.00  0.00    -0.267 OA
ATOM      3  N14 ZIN A   1      18.099  -0.037   8.990  0.00  0.00    -0.342 N 
ATOM      4  C15 ZIN A   1      17.007   0.171   9.964  0.00  0.00     0.141 C 
ATOM      5  C16 ZIN A   1      17.009   1.608  10.519  0.00  0.00     0.119 C 
ATOM      6  N17 ZIN A   1      18.371   2.038  10.751  0.00  0.00    -0.245 NA
ATOM      7  C28 ZIN A   1      18.886   2.771   9.594  0.00  0.00     0.101 C 
ATOM      8  C29 ZIN A   1      19.507   1.919   8.561  0.00  0.00     0.040 C 
ATOM      9  C30 ZIN A   1      18.455   0.944   7.988  0.00  0.00     0.084 C 
ATOM     10  C32 ZIN A   1      19.034   0.232   6.764  0.00  0.00     0.032 C 
ENDROOT
BRANCH   1  11
ATOM     11  C11 ZIN A   1      18.383  -2.263   9.966  0.00  0.00     0.063 A 
ATOM     12  C5  ZIN A   1      18.816  -2.247  11.299  0.00  0.00     0.094 A 
ATOM     13  C4  ZIN A   1      18.423  -3.262  12.161  0.00  0.00     0.035 A 
ATOM     14  C3  ZIN A   1      17.608  -4.280  11.704  0.00  0.00     0.009 A 
ATOM     15  C2  ZIN A   1      17.179  -4.297  10.388  0.00  0.00    -0.061 A 
ATOM     16  C1  ZIN A   1      16.289  -5.413   9.904  0.00  0.00     0.048 C 
ATOM     17  C33 ZIN A   1      17.565  -3.300   9.517  0.00  0.00     0.026 A 
BRANCH  12  18
ATOM     18  N6  ZIN A   1      19.641  -1.216  11.758  0.00  0.00    -0.151 N 
ATOM     19  N10 ZIN A   1      19.558  -0.680  12.924  0.00  0.00    -0.161 NA
ATOM     20  C9  ZIN A   1      20.480   0.251  13.027  0.00  0.00     0.162 A 
ATOM     21  C8  ZIN A   1      21.152   0.260  11.801  0.00  0.00     0.162 A 
ATOM     22  N7  ZIN A   1      20.580  -0.671  11.070  0.00  0.00    -0.161 NA
ENDBRANCH  12  18
ENDBRANCH   1  11
BRANCH   6  23
ATOM     23  C18 ZIN A   1      18.460   2.800  11.895  0.00  0.00     0.227 A 
ATOM     24  O27 ZIN A   1      19.049   4.006  11.974  0.00  0.00    -0.280 OA
ATOM     25  C26 ZIN A   1      18.937   4.448  13.248  0.00  0.00     0.107 A 
ATOM     26  C20 ZIN A   1      18.256   3.446  13.956  0.00  0.00     0.096 A 
ATOM     27  C25 ZIN A   1      19.344   5.598  13.902  0.00  0.00     0.041 A 
ATOM     28  N19 ZIN A   1      17.988   2.452  13.065  0.00  0.00    -0.211 NA
ATOM     29  C21 ZIN A   1      17.994   3.616  15.316  0.00  0.00     0.058 A 
ATOM     30  C22 ZIN A   1      18.407   4.768  15.952  0.00  0.00     0.036 A 
ATOM     31 Cl23 ZIN A   1      18.081   4.984  17.644  0.00  0.00    -0.084 Cl
ATOM     32  C24 ZIN A   1      19.080   5.756  15.249  0.00  0.00     0.026 A 
ENDBRANCH   6  23
TORSDOF 3
ENDMDL
MODEL 9
REMARK VINA RESULT:      -8.2      4.371      9.110
REMARK  3 active torsions:
REMARK  status: ('A' for Active; 'I' for Inactive)
REMARK    1  A    between atoms: C5_5  and  N6_6 
REMARK    2  A    between atoms: C11_11  and  C12_12 
REMARK       I    between atoms: C12_12  and  N14_14 
REMARK    3  A    between atoms: N17_17  and  C18_18 
ROOT
ATOM      1  C12 ZIN A   1      19.106  -2.129   8.061  0.00  0.00     0.256 C 
ATOM      2  O13 ZIN A   1      20.003  -2.277   7.254  0.00  0.00    -0.267 OA
ATOM      3  N14 ZIN A   1      18.226  -1.118   7.911  0.00  0.00    -0.342 N 
ATOM      4  C15 ZIN A   1      17.227  -0.887   8.975  0.00  0.00     0.141 C 
ATOM      5  C16 ZIN A   1      17.052   0.614   9.271  0.00  0.00     0.119 C 
ATOM      6  N17 ZIN A   1      18.341   1.272   9.237  0.00  0.00    -0.245 NA
ATOM      7  C28 ZIN A   1      18.599   1.836   7.912  0.00  0.00     0.101 C 
ATOM      8  C29 ZIN A   1      19.236   0.902   6.965  0.00  0.00     0.040 C 
ATOM      9  C30 ZIN A   1      18.304  -0.305   6.717  0.00  0.00     0.084 C 
ATOM     10  C32 ZIN A   1      18.856  -1.147   5.564  0.00  0.00     0.032 C 
ENDROOT
BRANCH   1  11
ATOM     11  C11 ZIN A   1      18.979  -3.054   9.204  0.00  0.00     0.063 A 
ATOM     12  C5  ZIN A   1      18.682  -4.407   8.985  0.00  0.00     0.094 A 
ATOM     13  C4  ZIN A   1      18.565  -5.267  10.067  0.00  0.00     0.035 A 
ATOM     14  C3  ZIN A   1      18.741  -4.792  11.352  0.00  0.00     0.009 A 
ATOM     15  C2  ZIN A   1      19.034  -3.457  11.571  0.00  0.00    -0.061 A 
ATOM     16  C1  ZIN A   1      19.225  -2.951  12.978  0.00  0.00     0.048 C 
ATOM     17  C33 ZIN A   1      19.149  -2.586  10.507  0.00  0.00     0.026 A 
BRANCH  12  18
ATOM     18  N6  ZIN A   1      18.505  -4.885   7.684  0.00  0.00    -0.151 N 
ATOM     19  N10 ZIN A   1      19.358  -5.609   7.050  0.00  0.00    -0.161 NA
ATOM     20  C9  ZIN A   1      18.875  -5.885   5.859  0.00  0.00     0.162 A 
ATOM     21  C8  ZIN A   1      17.630  -5.252   5.796  0.00  0.00     0.162 A 
ATOM     22  N7  ZIN A   1      17.470  -4.656   6.957  0.00  0.00    -0.161 NA
ENDBRANCH  12  18
ENDBRANCH   1  11
BRANCH   6  23
ATOM     23  C18 ZIN A   1      18.426   2.241  10.211  0.00  0.00     0.227 A 
ATOM     24  O27 ZIN A   1      17.382   2.920  10.716  0.00  0.00    -0.280 OA
ATOM     25  C26 ZIN A   1      17.849   3.781  11.650  0.00  0.00     0.107 A 
ATOM     26  C20 ZIN A   1      19.241   3.607  11.688  0.00  0.00     0.096 A 
ATOM     27  C25 ZIN A   1      17.248   4.712  12.480  0.00  0.00     0.041 A 
ATOM     28  N19 ZIN A   1      19.538   2.640  10.775  0.00  0.00    -0.211 NA
ATOM     29  C21 ZIN A   1      20.010   4.372  12.564  0.00  0.00     0.058 A 
ATOM     30  C22 ZIN A   1      19.395   5.294  13.385  0.00  0.00     0.036 A 
ATOM     31 Cl23 ZIN A   1      20.350   6.249  14.477  0.00  0.00    -0.084 Cl
ATOM     32  C24 ZIN A   1      18.020   5.465  13.343  0.00  0.00     0.026 A 
ENDBRANCH   6  23
TORSDOF 3
ENDMDL
