MODEL 1
REMARK VINA RESULT:      -3.1      0.000      0.000
REMARK  3 active torsions:
REMARK  status: ('A' for Active; 'I' for Inactive)
REMARK    1  A    between atoms: C2_2  and  O4_3 
REMARK    2  A    between atoms: C2_2  and  C5_4 
REMARK    3  A    between atoms: C5_4  and  O6_5 
ROOT
ATOM      1  C1  <0> d   1      19.881   0.006  13.537  0.00  0.00     0.041 C 
ATOM      2  C2  <0> d   1      20.386   0.472  12.170  0.00  0.00     0.137 C 
ENDROOT
BRANCH   2   3
ATOM      3  O4  <0> d   1      21.796   0.698  12.235  0.00  0.00    -0.394 OA
ATOM      4  H10 <0> d   1      22.154   0.687  13.132  0.00  0.00     0.210 HD
ENDBRANCH   2   3
BRANCH   2   5
ATOM      5  C5  <0> d   1      20.089  -0.604  11.123  0.00  0.00     0.195 C 
BRANCH   5   6
ATOM      6  O6  <0> d   1      21.003  -0.471  10.032  0.00  0.00    -0.398 OA
ATOM      7  H13 <0> d   1      21.484   0.367  10.023  0.00  0.00     0.209 HD
ENDBRANCH   5   6
ENDBRANCH   2   5
TORSDOF 3
ENDMDL
MODEL 2
REMARK VINA RESULT:      -3.1      1.089      2.559
REMARK  3 active torsions:
REMARK  status: ('A' for Active; 'I' for Inactive)
REMARK    1  A    between atoms: C2_2  and  O4_3 
REMARK    2  A    between atoms: C2_2  and  C5_4 
REMARK    3  A    between atoms: C5_4  and  O6_5 
ROOT
ATOM      1  C1  <0> d   1      19.220   1.151   9.921  0.00  0.00     0.041 C 
ATOM      2  C2  <0> d   1      19.902   0.031  10.710  0.00  0.00     0.137 C 
ENDROOT
BRANCH   2   3
ATOM      3  O4  <0> d   1      21.059  -0.415   9.999  0.00  0.00    -0.394 OA
ATOM      4  H10 <0> d   1      21.396   0.223   9.357  0.00  0.00     0.210 HD
ENDBRANCH   2   3
BRANCH   2   5
ATOM      5  C5  <0> d   1      20.319   0.556  12.086  0.00  0.00     0.195 C 
BRANCH   5   6
ATOM      6  O6  <0> d   1      21.745   0.622  12.157  0.00  0.00    -0.398 OA
ATOM      7  H13 <0> d   1      22.182  -0.237  12.087  0.00  0.00     0.209 HD
ENDBRANCH   5   6
ENDBRANCH   2   5
TORSDOF 3
ENDMDL
MODEL 3
REMARK VINA RESULT:      -2.9      1.902      2.716
REMARK  3 active torsions:
REMARK  status: ('A' for Active; 'I' for Inactive)
REMARK    1  A    between atoms: C2_2  and  O4_3 
REMARK    2  A    between atoms: C2_2  and  C5_4 
REMARK    3  A    between atoms: C5_4  and  O6_5 
ROOT
ATOM      1  C1  <0> d   1      18.407  -2.316  11.309  0.00  0.00     0.041 C 
ATOM      2  C2  <0> d   1      19.859  -1.972  11.646  0.00  0.00     0.137 C 
ENDROOT
BRANCH   2   3
ATOM      3  O4  <0> d   1      20.697  -3.087  11.333  0.00  0.00    -0.394 OA
ATOM      4  H10 <0> d   1      21.641  -2.911  11.441  0.00  0.00     0.210 HD
ENDBRANCH   2   3
BRANCH   2   5
ATOM      5  C5  <0> d   1      20.300  -0.756  10.827  0.00  0.00     0.195 C 
BRANCH   5   6
ATOM      6  O6  <0> d   1      21.718  -0.608  10.922  0.00  0.00    -0.398 OA
ATOM      7  H13 <0> d   1      22.147  -1.278  11.472  0.00  0.00     0.209 HD
ENDBRANCH   5   6
ENDBRANCH   2   5
TORSDOF 3
ENDMDL
MODEL 4
REMARK VINA RESULT:      -2.9      1.559      2.185
REMARK  3 active torsions:
REMARK  status: ('A' for Active; 'I' for Inactive)
REMARK    1  A    between atoms: C2_2  and  O4_3 
REMARK    2  A    between atoms: C2_2  and  C5_4 
REMARK    3  A    between atoms: C5_4  and  O6_5 
ROOT
ATOM      1  C1  <0> d   1      18.561   0.666  14.077  0.00  0.00     0.041 C 
ATOM      2  C2  <0> d   1      19.985   0.203  13.763  0.00  0.00     0.137 C 
ENDROOT
BRANCH   2   3
ATOM      3  O4  <0> d   1      20.078  -1.211  13.950  0.00  0.00    -0.394 OA
ATOM      4  H10 <0> d   1      20.962  -1.518  14.190  0.00  0.00     0.210 HD
ENDBRANCH   2   3
BRANCH   2   5
ATOM      5  C5  <0> d   1      20.325   0.548  12.311  0.00  0.00     0.195 C 
BRANCH   5   6
ATOM      6  O6  <0> d   1      21.744   0.628  12.162  0.00  0.00    -0.398 OA
ATOM      7  H13 <0> d   1      22.152  -0.189  11.843  0.00  0.00     0.209 HD
ENDBRANCH   5   6
ENDBRANCH   2   5
TORSDOF 3
ENDMDL
MODEL 5
REMARK VINA RESULT:      -2.9      5.879      6.445
REMARK  3 active torsions:
REMARK  status: ('A' for Active; 'I' for Inactive)
REMARK    1  A    between atoms: C2_2  and  O4_3 
REMARK    2  A    between atoms: C2_2  and  C5_4 
REMARK    3  A    between atoms: C5_4  and  O6_5 
ROOT
ATOM      1  C1  <0> d   1      18.378  -1.375  16.277  0.00  0.00     0.041 C 
ATOM      2  C2  <0> d   1      18.519   0.036  16.852  0.00  0.00     0.137 C 
ENDROOT
BRANCH   2   3
ATOM      3  O4  <0> d   1      17.224   0.626  16.988  0.00  0.00    -0.394 OA
ATOM      4  H10 <0> d   1      16.747   0.725  16.154  0.00  0.00     0.210 HD
ENDBRANCH   2   3
BRANCH   2   5
ATOM      5  C5  <0> d   1      19.194  -0.035  18.223  0.00  0.00     0.195 C 
BRANCH   5   6
ATOM      6  O6  <0> d   1      19.883   1.190  18.479  0.00  0.00    -0.398 OA
ATOM      7  H13 <0> d   1      19.320   1.891  18.836  0.00  0.00     0.209 HD
ENDBRANCH   5   6
ENDBRANCH   2   5
TORSDOF 3
ENDMDL
MODEL 6
REMARK VINA RESULT:      -2.7      1.936      3.099
REMARK  3 active torsions:
REMARK  status: ('A' for Active; 'I' for Inactive)
REMARK    1  A    between atoms: C2_2  and  O4_3 
REMARK    2  A    between atoms: C2_2  and  C5_4 
REMARK    3  A    between atoms: C5_4  and  O6_5 
ROOT
ATOM      1  C1  <0> d   1      18.404  -0.276   8.791  0.00  0.00     0.041 C 
ATOM      2  C2  <0> d   1      19.865  -0.026   9.170  0.00  0.00     0.137 C 
ENDROOT
BRANCH   2   3
ATOM      3  O4  <0> d   1      20.113   1.381   9.209  0.00  0.00    -0.394 OA
ATOM      4  H10 <0> d   1      20.123   1.802   8.340  0.00  0.00     0.210 HD
ENDBRANCH   2   3
BRANCH   2   5
ATOM      5  C5  <0> d   1      20.145  -0.633  10.547  0.00  0.00     0.195 C 
BRANCH   5   6
ATOM      6  O6  <0> d   1      21.551  -0.604  10.802  0.00  0.00    -0.398 OA
ATOM      7  H13 <0> d   1      22.054  -0.071  10.171  0.00  0.00     0.209 HD
ENDBRANCH   5   6
ENDBRANCH   2   5
TORSDOF 3
ENDMDL
MODEL 7
REMARK VINA RESULT:      -2.7      6.790      7.410
REMARK  3 active torsions:
REMARK  status: ('A' for Active; 'I' for Inactive)
REMARK    1  A    between atoms: C2_2  and  O4_3 
REMARK    2  A    between atoms: C2_2  and  C5_4 
REMARK    3  A    between atoms: C5_4  and  O6_5 
ROOT
ATOM      1  C1  <0> d   1      18.583   0.250   5.939  0.00  0.00     0.041 C 
ATOM      2  C2  <0> d   1      18.696  -0.438   4.577  0.00  0.00     0.137 C 
ENDROOT
BRANCH   2   3
ATOM      3  O4  <0> d   1      19.961  -1.095   4.478  0.00  0.00    -0.394 OA
ATOM      4  H10 <0> d   1      20.093  -1.793   5.133  0.00  0.00     0.210 HD
ENDBRANCH   2   3
BRANCH   2   5
ATOM      5  C5  <0> d   1      17.573  -1.467   4.429  0.00  0.00     0.195 C 
BRANCH   5   6
ATOM      6  O6  <0> d   1      17.532  -2.296   5.593  0.00  0.00    -0.398 OA
ATOM      7  H13 <0> d   1      17.503  -1.805   6.425  0.00  0.00     0.209 HD
ENDBRANCH   5   6
ENDBRANCH   2   5
TORSDOF 3
ENDMDL
MODEL 8
REMARK VINA RESULT:      -2.5      5.921      6.570
REMARK  3 active torsions:
REMARK  status: ('A' for Active; 'I' for Inactive)
REMARK    1  A    between atoms: C2_2  and  O4_3 
REMARK    2  A    between atoms: C2_2  and  C5_4 
REMARK    3  A    between atoms: C5_4  and  O6_5 
ROOT
ATOM      1  C1  <0> d   1      19.030   4.378  14.778  0.00  0.00     0.041 C 
ATOM      2  C2  <0> d   1      19.890   4.907  15.927  0.00  0.00     0.137 C 
ENDROOT
BRANCH   2   3
ATOM      3  O4  <0> d   1      20.583   3.819  16.544  0.00  0.00    -0.394 OA
ATOM      4  H10 <0> d   1      21.126   4.078  17.300  0.00  0.00     0.210 HD
ENDBRANCH   2   3
BRANCH   2   5
ATOM      5  C5  <0> d   1      20.904   5.916  15.384  0.00  0.00     0.195 C 
BRANCH   5   6
ATOM      6  O6  <0> d   1      22.226   5.487  15.716  0.00  0.00    -0.398 OA
ATOM      7  H13 <0> d   1      22.905   6.161  15.572  0.00  0.00     0.209 HD
ENDBRANCH   5   6
ENDBRANCH   2   5
TORSDOF 3
ENDMDL
MODEL 9
REMARK VINA RESULT:      -2.5      2.799      2.886
REMARK  3 active torsions:
REMARK  status: ('A' for Active; 'I' for Inactive)
REMARK    1  A    between atoms: C2_2  and  O4_3 
REMARK    2  A    between atoms: C2_2  and  C5_4 
REMARK    3  A    between atoms: C5_4  and  O6_5 
ROOT
ATOM      1  C1  <0> d   1      17.883  -1.455  12.510  0.00  0.00     0.041 C 
ATOM      2  C2  <0> d   1      19.383  -1.747  12.434  0.00  0.00     0.137 C 
ENDROOT
BRANCH   2   3
ATOM      3  O4  <0> d   1      19.940  -1.723  13.750  0.00  0.00    -0.394 OA
ATOM      4  H10 <0> d   1      19.291  -1.568  14.449  0.00  0.00     0.210 HD
ENDBRANCH   2   3
BRANCH   2   5
ATOM      5  C5  <0> d   1      19.603  -3.128  11.812  0.00  0.00     0.195 C 
BRANCH   5   6
ATOM      6  O6  <0> d   1      20.975  -3.267  11.437  0.00  0.00    -0.398 OA
ATOM      7  H13 <0> d   1      21.282  -2.596  10.812  0.00  0.00     0.209 HD
ENDBRANCH   5   6
ENDBRANCH   2   5
TORSDOF 3
ENDMDL
