MODEL 1
REMARK VINA RESULT:      -6.7      0.000      0.000
REMARK  20 active torsions:
REMARK  status: ('A' for Active; 'I' for Inactive)
REMARK    1  A    between atoms: C2_2  and  C4_4 
REMARK    2  A    between atoms: C4_4  and  N5_5 
REMARK    3  A    between atoms: N5_5  and  C6_6 
REMARK    4  A    between atoms: N5_5  and  C35_34 
REMARK    5  A    between atoms: C6_6  and  C7_7 
REMARK    6  A    between atoms: C7_7  and  N8_8 
REMARK    7  A    between atoms: N8_8  and  C10_10 
REMARK    8  A    between atoms: N8_8  and  C31_30 
REMARK    9  A    between atoms: C10_10  and  C11_11 
REMARK   10  A    between atoms: C11_11  and  N12_12 
REMARK   11  A    between atoms: N12_12  and  C13_13 
REMARK   12  A    between atoms: N12_12  and  C17_17 
REMARK   13  A    between atoms: C13_13  and  C14_14 
REMARK   14  A    between atoms: C17_17  and  C19_18 
REMARK   15  A    between atoms: C17_17  and  C28_27 
REMARK   16  A    between atoms: C19_18  and  O20_19 
REMARK   17  A    between atoms: O20_19  and  C21_20 
REMARK   18  A    between atoms: C21_20  and  C22_21 
REMARK   19  A    between atoms: C31_30  and  C32_31 
REMARK   20  A    between atoms: C35_34  and  C36_35 
ROOT
ATOM      1  C11 ZIN A   1      17.505   0.733  13.257  0.00  0.00     0.302 C 
ENDROOT
BRANCH   1   2
ATOM      2  C10 ZIN A   1      17.480   0.330  14.733  0.00  0.00     0.265 C 
BRANCH   2   3
ATOM      3  N8  ZIN A   1      18.588   0.989  15.439  0.00  0.00    -0.058 N 
ATOM      4  H9  ZIN A   1      19.421   0.425  15.357  0.00  0.00     0.280 HD
BRANCH   3   5
ATOM      5  C7  ZIN A   1      18.830   2.311  14.843  0.00  0.00     0.265 C 
BRANCH   5   6
ATOM      6  C6  ZIN A   1      18.410   3.399  15.834  0.00  0.00     0.301 C 
BRANCH   6   7
ATOM      7  N5  ZIN A   1      18.288   4.681  15.128  0.00  0.00     0.110 N 
BRANCH   7   8
ATOM      8  C4  ZIN A   1      17.278   4.603  14.064  0.00  0.00     0.385 C 
BRANCH   8   9
ATOM      9  C2  ZIN A   1      16.314   5.754  14.201  0.00  0.00     0.202 C 
ATOM     10  O1  ZIN A   1      15.162   5.547  14.542  0.00  0.00    -0.647 OA
ATOM     11  O3  ZIN A   1      16.689   6.892  13.978  0.00  0.00    -0.647 OA
ENDBRANCH   8   9
ENDBRANCH   7   8
BRANCH   7  12
ATOM     12  C35 ZIN A   1      19.586   5.112  14.590  0.00  0.00     0.385 C 
BRANCH  12  13
ATOM     13  C36 ZIN A   1      20.232   6.078  15.548  0.00  0.00     0.202 C 
ATOM     14  O37 ZIN A   1      19.554   6.660  16.378  0.00  0.00    -0.647 OA
ATOM     15  O38 ZIN A   1      21.434   6.280  15.493  0.00  0.00    -0.647 OA
ENDBRANCH  12  13
ENDBRANCH   7  12
ENDBRANCH   6   7
ENDBRANCH   5   6
ENDBRANCH   3   5
BRANCH   3  16
ATOM     16  C31 ZIN A   1      18.240   1.148  16.857  0.00  0.00     0.347 C 
BRANCH  16  17
ATOM     17  C32 ZIN A   1      19.237   0.401  17.705  0.00  0.00     0.199 C 
ATOM     18  O33 ZIN A   1      19.932   1.005  18.503  0.00  0.00    -0.647 OA
ATOM     19  O34 ZIN A   1      19.349  -0.808  17.591  0.00  0.00    -0.647 OA
ENDBRANCH  16  17
ENDBRANCH   3  16
ENDBRANCH   2   3
ENDBRANCH   1   2
BRANCH   1  20
ATOM     20  N12 ZIN A   1      18.340  -0.214  12.506  0.00  0.00     0.117 N 
BRANCH  20  21
ATOM     21  C13 ZIN A   1      17.566  -1.395  12.103  0.00  0.00     0.386 C 
BRANCH  21  22
ATOM     22  C14 ZIN A   1      18.455  -2.612  12.131  0.00  0.00     0.202 C 
ATOM     23  O15 ZIN A   1      19.541  -2.561  12.682  0.00  0.00    -0.647 OA
ATOM     24  O16 ZIN A   1      18.088  -3.647  11.602  0.00  0.00    -0.647 OA
ENDBRANCH  21  22
ENDBRANCH  20  21
BRANCH  20  25
ATOM     25  C17 ZIN A   1      18.954   0.436  11.341  0.00  0.00     0.346 C 
BRANCH  25  26
ATOM     26  C19 ZIN A   1      17.943   1.383  10.692  0.00  0.00     0.215 C 
BRANCH  26  27
ATOM     27  O20 ZIN A   1      17.765   1.024   9.321  0.00  0.00    -0.384 OA
BRANCH  27  28
ATOM     28  C21 ZIN A   1      18.786   1.519   8.453  0.00  0.00     0.206 C 
BRANCH  28  29
ATOM     29  C22 ZIN A   1      18.955   0.578   7.287  0.00  0.00    -0.035 A 
ATOM     30  C27 ZIN A   1      19.070   1.082   6.005  0.00  0.00     0.009 A 
ATOM     31  C26 ZIN A   1      19.229   0.220   4.936  0.00  0.00     0.001 A 
ATOM     32  C25 ZIN A   1      19.264  -1.146   5.149  0.00  0.00     0.000 A 
ATOM     33  C24 ZIN A   1      19.144  -1.650   6.431  0.00  0.00     0.001 A 
ATOM     34  C23 ZIN A   1      18.990  -0.786   7.500  0.00  0.00     0.009 A 
ENDBRANCH  28  29
ENDBRANCH  27  28
ENDBRANCH  26  27
ENDBRANCH  25  26
BRANCH  25  35
ATOM     35  C28 ZIN A   1      20.165   1.219  11.781  0.00  0.00     0.209 C 
ATOM     36  O29 ZIN A   1      20.192   2.429  11.640  0.00  0.00    -0.646 OA
ATOM     37  O30 ZIN A   1      21.117   0.641  12.278  0.00  0.00    -0.646 OA
ENDBRANCH  25  35
ENDBRANCH  20  25
ENDBRANCH   1  20
TORSDOF 20
ENDMDL
MODEL 2
REMARK VINA RESULT:      -6.7      1.721      5.806
REMARK  20 active torsions:
REMARK  status: ('A' for Active; 'I' for Inactive)
REMARK    1  A    between atoms: C2_2  and  C4_4 
REMARK    2  A    between atoms: C4_4  and  N5_5 
REMARK    3  A    between atoms: N5_5  and  C6_6 
REMARK    4  A    between atoms: N5_5  and  C35_34 
REMARK    5  A    between atoms: C6_6  and  C7_7 
REMARK    6  A    between atoms: C7_7  and  N8_8 
REMARK    7  A    between atoms: N8_8  and  C10_10 
REMARK    8  A    between atoms: N8_8  and  C31_30 
REMARK    9  A    between atoms: C10_10  and  C11_11 
REMARK   10  A    between atoms: C11_11  and  N12_12 
REMARK   11  A    between atoms: N12_12  and  C13_13 
REMARK   12  A    between atoms: N12_12  and  C17_17 
REMARK   13  A    between atoms: C13_13  and  C14_14 
REMARK   14  A    between atoms: C17_17  and  C19_18 
REMARK   15  A    between atoms: C17_17  and  C28_27 
REMARK   16  A    between atoms: C19_18  and  O20_19 
REMARK   17  A    between atoms: O20_19  and  C21_20 
REMARK   18  A    between atoms: C21_20  and  C22_21 
REMARK   19  A    between atoms: C31_30  and  C32_31 
REMARK   20  A    between atoms: C35_34  and  C36_35 
ROOT
ATOM      1  C11 ZIN A   1      18.923   3.169  13.721  0.00  0.00     0.302 C 
ENDROOT
BRANCH   1   2
ATOM      2  C10 ZIN A   1      17.838   2.537  14.596  0.00  0.00     0.265 C 
BRANCH   2   3
ATOM      3  N8  ZIN A   1      18.436   1.493  15.439  0.00  0.00    -0.058 N 
ATOM      4  H9  ZIN A   1      17.715   0.860  15.753  0.00  0.00     0.280 HD
BRANCH   3   5
ATOM      5  C7  ZIN A   1      19.436   0.749  14.660  0.00  0.00     0.265 C 
BRANCH   5   6
ATOM      6  C6  ZIN A   1      19.015  -0.719  14.562  0.00  0.00     0.301 C 
BRANCH   6   7
ATOM      7  N5  ZIN A   1      19.343  -1.232  13.225  0.00  0.00     0.110 N 
BRANCH   7   8
ATOM      8  C4  ZIN A   1      19.251  -0.169  12.215  0.00  0.00     0.385 C 
BRANCH   8   9
ATOM      9  C2  ZIN A   1      20.585  -0.006  11.534  0.00  0.00     0.202 C 
ATOM     10  O1  ZIN A   1      20.805  -0.578  10.480  0.00  0.00    -0.647 OA
ATOM     11  O3  ZIN A   1      21.442   0.704  12.033  0.00  0.00    -0.647 OA
ENDBRANCH   8   9
ENDBRANCH   7   8
BRANCH   7  12
ATOM     12  C35 ZIN A   1      18.482  -2.369  12.871  0.00  0.00     0.385 C 
BRANCH  12  13
ATOM     13  C36 ZIN A   1      17.563  -1.972  11.745  0.00  0.00     0.202 C 
ATOM     14  O37 ZIN A   1      17.736  -2.428  10.628  0.00  0.00    -0.647 OA
ATOM     15  O38 ZIN A   1      16.648  -1.192  11.950  0.00  0.00    -0.647 OA
ENDBRANCH  12  13
ENDBRANCH   7  12
ENDBRANCH   6   7
ENDBRANCH   5   6
ENDBRANCH   3   5
BRANCH   3  16
ATOM     16  C31 ZIN A   1      19.084   2.113  16.602  0.00  0.00     0.347 C 
BRANCH  16  17
ATOM     17  C32 ZIN A   1      19.001   1.178  17.781  0.00  0.00     0.199 C 
ATOM     18  O33 ZIN A   1      19.964   1.035  18.514  0.00  0.00    -0.647 OA
ATOM     19  O34 ZIN A   1      17.972   0.563  17.999  0.00  0.00    -0.647 OA
ENDBRANCH  16  17
ENDBRANCH   3  16
ENDBRANCH   2   3
ENDBRANCH   1   2
BRANCH   1  20
ATOM     20  N12 ZIN A   1      18.432   4.441  13.176  0.00  0.00     0.117 N 
BRANCH  20  21
ATOM     21  C13 ZIN A   1      19.250   5.567  13.646  0.00  0.00     0.386 C 
BRANCH  21  22
ATOM     22  C14 ZIN A   1      18.459   6.384  14.635  0.00  0.00     0.202 C 
ATOM     23  O15 ZIN A   1      17.267   6.178  14.783  0.00  0.00    -0.647 OA
ATOM     24  O16 ZIN A   1      19.012   7.254  15.287  0.00  0.00    -0.647 OA
ENDBRANCH  21  22
ENDBRANCH  20  21
BRANCH  20  25
ATOM     25  C17 ZIN A   1      18.384   4.401  11.709  0.00  0.00     0.346 C 
BRANCH  25  26
ATOM     26  C19 ZIN A   1      18.367   2.946  11.238  0.00  0.00     0.215 C 
BRANCH  26  27
ATOM     27  O20 ZIN A   1      18.124   2.903   9.831  0.00  0.00    -0.384 OA
BRANCH  27  28
ATOM     28  C21 ZIN A   1      19.207   2.367   9.070  0.00  0.00     0.206 C 
BRANCH  28  29
ATOM     29  C22 ZIN A   1      18.679   1.353   8.087  0.00  0.00    -0.035 A 
ATOM     30  C27 ZIN A   1      17.818   0.359   8.516  0.00  0.00     0.009 A 
ATOM     31  C26 ZIN A   1      17.331  -0.568   7.615  0.00  0.00     0.001 A 
ATOM     32  C25 ZIN A   1      17.709  -0.508   6.287  0.00  0.00     0.000 A 
ATOM     33  C24 ZIN A   1      18.573   0.484   5.859  0.00  0.00     0.001 A 
ATOM     34  C23 ZIN A   1      19.057   1.414   6.760  0.00  0.00     0.009 A 
ENDBRANCH  28  29
ENDBRANCH  27  28
ENDBRANCH  26  27
ENDBRANCH  25  26
BRANCH  25  35
ATOM     35  C28 ZIN A   1      17.138   5.100  11.227  0.00  0.00     0.209 C 
ATOM     36  O29 ZIN A   1      16.080   4.926  11.805  0.00  0.00    -0.646 OA
ATOM     37  O30 ZIN A   1      17.190   5.839  10.259  0.00  0.00    -0.646 OA
ENDBRANCH  25  35
ENDBRANCH  20  25
ENDBRANCH   1  20
TORSDOF 20
ENDMDL
MODEL 3
REMARK VINA RESULT:      -6.7      3.374      9.671
REMARK  20 active torsions:
REMARK  status: ('A' for Active; 'I' for Inactive)
REMARK    1  A    between atoms: C2_2  and  C4_4 
REMARK    2  A    between atoms: C4_4  and  N5_5 
REMARK    3  A    between atoms: N5_5  and  C6_6 
REMARK    4  A    between atoms: N5_5  and  C35_34 
REMARK    5  A    between atoms: C6_6  and  C7_7 
REMARK    6  A    between atoms: C7_7  and  N8_8 
REMARK    7  A    between atoms: N8_8  and  C10_10 
REMARK    8  A    between atoms: N8_8  and  C31_30 
REMARK    9  A    between atoms: C10_10  and  C11_11 
REMARK   10  A    between atoms: C11_11  and  N12_12 
REMARK   11  A    between atoms: N12_12  and  C13_13 
REMARK   12  A    between atoms: N12_12  and  C17_17 
REMARK   13  A    between atoms: C13_13  and  C14_14 
REMARK   14  A    between atoms: C17_17  and  C19_18 
REMARK   15  A    between atoms: C17_17  and  C28_27 
REMARK   16  A    between atoms: C19_18  and  O20_19 
REMARK   17  A    between atoms: O20_19  and  C21_20 
REMARK   18  A    between atoms: C21_20  and  C22_21 
REMARK   19  A    between atoms: C31_30  and  C32_31 
REMARK   20  A    between atoms: C35_34  and  C36_35 
ROOT
ATOM      1  C11 ZIN A   1      17.858   0.180   9.376  0.00  0.00     0.302 C 
ENDROOT
BRANCH   1   2
ATOM      2  C10 ZIN A   1      18.370   0.484   7.966  0.00  0.00     0.265 C 
BRANCH   2   3
ATOM      3  N8  ZIN A   1      18.845  -0.758   7.341  0.00  0.00    -0.058 N 
ATOM      4  H9  ZIN A   1      19.840  -0.695   7.181  0.00  0.00     0.280 HD
BRANCH   3   5
ATOM      5  C7  ZIN A   1      18.562  -1.893   8.230  0.00  0.00     0.265 C 
BRANCH   5   6
ATOM      6  C6  ZIN A   1      18.401  -3.166   7.395  0.00  0.00     0.301 C 
BRANCH   6   7
ATOM      7  N5  ZIN A   1      18.229  -4.318   8.290  0.00  0.00     0.110 N 
BRANCH   7   8
ATOM      8  C4  ZIN A   1      17.595  -5.442   7.585  0.00  0.00     0.385 C 
BRANCH   8   9
ATOM      9  C2  ZIN A   1      18.455  -6.671   7.726  0.00  0.00     0.202 C 
ATOM     10  O1  ZIN A   1      18.023  -7.760   7.388  0.00  0.00    -0.647 OA
ATOM     11  O3  ZIN A   1      19.587  -6.576   8.171  0.00  0.00    -0.647 OA
ENDBRANCH   8   9
ENDBRANCH   7   8
BRANCH   7  12
ATOM     12  C35 ZIN A   1      17.460  -3.947   9.485  0.00  0.00     0.385 C 
BRANCH  12  13
ATOM     13  C36 ZIN A   1      18.092  -4.569  10.703  0.00  0.00     0.202 C 
ATOM     14  O37 ZIN A   1      19.305  -4.566  10.829  0.00  0.00    -0.647 OA
ATOM     15  O38 ZIN A   1      17.391  -5.076  11.563  0.00  0.00    -0.647 OA
ENDBRANCH  12  13
ENDBRANCH   7  12
ENDBRANCH   6   7
ENDBRANCH   5   6
ENDBRANCH   3   5
BRANCH   3  16
ATOM     16  C31 ZIN A   1      18.155  -0.957   6.059  0.00  0.00     0.347 C 
BRANCH  16  17
ATOM     17  C32 ZIN A   1      19.118  -0.710   4.927  0.00  0.00     0.199 C 
ATOM     18  O33 ZIN A   1      19.114   0.361   4.346  0.00  0.00    -0.647 OA
ATOM     19  O34 ZIN A   1      19.901  -1.582   4.591  0.00  0.00    -0.647 OA
ENDBRANCH  16  17
ENDBRANCH   3  16
ENDBRANCH   2   3
ENDBRANCH   1   2
BRANCH   1  20
ATOM     20  N12 ZIN A   1      18.503   1.085  10.336  0.00  0.00     0.117 N 
BRANCH  20  21
ATOM     21  C13 ZIN A   1      17.623   2.212  10.673  0.00  0.00     0.386 C 
BRANCH  21  22
ATOM     22  C14 ZIN A   1      18.386   3.504  10.532  0.00  0.00     0.202 C 
ATOM     23  O15 ZIN A   1      19.469   3.636  11.074  0.00  0.00    -0.647 OA
ATOM     24  O16 ZIN A   1      17.918   4.419   9.876  0.00  0.00    -0.647 OA
ENDBRANCH  21  22
ENDBRANCH  20  21
BRANCH  20  25
ATOM     25  C17 ZIN A   1      18.917   0.361  11.545  0.00  0.00     0.346 C 
BRANCH  25  26
ATOM     26  C19 ZIN A   1      18.183  -0.980  11.613  0.00  0.00     0.215 C 
BRANCH  26  27
ATOM     27  O20 ZIN A   1      17.842  -1.268  12.971  0.00  0.00    -0.384 OA
BRANCH  27  28
ATOM     28  C21 ZIN A   1      17.519  -0.113  13.747  0.00  0.00     0.206 C 
BRANCH  28  29
ATOM     29  C22 ZIN A   1      17.954  -0.328  15.174  0.00  0.00    -0.035 A 
ATOM     30  C27 ZIN A   1      17.350   0.384  16.194  0.00  0.00     0.009 A 
ATOM     31  C26 ZIN A   1      17.746   0.184  17.503  0.00  0.00     0.001 A 
ATOM     32  C25 ZIN A   1      18.750  -0.722  17.792  0.00  0.00     0.000 A 
ATOM     33  C24 ZIN A   1      19.356  -1.430  16.771  0.00  0.00     0.001 A 
ATOM     34  C23 ZIN A   1      18.957  -1.233  15.462  0.00  0.00     0.009 A 
ENDBRANCH  28  29
ENDBRANCH  27  28
ENDBRANCH  26  27
ENDBRANCH  25  26
BRANCH  25  35
ATOM     35  C28 ZIN A   1      20.405   0.117  11.501  0.00  0.00     0.209 C 
ATOM     36  O29 ZIN A   1      21.131   0.639  12.329  0.00  0.00    -0.646 OA
ATOM     37  O30 ZIN A   1      20.879  -0.601  10.638  0.00  0.00    -0.646 OA
ENDBRANCH  25  35
ENDBRANCH  20  25
ENDBRANCH   1  20
TORSDOF 20
ENDMDL
MODEL 4
REMARK VINA RESULT:      -6.7      2.611      8.383
REMARK  20 active torsions:
REMARK  status: ('A' for Active; 'I' for Inactive)
REMARK    1  A    between atoms: C2_2  and  C4_4 
REMARK    2  A    between atoms: C4_4  and  N5_5 
REMARK    3  A    between atoms: N5_5  and  C6_6 
REMARK    4  A    between atoms: N5_5  and  C35_34 
REMARK    5  A    between atoms: C6_6  and  C7_7 
REMARK    6  A    between atoms: C7_7  and  N8_8 
REMARK    7  A    between atoms: N8_8  and  C10_10 
REMARK    8  A    between atoms: N8_8  and  C31_30 
REMARK    9  A    between atoms: C10_10  and  C11_11 
REMARK   10  A    between atoms: C11_11  and  N12_12 
REMARK   11  A    between atoms: N12_12  and  C13_13 
REMARK   12  A    between atoms: N12_12  and  C17_17 
REMARK   13  A    between atoms: C13_13  and  C14_14 
REMARK   14  A    between atoms: C17_17  and  C19_18 
REMARK   15  A    between atoms: C17_17  and  C28_27 
REMARK   16  A    between atoms: C19_18  and  O20_19 
REMARK   17  A    between atoms: O20_19  and  C21_20 
REMARK   18  A    between atoms: C21_20  and  C22_21 
REMARK   19  A    between atoms: C31_30  and  C32_31 
REMARK   20  A    between atoms: C35_34  and  C36_35 
ROOT
ATOM      1  C11 ZIN A   1      18.831   4.085  14.117  0.00  0.00     0.302 C 
ENDROOT
BRANCH   1   2
ATOM      2  C10 ZIN A   1      18.073   3.558  12.896  0.00  0.00     0.265 C 
BRANCH   2   3
ATOM      3  N8  ZIN A   1      18.775   3.965  11.671  0.00  0.00    -0.058 N 
ATOM      4  H9  ZIN A   1      19.142   4.898  11.788  0.00  0.00     0.280 HD
BRANCH   3   5
ATOM      5  C7  ZIN A   1      19.880   3.033  11.408  0.00  0.00     0.265 C 
BRANCH   5   6
ATOM      6  C6  ZIN A   1      19.375   1.878  10.540  0.00  0.00     0.301 C 
BRANCH   6   7
ATOM      7  N5  ZIN A   1      19.046   0.731  11.396  0.00  0.00     0.110 N 
BRANCH   7   8
ATOM      8  C4  ZIN A   1      20.239   0.237  12.098  0.00  0.00     0.385 C 
BRANCH   8   9
ATOM      9  C2  ZIN A   1      19.874  -0.125  13.515  0.00  0.00     0.202 C 
ATOM     10  O1  ZIN A   1      19.750   0.750  14.355  0.00  0.00    -0.647 OA
ATOM     11  O3  ZIN A   1      19.696  -1.292  13.818  0.00  0.00    -0.647 OA
ENDBRANCH   8   9
ENDBRANCH   7   8
BRANCH   7  12
ATOM     12  C35 ZIN A   1      18.412  -0.342  10.618  0.00  0.00     0.385 C 
BRANCH  12  13
ATOM     13  C36 ZIN A   1      17.133  -0.765  11.292  0.00  0.00     0.202 C 
ATOM     14  O37 ZIN A   1      17.002  -1.911  11.688  0.00  0.00    -0.647 OA
ATOM     15  O38 ZIN A   1      16.228   0.039  11.442  0.00  0.00    -0.647 OA
ENDBRANCH  12  13
ENDBRANCH   7  12
ENDBRANCH   6   7
ENDBRANCH   5   6
ENDBRANCH   3   5
BRANCH   3  16
ATOM     16  C31 ZIN A   1      17.839   3.945  10.540  0.00  0.00     0.347 C 
BRANCH  16  17
ATOM     17  C32 ZIN A   1      16.893   5.113  10.650  0.00  0.00     0.199 C 
ATOM     18  O33 ZIN A   1      15.768   4.948  11.089  0.00  0.00    -0.647 OA
ATOM     19  O34 ZIN A   1      17.253   6.224  10.300  0.00  0.00    -0.647 OA
ENDBRANCH  16  17
ENDBRANCH   3  16
ENDBRANCH   2   3
ENDBRANCH   1   2
BRANCH   1  20
ATOM     20  N12 ZIN A   1      18.045   5.147  14.759  0.00  0.00     0.117 N 
BRANCH  20  21
ATOM     21  C13 ZIN A   1      16.633   5.072  14.362  0.00  0.00     0.386 C 
BRANCH  21  22
ATOM     22  C14 ZIN A   1      16.043   6.458  14.341  0.00  0.00     0.202 C 
ATOM     23  O15 ZIN A   1      16.738   7.413  14.040  0.00  0.00    -0.647 OA
ATOM     24  O16 ZIN A   1      14.870   6.626  14.628  0.00  0.00    -0.647 OA
ENDBRANCH  21  22
ENDBRANCH  20  21
BRANCH  20  25
ATOM     25  C17 ZIN A   1      18.185   5.094  16.220  0.00  0.00     0.346 C 
BRANCH  25  26
ATOM     26  C19 ZIN A   1      18.921   3.812  16.616  0.00  0.00     0.215 C 
BRANCH  26  27
ATOM     27  O20 ZIN A   1      18.206   3.158  17.666  0.00  0.00    -0.384 OA
BRANCH  27  28
ATOM     28  C21 ZIN A   1      18.954   2.139  18.333  0.00  0.00     0.206 C 
BRANCH  28  29
ATOM     29  C22 ZIN A   1      18.602   0.794  17.751  0.00  0.00    -0.035 A 
ATOM     30  C27 ZIN A   1      19.540  -0.222  17.744  0.00  0.00     0.009 A 
ATOM     31  C26 ZIN A   1      19.216  -1.457  17.214  0.00  0.00     0.001 A 
ATOM     32  C25 ZIN A   1      17.957  -1.674  16.685  0.00  0.00     0.000 A 
ATOM     33  C24 ZIN A   1      17.021  -0.656  16.688  0.00  0.00     0.001 A 
ATOM     34  C23 ZIN A   1      17.344   0.578  17.222  0.00  0.00     0.009 A 
ENDBRANCH  28  29
ENDBRANCH  27  28
ENDBRANCH  26  27
ENDBRANCH  25  26
BRANCH  25  35
ATOM     35  C28 ZIN A   1      18.970   6.291  16.694  0.00  0.00     0.209 C 
ATOM     36  O29 ZIN A   1      18.498   7.031  17.540  0.00  0.00    -0.646 OA
ATOM     37  O30 ZIN A   1      20.074   6.517  16.232  0.00  0.00    -0.646 OA
ENDBRANCH  25  35
ENDBRANCH  20  25
ENDBRANCH   1  20
TORSDOF 20
ENDMDL
MODEL 5
REMARK VINA RESULT:      -6.7      3.014      7.931
REMARK  20 active torsions:
REMARK  status: ('A' for Active; 'I' for Inactive)
REMARK    1  A    between atoms: C2_2  and  C4_4 
REMARK    2  A    between atoms: C4_4  and  N5_5 
REMARK    3  A    between atoms: N5_5  and  C6_6 
REMARK    4  A    between atoms: N5_5  and  C35_34 
REMARK    5  A    between atoms: C6_6  and  C7_7 
REMARK    6  A    between atoms: C7_7  and  N8_8 
REMARK    7  A    between atoms: N8_8  and  C10_10 
REMARK    8  A    between atoms: N8_8  and  C31_30 
REMARK    9  A    between atoms: C10_10  and  C11_11 
REMARK   10  A    between atoms: C11_11  and  N12_12 
REMARK   11  A    between atoms: N12_12  and  C13_13 
REMARK   12  A    between atoms: N12_12  and  C17_17 
REMARK   13  A    between atoms: C13_13  and  C14_14 
REMARK   14  A    between atoms: C17_17  and  C19_18 
REMARK   15  A    between atoms: C17_17  and  C28_27 
REMARK   16  A    between atoms: C19_18  and  O20_19 
REMARK   17  A    between atoms: O20_19  and  C21_20 
REMARK   18  A    between atoms: C21_20  and  C22_21 
REMARK   19  A    between atoms: C31_30  and  C32_31 
REMARK   20  A    between atoms: C35_34  and  C36_35 
ROOT
ATOM      1  C11 ZIN A   1      19.671  -2.034  12.051  0.00  0.00     0.302 C 
ENDROOT
BRANCH   1   2
ATOM      2  C10 ZIN A   1      19.063  -3.425  11.861  0.00  0.00     0.265 C 
BRANCH   2   3
ATOM      3  N8  ZIN A   1      18.373  -3.485  10.566  0.00  0.00    -0.058 N 
ATOM      4  H9  ZIN A   1      17.404  -3.231  10.689  0.00  0.00     0.280 HD
BRANCH   3   5
ATOM      5  C7  ZIN A   1      19.010  -2.549   9.628  0.00  0.00     0.265 C 
BRANCH   5   6
ATOM      6  C6  ZIN A   1      17.936  -1.891   8.758  0.00  0.00     0.301 C 
BRANCH   6   7
ATOM      7  N5  ZIN A   1      18.511  -1.548   7.450  0.00  0.00     0.110 N 
BRANCH   7   8
ATOM      8  C4  ZIN A   1      19.341  -2.645   6.935  0.00  0.00     0.385 C 
BRANCH   8   9
ATOM      9  C2  ZIN A   1      19.219  -2.705   5.434  0.00  0.00     0.202 C 
ATOM     10  O1  ZIN A   1      18.565  -3.590   4.910  0.00  0.00    -0.647 OA
ATOM     11  O3  ZIN A   1      19.768  -1.862   4.744  0.00  0.00    -0.647 OA
ENDBRANCH   8   9
ENDBRANCH   7   8
BRANCH   7  12
ATOM     12  C35 ZIN A   1      19.280  -0.298   7.525  0.00  0.00     0.385 C 
BRANCH  12  13
ATOM     13  C36 ZIN A   1      18.542   0.791   6.792  0.00  0.00     0.202 C 
ATOM     14  O37 ZIN A   1      17.689   0.503   5.970  0.00  0.00    -0.647 OA
ATOM     15  O38 ZIN A   1      18.798   1.962   7.020  0.00  0.00    -0.647 OA
ENDBRANCH  12  13
ENDBRANCH   7  12
ENDBRANCH   6   7
ENDBRANCH   5   6
ENDBRANCH   3   5
BRANCH   3  16
ATOM     16  C31 ZIN A   1      18.457  -4.849  10.027  0.00  0.00     0.347 C 
BRANCH  16  17
ATOM     17  C32 ZIN A   1      17.130  -5.541  10.206  0.00  0.00     0.199 C 
ATOM     18  O33 ZIN A   1      16.955  -6.653   9.738  0.00  0.00    -0.647 OA
ATOM     19  O34 ZIN A   1      16.232  -4.989  10.817  0.00  0.00    -0.647 OA
ENDBRANCH  16  17
ENDBRANCH   3  16
ENDBRANCH   2   3
ENDBRANCH   1   2
BRANCH   1  20
ATOM     20  N12 ZIN A   1      18.919  -1.308  13.083  0.00  0.00     0.117 N 
BRANCH  20  21
ATOM     21  C13 ZIN A   1      19.672  -1.252  14.343  0.00  0.00     0.386 C 
BRANCH  21  22
ATOM     22  C14 ZIN A   1      18.713  -1.299  15.504  0.00  0.00     0.202 C 
ATOM     23  O15 ZIN A   1      19.137  -1.363  16.644  0.00  0.00    -0.647 OA
ATOM     24  O16 ZIN A   1      17.511  -1.274  15.302  0.00  0.00    -0.647 OA
ENDBRANCH  21  22
ENDBRANCH  20  21
BRANCH  20  25
ATOM     25  C17 ZIN A   1      18.561   0.040  12.623  0.00  0.00     0.346 C 
BRANCH  25  26
ATOM     26  C19 ZIN A   1      19.611   0.535  11.626  0.00  0.00     0.215 C 
BRANCH  26  27
ATOM     27  O20 ZIN A   1      20.075   1.826  12.024  0.00  0.00    -0.384 OA
BRANCH  27  28
ATOM     28  C21 ZIN A   1      19.902   2.838  11.030  0.00  0.00     0.206 C 
BRANCH  28  29
ATOM     29  C22 ZIN A   1      18.762   3.742  11.424  0.00  0.00    -0.035 A 
ATOM     30  C27 ZIN A   1      17.848   4.155  10.473  0.00  0.00     0.009 A 
ATOM     31  C26 ZIN A   1      16.800   4.980  10.835  0.00  0.00     0.001 A 
ATOM     32  C25 ZIN A   1      16.671   5.400  12.146  0.00  0.00     0.000 A 
ATOM     33  C24 ZIN A   1      17.588   4.990  13.096  0.00  0.00     0.001 A 
ATOM     34  C23 ZIN A   1      18.634   4.161  12.735  0.00  0.00     0.009 A 
ENDBRANCH  28  29
ENDBRANCH  27  28
ENDBRANCH  26  27
ENDBRANCH  25  26
BRANCH  25  35
ATOM     35  C28 ZIN A   1      17.211   0.001  11.952  0.00  0.00     0.209 C 
ATOM     36  O29 ZIN A   1      16.762   1.006  11.430  0.00  0.00    -0.646 OA
ATOM     37  O30 ZIN A   1      16.570  -1.036  11.934  0.00  0.00    -0.646 OA
ENDBRANCH  25  35
ENDBRANCH  20  25
ENDBRANCH   1  20
TORSDOF 20
ENDMDL
MODEL 6
REMARK VINA RESULT:      -6.6      2.493      5.328
REMARK  20 active torsions:
REMARK  status: ('A' for Active; 'I' for Inactive)
REMARK    1  A    between atoms: C2_2  and  C4_4 
REMARK    2  A    between atoms: C4_4  and  N5_5 
REMARK    3  A    between atoms: N5_5  and  C6_6 
REMARK    4  A    between atoms: N5_5  and  C35_34 
REMARK    5  A    between atoms: C6_6  and  C7_7 
REMARK    6  A    between atoms: C7_7  and  N8_8 
REMARK    7  A    between atoms: N8_8  and  C10_10 
REMARK    8  A    between atoms: N8_8  and  C31_30 
REMARK    9  A    between atoms: C10_10  and  C11_11 
REMARK   10  A    between atoms: C11_11  and  N12_12 
REMARK   11  A    between atoms: N12_12  and  C13_13 
REMARK   12  A    between atoms: N12_12  and  C17_17 
REMARK   13  A    between atoms: C13_13  and  C14_14 
REMARK   14  A    between atoms: C17_17  and  C19_18 
REMARK   15  A    between atoms: C17_17  and  C28_27 
REMARK   16  A    between atoms: C19_18  and  O20_19 
REMARK   17  A    between atoms: O20_19  and  C21_20 
REMARK   18  A    between atoms: C21_20  and  C22_21 
REMARK   19  A    between atoms: C31_30  and  C32_31 
REMARK   20  A    between atoms: C35_34  and  C36_35 
ROOT
ATOM      1  C11 ZIN A   1      20.500  -0.072  11.453  0.00  0.00     0.302 C 
ENDROOT
BRANCH   1   2
ATOM      2  C10 ZIN A   1      20.487   1.413  11.823  0.00  0.00     0.265 C 
BRANCH   2   3
ATOM      3  N8  ZIN A   1      19.269   1.716  12.587  0.00  0.00    -0.058 N 
ATOM      4  H9  ZIN A   1      18.489   1.216  12.188  0.00  0.00     0.280 HD
BRANCH   3   5
ATOM      5  C7  ZIN A   1      19.453   1.302  13.985  0.00  0.00     0.265 C 
BRANCH   5   6
ATOM      6  C6  ZIN A   1      18.238   1.735  14.808  0.00  0.00     0.301 C 
BRANCH   6   7
ATOM      7  N5  ZIN A   1      18.690   2.301  16.086  0.00  0.00     0.110 N 
BRANCH   7   8
ATOM      8  C4  ZIN A   1      18.138   1.548  17.220  0.00  0.00     0.385 C 
BRANCH   8   9
ATOM      9  C2  ZIN A   1      19.163   0.559  17.713  0.00  0.00     0.202 C 
ATOM     10  O1  ZIN A   1      19.994   0.902  18.536  0.00  0.00    -0.647 OA
ATOM     11  O3  ZIN A   1      19.156  -0.586  17.293  0.00  0.00    -0.647 OA
ENDBRANCH   8   9
ENDBRANCH   7   8
BRANCH   7  12
ATOM     12  C35 ZIN A   1      18.343   3.726  16.183  0.00  0.00     0.385 C 
BRANCH  12  13
ATOM     13  C36 ZIN A   1      19.603   4.541  16.319  0.00  0.00     0.202 C 
ATOM     14  O37 ZIN A   1      19.583   5.737  16.083  0.00  0.00    -0.647 OA
ATOM     15  O38 ZIN A   1      20.643   4.005  16.664  0.00  0.00    -0.647 OA
ENDBRANCH  12  13
ENDBRANCH   7  12
ENDBRANCH   6   7
ENDBRANCH   5   6
ENDBRANCH   3   5
BRANCH   3  16
ATOM     16  C31 ZIN A   1      19.005   3.160  12.535  0.00  0.00     0.347 C 
BRANCH  16  17
ATOM     17  C32 ZIN A   1      17.981   3.445  11.467  0.00  0.00     0.199 C 
ATOM     18  O33 ZIN A   1      16.987   2.747  11.374  0.00  0.00    -0.647 OA
ATOM     19  O34 ZIN A   1      18.149   4.373  10.694  0.00  0.00    -0.647 OA
ENDBRANCH  16  17
ENDBRANCH   3  16
ENDBRANCH   2   3
ENDBRANCH   1   2
BRANCH   1  20
ATOM     20  N12 ZIN A   1      19.344  -0.373  10.598  0.00  0.00     0.117 N 
BRANCH  20  21
ATOM     21  C13 ZIN A   1      19.745  -0.485   9.189  0.00  0.00     0.386 C 
BRANCH  21  22
ATOM     22  C14 ZIN A   1      18.879   0.417   8.348  0.00  0.00     0.202 C 
ATOM     23  O15 ZIN A   1      17.901   0.955   8.837  0.00  0.00    -0.647 OA
ATOM     24  O16 ZIN A   1      19.157   0.609   7.176  0.00  0.00    -0.647 OA
ENDBRANCH  21  22
ENDBRANCH  20  21
BRANCH  20  25
ATOM     25  C17 ZIN A   1      18.660  -1.592  11.049  0.00  0.00     0.346 C 
BRANCH  25  26
ATOM     26  C19 ZIN A   1      19.651  -2.487  11.796  0.00  0.00     0.215 C 
BRANCH  26  27
ATOM     27  O20 ZIN A   1      19.190  -3.839  11.761  0.00  0.00    -0.384 OA
BRANCH  27  28
ATOM     28  C21 ZIN A   1      19.735  -4.612  10.691  0.00  0.00     0.206 C 
BRANCH  28  29
ATOM     29  C22 ZIN A   1      18.617  -5.286   9.937  0.00  0.00    -0.035 A 
ATOM     30  C27 ZIN A   1      18.908  -6.202   8.943  0.00  0.00     0.009 A 
ATOM     31  C26 ZIN A   1      17.883  -6.823   8.255  0.00  0.00     0.001 A 
ATOM     32  C25 ZIN A   1      16.567  -6.522   8.553  0.00  0.00     0.000 A 
ATOM     33  C24 ZIN A   1      16.276  -5.602   9.544  0.00  0.00     0.001 A 
ATOM     34  C23 ZIN A   1      17.302  -4.984  10.236  0.00  0.00     0.009 A 
ENDBRANCH  28  29
ENDBRANCH  27  28
ENDBRANCH  26  27
ENDBRANCH  25  26
BRANCH  25  35
ATOM     35  C28 ZIN A   1      17.525  -1.220  11.970  0.00  0.00     0.209 C 
ATOM     36  O29 ZIN A   1      16.533  -0.671  11.523  0.00  0.00    -0.646 OA
ATOM     37  O30 ZIN A   1      17.601  -1.468  13.161  0.00  0.00    -0.646 OA
ENDBRANCH  25  35
ENDBRANCH  20  25
ENDBRANCH   1  20
TORSDOF 20
ENDMDL
MODEL 7
REMARK VINA RESULT:      -6.5      3.089      8.352
REMARK  20 active torsions:
REMARK  status: ('A' for Active; 'I' for Inactive)
REMARK    1  A    between atoms: C2_2  and  C4_4 
REMARK    2  A    between atoms: C4_4  and  N5_5 
REMARK    3  A    between atoms: N5_5  and  C6_6 
REMARK    4  A    between atoms: N5_5  and  C35_34 
REMARK    5  A    between atoms: C6_6  and  C7_7 
REMARK    6  A    between atoms: C7_7  and  N8_8 
REMARK    7  A    between atoms: N8_8  and  C10_10 
REMARK    8  A    between atoms: N8_8  and  C31_30 
REMARK    9  A    between atoms: C10_10  and  C11_11 
REMARK   10  A    between atoms: C11_11  and  N12_12 
REMARK   11  A    between atoms: N12_12  and  C13_13 
REMARK   12  A    between atoms: N12_12  and  C17_17 
REMARK   13  A    between atoms: C13_13  and  C14_14 
REMARK   14  A    between atoms: C17_17  and  C19_18 
REMARK   15  A    between atoms: C17_17  and  C28_27 
REMARK   16  A    between atoms: C19_18  and  O20_19 
REMARK   17  A    between atoms: O20_19  and  C21_20 
REMARK   18  A    between atoms: C21_20  and  C22_21 
REMARK   19  A    between atoms: C31_30  and  C32_31 
REMARK   20  A    between atoms: C35_34  and  C36_35 
ROOT
ATOM      1  C11 ZIN A   1      20.009  -1.239  11.949  0.00  0.00     0.302 C 
ENDROOT
BRANCH   1   2
ATOM      2  C10 ZIN A   1      19.835  -2.744  12.172  0.00  0.00     0.265 C 
BRANCH   2   3
ATOM      3  N8  ZIN A   1      18.872  -3.274  11.197  0.00  0.00    -0.058 N 
ATOM      4  H9  ZIN A   1      17.960  -2.884  11.380  0.00  0.00     0.280 HD
BRANCH   3   5
ATOM      5  C7  ZIN A   1      19.299  -2.910   9.839  0.00  0.00     0.265 C 
BRANCH   5   6
ATOM      6  C6  ZIN A   1      18.066  -2.721   8.952  0.00  0.00     0.301 C 
BRANCH   6   7
ATOM      7  N5  ZIN A   1      18.308  -3.339   7.642  0.00  0.00     0.110 N 
BRANCH   7   8
ATOM      8  C4  ZIN A   1      18.429  -4.799   7.763  0.00  0.00     0.385 C 
BRANCH   8   9
ATOM      9  C2  ZIN A   1      17.090  -5.438   7.498  0.00  0.00     0.202 C 
ATOM     10  O1  ZIN A   1      16.401  -5.817   8.429  0.00  0.00    -0.647 OA
ATOM     11  O3  ZIN A   1      16.694  -5.569   6.352  0.00  0.00    -0.647 OA
ENDBRANCH   8   9
ENDBRANCH   7   8
BRANCH   7  12
ATOM     12  C35 ZIN A   1      19.498  -2.765   6.999  0.00  0.00     0.385 C 
BRANCH  12  13
ATOM     13  C36 ZIN A   1      19.081  -1.967   5.791  0.00  0.00     0.202 C 
ATOM     14  O37 ZIN A   1      17.921  -1.612   5.666  0.00  0.00    -0.647 OA
ATOM     15  O38 ZIN A   1      19.903  -1.677   4.938  0.00  0.00    -0.647 OA
ENDBRANCH  12  13
ENDBRANCH   7  12
ENDBRANCH   6   7
ENDBRANCH   5   6
ENDBRANCH   3   5
BRANCH   3  16
ATOM     16  C31 ZIN A   1      18.812  -4.737  11.315  0.00  0.00     0.347 C 
BRANCH  16  17
ATOM     17  C32 ZIN A   1      17.453  -5.144  11.824  0.00  0.00     0.199 C 
ATOM     18  O33 ZIN A   1      17.319  -6.189  12.435  0.00  0.00    -0.647 OA
ATOM     19  O34 ZIN A   1      16.487  -4.428  11.623  0.00  0.00    -0.647 OA
ENDBRANCH  16  17
ENDBRANCH   3  16
ENDBRANCH   2   3
ENDBRANCH   1   2
BRANCH   1  20
ATOM     20  N12 ZIN A   1      18.976  -0.512  12.698  0.00  0.00     0.117 N 
BRANCH  20  21
ATOM     21  C13 ZIN A   1      19.548   0.150  13.878  0.00  0.00     0.386 C 
BRANCH  21  22
ATOM     22  C14 ZIN A   1      18.687  -0.136  15.081  0.00  0.00     0.202 C 
ATOM     23  O15 ZIN A   1      17.518   0.208  15.091  0.00  0.00    -0.647 OA
ATOM     24  O16 ZIN A   1      19.160  -0.711  16.047  0.00  0.00    -0.647 OA
ENDBRANCH  21  22
ENDBRANCH  20  21
BRANCH  20  25
ATOM     25  C17 ZIN A   1      18.283   0.455  11.836  0.00  0.00     0.346 C 
BRANCH  25  26
ATOM     26  C19 ZIN A   1      19.127   0.722  10.589  0.00  0.00     0.215 C 
BRANCH  26  27
ATOM     27  O20 ZIN A   1      19.596   2.071  10.611  0.00  0.00    -0.384 OA
BRANCH  27  28
ATOM     28  C21 ZIN A   1      18.654   3.023  10.115  0.00  0.00     0.206 C 
BRANCH  28  29
ATOM     29  C22 ZIN A   1      18.212   3.926  11.239  0.00  0.00    -0.035 A 
ATOM     30  C27 ZIN A   1      19.019   4.093  12.348  0.00  0.00     0.009 A 
ATOM     31  C26 ZIN A   1      18.615   4.924  13.377  0.00  0.00     0.001 A 
ATOM     32  C25 ZIN A   1      17.402   5.581  13.300  0.00  0.00     0.000 A 
ATOM     33  C24 ZIN A   1      16.592   5.410  12.192  0.00  0.00     0.001 A 
ATOM     34  C23 ZIN A   1      16.998   4.582  11.161  0.00  0.00     0.009 A 
ENDBRANCH  28  29
ENDBRANCH  27  28
ENDBRANCH  26  27
ENDBRANCH  25  26
BRANCH  25  35
ATOM     35  C28 ZIN A   1      16.944  -0.105  11.427  0.00  0.00     0.209 C 
ATOM     36  O29 ZIN A   1      16.581  -1.187  11.854  0.00  0.00    -0.646 OA
ATOM     37  O30 ZIN A   1      16.227   0.524  10.669  0.00  0.00    -0.646 OA
ENDBRANCH  25  35
ENDBRANCH  20  25
ENDBRANCH   1  20
TORSDOF 20
ENDMDL
MODEL 8
REMARK VINA RESULT:      -6.4      2.592      5.714
REMARK  20 active torsions:
REMARK  status: ('A' for Active; 'I' for Inactive)
REMARK    1  A    between atoms: C2_2  and  C4_4 
REMARK    2  A    between atoms: C4_4  and  N5_5 
REMARK    3  A    between atoms: N5_5  and  C6_6 
REMARK    4  A    between atoms: N5_5  and  C35_34 
REMARK    5  A    between atoms: C6_6  and  C7_7 
REMARK    6  A    between atoms: C7_7  and  N8_8 
REMARK    7  A    between atoms: N8_8  and  C10_10 
REMARK    8  A    between atoms: N8_8  and  C31_30 
REMARK    9  A    between atoms: C10_10  and  C11_11 
REMARK   10  A    between atoms: C11_11  and  N12_12 
REMARK   11  A    between atoms: N12_12  and  C13_13 
REMARK   12  A    between atoms: N12_12  and  C17_17 
REMARK   13  A    between atoms: C13_13  and  C14_14 
REMARK   14  A    between atoms: C17_17  and  C19_18 
REMARK   15  A    between atoms: C17_17  and  C28_27 
REMARK   16  A    between atoms: C19_18  and  O20_19 
REMARK   17  A    between atoms: O20_19  and  C21_20 
REMARK   18  A    between atoms: C21_20  and  C22_21 
REMARK   19  A    between atoms: C31_30  and  C32_31 
REMARK   20  A    between atoms: C35_34  and  C36_35 
ROOT
ATOM      1  C11 ZIN A   1      19.926   0.855  11.076  0.00  0.00     0.302 C 
ENDROOT
BRANCH   1   2
ATOM      2  C10 ZIN A   1      19.716   2.353  11.306  0.00  0.00     0.265 C 
BRANCH   2   3
ATOM      3  N8  ZIN A   1      18.714   2.550  12.363  0.00  0.00    -0.058 N 
ATOM      4  H9  ZIN A   1      17.839   2.136  12.078  0.00  0.00     0.280 HD
BRANCH   3   5
ATOM      5  C7  ZIN A   1      19.179   1.911  13.602  0.00  0.00     0.265 C 
BRANCH   5   6
ATOM      6  C6  ZIN A   1      18.007   1.782  14.578  0.00  0.00     0.301 C 
BRANCH   6   7
ATOM      7  N5  ZIN A   1      18.470   1.141  15.816  0.00  0.00     0.110 N 
BRANCH   7   8
ATOM      8  C4  ZIN A   1      17.759  -0.122  16.053  0.00  0.00     0.385 C 
BRANCH   8   9
ATOM      9  C2  ZIN A   1      18.670  -1.280  15.735  0.00  0.00     0.202 C 
ATOM     10  O1  ZIN A   1      18.773  -1.677  14.587  0.00  0.00    -0.647 OA
ATOM     11  O3  ZIN A   1      19.310  -1.814  16.625  0.00  0.00    -0.647 OA
ENDBRANCH   8   9
ENDBRANCH   7   8
BRANCH   7  12
ATOM     12  C35 ZIN A   1      18.329   2.048  16.963  0.00  0.00     0.385 C 
BRANCH  12  13
ATOM     13  C36 ZIN A   1      18.735   1.330  18.224  0.00  0.00     0.202 C 
ATOM     14  O37 ZIN A   1      19.913   1.115  18.451  0.00  0.00    -0.647 OA
ATOM     15  O38 ZIN A   1      17.884   0.961  19.017  0.00  0.00    -0.647 OA
ENDBRANCH  12  13
ENDBRANCH   7  12
ENDBRANCH   6   7
ENDBRANCH   5   6
ENDBRANCH   3   5
BRANCH   3  16
ATOM     16  C31 ZIN A   1      18.523   3.988  12.595  0.00  0.00     0.347 C 
BRANCH  16  17
ATOM     17  C32 ZIN A   1      17.160   4.399  12.101  0.00  0.00     0.199 C 
ATOM     18  O33 ZIN A   1      16.723   3.937  11.062  0.00  0.00    -0.647 OA
ATOM     19  O34 ZIN A   1      16.494   5.194  12.741  0.00  0.00    -0.647 OA
ENDBRANCH  16  17
ENDBRANCH   3  16
ENDBRANCH   2   3
ENDBRANCH   1   2
BRANCH   1  20
ATOM     20  N12 ZIN A   1      19.027   0.394  10.010  0.00  0.00     0.117 N 
BRANCH  20  21
ATOM     21  C13 ZIN A   1      19.747   0.251   8.738  0.00  0.00     0.386 C 
BRANCH  21  22
ATOM     22  C14 ZIN A   1      18.911   0.822   7.622  0.00  0.00     0.202 C 
ATOM     23  O15 ZIN A   1      18.069   0.131   7.074  0.00  0.00    -0.647 OA
ATOM     24  O16 ZIN A   1      19.077   1.976   7.265  0.00  0.00    -0.647 OA
ENDBRANCH  21  22
ENDBRANCH  20  21
BRANCH  20  25
ATOM     25  C17 ZIN A   1      18.368  -0.864  10.386  0.00  0.00     0.346 C 
BRANCH  25  26
ATOM     26  C19 ZIN A   1      19.348  -1.738  11.173  0.00  0.00     0.215 C 
BRANCH  26  27
ATOM     27  O20 ZIN A   1      19.505  -2.994  10.510  0.00  0.00    -0.384 OA
BRANCH  27  28
ATOM     28  C21 ZIN A   1      18.859  -3.064   9.237  0.00  0.00     0.206 C 
BRANCH  28  29
ATOM     29  C22 ZIN A   1      18.155  -4.391   9.103  0.00  0.00    -0.035 A 
ATOM     30  C27 ZIN A   1      18.850  -5.498   8.651  0.00  0.00     0.009 A 
ATOM     31  C26 ZIN A   1      18.206  -6.715   8.532  0.00  0.00     0.001 A 
ATOM     32  C25 ZIN A   1      16.866  -6.824   8.856  0.00  0.00     0.000 A 
ATOM     33  C24 ZIN A   1      16.171  -5.715   9.303  0.00  0.00     0.001 A 
ATOM     34  C23 ZIN A   1      16.816  -4.499   9.426  0.00  0.00     0.009 A 
ENDBRANCH  28  29
ENDBRANCH  27  28
ENDBRANCH  26  27
ENDBRANCH  25  26
BRANCH  25  35
ATOM     35  C28 ZIN A   1      17.163  -0.565  11.242  0.00  0.00     0.209 C 
ATOM     36  O29 ZIN A   1      16.755  -1.399  12.031  0.00  0.00    -0.646 OA
ATOM     37  O30 ZIN A   1      16.599   0.511  11.144  0.00  0.00    -0.646 OA
ENDBRANCH  25  35
ENDBRANCH  20  25
ENDBRANCH   1  20
TORSDOF 20
ENDMDL
MODEL 9
REMARK VINA RESULT:      -6.4      4.068     10.207
REMARK  20 active torsions:
REMARK  status: ('A' for Active; 'I' for Inactive)
REMARK    1  A    between atoms: C2_2  and  C4_4 
REMARK    2  A    between atoms: C4_4  and  N5_5 
REMARK    3  A    between atoms: N5_5  and  C6_6 
REMARK    4  A    between atoms: N5_5  and  C35_34 
REMARK    5  A    between atoms: C6_6  and  C7_7 
REMARK    6  A    between atoms: C7_7  and  N8_8 
REMARK    7  A    between atoms: N8_8  and  C10_10 
REMARK    8  A    between atoms: N8_8  and  C31_30 
REMARK    9  A    between atoms: C10_10  and  C11_11 
REMARK   10  A    between atoms: C11_11  and  N12_12 
REMARK   11  A    between atoms: N12_12  and  C13_13 
REMARK   12  A    between atoms: N12_12  and  C17_17 
REMARK   13  A    between atoms: C13_13  and  C14_14 
REMARK   14  A    between atoms: C17_17  and  C19_18 
REMARK   15  A    between atoms: C17_17  and  C28_27 
REMARK   16  A    between atoms: C19_18  and  O20_19 
REMARK   17  A    between atoms: O20_19  and  C21_20 
REMARK   18  A    between atoms: C21_20  and  C22_21 
REMARK   19  A    between atoms: C31_30  and  C32_31 
REMARK   20  A    between atoms: C35_34  and  C36_35 
ROOT
ATOM      1  C11 ZIN A   1      19.238  -1.750   9.197  0.00  0.00     0.302 C 
ENDROOT
BRANCH   1   2
ATOM      2  C10 ZIN A   1      18.617  -2.688   8.159  0.00  0.00     0.265 C 
BRANCH   2   3
ATOM      3  N8  ZIN A   1      19.215  -2.425   6.843  0.00  0.00    -0.058 N 
ATOM      4  H9  ZIN A   1      20.122  -2.000   6.964  0.00  0.00     0.280 HD
BRANCH   3   5
ATOM      5  C7  ZIN A   1      19.361  -3.691   6.110  0.00  0.00     0.265 C 
BRANCH   5   6
ATOM      6  C6  ZIN A   1      18.220  -3.827   5.099  0.00  0.00     0.301 C 
BRANCH   6   7
ATOM      7  N5  ZIN A   1      17.592  -5.146   5.245  0.00  0.00     0.110 N 
BRANCH   7   8
ATOM      8  C4  ZIN A   1      18.474  -6.072   5.970  0.00  0.00     0.385 C 
BRANCH   8   9
ATOM      9  C2  ZIN A   1      17.640  -7.088   6.706  0.00  0.00     0.202 C 
ATOM     10  O1  ZIN A   1      18.062  -8.220   6.871  0.00  0.00    -0.647 OA
ATOM     11  O3  ZIN A   1      16.545  -6.777   7.142  0.00  0.00    -0.647 OA
ENDBRANCH   8   9
ENDBRANCH   7   8
BRANCH   7  12
ATOM     12  C35 ZIN A   1      17.213  -5.697   3.937  0.00  0.00     0.385 C 
BRANCH  12  13
ATOM     13  C36 ZIN A   1      15.714  -5.653   3.788  0.00  0.00     0.202 C 
ATOM     14  O37 ZIN A   1      15.146  -4.582   3.655  0.00  0.00    -0.647 OA
ATOM     15  O38 ZIN A   1      15.068  -6.688   3.803  0.00  0.00    -0.647 OA
ENDBRANCH  12  13
ENDBRANCH   7  12
ENDBRANCH   6   7
ENDBRANCH   5   6
ENDBRANCH   3   5
BRANCH   3  16
ATOM     16  C31 ZIN A   1      18.346  -1.517   6.082  0.00  0.00     0.347 C 
BRANCH  16  17
ATOM     17  C32 ZIN A   1      19.175  -0.403   5.496  0.00  0.00     0.199 C 
ATOM     18  O33 ZIN A   1      19.987  -0.644   4.619  0.00  0.00    -0.647 OA
ATOM     19  O34 ZIN A   1      19.035   0.739   5.900  0.00  0.00    -0.647 OA
ENDBRANCH  16  17
ENDBRANCH   3  16
ENDBRANCH   2   3
ENDBRANCH   1   2
BRANCH   1  20
ATOM     20  N12 ZIN A   1      18.326  -1.613  10.340  0.00  0.00     0.117 N 
BRANCH  20  21
ATOM     21  C13 ZIN A   1      18.805  -2.386  11.493  0.00  0.00     0.386 C 
BRANCH  21  22
ATOM     22  C14 ZIN A   1      18.047  -3.685  11.577  0.00  0.00     0.202 C 
ATOM     23  O15 ZIN A   1      16.833  -3.692  11.473  0.00  0.00    -0.647 OA
ATOM     24  O16 ZIN A   1      18.649  -4.732  11.749  0.00  0.00    -0.647 OA
ENDBRANCH  21  22
ENDBRANCH  20  21
BRANCH  20  25
ATOM     25  C17 ZIN A   1      18.136  -0.200  10.695  0.00  0.00     0.346 C 
BRANCH  25  26
ATOM     26  C19 ZIN A   1      17.752   0.594   9.445  0.00  0.00     0.215 C 
BRANCH  26  27
ATOM     27  O20 ZIN A   1      18.601   1.737   9.327  0.00  0.00    -0.384 OA
BRANCH  27  28
ATOM     28  C21 ZIN A   1      19.129   2.200  10.571  0.00  0.00     0.206 C 
BRANCH  28  29
ATOM     29  C22 ZIN A   1      18.297   3.352  11.074  0.00  0.00    -0.035 A 
ATOM     30  C27 ZIN A   1      17.784   4.274  10.180  0.00  0.00     0.009 A 
ATOM     31  C26 ZIN A   1      17.018   5.329  10.640  0.00  0.00     0.001 A 
ATOM     32  C25 ZIN A   1      16.771   5.466  11.994  0.00  0.00     0.000 A 
ATOM     33  C24 ZIN A   1      17.288   4.546  12.887  0.00  0.00     0.001 A 
ATOM     34  C23 ZIN A   1      18.051   3.489  12.426  0.00  0.00     0.009 A 
ENDBRANCH  28  29
ENDBRANCH  27  28
ENDBRANCH  26  27
ENDBRANCH  25  26
BRANCH  25  35
ATOM     35  C28 ZIN A   1      17.038  -0.083  11.722  0.00  0.00     0.209 C 
ATOM     36  O29 ZIN A   1      15.873  -0.052  11.365  0.00  0.00    -0.646 OA
ATOM     37  O30 ZIN A   1      17.316  -0.019  12.906  0.00  0.00    -0.646 OA
ENDBRANCH  25  35
ENDBRANCH  20  25
ENDBRANCH   1  20
TORSDOF 20
ENDMDL
