MODEL 1
REMARK VINA RESULT:      -6.1      0.000      0.000
REMARK  8 active torsions:
REMARK  status: ('A' for Active; 'I' for Inactive)
REMARK    1  A    between atoms: N1_1  and  C2_2 
REMARK    2  A    between atoms: N8_8  and  C9_9 
REMARK    3  A    between atoms: C9_9  and  O10_10 
REMARK    4  A    between atoms: O10_10  and  C11_11 
REMARK    5  A    between atoms: C11_11  and  C12_12 
REMARK    6  A    between atoms: C11_11  and  C14_14 
REMARK    7  A    between atoms: C12_12  and  O13_13 
REMARK    8  A    between atoms: C14_14  and  O15_15 
ROOT
ATOM      1  C2  <0> d   1      19.255   3.001  15.547  0.00  0.00     0.703 A 
ATOM      2  N3  <0> d   1      19.030   1.843  14.968  0.00  0.00    -0.044 NA
ATOM      3  C4  <0> d   1      18.969   0.712  15.682  0.00  0.00     0.186 A 
ATOM      4  C5  <0> d   1      19.149   0.759  17.069  0.00  0.00     0.173 A 
ATOM      5  N6  <0> d   1      19.038  -0.511  17.531  0.00  0.00    -0.234 NA
ATOM      6  C7  <0> d   1      18.808  -1.314  16.534  0.00  0.00     0.214 A 
ATOM      7  N8  <0> d   1      18.756  -0.602  15.370  0.00  0.00    -0.301 N 
ATOM      8  C16 <0> d   1      19.391   2.012  17.679  0.00  0.00     0.292 A 
ATOM      9  O17 <0> d   1      19.552   2.098  18.885  0.00  0.00    -0.265 OA
ATOM     10  N18 <0> d   1      19.443   3.109  16.893  0.00  0.00    -0.152 N 
ATOM     11  H31 <0> d   1      19.608   3.979  17.289  0.00  0.00     0.187 HD
ENDROOT
BRANCH   7  12
ATOM     12  C9  <0> d   1      18.518  -1.148  14.031  0.00  0.00     0.301 C 
BRANCH  12  13
ATOM     13  O10 <0> d   1      19.686  -0.972  13.229  0.00  0.00    -0.362 OA
BRANCH  13  14
ATOM     14  C11 <0> d   1      19.438  -0.343  11.971  0.00  0.00     0.170 C 
BRANCH  14  15
ATOM     15  C12 <0> d   1      20.325   0.897  11.836  0.00  0.00     0.198 C 
BRANCH  15  16
ATOM     16  O13 <0> d   1      21.669   0.561  12.191  0.00  0.00    -0.398 OA
ATOM     17  H27 <0> d   1      21.738  -0.184  12.803  0.00  0.00     0.209 HD
ENDBRANCH  15  16
ENDBRANCH  14  15
BRANCH  14  18
ATOM     18  C14 <0> d   1      19.754  -1.323  10.839  0.00  0.00     0.198 C 
BRANCH  18  19
ATOM     19  O15 <0> d   1      20.903  -2.099  11.189  0.00  0.00    -0.398 OA
ATOM     20  H30 <0> d   1      21.734  -1.751  10.838  0.00  0.00     0.209 HD
ENDBRANCH  18  19
ENDBRANCH  14  18
ENDBRANCH  13  14
ENDBRANCH  12  13
ENDBRANCH   7  12
BRANCH   1  21
ATOM     21  N1  <0> d   1      19.308   4.133  14.774  0.00  0.00    -0.233 N 
ATOM     22  H19 <0> d   1      19.806   4.128  13.941  0.00  0.00     0.174 HD
ATOM     23  H20 <0> d   1      18.844   4.936  15.056  0.00  0.00     0.174 HD
ENDBRANCH   1  21
TORSDOF 8
ENDMDL
MODEL 2
REMARK VINA RESULT:      -6.1      5.301      8.675
REMARK  8 active torsions:
REMARK  status: ('A' for Active; 'I' for Inactive)
REMARK    1  A    between atoms: N1_1  and  C2_2 
REMARK    2  A    between atoms: N8_8  and  C9_9 
REMARK    3  A    between atoms: C9_9  and  O10_10 
REMARK    4  A    between atoms: O10_10  and  C11_11 
REMARK    5  A    between atoms: C11_11  and  C12_12 
REMARK    6  A    between atoms: C11_11  and  C14_14 
REMARK    7  A    between atoms: C12_12  and  O13_13 
REMARK    8  A    between atoms: C14_14  and  O15_15 
ROOT
ATOM      1  C2  <0> d   1      19.066  -3.123   7.441  0.00  0.00     0.703 A 
ATOM      2  N3  <0> d   1      18.862  -2.064   8.192  0.00  0.00    -0.044 NA
ATOM      3  C4  <0> d   1      18.910  -0.829   7.677  0.00  0.00     0.186 A 
ATOM      4  C5  <0> d   1      19.182  -0.658   6.314  0.00  0.00     0.173 A 
ATOM      5  N6  <0> d   1      19.170   0.675   6.067  0.00  0.00    -0.234 NA
ATOM      6  C7  <0> d   1      18.914   1.315   7.169  0.00  0.00     0.214 A 
ATOM      7  N8  <0> d   1      18.745   0.427   8.192  0.00  0.00    -0.301 N 
ATOM      8  C16 <0> d   1      19.399  -1.807   5.517  0.00  0.00     0.292 A 
ATOM      9  O17 <0> d   1      19.639  -1.704   4.326  0.00  0.00    -0.265 OA
ATOM     10  N18 <0> d   1      19.340  -3.019   6.110  0.00  0.00    -0.152 N 
ATOM     11  H31 <0> d   1      19.485  -3.822   5.584  0.00  0.00     0.187 HD
ENDROOT
BRANCH   7  12
ATOM     12  C9  <0> d   1      18.444   0.759   9.587  0.00  0.00     0.301 C 
BRANCH  12  13
ATOM     13  O10 <0> d   1      19.615   0.578  10.384  0.00  0.00    -0.362 OA
BRANCH  13  14
ATOM     14  C11 <0> d   1      19.358   0.037  11.680  0.00  0.00     0.170 C 
BRANCH  14  15
ATOM     15  C12 <0> d   1      19.474  -1.489  11.629  0.00  0.00     0.198 C 
BRANCH  15  16
ATOM     16  O13 <0> d   1      20.660  -1.852  10.919  0.00  0.00    -0.398 OA
ATOM     17  H27 <0> d   1      20.694  -1.515  10.014  0.00  0.00     0.209 HD
ENDBRANCH  15  16
ENDBRANCH  14  15
BRANCH  14  18
ATOM     18  C14 <0> d   1      20.378   0.593  12.677  0.00  0.00     0.198 C 
BRANCH  18  19
ATOM     19  O15 <0> d   1      21.679   0.577  12.085  0.00  0.00    -0.398 OA
ATOM     20  H30 <0> d   1      22.331   0.064  12.582  0.00  0.00     0.209 HD
ENDBRANCH  18  19
ENDBRANCH  14  18
ENDBRANCH  13  14
ENDBRANCH  12  13
ENDBRANCH   7  12
BRANCH   1  21
ATOM     21  N1  <0> d   1      19.006  -4.368   8.015  0.00  0.00    -0.233 N 
ATOM     22  H19 <0> d   1      18.146  -4.794   8.158  0.00  0.00     0.174 HD
ATOM     23  H20 <0> d   1      19.822  -4.824   8.272  0.00  0.00     0.174 HD
ENDBRANCH   1  21
TORSDOF 8
ENDMDL
MODEL 3
REMARK VINA RESULT:      -6.0      3.382      6.437
REMARK  8 active torsions:
REMARK  status: ('A' for Active; 'I' for Inactive)
REMARK    1  A    between atoms: N1_1  and  C2_2 
REMARK    2  A    between atoms: N8_8  and  C9_9 
REMARK    3  A    between atoms: C9_9  and  O10_10 
REMARK    4  A    between atoms: O10_10  and  C11_11 
REMARK    5  A    between atoms: C11_11  and  C12_12 
REMARK    6  A    between atoms: C11_11  and  C14_14 
REMARK    7  A    between atoms: C12_12  and  O13_13 
REMARK    8  A    between atoms: C14_14  and  O15_15 
ROOT
ATOM      1  C2  <0> d   1      20.353   1.320  11.713  0.00  0.00     0.703 A 
ATOM      2  N3  <0> d   1      19.886   2.304  12.449  0.00  0.00    -0.044 NA
ATOM      3  C4  <0> d   1      18.815   3.008  12.064  0.00  0.00     0.186 A 
ATOM      4  C5  <0> d   1      18.178   2.695  10.858  0.00  0.00     0.173 A 
ATOM      5  N6  <0> d   1      17.138   3.554  10.719  0.00  0.00    -0.234 NA
ATOM      6  C7  <0> d   1      17.101   4.355  11.742  0.00  0.00     0.214 A 
ATOM      7  N8  <0> d   1      18.118   4.055  12.602  0.00  0.00    -0.301 N 
ATOM      8  C16 <0> d   1      18.691   1.634  10.076  0.00  0.00     0.292 A 
ATOM      9  O17 <0> d   1      18.167   1.328   9.018  0.00  0.00    -0.265 OA
ATOM     10  N18 <0> d   1      19.779   0.973  10.527  0.00  0.00    -0.152 N 
ATOM     11  H31 <0> d   1      20.149   0.241  10.008  0.00  0.00     0.187 HD
ENDROOT
BRANCH   7  12
ATOM     12  C9  <0> d   1      18.411   4.732  13.867  0.00  0.00     0.301 C 
BRANCH  12  13
ATOM     13  O10 <0> d   1      17.928   3.941  14.954  0.00  0.00    -0.362 OA
BRANCH  13  14
ATOM     14  C11 <0> d   1      18.725   4.030  16.137  0.00  0.00     0.170 C 
BRANCH  14  15
ATOM     15  C12 <0> d   1      19.228   2.636  16.520  0.00  0.00     0.198 C 
BRANCH  15  16
ATOM     16  O13 <0> d   1      19.654   1.944  15.344  0.00  0.00    -0.398 OA
ATOM     17  H27 <0> d   1      18.937   1.737  14.729  0.00  0.00     0.209 HD
ENDBRANCH  15  16
ENDBRANCH  14  15
BRANCH  14  18
ATOM     18  C14 <0> d   1      19.919   4.951  15.879  0.00  0.00     0.198 C 
BRANCH  18  19
ATOM     19  O15 <0> d   1      21.116   4.319  16.338  0.00  0.00    -0.398 OA
ATOM     20  H30 <0> d   1      21.174   3.380  16.115  0.00  0.00     0.209 HD
ENDBRANCH  18  19
ENDBRANCH  14  18
ENDBRANCH  13  14
ENDBRANCH  12  13
ENDBRANCH   7  12
BRANCH   1  21
ATOM     21  N1  <0> d   1      21.454   0.627  12.150  0.00  0.00    -0.233 N 
ATOM     22  H19 <0> d   1      21.372  -0.310  12.392  0.00  0.00     0.174 HD
ATOM     23  H20 <0> d   1      22.314   1.070  12.212  0.00  0.00     0.174 HD
ENDBRANCH   1  21
TORSDOF 8
ENDMDL
MODEL 4
REMARK VINA RESULT:      -5.9      5.966      8.483
REMARK  8 active torsions:
REMARK  status: ('A' for Active; 'I' for Inactive)
REMARK    1  A    between atoms: N1_1  and  C2_2 
REMARK    2  A    between atoms: N8_8  and  C9_9 
REMARK    3  A    between atoms: C9_9  and  O10_10 
REMARK    4  A    between atoms: O10_10  and  C11_11 
REMARK    5  A    between atoms: C11_11  and  C12_12 
REMARK    6  A    between atoms: C11_11  and  C14_14 
REMARK    7  A    between atoms: C12_12  and  O13_13 
REMARK    8  A    between atoms: C14_14  and  O15_15 
ROOT
ATOM      1  C2  <0> d   1      18.083  -0.769   7.887  0.00  0.00     0.703 A 
ATOM      2  N3  <0> d   1      18.225  -1.960   8.425  0.00  0.00    -0.044 NA
ATOM      3  C4  <0> d   1      18.906  -2.926   7.797  0.00  0.00     0.186 A 
ATOM      4  C5  <0> d   1      19.478  -2.669   6.546  0.00  0.00     0.173 A 
ATOM      5  N6  <0> d   1      20.099  -3.807   6.147  0.00  0.00    -0.234 NA
ATOM      6  C7  <0> d   1      19.945  -4.723   7.056  0.00  0.00     0.214 A 
ATOM      7  N8  <0> d   1      19.214  -4.225   8.096  0.00  0.00    -0.301 N 
ATOM      8  C16 <0> d   1      19.317  -1.384   5.978  0.00  0.00     0.292 A 
ATOM      9  O17 <0> d   1      19.799  -1.116   4.890  0.00  0.00    -0.265 OA
ATOM     10  N18 <0> d   1      18.612  -0.462   6.669  0.00  0.00    -0.152 N 
ATOM     11  H31 <0> d   1      18.489   0.428   6.301  0.00  0.00     0.187 HD
ENDROOT
BRANCH   7  12
ATOM     12  C9  <0> d   1      18.829  -4.950   9.310  0.00  0.00     0.301 C 
BRANCH  12  13
ATOM     13  O10 <0> d   1      19.697  -4.579  10.382  0.00  0.00    -0.362 OA
BRANCH  13  14
ATOM     14  C11 <0> d   1      19.014  -4.134  11.555  0.00  0.00     0.170 C 
BRANCH  14  15
ATOM     15  C12 <0> d   1      19.596  -2.794  12.009  0.00  0.00     0.198 C 
BRANCH  15  16
ATOM     16  O13 <0> d   1      20.182  -2.126  10.889  0.00  0.00    -0.398 OA
ATOM     17  H27 <0> d   1      19.758  -1.287  10.666  0.00  0.00     0.209 HD
ENDBRANCH  15  16
ENDBRANCH  14  15
BRANCH  14  18
ATOM     18  C14 <0> d   1      17.525  -3.966  11.245  0.00  0.00     0.198 C 
BRANCH  18  19
ATOM     19  O15 <0> d   1      17.178  -2.581  11.312  0.00  0.00    -0.398 OA
ATOM     20  H30 <0> d   1      17.751  -2.007  10.785  0.00  0.00     0.209 HD
ENDBRANCH  18  19
ENDBRANCH  14  18
ENDBRANCH  13  14
ENDBRANCH  12  13
ENDBRANCH   7  12
BRANCH   1  21
ATOM     21  N1  <0> d   1      17.377   0.189   8.569  0.00  0.00    -0.233 N 
ATOM     22  H19 <0> d   1      17.009  -0.011   9.445  0.00  0.00     0.174 HD
ATOM     23  H20 <0> d   1      17.249   1.068   8.179  0.00  0.00     0.174 HD
ENDBRANCH   1  21
TORSDOF 8
ENDMDL
MODEL 5
REMARK VINA RESULT:      -5.9      4.355      6.441
REMARK  8 active torsions:
REMARK  status: ('A' for Active; 'I' for Inactive)
REMARK    1  A    between atoms: N1_1  and  C2_2 
REMARK    2  A    between atoms: N8_8  and  C9_9 
REMARK    3  A    between atoms: C9_9  and  O10_10 
REMARK    4  A    between atoms: O10_10  and  C11_11 
REMARK    5  A    between atoms: C11_11  and  C12_12 
REMARK    6  A    between atoms: C11_11  and  C14_14 
REMARK    7  A    between atoms: C12_12  and  O13_13 
REMARK    8  A    between atoms: C14_14  and  O15_15 
ROOT
ATOM      1  C2  <0> d   1      20.160  -1.311  11.062  0.00  0.00     0.703 A 
ATOM      2  N3  <0> d   1      19.891  -0.712   9.923  0.00  0.00    -0.044 NA
ATOM      3  C4  <0> d   1      19.501   0.568   9.889  0.00  0.00     0.186 A 
ATOM      4  C5  <0> d   1      19.375   1.285  11.084  0.00  0.00     0.173 A 
ATOM      5  N6  <0> d   1      18.971   2.538  10.760  0.00  0.00    -0.234 NA
ATOM      6  C7  <0> d   1      18.844   2.629   9.469  0.00  0.00     0.214 A 
ATOM      7  N8  <0> d   1      19.161   1.435   8.888  0.00  0.00    -0.301 N 
ATOM      8  C16 <0> d   1      19.668   0.629  12.303  0.00  0.00     0.292 A 
ATOM      9  O17 <0> d   1      19.573   1.216  13.367  0.00  0.00    -0.265 OA
ATOM     10  N18 <0> d   1      20.051  -0.666  12.258  0.00  0.00    -0.152 N 
ATOM     11  H31 <0> d   1      20.257  -1.137  13.081  0.00  0.00     0.187 HD
ENDROOT
BRANCH   7  12
ATOM     12  C9  <0> d   1      19.140   1.138   7.453  0.00  0.00     0.301 C 
BRANCH  12  13
ATOM     13  O10 <0> d   1      17.957   0.403   7.136  0.00  0.00    -0.362 OA
BRANCH  13  14
ATOM     14  C11 <0> d   1      18.131  -0.557   6.093  0.00  0.00     0.170 C 
BRANCH  14  15
ATOM     15  C12 <0> d   1      19.162  -0.038   5.088  0.00  0.00     0.198 C 
BRANCH  15  16
ATOM     16  O13 <0> d   1      19.893  -1.139   4.545  0.00  0.00    -0.398 OA
ATOM     17  H27 <0> d   1      19.481  -1.540   3.768  0.00  0.00     0.209 HD
ENDBRANCH  15  16
ENDBRANCH  14  15
BRANCH  14  18
ATOM     18  C14 <0> d   1      18.621  -1.878   6.691  0.00  0.00     0.198 C 
BRANCH  18  19
ATOM     19  O15 <0> d   1      17.886  -2.161   7.884  0.00  0.00    -0.398 OA
ATOM     20  H30 <0> d   1      17.225  -1.492   8.106  0.00  0.00     0.209 HD
ENDBRANCH  18  19
ENDBRANCH  14  18
ENDBRANCH  13  14
ENDBRANCH  12  13
ENDBRANCH   7  12
BRANCH   1  21
ATOM     21  N1  <0> d   1      20.557  -2.625  11.046  0.00  0.00    -0.233 N 
ATOM     22  H19 <0> d   1      20.960  -3.018  11.836  0.00  0.00     0.174 HD
ATOM     23  H20 <0> d   1      20.429  -3.161  10.248  0.00  0.00     0.174 HD
ENDBRANCH   1  21
TORSDOF 8
ENDMDL
MODEL 6
REMARK VINA RESULT:      -5.7      3.164      5.973
REMARK  8 active torsions:
REMARK  status: ('A' for Active; 'I' for Inactive)
REMARK    1  A    between atoms: N1_1  and  C2_2 
REMARK    2  A    between atoms: N8_8  and  C9_9 
REMARK    3  A    between atoms: C9_9  and  O10_10 
REMARK    4  A    between atoms: O10_10  and  C11_11 
REMARK    5  A    between atoms: C11_11  and  C12_12 
REMARK    6  A    between atoms: C11_11  and  C14_14 
REMARK    7  A    between atoms: C12_12  and  O13_13 
REMARK    8  A    between atoms: C14_14  and  O15_15 
ROOT
ATOM      1  C2  <0> d   1      20.293   0.047  10.877  0.00  0.00     0.703 A 
ATOM      2  N3  <0> d   1      19.771   0.596  11.951  0.00  0.00    -0.044 NA
ATOM      3  C4  <0> d   1      18.946   1.646  11.861  0.00  0.00     0.186 A 
ATOM      4  C5  <0> d   1      18.630   2.172  10.603  0.00  0.00     0.173 A 
ATOM      5  N6  <0> d   1      17.787   3.215  10.805  0.00  0.00    -0.234 NA
ATOM      6  C7  <0> d   1      17.573   3.356  12.079  0.00  0.00     0.214 A 
ATOM      7  N8  <0> d   1      18.269   2.408  12.773  0.00  0.00    -0.301 N 
ATOM      8  C16 <0> d   1      19.198   1.572   9.455  0.00  0.00     0.292 A 
ATOM      9  O17 <0> d   1      18.950   1.997   8.340  0.00  0.00    -0.265 OA
ATOM     10  N18 <0> d   1      20.027   0.518   9.626  0.00  0.00    -0.152 N 
ATOM     11  H31 <0> d   1      20.428   0.090   8.854  0.00  0.00     0.187 HD
ENDROOT
BRANCH   7  12
ATOM     12  C9  <0> d   1      18.287   2.239  14.228  0.00  0.00     0.301 C 
BRANCH  12  13
ATOM     13  O10 <0> d   1      17.758   0.956  14.566  0.00  0.00    -0.362 OA
BRANCH  13  14
ATOM     14  C11 <0> d   1      18.622   0.168  15.386  0.00  0.00     0.170 C 
BRANCH  14  15
ATOM     15  C12 <0> d   1      18.037   0.070  16.797  0.00  0.00     0.198 C 
BRANCH  15  16
ATOM     16  O13 <0> d   1      16.626   0.288  16.743  0.00  0.00    -0.398 OA
ATOM     17  H27 <0> d   1      16.290   0.471  15.855  0.00  0.00     0.209 HD
ENDBRANCH  15  16
ENDBRANCH  14  15
BRANCH  14  18
ATOM     18  C14 <0> d   1      18.753  -1.235  14.789  0.00  0.00     0.198 C 
BRANCH  18  19
ATOM     19  O15 <0> d   1      19.998  -1.342  14.095  0.00  0.00    -0.398 OA
ATOM     20  H30 <0> d   1      20.750  -1.548  14.667  0.00  0.00     0.209 HD
ENDBRANCH  18  19
ENDBRANCH  14  18
ENDBRANCH  13  14
ENDBRANCH  12  13
ENDBRANCH   7  12
BRANCH   1  21
ATOM     21  N1  <0> d   1      21.133  -1.028  11.020  0.00  0.00    -0.233 N 
ATOM     22  H19 <0> d   1      20.969  -1.842  10.517  0.00  0.00     0.174 HD
ATOM     23  H20 <0> d   1      21.894  -0.974  11.618  0.00  0.00     0.174 HD
ENDBRANCH   1  21
TORSDOF 8
ENDMDL
MODEL 7
REMARK VINA RESULT:      -5.7      4.838      6.387
REMARK  8 active torsions:
REMARK  status: ('A' for Active; 'I' for Inactive)
REMARK    1  A    between atoms: N1_1  and  C2_2 
REMARK    2  A    between atoms: N8_8  and  C9_9 
REMARK    3  A    between atoms: C9_9  and  O10_10 
REMARK    4  A    between atoms: O10_10  and  C11_11 
REMARK    5  A    between atoms: C11_11  and  C12_12 
REMARK    6  A    between atoms: C11_11  and  C14_14 
REMARK    7  A    between atoms: C12_12  and  O13_13 
REMARK    8  A    between atoms: C14_14  and  O15_15 
ROOT
ATOM      1  C2  <0> d   1      20.518   0.587  11.175  0.00  0.00     0.703 A 
ATOM      2  N3  <0> d   1      20.183  -0.434  10.418  0.00  0.00    -0.044 NA
ATOM      3  C4  <0> d   1      19.228  -0.321   9.486  0.00  0.00     0.186 A 
ATOM      4  C5  <0> d   1      18.572   0.902   9.312  0.00  0.00     0.173 A 
ATOM      5  N6  <0> d   1      17.666   0.734   8.317  0.00  0.00    -0.234 NA
ATOM      6  C7  <0> d   1      17.727  -0.490   7.882  0.00  0.00     0.214 A 
ATOM      7  N8  <0> d   1      18.679  -1.181   8.575  0.00  0.00    -0.301 N 
ATOM      8  C16 <0> d   1      18.942   1.993  10.134  0.00  0.00     0.292 A 
ATOM      9  O17 <0> d   1      18.396   3.077  10.016  0.00  0.00    -0.265 OA
ATOM     10  N18 <0> d   1      19.911   1.801  11.055  0.00  0.00    -0.152 N 
ATOM     11  H31 <0> d   1      20.182   2.535  11.630  0.00  0.00     0.187 HD
ENDROOT
BRANCH   7  12
ATOM     12  C9  <0> d   1      19.044  -2.586   8.379  0.00  0.00     0.301 C 
BRANCH  12  13
ATOM     13  O10 <0> d   1      18.636  -3.348   9.516  0.00  0.00    -0.362 OA
BRANCH  13  14
ATOM     14  C11 <0> d   1      19.511  -4.432   9.833  0.00  0.00     0.170 C 
BRANCH  14  15
ATOM     15  C12 <0> d   1      19.961  -4.315  11.291  0.00  0.00     0.198 C 
BRANCH  15  16
ATOM     16  O13 <0> d   1      20.871  -3.221  11.422  0.00  0.00    -0.398 OA
ATOM     17  H27 <0> d   1      20.459  -2.401  11.726  0.00  0.00     0.209 HD
ENDBRANCH  15  16
ENDBRANCH  14  15
BRANCH  14  18
ATOM     18  C14 <0> d   1      18.775  -5.758   9.631  0.00  0.00     0.198 C 
BRANCH  18  19
ATOM     19  O15 <0> d   1      19.536  -6.596   8.758  0.00  0.00    -0.398 OA
ATOM     20  H30 <0> d   1      19.138  -6.719   7.885  0.00  0.00     0.209 HD
ENDBRANCH  18  19
ENDBRANCH  14  18
ENDBRANCH  13  14
ENDBRANCH  12  13
ENDBRANCH   7  12
BRANCH   1  21
ATOM     21  N1  <0> d   1      21.503   0.423  12.116  0.00  0.00    -0.233 N 
ATOM     22  H19 <0> d   1      21.345   0.691  13.035  0.00  0.00     0.174 HD
ATOM     23  H20 <0> d   1      22.356   0.036  11.864  0.00  0.00     0.174 HD
ENDBRANCH   1  21
TORSDOF 8
ENDMDL
MODEL 8
REMARK VINA RESULT:      -5.7      5.676      8.230
REMARK  8 active torsions:
REMARK  status: ('A' for Active; 'I' for Inactive)
REMARK    1  A    between atoms: N1_1  and  C2_2 
REMARK    2  A    between atoms: N8_8  and  C9_9 
REMARK    3  A    between atoms: C9_9  and  O10_10 
REMARK    4  A    between atoms: O10_10  and  C11_11 
REMARK    5  A    between atoms: C11_11  and  C12_12 
REMARK    6  A    between atoms: C11_11  and  C14_14 
REMARK    7  A    between atoms: C12_12  and  O13_13 
REMARK    8  A    between atoms: C14_14  and  O15_15 
ROOT
ATOM      1  C2  <0> d   1      18.952   0.565   6.919  0.00  0.00     0.703 A 
ATOM      2  N3  <0> d   1      18.765  -0.273   7.914  0.00  0.00    -0.044 NA
ATOM      3  C4  <0> d   1      18.877  -1.594   7.736  0.00  0.00     0.186 A 
ATOM      4  C5  <0> d   1      19.198  -2.098   6.471  0.00  0.00     0.173 A 
ATOM      5  N6  <0> d   1      19.245  -3.449   6.576  0.00  0.00    -0.234 NA
ATOM      6  C7  <0> d   1      18.978  -3.795   7.801  0.00  0.00     0.214 A 
ATOM      7  N8  <0> d   1      18.744  -2.682   8.556  0.00  0.00    -0.301 N 
ATOM      8  C16 <0> d   1      19.396  -1.185   5.408  0.00  0.00     0.292 A 
ATOM      9  O17 <0> d   1      19.678  -1.581   4.289  0.00  0.00    -0.265 OA
ATOM     10  N18 <0> d   1      19.261   0.134   5.663  0.00  0.00    -0.152 N 
ATOM     11  H31 <0> d   1      19.393   0.780   4.950  0.00  0.00     0.187 HD
ENDROOT
BRANCH   7  12
ATOM     12  C9  <0> d   1      18.411  -2.657   9.982  0.00  0.00     0.301 C 
BRANCH  12  13
ATOM     13  O10 <0> d   1      19.612  -2.590  10.752  0.00  0.00    -0.362 OA
BRANCH  13  14
ATOM     14  C11 <0> d   1      19.769  -1.372  11.481  0.00  0.00     0.170 C 
BRANCH  14  15
ATOM     15  C12 <0> d   1      20.849  -0.514  10.818  0.00  0.00     0.198 C 
BRANCH  15  16
ATOM     16  O13 <0> d   1      21.520   0.260  11.814  0.00  0.00    -0.398 OA
ATOM     17  H27 <0> d   1      20.979   0.455  12.591  0.00  0.00     0.209 HD
ENDBRANCH  15  16
ENDBRANCH  14  15
BRANCH  14  18
ATOM     18  C14 <0> d   1      18.442  -0.608  11.488  0.00  0.00     0.198 C 
BRANCH  18  19
ATOM     19  O15 <0> d   1      18.627   0.671  10.877  0.00  0.00    -0.398 OA
ATOM     20  H30 <0> d   1      18.362   1.415  11.435  0.00  0.00     0.209 HD
ENDBRANCH  18  19
ENDBRANCH  14  18
ENDBRANCH  13  14
ENDBRANCH  12  13
ENDBRANCH   7  12
BRANCH   1  21
ATOM     21  N1  <0> d   1      18.827   1.912   7.150  0.00  0.00    -0.233 N 
ATOM     22  H19 <0> d   1      17.960   2.340   7.065  0.00  0.00     0.174 HD
ATOM     23  H20 <0> d   1      19.603   2.436   7.403  0.00  0.00     0.174 HD
ENDBRANCH   1  21
TORSDOF 8
ENDMDL
MODEL 9
REMARK VINA RESULT:      -5.7      3.970      5.797
REMARK  8 active torsions:
REMARK  status: ('A' for Active; 'I' for Inactive)
REMARK    1  A    between atoms: N1_1  and  C2_2 
REMARK    2  A    between atoms: N8_8  and  C9_9 
REMARK    3  A    between atoms: C9_9  and  O10_10 
REMARK    4  A    between atoms: O10_10  and  C11_11 
REMARK    5  A    between atoms: C11_11  and  C12_12 
REMARK    6  A    between atoms: C11_11  and  C14_14 
REMARK    7  A    between atoms: C12_12  and  O13_13 
REMARK    8  A    between atoms: C14_14  and  O15_15 
ROOT
ATOM      1  C2  <0> d   1      20.575  -0.180  11.920  0.00  0.00     0.703 A 
ATOM      2  N3  <0> d   1      20.221  -0.682  10.758  0.00  0.00    -0.044 NA
ATOM      3  C4  <0> d   1      19.233  -1.580  10.663  0.00  0.00     0.186 A 
ATOM      4  C5  <0> d   1      18.562  -1.995  11.819  0.00  0.00     0.173 A 
ATOM      5  N6  <0> d   1      17.622  -2.894  11.437  0.00  0.00    -0.234 NA
ATOM      6  C7  <0> d   1      17.677  -3.053  10.148  0.00  0.00     0.214 A 
ATOM      7  N8  <0> d   1      18.657  -2.260   9.625  0.00  0.00    -0.301 N 
ATOM      8  C16 <0> d   1      18.953  -1.446  13.063  0.00  0.00     0.292 A 
ATOM      9  O17 <0> d   1      18.395  -1.779  14.096  0.00  0.00    -0.265 OA
ATOM     10  N18 <0> d   1      19.962  -0.549  13.080  0.00  0.00    -0.152 N 
ATOM     11  H31 <0> d   1      20.248  -0.159  13.921  0.00  0.00     0.187 HD
ENDROOT
BRANCH   7  12
ATOM     12  C9  <0> d   1      19.026  -2.157   8.211  0.00  0.00     0.301 C 
BRANCH  12  13
ATOM     13  O10 <0> d   1      18.353  -1.043   7.623  0.00  0.00    -0.362 OA
BRANCH  13  14
ATOM     14  C11 <0> d   1      19.224  -0.116   6.971  0.00  0.00     0.170 C 
BRANCH  14  15
ATOM     15  C12 <0> d   1      18.871  -0.043   5.484  0.00  0.00     0.198 C 
BRANCH  15  16
ATOM     16  O13 <0> d   1      20.005  -0.431   4.706  0.00  0.00    -0.398 OA
ATOM     17  H27 <0> d   1      19.927  -0.222   3.765  0.00  0.00     0.209 HD
ENDBRANCH  15  16
ENDBRANCH  14  15
BRANCH  14  18
ATOM     18  C14 <0> d   1      19.061   1.268   7.603  0.00  0.00     0.198 C 
BRANCH  18  19
ATOM     19  O15 <0> d   1      18.315   1.151   8.817  0.00  0.00    -0.398 OA
ATOM     20  H30 <0> d   1      17.361   1.263   8.705  0.00  0.00     0.209 HD
ENDBRANCH  18  19
ENDBRANCH  14  18
ENDBRANCH  13  14
ENDBRANCH  12  13
ENDBRANCH   7  12
BRANCH   1  21
ATOM     21  N1  <0> d   1      21.594   0.738  11.966  0.00  0.00    -0.233 N 
ATOM     22  H19 <0> d   1      22.393   0.549  12.482  0.00  0.00     0.174 HD
ATOM     23  H20 <0> d   1      21.518   1.573  11.479  0.00  0.00     0.174 HD
ENDBRANCH   1  21
TORSDOF 8
ENDMDL
