MODEL 1
REMARK VINA RESULT:      -7.8      0.000      0.000
REMARK  0 active torsions:
REMARK  status: ('A' for Active; 'I' for Inactive)
REMARK       I    between atoms: N1_1  and  C2_2 
REMARK       I    between atoms: C2_2  and  N4_4 
ROOT
ATOM      1  N1  <0> d   1      21.451   0.610  12.294  0.00  0.00    -0.351 N 
ATOM      2  C2  <0> d   1      20.791   0.216  11.186  0.00  0.00     0.325 C 
ATOM      3  O3  <0> d   1      21.163  -0.763  10.575  0.00  0.00    -0.247 OA
ATOM      4  N4  <0> d   1      19.717   0.909  10.758  0.00  0.00    -0.263 N 
ATOM      5  C5  <0> d   1      19.301   2.004  11.435  0.00  0.00     0.054 A 
ATOM      6  C6  <0> d   1      20.106   3.041  11.540  0.00  0.00     0.031 A 
ATOM      7  C7  <0> d   1      19.656   4.258  12.238  0.00  0.00     0.002 A 
ATOM      8  C8  <0> d   1      18.445   4.309  12.750  0.00  0.00     0.001 A 
ATOM      9  C9  <0> d   1      17.550   3.146  12.640  0.00  0.00     0.014 A 
ATOM     10  C10 <0> d   1      17.958   2.048  12.033  0.00  0.00    -0.009 A 
ATOM     11  C11 <0> d   1      17.080   0.875  12.006  0.00  0.00     0.014 C 
ATOM     12  C12 <0> d   1      16.941   0.052  11.021  0.00  0.00     0.014 C 
ATOM     13  C13 <0> d   1      17.632   0.124   9.731  0.00  0.00    -0.009 A 
ATOM     14  C14 <0> d   1      16.975  -0.179   8.628  0.00  0.00     0.014 A 
ATOM     15  C15 <0> d   1      17.658  -0.147   7.325  0.00  0.00     0.001 A 
ATOM     16  C16 <0> d   1      18.932   0.177   7.258  0.00  0.00     0.002 A 
ATOM     17  C17 <0> d   1      19.666   0.523   8.487  0.00  0.00     0.031 A 
ATOM     18  C18 <0> d   1      19.052   0.516   9.648  0.00  0.00     0.054 A 
ATOM     19  H19 <0> d   1      22.223   0.112  12.601  0.00  0.00     0.160 HD
ATOM     20  H20 <0> d   1      21.154   1.396  12.780  0.00  0.00     0.160 HD
ENDROOT
TORSDOF 0
ENDMDL
MODEL 2
REMARK VINA RESULT:      -7.8      1.584      4.608
REMARK  0 active torsions:
REMARK  status: ('A' for Active; 'I' for Inactive)
REMARK       I    between atoms: N1_1  and  C2_2 
REMARK       I    between atoms: C2_2  and  N4_4 
ROOT
ATOM      1  N1  <0> d   1      21.501  -0.858  10.998  0.00  0.00    -0.351 N 
ATOM      2  C2  <0> d   1      20.792   0.241  11.322  0.00  0.00     0.325 C 
ATOM      3  O3  <0> d   1      21.215   1.010  12.159  0.00  0.00    -0.247 OA
ATOM      4  N4  <0> d   1      19.612   0.486  10.717  0.00  0.00    -0.263 N 
ATOM      5  C5  <0> d   1      19.135  -0.371   9.787  0.00  0.00     0.054 A 
ATOM      6  C6  <0> d   1      18.861  -1.613  10.133  0.00  0.00     0.031 A 
ATOM      7  C7  <0> d   1      18.302  -2.550   9.144  0.00  0.00     0.002 A 
ATOM      8  C8  <0> d   1      18.071  -2.143   7.914  0.00  0.00     0.001 A 
ATOM      9  C9  <0> d   1      18.386  -0.759   7.525  0.00  0.00     0.014 A 
ATOM     10  C10 <0> d   1      18.905   0.076   8.405  0.00  0.00    -0.009 A 
ATOM     11  C11 <0> d   1      19.286   1.424   7.975  0.00  0.00     0.014 C 
ATOM     12  C12 <0> d   1      19.158   2.508   8.665  0.00  0.00     0.014 C 
ATOM     13  C13 <0> d   1      18.603   2.610  10.017  0.00  0.00    -0.009 A 
ATOM     14  C14 <0> d   1      17.837   3.638  10.327  0.00  0.00     0.014 A 
ATOM     15  C15 <0> d   1      17.298   3.779  11.689  0.00  0.00     0.001 A 
ATOM     16  C16 <0> d   1      17.586   2.879  12.606  0.00  0.00     0.002 A 
ATOM     17  C17 <0> d   1      18.434   1.726  12.261  0.00  0.00     0.031 A 
ATOM     18  C18 <0> d   1      18.899   1.588  11.040  0.00  0.00     0.054 A 
ATOM     19  H19 <0> d   1      22.349  -1.034  11.433  0.00  0.00     0.160 HD
ATOM     20  H20 <0> d   1      21.160  -1.475  10.330  0.00  0.00     0.160 HD
ENDROOT
TORSDOF 0
ENDMDL
MODEL 3
REMARK VINA RESULT:      -7.6      3.502      5.004
REMARK  0 active torsions:
REMARK  status: ('A' for Active; 'I' for Inactive)
REMARK       I    between atoms: N1_1  and  C2_2 
REMARK       I    between atoms: C2_2  and  N4_4 
ROOT
ATOM      1  N1  <0> d   1      19.794   3.385  15.973  0.00  0.00    -0.351 N 
ATOM      2  C2  <0> d   1      19.257   3.977  14.886  0.00  0.00     0.325 C 
ATOM      3  O3  <0> d   1      19.315   5.181  14.761  0.00  0.00    -0.247 OA
ATOM      4  N4  <0> d   1      18.656   3.230  13.939  0.00  0.00    -0.263 N 
ATOM      5  C5  <0> d   1      18.585   1.886  14.078  0.00  0.00     0.054 A 
ATOM      6  C6  <0> d   1      17.927   1.376  15.099  0.00  0.00     0.031 A 
ATOM      7  C7  <0> d   1      17.804  -0.084  15.244  0.00  0.00     0.002 A 
ATOM      8  C8  <0> d   1      18.347  -0.880  14.348  0.00  0.00     0.001 A 
ATOM      9  C9  <0> d   1      19.091  -0.309  13.212  0.00  0.00     0.014 A 
ATOM     10  C10 <0> d   1      19.218   0.998  13.091  0.00  0.00    -0.009 A 
ATOM     11  C11 <0> d   1      20.030   1.541  11.998  0.00  0.00     0.014 C 
ATOM     12  C12 <0> d   1      19.775   2.608  11.318  0.00  0.00     0.014 C 
ATOM     13  C13 <0> d   1      18.621   3.493  11.501  0.00  0.00    -0.009 A 
ATOM     14  C14 <0> d   1      18.031   4.013  10.442  0.00  0.00     0.014 A 
ATOM     15  C15 <0> d   1      16.892   4.932  10.603  0.00  0.00     0.001 A 
ATOM     16  C16 <0> d   1      16.463   5.241  11.808  0.00  0.00     0.002 A 
ATOM     17  C17 <0> d   1      17.114   4.655  12.991  0.00  0.00     0.031 A 
ATOM     18  C18 <0> d   1      18.117   3.819  12.848  0.00  0.00     0.054 A 
ATOM     19  H19 <0> d   1      20.226   3.923  16.653  0.00  0.00     0.160 HD
ATOM     20  H20 <0> d   1      19.744   2.422  16.074  0.00  0.00     0.160 HD
ENDROOT
TORSDOF 0
ENDMDL
MODEL 4
REMARK VINA RESULT:      -7.6      2.939      5.417
REMARK  0 active torsions:
REMARK  status: ('A' for Active; 'I' for Inactive)
REMARK       I    between atoms: N1_1  and  C2_2 
REMARK       I    between atoms: C2_2  and  N4_4 
ROOT
ATOM      1  N1  <0> d   1      21.357  -0.682  10.716  0.00  0.00    -0.351 N 
ATOM      2  C2  <0> d   1      20.737  -0.135  11.781  0.00  0.00     0.325 C 
ATOM      3  O3  <0> d   1      21.127   0.920  12.233  0.00  0.00    -0.247 OA
ATOM      4  N4  <0> d   1      19.685  -0.761  12.344  0.00  0.00    -0.263 N 
ATOM      5  C5  <0> d   1      19.250  -1.941  11.845  0.00  0.00     0.054 A 
ATOM      6  C6  <0> d   1      20.057  -2.983  11.856  0.00  0.00     0.031 A 
ATOM      7  C7  <0> d   1      19.588  -4.286  11.355  0.00  0.00     0.002 A 
ATOM      8  C8  <0> d   1      18.359  -4.410  10.903  0.00  0.00     0.001 A 
ATOM      9  C9  <0> d   1      17.461  -3.243  10.882  0.00  0.00     0.014 A 
ATOM     10  C10 <0> d   1      17.886  -2.071  11.312  0.00  0.00    -0.009 A 
ATOM     11  C11 <0> d   1      17.003  -0.906  11.206  0.00  0.00     0.014 C 
ATOM     12  C12 <0> d   1      16.896   0.048  12.069  0.00  0.00     0.014 C 
ATOM     13  C13 <0> d   1      17.636   0.160  13.329  0.00  0.00    -0.009 A 
ATOM     14  C14 <0> d   1      17.019   0.615  14.403  0.00  0.00     0.014 A 
ATOM     15  C15 <0> d   1      17.752   0.768  15.670  0.00  0.00     0.001 A 
ATOM     16  C16 <0> d   1      19.029   0.457  15.733  0.00  0.00     0.002 A 
ATOM     17  C17 <0> d   1      19.718  -0.058  14.538  0.00  0.00     0.031 A 
ATOM     18  C18 <0> d   1      19.060  -0.216  13.412  0.00  0.00     0.054 A 
ATOM     19  H19 <0> d   1      22.114  -0.231  10.312  0.00  0.00     0.160 HD
ATOM     20  H20 <0> d   1      21.047  -1.528  10.357  0.00  0.00     0.160 HD
ENDROOT
TORSDOF 0
ENDMDL
MODEL 5
REMARK VINA RESULT:      -7.6      2.479      4.695
REMARK  0 active torsions:
REMARK  status: ('A' for Active; 'I' for Inactive)
REMARK       I    between atoms: N1_1  and  C2_2 
REMARK       I    between atoms: C2_2  and  N4_4 
ROOT
ATOM      1  N1  <0> d   1      17.245   4.239  10.564  0.00  0.00    -0.351 N 
ATOM      2  C2  <0> d   1      17.508   3.497  11.658  0.00  0.00     0.325 C 
ATOM      3  O3  <0> d   1      17.280   3.943  12.762  0.00  0.00    -0.247 OA
ATOM      4  N4  <0> d   1      18.023   2.258  11.525  0.00  0.00    -0.263 N 
ATOM      5  C5  <0> d   1      18.282   1.759  10.295  0.00  0.00     0.054 A 
ATOM      6  C6  <0> d   1      19.165   2.363   9.526  0.00  0.00     0.031 A 
ATOM      7  C7  <0> d   1      19.490   1.811   8.200  0.00  0.00     0.002 A 
ATOM      8  C8  <0> d   1      18.902   0.709   7.787  0.00  0.00     0.001 A 
ATOM      9  C9  <0> d   1      17.908   0.040   8.643  0.00  0.00     0.014 A 
ATOM     10  C10 <0> d   1      17.601   0.544   9.823  0.00  0.00    -0.009 A 
ATOM     11  C11 <0> d   1      16.551  -0.093  10.623  0.00  0.00     0.014 C 
ATOM     12  C12 <0> d   1      16.551  -0.231  11.906  0.00  0.00     0.014 C 
ATOM     13  C13 <0> d   1      17.601   0.220  12.823  0.00  0.00    -0.009 A 
ATOM     14  C14 <0> d   1      17.929  -0.536  13.854  0.00  0.00     0.014 A 
ATOM     15  C15 <0> d   1      18.956  -0.087  14.807  0.00  0.00     0.001 A 
ATOM     16  C16 <0> d   1      19.547   1.077  14.637  0.00  0.00     0.002 A 
ATOM     17  C17 <0> d   1      19.189   1.919  13.484  0.00  0.00     0.031 A 
ATOM     18  C18 <0> d   1      18.287   1.510  12.620  0.00  0.00     0.054 A 
ATOM     19  H19 <0> d   1      16.875   5.130  10.660  0.00  0.00     0.160 HD
ATOM     20  H20 <0> d   1      17.430   3.883   9.681  0.00  0.00     0.160 HD
ENDROOT
TORSDOF 0
ENDMDL
MODEL 6
REMARK VINA RESULT:      -7.3      3.520      5.509
REMARK  0 active torsions:
REMARK  status: ('A' for Active; 'I' for Inactive)
REMARK       I    between atoms: N1_1  and  C2_2 
REMARK       I    between atoms: C2_2  and  N4_4 
ROOT
ATOM      1  N1  <0> d   1      20.377  -1.650  11.108  0.00  0.00    -0.351 N 
ATOM      2  C2  <0> d   1      19.949  -1.184   9.918  0.00  0.00     0.325 C 
ATOM      3  O3  <0> d   1      20.377  -0.134   9.489  0.00  0.00    -0.247 OA
ATOM      4  N4  <0> d   1      19.045  -1.885   9.204  0.00  0.00    -0.263 N 
ATOM      5  C5  <0> d   1      18.562  -3.054   9.682  0.00  0.00     0.054 A 
ATOM      6  C6  <0> d   1      17.885  -3.059  10.812  0.00  0.00     0.031 A 
ATOM      7  C7  <0> d   1      17.316  -4.316  11.328  0.00  0.00     0.002 A 
ATOM      8  C8  <0> d   1      17.479  -5.434  10.653  0.00  0.00     0.001 A 
ATOM      9  C9  <0> d   1      18.244  -5.429   9.395  0.00  0.00     0.014 A 
ATOM     10  C10 <0> d   1      18.771  -4.308   8.942  0.00  0.00    -0.009 A 
ATOM     11  C11 <0> d   1      19.596  -4.341   7.731  0.00  0.00     0.014 C 
ATOM     12  C12 <0> d   1      19.627  -3.440   6.807  0.00  0.00     0.014 C 
ATOM     13  C13 <0> d   1      18.843  -2.203   6.781  0.00  0.00    -0.009 A 
ATOM     14  C14 <0> d   1      18.345  -1.777   5.635  0.00  0.00     0.014 A 
ATOM     15  C15 <0> d   1      17.584  -0.518   5.579  0.00  0.00     0.001 A 
ATOM     16  C16 <0> d   1      17.404   0.190   6.674  0.00  0.00     0.002 A 
ATOM     17  C17 <0> d   1      17.952  -0.287   7.954  0.00  0.00     0.031 A 
ATOM     18  C18 <0> d   1      18.613  -1.420   8.010  0.00  0.00     0.054 A 
ATOM     19  H19 <0> d   1      21.027  -1.146  11.621  0.00  0.00     0.160 HD
ATOM     20  H20 <0> d   1      20.032  -2.489  11.452  0.00  0.00     0.160 HD
ENDROOT
TORSDOF 0
ENDMDL
MODEL 7
REMARK VINA RESULT:      -7.3      3.266      5.281
REMARK  0 active torsions:
REMARK  status: ('A' for Active; 'I' for Inactive)
REMARK       I    between atoms: N1_1  and  C2_2 
REMARK       I    between atoms: C2_2  and  N4_4 
ROOT
ATOM      1  N1  <0> d   1      20.391   1.925  11.858  0.00  0.00    -0.351 N 
ATOM      2  C2  <0> d   1      19.997   1.280  12.974  0.00  0.00     0.325 C 
ATOM      3  O3  <0> d   1      20.532   0.240  13.294  0.00  0.00    -0.247 OA
ATOM      4  N4  <0> d   1      19.007   1.790  13.734  0.00  0.00    -0.263 N 
ATOM      5  C5  <0> d   1      18.405   2.947  13.377  0.00  0.00     0.054 A 
ATOM      6  C6  <0> d   1      17.752   3.009  12.235  0.00  0.00     0.031 A 
ATOM      7  C7  <0> d   1      17.055   4.248  11.848  0.00  0.00     0.002 A 
ATOM      8  C8  <0> d   1      17.080   5.291  12.650  0.00  0.00     0.001 A 
ATOM      9  C9  <0> d   1      17.818   5.223  13.922  0.00  0.00     0.014 A 
ATOM     10  C10 <0> d   1      18.459   4.121  14.261  0.00  0.00    -0.009 A 
ATOM     11  C11 <0> d   1      19.253   4.104  15.492  0.00  0.00     0.014 C 
ATOM     12  C12 <0> d   1      19.369   3.111  16.309  0.00  0.00     0.014 C 
ATOM     13  C13 <0> d   1      18.728   1.800  16.171  0.00  0.00    -0.009 A 
ATOM     14  C14 <0> d   1      18.260   1.192  17.244  0.00  0.00     0.014 A 
ATOM     15  C15 <0> d   1      17.645  -0.140  17.134  0.00  0.00     0.001 A 
ATOM     16  C16 <0> d   1      17.565  -0.732  15.961  0.00  0.00     0.002 A 
ATOM     17  C17 <0> d   1      18.078  -0.052  14.760  0.00  0.00     0.031 A 
ATOM     18  C18 <0> d   1      18.609   1.145  14.854  0.00  0.00     0.054 A 
ATOM     19  H19 <0> d   1      21.103   1.558  11.311  0.00  0.00     0.160 HD
ATOM     20  H20 <0> d   1      19.960   2.755  11.600  0.00  0.00     0.160 HD
ENDROOT
TORSDOF 0
ENDMDL
MODEL 8
REMARK VINA RESULT:      -7.2      4.735      6.740
REMARK  0 active torsions:
REMARK  status: ('A' for Active; 'I' for Inactive)
REMARK       I    between atoms: N1_1  and  C2_2 
REMARK       I    between atoms: C2_2  and  N4_4 
ROOT
ATOM      1  N1  <0> d   1      21.493  -5.142   7.077  0.00  0.00    -0.351 N 
ATOM      2  C2  <0> d   1      20.568  -5.318   8.042  0.00  0.00     0.325 C 
ATOM      3  O3  <0> d   1      20.713  -6.193   8.869  0.00  0.00    -0.247 OA
ATOM      4  N4  <0> d   1      19.482  -4.522   8.087  0.00  0.00    -0.263 N 
ATOM      5  C5  <0> d   1      19.315  -3.548   7.164  0.00  0.00     0.054 A 
ATOM      6  C6  <0> d   1      19.196  -3.876   5.894  0.00  0.00     0.031 A 
ATOM      7  C7  <0> d   1      18.972  -2.833   4.878  0.00  0.00     0.002 A 
ATOM      8  C8  <0> d   1      18.884  -1.572   5.243  0.00  0.00     0.001 A 
ATOM      9  C9  <0> d   1      19.026  -1.205   6.662  0.00  0.00     0.014 A 
ATOM     10  C10 <0> d   1      19.246  -2.136   7.570  0.00  0.00    -0.009 A 
ATOM     11  C11 <0> d   1      19.465  -1.740   8.964  0.00  0.00     0.014 C 
ATOM     12  C12 <0> d   1      19.046  -2.371  10.009  0.00  0.00     0.014 C 
ATOM     13  C13 <0> d   1      18.265  -3.611  10.013  0.00  0.00    -0.009 A 
ATOM     14  C14 <0> d   1      17.299  -3.764  10.898  0.00  0.00     0.014 A 
ATOM     15  C15 <0> d   1      16.525  -5.016  10.943  0.00  0.00     0.001 A 
ATOM     16  C16 <0> d   1      16.802  -5.990  10.103  0.00  0.00     0.002 A 
ATOM     17  C17 <0> d   1      17.874  -5.819   9.109  0.00  0.00     0.031 A 
ATOM     18  C18 <0> d   1      18.552  -4.695   9.053  0.00  0.00     0.054 A 
ATOM     19  H19 <0> d   1      22.275  -5.715   7.045  0.00  0.00     0.160 HD
ATOM     20  H20 <0> d   1      21.375  -4.444   6.414  0.00  0.00     0.160 HD
ENDROOT
TORSDOF 0
ENDMDL
MODEL 9
REMARK VINA RESULT:      -7.1      3.311      4.380
REMARK  0 active torsions:
REMARK  status: ('A' for Active; 'I' for Inactive)
REMARK       I    between atoms: N1_1  and  C2_2 
REMARK       I    between atoms: C2_2  and  N4_4 
ROOT
ATOM      1  N1  <0> d   1      19.384   2.585  14.859  0.00  0.00    -0.351 N 
ATOM      2  C2  <0> d   1      19.100   2.043  13.658  0.00  0.00     0.325 C 
ATOM      3  O3  <0> d   1      19.404   2.630  12.641  0.00  0.00    -0.247 OA
ATOM      4  N4  <0> d   1      18.479   0.849  13.586  0.00  0.00    -0.263 N 
ATOM      5  C5  <0> d   1      18.134   0.194  14.718  0.00  0.00     0.054 A 
ATOM      6  C6  <0> d   1      17.277   0.750  15.550  0.00  0.00     0.031 A 
ATOM      7  C7  <0> d   1      16.858   0.034  16.768  0.00  0.00     0.002 A 
ATOM      8  C8  <0> d   1      17.337  -1.166  17.019  0.00  0.00     0.001 A 
ATOM      9  C9  <0> d   1      18.301  -1.782  16.094  0.00  0.00     0.014 A 
ATOM     10  C10 <0> d   1      18.693  -1.134  15.013  0.00  0.00    -0.009 A 
ATOM     11  C11 <0> d   1      19.714  -1.733  14.149  0.00  0.00     0.014 C 
ATOM     12  C12 <0> d   1      19.750  -1.674  12.860  0.00  0.00     0.014 C 
ATOM     13  C13 <0> d   1      18.775  -0.998  11.999  0.00  0.00    -0.009 A 
ATOM     14  C14 <0> d   1      18.423  -1.557  10.857  0.00  0.00     0.014 A 
ATOM     15  C15 <0> d   1      17.472  -0.879   9.961  0.00  0.00     0.001 A 
ATOM     16  C16 <0> d   1      16.975   0.293  10.295  0.00  0.00     0.002 A 
ATOM     17  C17 <0> d   1      17.361   0.915  11.572  0.00  0.00     0.031 A 
ATOM     18  C18 <0> d   1      18.193   0.302  12.383  0.00  0.00     0.054 A 
ATOM     19  H19 <0> d   1      19.831   3.443  14.911  0.00  0.00     0.160 HD
ATOM     20  H20 <0> d   1      19.137   2.116  15.672  0.00  0.00     0.160 HD
ENDROOT
TORSDOF 0
ENDMDL
