MODEL 1
REMARK VINA RESULT:      -6.9      0.000      0.000
REMARK  20 active torsions:
REMARK  status: ('A' for Active; 'I' for Inactive)
REMARK    1  A    between atoms: C2_2  and  C4_4 
REMARK    2  A    between atoms: C4_4  and  N5_5 
REMARK    3  A    between atoms: N5_5  and  C6_6 
REMARK    4  A    between atoms: N5_5  and  C35_34 
REMARK    5  A    between atoms: C6_6  and  C7_7 
REMARK    6  A    between atoms: C7_7  and  N8_8 
REMARK    7  A    between atoms: N8_8  and  C10_10 
REMARK    8  A    between atoms: N8_8  and  C31_30 
REMARK    9  A    between atoms: C10_10  and  C11_11 
REMARK   10  A    between atoms: C11_11  and  N12_12 
REMARK   11  A    between atoms: N12_12  and  C13_13 
REMARK   12  A    between atoms: N12_12  and  C17_17 
REMARK   13  A    between atoms: C13_13  and  C14_14 
REMARK   14  A    between atoms: C17_17  and  C19_18 
REMARK   15  A    between atoms: C17_17  and  C28_27 
REMARK   16  A    between atoms: C19_18  and  O20_19 
REMARK   17  A    between atoms: O20_19  and  C21_20 
REMARK   18  A    between atoms: C21_20  and  C22_21 
REMARK   19  A    between atoms: C31_30  and  C32_31 
REMARK   20  A    between atoms: C35_34  and  C36_35 
ROOT
ATOM      1  C11 ZIN A   1      19.731   1.233  11.191  0.00  0.00     0.302 C 
ENDROOT
BRANCH   1   2
ATOM      2  C10 ZIN A   1      19.148   2.627  11.427  0.00  0.00     0.265 C 
BRANCH   2   3
ATOM      3  N8  ZIN A   1      19.332   3.002  12.837  0.00  0.00    -0.058 N 
ATOM      4  H9  ZIN A   1      20.258   3.378  12.966  0.00  0.00     0.280 HD
BRANCH   3   5
ATOM      5  C7  ZIN A   1      19.162   1.815  13.684  0.00  0.00     0.265 C 
BRANCH   5   6
ATOM      6  C6  ZIN A   1      18.484   2.218  14.996  0.00  0.00     0.301 C 
BRANCH   6   7
ATOM      7  N5  ZIN A   1      18.523   1.089  15.935  0.00  0.00     0.110 N 
BRANCH   7   8
ATOM      8  C4  ZIN A   1      17.706  -0.030  15.449  0.00  0.00     0.385 C 
BRANCH   8   9
ATOM      9  C2  ZIN A   1      18.422  -1.329  15.718  0.00  0.00     0.202 C 
ATOM     10  O1  ZIN A   1      17.924  -2.156  16.463  0.00  0.00    -0.647 OA
ATOM     11  O3  ZIN A   1      19.496  -1.554  15.189  0.00  0.00    -0.647 OA
ENDBRANCH   8   9
ENDBRANCH   7   8
BRANCH   7  12
ATOM     12  C35 ZIN A   1      18.099   1.507  17.278  0.00  0.00     0.385 C 
BRANCH  12  13
ATOM     13  C36 ZIN A   1      19.285   1.489  18.208  0.00  0.00     0.202 C 
ATOM     14  O37 ZIN A   1      19.895   0.451  18.398  0.00  0.00    -0.647 OA
ATOM     15  O38 ZIN A   1      19.635   2.512  18.771  0.00  0.00    -0.647 OA
ENDBRANCH  12  13
ENDBRANCH   7  12
ENDBRANCH   6   7
ENDBRANCH   5   6
ENDBRANCH   3   5
BRANCH   3  16
ATOM     16  C31 ZIN A   1      18.335   4.015  13.208  0.00  0.00     0.347 C 
BRANCH  16  17
ATOM     17  C32 ZIN A   1      19.037   5.249  13.713  0.00  0.00     0.199 C 
ATOM     18  O33 ZIN A   1      18.426   6.069  14.375  0.00  0.00    -0.647 OA
ATOM     19  O34 ZIN A   1      20.216   5.425  13.459  0.00  0.00    -0.647 OA
ENDBRANCH  16  17
ENDBRANCH   3  16
ENDBRANCH   2   3
ENDBRANCH   1   2
BRANCH   1  20
ATOM     20  N12 ZIN A   1      18.926   0.530  10.182  0.00  0.00     0.117 N 
BRANCH  20  21
ATOM     21  C13 ZIN A   1      19.672   0.379   8.926  0.00  0.00     0.386 C 
BRANCH  21  22
ATOM     22  C14 ZIN A   1      18.827   0.869   7.778  0.00  0.00     0.202 C 
ATOM     23  O15 ZIN A   1      17.963   0.150   7.306  0.00  0.00    -0.647 OA
ATOM     24  O16 ZIN A   1      19.010   1.984   7.320  0.00  0.00    -0.647 OA
ENDBRANCH  21  22
ENDBRANCH  20  21
BRANCH  20  25
ATOM     25  C17 ZIN A   1      18.471  -0.773  10.685  0.00  0.00     0.346 C 
BRANCH  25  26
ATOM     26  C19 ZIN A   1      19.506  -1.330  11.666  0.00  0.00     0.215 C 
BRANCH  26  27
ATOM     27  O20 ZIN A   1      20.260  -2.361  11.027  0.00  0.00    -0.384 OA
BRANCH  27  28
ATOM     28  C21 ZIN A   1      20.234  -3.613  11.716  0.00  0.00     0.206 C 
BRANCH  28  29
ATOM     29  C22 ZIN A   1      19.227  -4.525  11.064  0.00  0.00    -0.035 A 
ATOM     30  C27 ZIN A   1      18.003  -4.747  11.667  0.00  0.00     0.009 A 
ATOM     31  C26 ZIN A   1      17.077  -5.579  11.066  0.00  0.00     0.001 A 
ATOM     32  C25 ZIN A   1      17.378  -6.197   9.867  0.00  0.00     0.000 A 
ATOM     33  C24 ZIN A   1      18.604  -5.980   9.267  0.00  0.00     0.001 A 
ATOM     34  C23 ZIN A   1      19.528  -5.143   9.865  0.00  0.00     0.009 A 
ENDBRANCH  28  29
ENDBRANCH  27  28
ENDBRANCH  26  27
ENDBRANCH  25  26
BRANCH  25  35
ATOM     35  C28 ZIN A   1      17.150  -0.606  11.391  0.00  0.00     0.209 C 
ATOM     36  O29 ZIN A   1      16.848  -1.354  12.304  0.00  0.00    -0.646 OA
ATOM     37  O30 ZIN A   1      16.383   0.278  11.047  0.00  0.00    -0.646 OA
ENDBRANCH  25  35
ENDBRANCH  20  25
ENDBRANCH   1  20
TORSDOF 20
ENDMDL
MODEL 2
REMARK VINA RESULT:      -6.7      1.822      3.081
REMARK  20 active torsions:
REMARK  status: ('A' for Active; 'I' for Inactive)
REMARK    1  A    between atoms: C2_2  and  C4_4 
REMARK    2  A    between atoms: C4_4  and  N5_5 
REMARK    3  A    between atoms: N5_5  and  C6_6 
REMARK    4  A    between atoms: N5_5  and  C35_34 
REMARK    5  A    between atoms: C6_6  and  C7_7 
REMARK    6  A    between atoms: C7_7  and  N8_8 
REMARK    7  A    between atoms: N8_8  and  C10_10 
REMARK    8  A    between atoms: N8_8  and  C31_30 
REMARK    9  A    between atoms: C10_10  and  C11_11 
REMARK   10  A    between atoms: C11_11  and  N12_12 
REMARK   11  A    between atoms: N12_12  and  C13_13 
REMARK   12  A    between atoms: N12_12  and  C17_17 
REMARK   13  A    between atoms: C13_13  and  C14_14 
REMARK   14  A    between atoms: C17_17  and  C19_18 
REMARK   15  A    between atoms: C17_17  and  C28_27 
REMARK   16  A    between atoms: C19_18  and  O20_19 
REMARK   17  A    between atoms: O20_19  and  C21_20 
REMARK   18  A    between atoms: C21_20  and  C22_21 
REMARK   19  A    between atoms: C31_30  and  C32_31 
REMARK   20  A    between atoms: C35_34  and  C36_35 
ROOT
ATOM      1  C11 ZIN A   1      19.446   1.165  10.834  0.00  0.00     0.302 C 
ENDROOT
BRANCH   1   2
ATOM      2  C10 ZIN A   1      19.221   2.404   9.965  0.00  0.00     0.265 C 
BRANCH   2   3
ATOM      3  N8  ZIN A   1      18.874   3.546  10.823  0.00  0.00    -0.058 N 
ATOM      4  H9  ZIN A   1      19.049   4.406  10.326  0.00  0.00     0.280 HD
BRANCH   3   5
ATOM      5  C7  ZIN A   1      19.691   3.509  12.042  0.00  0.00     0.265 C 
BRANCH   5   6
ATOM      6  C6  ZIN A   1      18.796   3.210  13.248  0.00  0.00     0.301 C 
BRANCH   6   7
ATOM      7  N5  ZIN A   1      19.178   4.078  14.369  0.00  0.00     0.110 N 
BRANCH   7   8
ATOM      8  C4  ZIN A   1      18.389   3.770  15.568  0.00  0.00     0.385 C 
BRANCH   8   9
ATOM      9  C2  ZIN A   1      19.215   2.934  16.512  0.00  0.00     0.202 C 
ATOM     10  O1  ZIN A   1      20.166   3.431  17.092  0.00  0.00    -0.647 OA
ATOM     11  O3  ZIN A   1      18.931   1.764  16.699  0.00  0.00    -0.647 OA
ENDBRANCH   8   9
ENDBRANCH   7   8
BRANCH   7  12
ATOM     12  C35 ZIN A   1      19.050   5.495  14.003  0.00  0.00     0.385 C 
BRANCH  12  13
ATOM     13  C36 ZIN A   1      19.776   6.343  15.016  0.00  0.00     0.202 C 
ATOM     14  O37 ZIN A   1      20.989   6.273  15.113  0.00  0.00    -0.647 OA
ATOM     15  O38 ZIN A   1      19.150   7.100  15.739  0.00  0.00    -0.647 OA
ENDBRANCH  12  13
ENDBRANCH   7  12
ENDBRANCH   6   7
ENDBRANCH   5   6
ENDBRANCH   3   5
BRANCH   3  16
ATOM     16  C31 ZIN A   1      17.452   3.471  11.185  0.00  0.00     0.347 C 
BRANCH  16  17
ATOM     17  C32 ZIN A   1      16.818   4.827  11.017  0.00  0.00     0.199 C 
ATOM     18  O33 ZIN A   1      16.132   5.294  11.910  0.00  0.00    -0.647 OA
ATOM     19  O34 ZIN A   1      16.994   5.459   9.989  0.00  0.00    -0.647 OA
ENDBRANCH  16  17
ENDBRANCH   3  16
ENDBRANCH   2   3
ENDBRANCH   1   2
BRANCH   1  20
ATOM     20  N12 ZIN A   1      18.807   0.002  10.203  0.00  0.00     0.117 N 
BRANCH  20  21
ATOM     21  C13 ZIN A   1      19.742  -0.689   9.305  0.00  0.00     0.386 C 
BRANCH  21  22
ATOM     22  C14 ZIN A   1      19.022  -1.093   8.045  0.00  0.00     0.202 C 
ATOM     23  O15 ZIN A   1      19.072  -0.380   7.058  0.00  0.00    -0.647 OA
ATOM     24  O16 ZIN A   1      18.386  -2.134   8.014  0.00  0.00    -0.647 OA
ENDBRANCH  21  22
ENDBRANCH  20  21
BRANCH  20  25
ATOM     25  C17 ZIN A   1      18.271  -0.918  11.215  0.00  0.00     0.346 C 
BRANCH  25  26
ATOM     26  C19 ZIN A   1      19.383  -1.309  12.189  0.00  0.00     0.215 C 
BRANCH  26  27
ATOM     27  O20 ZIN A   1      19.302  -2.708  12.469  0.00  0.00    -0.384 OA
BRANCH  27  28
ATOM     28  C21 ZIN A   1      20.098  -3.521  11.603  0.00  0.00     0.206 C 
BRANCH  28  29
ATOM     29  C22 ZIN A   1      19.216  -4.525  10.907  0.00  0.00    -0.035 A 
ATOM     30  C27 ZIN A   1      18.032  -4.931  11.494  0.00  0.00     0.009 A 
ATOM     31  C26 ZIN A   1      17.221  -5.848  10.852  0.00  0.00     0.001 A 
ATOM     32  C25 ZIN A   1      17.598  -6.367   9.628  0.00  0.00     0.000 A 
ATOM     33  C24 ZIN A   1      18.784  -5.965   9.043  0.00  0.00     0.001 A 
ATOM     34  C23 ZIN A   1      19.593  -5.044   9.682  0.00  0.00     0.009 A 
ENDBRANCH  28  29
ENDBRANCH  27  28
ENDBRANCH  26  27
ENDBRANCH  25  26
BRANCH  25  35
ATOM     35  C28 ZIN A   1      17.156  -0.240  11.970  0.00  0.00     0.209 C 
ATOM     36  O29 ZIN A   1      16.136   0.086  11.389  0.00  0.00    -0.646 OA
ATOM     37  O30 ZIN A   1      17.276  -0.018  13.163  0.00  0.00    -0.646 OA
ENDBRANCH  25  35
ENDBRANCH  20  25
ENDBRANCH   1  20
TORSDOF 20
ENDMDL
MODEL 3
REMARK VINA RESULT:      -6.7      2.705      4.252
REMARK  20 active torsions:
REMARK  status: ('A' for Active; 'I' for Inactive)
REMARK    1  A    between atoms: C2_2  and  C4_4 
REMARK    2  A    between atoms: C4_4  and  N5_5 
REMARK    3  A    between atoms: N5_5  and  C6_6 
REMARK    4  A    between atoms: N5_5  and  C35_34 
REMARK    5  A    between atoms: C6_6  and  C7_7 
REMARK    6  A    between atoms: C7_7  and  N8_8 
REMARK    7  A    between atoms: N8_8  and  C10_10 
REMARK    8  A    between atoms: N8_8  and  C31_30 
REMARK    9  A    between atoms: C10_10  and  C11_11 
REMARK   10  A    between atoms: C11_11  and  N12_12 
REMARK   11  A    between atoms: N12_12  and  C13_13 
REMARK   12  A    between atoms: N12_12  and  C17_17 
REMARK   13  A    between atoms: C13_13  and  C14_14 
REMARK   14  A    between atoms: C17_17  and  C19_18 
REMARK   15  A    between atoms: C17_17  and  C28_27 
REMARK   16  A    between atoms: C19_18  and  O20_19 
REMARK   17  A    between atoms: O20_19  and  C21_20 
REMARK   18  A    between atoms: C21_20  and  C22_21 
REMARK   19  A    between atoms: C31_30  and  C32_31 
REMARK   20  A    between atoms: C35_34  and  C36_35 
ROOT
ATOM      1  C11 ZIN A   1      19.143   2.511  12.734  0.00  0.00     0.302 C 
ENDROOT
BRANCH   1   2
ATOM      2  C10 ZIN A   1      18.484   2.917  14.054  0.00  0.00     0.265 C 
BRANCH   2   3
ATOM      3  N8  ZIN A   1      19.276   3.979  14.689  0.00  0.00    -0.058 N 
ATOM      4  H9  ZIN A   1      20.183   4.031  14.251  0.00  0.00     0.280 HD
BRANCH   3   5
ATOM      5  C7  ZIN A   1      19.437   3.681  16.118  0.00  0.00     0.265 C 
BRANCH   5   6
ATOM      6  C6  ZIN A   1      19.196   2.189  16.358  0.00  0.00     0.301 C 
BRANCH   6   7
ATOM      7  N5  ZIN A   1      18.516   2.003  17.647  0.00  0.00     0.110 N 
BRANCH   7   8
ATOM      8  C4  ZIN A   1      18.755   3.146  18.538  0.00  0.00     0.385 C 
BRANCH   8   9
ATOM      9  C2  ZIN A   1      17.438   3.647  19.076  0.00  0.00     0.202 C 
ATOM     10  O1  ZIN A   1      16.484   2.891  19.151  0.00  0.00    -0.647 OA
ATOM     11  O3  ZIN A   1      17.329   4.805  19.438  0.00  0.00    -0.647 OA
ENDBRANCH   8   9
ENDBRANCH   7   8
BRANCH   7  12
ATOM     12  C35 ZIN A   1      18.928   0.744  18.282  0.00  0.00     0.385 C 
BRANCH  12  13
ATOM     13  C36 ZIN A   1      18.451  -0.418  17.450  0.00  0.00     0.202 C 
ATOM     14  O37 ZIN A   1      19.251  -1.236  17.029  0.00  0.00    -0.647 OA
ATOM     15  O38 ZIN A   1      17.264  -0.541  17.197  0.00  0.00    -0.647 OA
ENDBRANCH  12  13
ENDBRANCH   7  12
ENDBRANCH   6   7
ENDBRANCH   5   6
ENDBRANCH   3   5
BRANCH   3  16
ATOM     16  C31 ZIN A   1      18.583   5.266  14.534  0.00  0.00     0.347 C 
BRANCH  16  17
ATOM     17  C32 ZIN A   1      19.443   6.369  15.093  0.00  0.00     0.199 C 
ATOM     18  O33 ZIN A   1      19.037   7.047  16.020  0.00  0.00    -0.647 OA
ATOM     19  O34 ZIN A   1      20.545   6.584  14.617  0.00  0.00    -0.647 OA
ENDBRANCH  16  17
ENDBRANCH   3  16
ENDBRANCH   2   3
ENDBRANCH   1   2
BRANCH   1  20
ATOM     20  N12 ZIN A   1      18.116   2.398  11.689  0.00  0.00     0.117 N 
BRANCH  20  21
ATOM     21  C13 ZIN A   1      18.362   3.358  10.604  0.00  0.00     0.386 C 
BRANCH  21  22
ATOM     22  C14 ZIN A   1      17.307   4.433  10.637  0.00  0.00     0.202 C 
ATOM     23  O15 ZIN A   1      16.430   4.401  11.482  0.00  0.00    -0.647 OA
ATOM     24  O16 ZIN A   1      17.331   5.335   9.817  0.00  0.00    -0.647 OA
ENDBRANCH  21  22
ENDBRANCH  20  21
BRANCH  20  25
ATOM     25  C17 ZIN A   1      18.041   1.025  11.171  0.00  0.00     0.346 C 
BRANCH  25  26
ATOM     26  C19 ZIN A   1      19.413   0.359  11.293  0.00  0.00     0.215 C 
BRANCH  26  27
ATOM     27  O20 ZIN A   1      19.920   0.070   9.988  0.00  0.00    -0.384 OA
BRANCH  27  28
ATOM     28  C21 ZIN A   1      19.126  -0.861   9.248  0.00  0.00     0.206 C 
BRANCH  28  29
ATOM     29  C22 ZIN A   1      19.125  -0.473   7.792  0.00  0.00    -0.035 A 
ATOM     30  C27 ZIN A   1      18.962   0.851   7.428  0.00  0.00     0.009 A 
ATOM     31  C26 ZIN A   1      18.966   1.206   6.093  0.00  0.00     0.001 A 
ATOM     32  C25 ZIN A   1      19.123   0.238   5.119  0.00  0.00     0.000 A 
ATOM     33  C24 ZIN A   1      19.280  -1.087   5.482  0.00  0.00     0.001 A 
ATOM     34  C23 ZIN A   1      19.282  -1.442   6.818  0.00  0.00     0.009 A 
ENDBRANCH  28  29
ENDBRANCH  27  28
ENDBRANCH  26  27
ENDBRANCH  25  26
BRANCH  25  35
ATOM     35  C28 ZIN A   1      17.029   0.242  11.968  0.00  0.00     0.209 C 
ATOM     36  O29 ZIN A   1      15.875   0.171  11.584  0.00  0.00    -0.646 OA
ATOM     37  O30 ZIN A   1      17.367  -0.320  12.995  0.00  0.00    -0.646 OA
ENDBRANCH  25  35
ENDBRANCH  20  25
ENDBRANCH   1  20
TORSDOF 20
ENDMDL
MODEL 4
REMARK VINA RESULT:      -6.5      2.467      6.567
REMARK  20 active torsions:
REMARK  status: ('A' for Active; 'I' for Inactive)
REMARK    1  A    between atoms: C2_2  and  C4_4 
REMARK    2  A    between atoms: C4_4  and  N5_5 
REMARK    3  A    between atoms: N5_5  and  C6_6 
REMARK    4  A    between atoms: N5_5  and  C35_34 
REMARK    5  A    between atoms: C6_6  and  C7_7 
REMARK    6  A    between atoms: C7_7  and  N8_8 
REMARK    7  A    between atoms: N8_8  and  C10_10 
REMARK    8  A    between atoms: N8_8  and  C31_30 
REMARK    9  A    between atoms: C10_10  and  C11_11 
REMARK   10  A    between atoms: C11_11  and  N12_12 
REMARK   11  A    between atoms: N12_12  and  C13_13 
REMARK   12  A    between atoms: N12_12  and  C17_17 
REMARK   13  A    between atoms: C13_13  and  C14_14 
REMARK   14  A    between atoms: C17_17  and  C19_18 
REMARK   15  A    between atoms: C17_17  and  C28_27 
REMARK   16  A    between atoms: C19_18  and  O20_19 
REMARK   17  A    between atoms: O20_19  and  C21_20 
REMARK   18  A    between atoms: C21_20  and  C22_21 
REMARK   19  A    between atoms: C31_30  and  C32_31 
REMARK   20  A    between atoms: C35_34  and  C36_35 
ROOT
ATOM      1  C11 ZIN A   1      17.940  -2.295   9.178  0.00  0.00     0.302 C 
ENDROOT
BRANCH   1   2
ATOM      2  C10 ZIN A   1      19.285  -1.660   8.823  0.00  0.00     0.265 C 
BRANCH   2   3
ATOM      3  N8  ZIN A   1      19.078  -0.251   8.456  0.00  0.00    -0.058 N 
ATOM      4  H9  ZIN A   1      19.667  -0.018   7.671  0.00  0.00     0.280 HD
BRANCH   3   5
ATOM      5  C7  ZIN A   1      19.419   0.607   9.597  0.00  0.00     0.265 C 
BRANCH   5   6
ATOM      6  C6  ZIN A   1      19.218   2.074   9.210  0.00  0.00     0.301 C 
BRANCH   6   7
ATOM      7  N5  ZIN A   1      18.893   2.857  10.409  0.00  0.00     0.110 N 
BRANCH   7   8
ATOM      8  C4  ZIN A   1      19.488   2.254  11.610  0.00  0.00     0.385 C 
BRANCH   8   9
ATOM      9  C2  ZIN A   1      19.436   3.243  12.746  0.00  0.00     0.202 C 
ATOM     10  O1  ZIN A   1      18.975   2.909  13.824  0.00  0.00    -0.647 OA
ATOM     11  O3  ZIN A   1      19.859   4.376  12.589  0.00  0.00    -0.647 OA
ENDBRANCH   8   9
ENDBRANCH   7   8
BRANCH   7  12
ATOM     12  C35 ZIN A   1      17.439   3.008  10.561  0.00  0.00     0.385 C 
BRANCH  12  13
ATOM     13  C36 ZIN A   1      17.085   4.473  10.575  0.00  0.00     0.202 C 
ATOM     14  O37 ZIN A   1      17.598   5.232   9.771  0.00  0.00    -0.647 OA
ATOM     15  O38 ZIN A   1      16.286   4.899  11.391  0.00  0.00    -0.647 OA
ENDBRANCH  12  13
ENDBRANCH   7  12
ENDBRANCH   6   7
ENDBRANCH   5   6
ENDBRANCH   3   5
BRANCH   3  16
ATOM     16  C31 ZIN A   1      17.670  -0.043   8.090  0.00  0.00     0.347 C 
BRANCH  16  17
ATOM     17  C32 ZIN A   1      17.555   0.092   6.594  0.00  0.00     0.199 C 
ATOM     18  O33 ZIN A   1      16.471  -0.039   6.052  0.00  0.00    -0.647 OA
ATOM     19  O34 ZIN A   1      18.546   0.334   5.926  0.00  0.00    -0.647 OA
ENDBRANCH  16  17
ENDBRANCH   3  16
ENDBRANCH   2   3
ENDBRANCH   1   2
BRANCH   1  20
ATOM     20  N12 ZIN A   1      18.154  -3.683   9.612  0.00  0.00     0.117 N 
BRANCH  20  21
ATOM     21  C13 ZIN A   1      19.435  -4.200   9.111  0.00  0.00     0.386 C 
BRANCH  21  22
ATOM     22  C14 ZIN A   1      19.245  -5.606   8.604  0.00  0.00     0.202 C 
ATOM     23  O15 ZIN A   1      18.271  -5.883   7.926  0.00  0.00    -0.647 OA
ATOM     24  O16 ZIN A   1      20.065  -6.467   8.875  0.00  0.00    -0.647 OA
ENDBRANCH  21  22
ENDBRANCH  20  21
BRANCH  20  25
ATOM     25  C17 ZIN A   1      18.077  -3.795  11.075  0.00  0.00     0.346 C 
BRANCH  25  26
ATOM     26  C19 ZIN A   1      17.551  -2.482  11.660  0.00  0.00     0.215 C 
BRANCH  26  27
ATOM     27  O20 ZIN A   1      18.183  -2.234  12.917  0.00  0.00    -0.384 OA
BRANCH  27  28
ATOM     28  C21 ZIN A   1      18.252  -0.851  13.271  0.00  0.00     0.206 C 
BRANCH  28  29
ATOM     29  C22 ZIN A   1      18.277  -0.717  14.771  0.00  0.00    -0.035 A 
ATOM     30  C27 ZIN A   1      17.373   0.114  15.407  0.00  0.00     0.009 A 
ATOM     31  C26 ZIN A   1      17.393   0.233  16.784  0.00  0.00     0.001 A 
ATOM     32  C25 ZIN A   1      18.323  -0.471  17.525  0.00  0.00     0.000 A 
ATOM     33  C24 ZIN A   1      19.231  -1.297  16.890  0.00  0.00     0.001 A 
ATOM     34  C23 ZIN A   1      19.207  -1.420  15.513  0.00  0.00     0.009 A 
ENDBRANCH  28  29
ENDBRANCH  27  28
ENDBRANCH  26  27
ENDBRANCH  25  26
BRANCH  25  35
ATOM     35  C28 ZIN A   1      17.143  -4.919  11.445  0.00  0.00     0.209 C 
ATOM     36  O29 ZIN A   1      17.271  -5.491  12.513  0.00  0.00    -0.646 OA
ATOM     37  O30 ZIN A   1      16.260  -5.255  10.674  0.00  0.00    -0.646 OA
ENDBRANCH  25  35
ENDBRANCH  20  25
ENDBRANCH   1  20
TORSDOF 20
ENDMDL
MODEL 5
REMARK VINA RESULT:      -6.5      0.693      2.040
REMARK  20 active torsions:
REMARK  status: ('A' for Active; 'I' for Inactive)
REMARK    1  A    between atoms: C2_2  and  C4_4 
REMARK    2  A    between atoms: C4_4  and  N5_5 
REMARK    3  A    between atoms: N5_5  and  C6_6 
REMARK    4  A    between atoms: N5_5  and  C35_34 
REMARK    5  A    between atoms: C6_6  and  C7_7 
REMARK    6  A    between atoms: C7_7  and  N8_8 
REMARK    7  A    between atoms: N8_8  and  C10_10 
REMARK    8  A    between atoms: N8_8  and  C31_30 
REMARK    9  A    between atoms: C10_10  and  C11_11 
REMARK   10  A    between atoms: C11_11  and  N12_12 
REMARK   11  A    between atoms: N12_12  and  C13_13 
REMARK   12  A    between atoms: N12_12  and  C17_17 
REMARK   13  A    between atoms: C13_13  and  C14_14 
REMARK   14  A    between atoms: C17_17  and  C19_18 
REMARK   15  A    between atoms: C17_17  and  C28_27 
REMARK   16  A    between atoms: C19_18  and  O20_19 
REMARK   17  A    between atoms: O20_19  and  C21_20 
REMARK   18  A    between atoms: C21_20  and  C22_21 
REMARK   19  A    between atoms: C31_30  and  C32_31 
REMARK   20  A    between atoms: C35_34  and  C36_35 
ROOT
ATOM      1  C11 ZIN A   1      19.948   1.171  11.231  0.00  0.00     0.302 C 
ENDROOT
BRANCH   1   2
ATOM      2  C10 ZIN A   1      19.631   2.666  11.302  0.00  0.00     0.265 C 
BRANCH   2   3
ATOM      3  N8  ZIN A   1      19.397   3.051  12.701  0.00  0.00    -0.058 N 
ATOM      4  H9  ZIN A   1      20.270   3.329  13.124  0.00  0.00     0.280 HD
BRANCH   3   5
ATOM      5  C7  ZIN A   1      18.838   1.909  13.436  0.00  0.00     0.265 C 
BRANCH   5   6
ATOM      6  C6  ZIN A   1      18.026   2.418  14.629  0.00  0.00     0.301 C 
BRANCH   6   7
ATOM      7  N5  ZIN A   1      18.327   1.600  15.811  0.00  0.00     0.110 N 
BRANCH   7   8
ATOM      8  C4  ZIN A   1      18.802   2.434  16.923  0.00  0.00     0.385 C 
BRANCH   8   9
ATOM      9  C2  ZIN A   1      18.775   1.632  18.199  0.00  0.00     0.202 C 
ATOM     10  O1  ZIN A   1      17.708   1.307  18.692  0.00  0.00    -0.647 OA
ATOM     11  O3  ZIN A   1      19.820   1.305  18.736  0.00  0.00    -0.647 OA
ENDBRANCH   8   9
ENDBRANCH   7   8
BRANCH   7  12
ATOM     12  C35 ZIN A   1      19.301   0.548  15.488  0.00  0.00     0.385 C 
BRANCH  12  13
ATOM     13  C36 ZIN A   1      18.737  -0.795  15.876  0.00  0.00     0.202 C 
ATOM     14  O37 ZIN A   1      17.635  -1.132  15.479  0.00  0.00    -0.647 OA
ATOM     15  O38 ZIN A   1      19.384  -1.545  16.588  0.00  0.00    -0.647 OA
ENDBRANCH  12  13
ENDBRANCH   7  12
ENDBRANCH   6   7
ENDBRANCH   5   6
ENDBRANCH   3   5
BRANCH   3  16
ATOM     16  C31 ZIN A   1      18.450   4.173  12.748  0.00  0.00     0.347 C 
BRANCH  16  17
ATOM     17  C32 ZIN A   1      19.008   5.264  13.625  0.00  0.00     0.199 C 
ATOM     18  O33 ZIN A   1      18.260   5.928  14.322  0.00  0.00    -0.647 OA
ATOM     19  O34 ZIN A   1      20.208   5.482  13.638  0.00  0.00    -0.647 OA
ENDBRANCH  16  17
ENDBRANCH   3  16
ENDBRANCH   2   3
ENDBRANCH   1   2
BRANCH   1  20
ATOM     20  N12 ZIN A   1      19.106   0.540  10.206  0.00  0.00     0.117 N 
BRANCH  20  21
ATOM     21  C13 ZIN A   1      19.835   0.400   8.939  0.00  0.00     0.386 C 
BRANCH  21  22
ATOM     22  C14 ZIN A   1      18.986   0.925   7.810  0.00  0.00     0.202 C 
ATOM     23  O15 ZIN A   1      18.953   2.121   7.576  0.00  0.00    -0.647 OA
ATOM     24  O16 ZIN A   1      18.329   0.152   7.132  0.00  0.00    -0.647 OA
ENDBRANCH  21  22
ENDBRANCH  20  21
BRANCH  20  25
ATOM     25  C17 ZIN A   1      18.598  -0.759  10.668  0.00  0.00     0.346 C 
BRANCH  25  26
ATOM     26  C19 ZIN A   1      19.573  -1.355  11.684  0.00  0.00     0.215 C 
BRANCH  26  27
ATOM     27  O20 ZIN A   1      20.367  -2.360  11.050  0.00  0.00    -0.384 OA
BRANCH  27  28
ATOM     28  C21 ZIN A   1      20.338  -3.627  11.712  0.00  0.00     0.206 C 
BRANCH  28  29
ATOM     29  C22 ZIN A   1      19.262  -4.488  11.103  0.00  0.00    -0.035 A 
ATOM     30  C27 ZIN A   1      19.469  -5.089   9.875  0.00  0.00     0.009 A 
ATOM     31  C26 ZIN A   1      18.483  -5.883   9.319  0.00  0.00     0.001 A 
ATOM     32  C25 ZIN A   1      17.286  -6.067   9.985  0.00  0.00     0.000 A 
ATOM     33  C24 ZIN A   1      17.077  -5.462  11.210  0.00  0.00     0.001 A 
ATOM     34  C23 ZIN A   1      18.065  -4.673  11.769  0.00  0.00     0.009 A 
ENDBRANCH  28  29
ENDBRANCH  27  28
ENDBRANCH  26  27
ENDBRANCH  25  26
BRANCH  25  35
ATOM     35  C28 ZIN A   1      17.250  -0.570  11.316  0.00  0.00     0.209 C 
ATOM     36  O29 ZIN A   1      16.851  -1.376  12.139  0.00  0.00    -0.646 OA
ATOM     37  O30 ZIN A   1      16.559   0.389  11.017  0.00  0.00    -0.646 OA
ENDBRANCH  25  35
ENDBRANCH  20  25
ENDBRANCH   1  20
TORSDOF 20
ENDMDL
MODEL 6
REMARK VINA RESULT:      -6.5      2.104      3.434
REMARK  20 active torsions:
REMARK  status: ('A' for Active; 'I' for Inactive)
REMARK    1  A    between atoms: C2_2  and  C4_4 
REMARK    2  A    between atoms: C4_4  and  N5_5 
REMARK    3  A    between atoms: N5_5  and  C6_6 
REMARK    4  A    between atoms: N5_5  and  C35_34 
REMARK    5  A    between atoms: C6_6  and  C7_7 
REMARK    6  A    between atoms: C7_7  and  N8_8 
REMARK    7  A    between atoms: N8_8  and  C10_10 
REMARK    8  A    between atoms: N8_8  and  C31_30 
REMARK    9  A    between atoms: C10_10  and  C11_11 
REMARK   10  A    between atoms: C11_11  and  N12_12 
REMARK   11  A    between atoms: N12_12  and  C13_13 
REMARK   12  A    between atoms: N12_12  and  C17_17 
REMARK   13  A    between atoms: C13_13  and  C14_14 
REMARK   14  A    between atoms: C17_17  and  C19_18 
REMARK   15  A    between atoms: C17_17  and  C28_27 
REMARK   16  A    between atoms: C19_18  and  O20_19 
REMARK   17  A    between atoms: O20_19  and  C21_20 
REMARK   18  A    between atoms: C21_20  and  C22_21 
REMARK   19  A    between atoms: C31_30  and  C32_31 
REMARK   20  A    between atoms: C35_34  and  C36_35 
ROOT
ATOM      1  C11 ZIN A   1      19.306   3.157  12.235  0.00  0.00     0.302 C 
ENDROOT
BRANCH   1   2
ATOM      2  C10 ZIN A   1      18.897   4.212  13.264  0.00  0.00     0.265 C 
BRANCH   2   3
ATOM      3  N8  ZIN A   1      19.539   3.913  14.552  0.00  0.00    -0.058 N 
ATOM      4  H9  ZIN A   1      20.503   3.659  14.396  0.00  0.00     0.280 HD
BRANCH   3   5
ATOM      5  C7  ZIN A   1      18.837   2.799  15.202  0.00  0.00     0.265 C 
BRANCH   5   6
ATOM      6  C6  ZIN A   1      19.531   2.461  16.524  0.00  0.00     0.301 C 
BRANCH   6   7
ATOM      7  N5  ZIN A   1      18.546   1.922  17.470  0.00  0.00     0.110 N 
BRANCH   7   8
ATOM      8  C4  ZIN A   1      18.539   2.692  18.721  0.00  0.00     0.385 C 
BRANCH   8   9
ATOM      9  C2  ZIN A   1      17.293   3.540  18.781  0.00  0.00     0.202 C 
ATOM     10  O1  ZIN A   1      16.310   3.137  19.380  0.00  0.00    -0.647 OA
ATOM     11  O3  ZIN A   1      17.269   4.629  18.233  0.00  0.00    -0.647 OA
ENDBRANCH   8   9
ENDBRANCH   7   8
BRANCH   7  12
ATOM     12  C35 ZIN A   1      18.793   0.497  17.731  0.00  0.00     0.385 C 
BRANCH  12  13
ATOM     13  C36 ZIN A   1      17.840  -0.336  16.913  0.00  0.00     0.202 C 
ATOM     14  O37 ZIN A   1      16.637  -0.186  17.040  0.00  0.00    -0.647 OA
ATOM     15  O38 ZIN A   1      18.272  -1.160  16.125  0.00  0.00    -0.647 OA
ENDBRANCH  12  13
ENDBRANCH   7  12
ENDBRANCH   6   7
ENDBRANCH   5   6
ENDBRANCH   3   5
BRANCH   3  16
ATOM     16  C31 ZIN A   1      19.479   5.100  15.416  0.00  0.00     0.347 C 
BRANCH  16  17
ATOM     17  C32 ZIN A   1      20.645   6.004  15.109  0.00  0.00     0.199 C 
ATOM     18  O33 ZIN A   1      20.482   6.996  14.419  0.00  0.00    -0.647 OA
ATOM     19  O34 ZIN A   1      21.751   5.743  15.551  0.00  0.00    -0.647 OA
ENDBRANCH  16  17
ENDBRANCH   3  16
ENDBRANCH   2   3
ENDBRANCH   1   2
BRANCH   1  20
ATOM     20  N12 ZIN A   1      18.128   2.750  11.456  0.00  0.00     0.117 N 
BRANCH  20  21
ATOM     21  C13 ZIN A   1      18.017   3.536  10.220  0.00  0.00     0.386 C 
BRANCH  21  22
ATOM     22  C14 ZIN A   1      17.121   4.724  10.458  0.00  0.00     0.202 C 
ATOM     23  O15 ZIN A   1      17.373   5.793   9.929  0.00  0.00    -0.647 OA
ATOM     24  O16 ZIN A   1      16.146   4.615  11.182  0.00  0.00    -0.647 OA
ENDBRANCH  21  22
ENDBRANCH  20  21
BRANCH  20  25
ATOM     25  C17 ZIN A   1      18.161   1.311  11.164  0.00  0.00     0.346 C 
BRANCH  25  26
ATOM     26  C19 ZIN A   1      19.540   0.751  11.516  0.00  0.00     0.215 C 
BRANCH  26  27
ATOM     27  O20 ZIN A   1      19.823  -0.376  10.683  0.00  0.00    -0.384 OA
BRANCH  27  28
ATOM     28  C21 ZIN A   1      20.024  -1.595  11.403  0.00  0.00     0.206 C 
BRANCH  28  29
ATOM     29  C22 ZIN A   1      18.963  -2.590  11.011  0.00  0.00    -0.035 A 
ATOM     30  C27 ZIN A   1      18.747  -2.882   9.677  0.00  0.00     0.009 A 
ATOM     31  C26 ZIN A   1      17.777  -3.798   9.318  0.00  0.00     0.001 A 
ATOM     32  C25 ZIN A   1      17.015  -4.416  10.291  0.00  0.00     0.000 A 
ATOM     33  C24 ZIN A   1      17.226  -4.120  11.625  0.00  0.00     0.001 A 
ATOM     34  C23 ZIN A   1      18.200  -3.207  11.985  0.00  0.00     0.009 A 
ENDBRANCH  28  29
ENDBRANCH  27  28
ENDBRANCH  26  27
ENDBRANCH  25  26
BRANCH  25  35
ATOM     35  C28 ZIN A   1      17.109   0.608  11.985  0.00  0.00     0.209 C 
ATOM     36  O29 ZIN A   1      16.121   0.147  11.441  0.00  0.00    -0.646 OA
ATOM     37  O30 ZIN A   1      17.249   0.501  13.191  0.00  0.00    -0.646 OA
ENDBRANCH  25  35
ENDBRANCH  20  25
ENDBRANCH   1  20
TORSDOF 20
ENDMDL
MODEL 7
REMARK VINA RESULT:      -6.5      1.955      7.823
REMARK  20 active torsions:
REMARK  status: ('A' for Active; 'I' for Inactive)
REMARK    1  A    between atoms: C2_2  and  C4_4 
REMARK    2  A    between atoms: C4_4  and  N5_5 
REMARK    3  A    between atoms: N5_5  and  C6_6 
REMARK    4  A    between atoms: N5_5  and  C35_34 
REMARK    5  A    between atoms: C6_6  and  C7_7 
REMARK    6  A    between atoms: C7_7  and  N8_8 
REMARK    7  A    between atoms: N8_8  and  C10_10 
REMARK    8  A    between atoms: N8_8  and  C31_30 
REMARK    9  A    between atoms: C10_10  and  C11_11 
REMARK   10  A    between atoms: C11_11  and  N12_12 
REMARK   11  A    between atoms: N12_12  and  C13_13 
REMARK   12  A    between atoms: N12_12  and  C17_17 
REMARK   13  A    between atoms: C13_13  and  C14_14 
REMARK   14  A    between atoms: C17_17  and  C19_18 
REMARK   15  A    between atoms: C17_17  and  C28_27 
REMARK   16  A    between atoms: C19_18  and  O20_19 
REMARK   17  A    between atoms: O20_19  and  C21_20 
REMARK   18  A    between atoms: C21_20  and  C22_21 
REMARK   19  A    between atoms: C31_30  and  C32_31 
REMARK   20  A    between atoms: C35_34  and  C36_35 
ROOT
ATOM      1  C11 ZIN A   1      18.068   2.390  14.899  0.00  0.00     0.302 C 
ENDROOT
BRANCH   1   2
ATOM      2  C10 ZIN A   1      19.355   1.599  14.658  0.00  0.00     0.265 C 
BRANCH   2   3
ATOM      3  N8  ZIN A   1      19.028   0.178  14.472  0.00  0.00    -0.058 N 
ATOM      4  H9  ZIN A   1      19.671  -0.388  15.003  0.00  0.00     0.280 HD
BRANCH   3   5
ATOM      5  C7  ZIN A   1      19.133  -0.165  13.048  0.00  0.00     0.265 C 
BRANCH   5   6
ATOM      6  C6  ZIN A   1      17.877  -0.925  12.613  0.00  0.00     0.301 C 
BRANCH   6   7
ATOM      7  N5  ZIN A   1      18.209  -1.818  11.494  0.00  0.00     0.110 N 
BRANCH   7   8
ATOM      8  C4  ZIN A   1      18.475  -3.182  11.970  0.00  0.00     0.385 C 
BRANCH   8   9
ATOM      9  C2  ZIN A   1      17.480  -4.132  11.352  0.00  0.00     0.202 C 
ATOM     10  O1  ZIN A   1      16.962  -5.000  12.034  0.00  0.00    -0.647 OA
ATOM     11  O3  ZIN A   1      17.190  -4.029  10.173  0.00  0.00    -0.647 OA
ENDBRANCH   8   9
ENDBRANCH   7   8
BRANCH   7  12
ATOM     12  C35 ZIN A   1      19.347  -1.297  10.726  0.00  0.00     0.385 C 
BRANCH  12  13
ATOM     13  C36 ZIN A   1      18.906  -1.000   9.315  0.00  0.00     0.202 C 
ATOM     14  O37 ZIN A   1      19.737  -0.771   8.452  0.00  0.00    -0.647 OA
ATOM     15  O38 ZIN A   1      17.719  -0.987   9.037  0.00  0.00    -0.647 OA
ENDBRANCH  12  13
ENDBRANCH   7  12
ENDBRANCH   6   7
ENDBRANCH   5   6
ENDBRANCH   3   5
BRANCH   3  16
ATOM     16  C31 ZIN A   1      17.656  -0.073  14.935  0.00  0.00     0.347 C 
BRANCH  16  17
ATOM     17  C32 ZIN A   1      17.698  -0.796  16.256  0.00  0.00     0.199 C 
ATOM     18  O33 ZIN A   1      16.928  -0.481  17.147  0.00  0.00    -0.647 OA
ATOM     19  O34 ZIN A   1      18.501  -1.696  16.434  0.00  0.00    -0.647 OA
ENDBRANCH  16  17
ENDBRANCH   3  16
ENDBRANCH   2   3
ENDBRANCH   1   2
BRANCH   1  20
ATOM     20  N12 ZIN A   1      18.259   3.301  16.036  0.00  0.00     0.117 N 
BRANCH  20  21
ATOM     21  C13 ZIN A   1      19.471   2.955  16.790  0.00  0.00     0.386 C 
BRANCH  21  22
ATOM     22  C14 ZIN A   1      19.088   2.221  18.049  0.00  0.00     0.202 C 
ATOM     23  O15 ZIN A   1      19.835   1.378  18.516  0.00  0.00    -0.647 OA
ATOM     24  O16 ZIN A   1      18.028   2.469  18.599  0.00  0.00    -0.647 OA
ENDBRANCH  21  22
ENDBRANCH  20  21
BRANCH  20  25
ATOM     25  C17 ZIN A   1      18.297   4.700  15.591  0.00  0.00     0.346 C 
BRANCH  25  26
ATOM     26  C19 ZIN A   1      17.135   4.961  14.631  0.00  0.00     0.215 C 
BRANCH  26  27
ATOM     27  O20 ZIN A   1      17.579   5.799  13.562  0.00  0.00    -0.384 OA
BRANCH  27  28
ATOM     28  C21 ZIN A   1      17.041   5.448  12.285  0.00  0.00     0.206 C 
BRANCH  28  29
ATOM     29  C22 ZIN A   1      17.911   4.397  11.645  0.00  0.00    -0.035 A 
ATOM     30  C27 ZIN A   1      19.239   4.280  12.014  0.00  0.00     0.009 A 
ATOM     31  C26 ZIN A   1      20.035   3.313  11.431  0.00  0.00     0.001 A 
ATOM     32  C25 ZIN A   1      19.508   2.469  10.471  0.00  0.00     0.000 A 
ATOM     33  C24 ZIN A   1      18.183   2.590  10.098  0.00  0.00     0.001 A 
ATOM     34  C23 ZIN A   1      17.384   3.554  10.685  0.00  0.00     0.009 A 
ENDBRANCH  28  29
ENDBRANCH  27  28
ENDBRANCH  26  27
ENDBRANCH  25  26
BRANCH  25  35
ATOM     35  C28 ZIN A   1      18.176   5.611  16.785  0.00  0.00     0.209 C 
ATOM     36  O29 ZIN A   1      17.250   5.474  17.565  0.00  0.00    -0.646 OA
ATOM     37  O30 ZIN A   1      19.006   6.485  16.971  0.00  0.00    -0.646 OA
ENDBRANCH  25  35
ENDBRANCH  20  25
ENDBRANCH   1  20
TORSDOF 20
ENDMDL
MODEL 8
REMARK VINA RESULT:      -6.4      2.603      6.384
REMARK  20 active torsions:
REMARK  status: ('A' for Active; 'I' for Inactive)
REMARK    1  A    between atoms: C2_2  and  C4_4 
REMARK    2  A    between atoms: C4_4  and  N5_5 
REMARK    3  A    between atoms: N5_5  and  C6_6 
REMARK    4  A    between atoms: N5_5  and  C35_34 
REMARK    5  A    between atoms: C6_6  and  C7_7 
REMARK    6  A    between atoms: C7_7  and  N8_8 
REMARK    7  A    between atoms: N8_8  and  C10_10 
REMARK    8  A    between atoms: N8_8  and  C31_30 
REMARK    9  A    between atoms: C10_10  and  C11_11 
REMARK   10  A    between atoms: C11_11  and  N12_12 
REMARK   11  A    between atoms: N12_12  and  C13_13 
REMARK   12  A    between atoms: N12_12  and  C17_17 
REMARK   13  A    between atoms: C13_13  and  C14_14 
REMARK   14  A    between atoms: C17_17  and  C19_18 
REMARK   15  A    between atoms: C17_17  and  C28_27 
REMARK   16  A    between atoms: C19_18  and  O20_19 
REMARK   17  A    between atoms: O20_19  and  C21_20 
REMARK   18  A    between atoms: C21_20  and  C22_21 
REMARK   19  A    between atoms: C31_30  and  C32_31 
REMARK   20  A    between atoms: C35_34  and  C36_35 
ROOT
ATOM      1  C11 ZIN A   1      19.450   1.161  14.556  0.00  0.00     0.302 C 
ENDROOT
BRANCH   1   2
ATOM      2  C10 ZIN A   1      18.208   2.054  14.572  0.00  0.00     0.265 C 
BRANCH   2   3
ATOM      3  N8  ZIN A   1      18.198   2.854  15.805  0.00  0.00    -0.058 N 
ATOM      4  H9  ZIN A   1      17.460   2.529  16.411  0.00  0.00     0.280 HD
BRANCH   3   5
ATOM      5  C7  ZIN A   1      17.971   4.266  15.470  0.00  0.00     0.265 C 
BRANCH   5   6
ATOM      6  C6  ZIN A   1      18.245   4.487  13.980  0.00  0.00     0.301 C 
BRANCH   6   7
ATOM      7  N5  ZIN A   1      17.247   5.413  13.430  0.00  0.00     0.110 N 
BRANCH   7   8
ATOM      8  C4  ZIN A   1      16.252   5.780  14.447  0.00  0.00     0.385 C 
BRANCH   8   9
ATOM      9  C2  ZIN A   1      16.260   7.275  14.641  0.00  0.00     0.202 C 
ATOM     10  O1  ZIN A   1      15.266   7.839  15.065  0.00  0.00    -0.647 OA
ATOM     11  O3  ZIN A   1      17.261   7.918  14.379  0.00  0.00    -0.647 OA
ENDBRANCH   8   9
ENDBRANCH   7   8
BRANCH   7  12
ATOM     12  C35 ZIN A   1      16.600   4.844  12.241  0.00  0.00     0.385 C 
BRANCH  12  13
ATOM     13  C36 ZIN A   1      17.455   5.111  11.028  0.00  0.00     0.202 C 
ATOM     14  O37 ZIN A   1      17.161   6.012  10.262  0.00  0.00    -0.647 OA
ATOM     15  O38 ZIN A   1      18.439   4.425  10.813  0.00  0.00    -0.647 OA
ENDBRANCH  12  13
ENDBRANCH   7  12
ENDBRANCH   6   7
ENDBRANCH   5   6
ENDBRANCH   3   5
BRANCH   3  16
ATOM     16  C31 ZIN A   1      19.491   2.716  16.489  0.00  0.00     0.347 C 
BRANCH  16  17
ATOM     17  C32 ZIN A   1      19.258   2.416  17.947  0.00  0.00     0.199 C 
ATOM     18  O33 ZIN A   1      19.758   1.426  18.453  0.00  0.00    -0.647 OA
ATOM     19  O34 ZIN A   1      18.569   3.164  18.621  0.00  0.00    -0.647 OA
ENDBRANCH  16  17
ENDBRANCH   3  16
ENDBRANCH   2   3
ENDBRANCH   1   2
BRANCH   1  20
ATOM     20  N12 ZIN A   1      19.061  -0.213  14.209  0.00  0.00     0.117 N 
BRANCH  20  21
ATOM     21  C13 ZIN A   1      17.864  -0.625  14.954  0.00  0.00     0.386 C 
BRANCH  21  22
ATOM     22  C14 ZIN A   1      18.258  -1.036  16.349  0.00  0.00     0.202 C 
ATOM     23  O15 ZIN A   1      17.570  -0.705  17.300  0.00  0.00    -0.647 OA
ATOM     24  O16 ZIN A   1      19.266  -1.699  16.527  0.00  0.00    -0.647 OA
ENDBRANCH  21  22
ENDBRANCH  20  21
BRANCH  20  25
ATOM     25  C17 ZIN A   1      18.854  -0.352  12.761  0.00  0.00     0.346 C 
BRANCH  25  26
ATOM     26  C19 ZIN A   1      20.080   0.182  12.018  0.00  0.00     0.215 C 
BRANCH  26  27
ATOM     27  O20 ZIN A   1      19.687   1.258  11.164  0.00  0.00    -0.384 OA
BRANCH  27  28
ATOM     28  C21 ZIN A   1      18.320   1.203  10.750  0.00  0.00     0.206 C 
BRANCH  28  29
ATOM     29  C22 ZIN A   1      18.255   0.943   9.267  0.00  0.00    -0.035 A 
ATOM     30  C27 ZIN A   1      17.369   0.007   8.767  0.00  0.00     0.009 A 
ATOM     31  C26 ZIN A   1      17.306  -0.228   7.406  0.00  0.00     0.001 A 
ATOM     32  C25 ZIN A   1      18.136   0.466   6.546  0.00  0.00     0.000 A 
ATOM     33  C24 ZIN A   1      19.026   1.398   7.046  0.00  0.00     0.001 A 
ATOM     34  C23 ZIN A   1      19.085   1.636   8.406  0.00  0.00     0.009 A 
ENDBRANCH  28  29
ENDBRANCH  27  28
ENDBRANCH  26  27
ENDBRANCH  25  26
BRANCH  25  35
ATOM     35  C28 ZIN A   1      18.654  -1.807  12.420  0.00  0.00     0.209 C 
ATOM     36  O29 ZIN A   1      19.539  -2.614  12.649  0.00  0.00    -0.646 OA
ATOM     37  O30 ZIN A   1      17.608  -2.176  11.915  0.00  0.00    -0.646 OA
ENDBRANCH  25  35
ENDBRANCH  20  25
ENDBRANCH   1  20
TORSDOF 20
ENDMDL
MODEL 9
REMARK VINA RESULT:      -6.4      2.484      5.923
REMARK  20 active torsions:
REMARK  status: ('A' for Active; 'I' for Inactive)
REMARK    1  A    between atoms: C2_2  and  C4_4 
REMARK    2  A    between atoms: C4_4  and  N5_5 
REMARK    3  A    between atoms: N5_5  and  C6_6 
REMARK    4  A    between atoms: N5_5  and  C35_34 
REMARK    5  A    between atoms: C6_6  and  C7_7 
REMARK    6  A    between atoms: C7_7  and  N8_8 
REMARK    7  A    between atoms: N8_8  and  C10_10 
REMARK    8  A    between atoms: N8_8  and  C31_30 
REMARK    9  A    between atoms: C10_10  and  C11_11 
REMARK   10  A    between atoms: C11_11  and  N12_12 
REMARK   11  A    between atoms: N12_12  and  C13_13 
REMARK   12  A    between atoms: N12_12  and  C17_17 
REMARK   13  A    between atoms: C13_13  and  C14_14 
REMARK   14  A    between atoms: C17_17  and  C19_18 
REMARK   15  A    between atoms: C17_17  and  C28_27 
REMARK   16  A    between atoms: C19_18  and  O20_19 
REMARK   17  A    between atoms: O20_19  and  C21_20 
REMARK   18  A    between atoms: C21_20  and  C22_21 
REMARK   19  A    between atoms: C31_30  and  C32_31 
REMARK   20  A    between atoms: C35_34  and  C36_35 
ROOT
ATOM      1  C11 ZIN A   1      19.438   0.837  14.436  0.00  0.00     0.302 C 
ENDROOT
BRANCH   1   2
ATOM      2  C10 ZIN A   1      18.173   1.692  14.517  0.00  0.00     0.265 C 
BRANCH   2   3
ATOM      3  N8  ZIN A   1      18.084   2.309  15.848  0.00  0.00    -0.058 N 
ATOM      4  H9  ZIN A   1      17.267   1.961  16.325  0.00  0.00     0.280 HD
BRANCH   3   5
ATOM      5  C7  ZIN A   1      17.987   3.767  15.706  0.00  0.00     0.265 C 
BRANCH   5   6
ATOM      6  C6  ZIN A   1      19.296   4.312  15.130  0.00  0.00     0.301 C 
BRANCH   6   7
ATOM      7  N5  ZIN A   1      18.997   5.317  14.102  0.00  0.00     0.110 N 
BRANCH   7   8
ATOM      8  C4  ZIN A   1      19.361   4.828  12.765  0.00  0.00     0.385 C 
BRANCH   8   9
ATOM      9  C2  ZIN A   1      18.113   4.653  11.938  0.00  0.00     0.202 C 
ATOM     10  O1  ZIN A   1      18.154   4.814  10.730  0.00  0.00    -0.647 OA
ATOM     11  O3  ZIN A   1      17.063   4.347  12.477  0.00  0.00    -0.647 OA
ENDBRANCH   8   9
ENDBRANCH   7   8
BRANCH   7  12
ATOM     12  C35 ZIN A   1      19.671   6.589  14.399  0.00  0.00     0.385 C 
BRANCH  12  13
ATOM     13  C36 ZIN A   1      18.761   7.457  15.230  0.00  0.00     0.202 C 
ATOM     14  O37 ZIN A   1      18.114   8.344  14.701  0.00  0.00    -0.647 OA
ATOM     15  O38 ZIN A   1      18.672   7.272  16.432  0.00  0.00    -0.647 OA
ENDBRANCH  12  13
ENDBRANCH   7  12
ENDBRANCH   6   7
ENDBRANCH   5   6
ENDBRANCH   3   5
BRANCH   3  16
ATOM     16  C31 ZIN A   1      19.285   1.972  16.624  0.00  0.00     0.347 C 
BRANCH  16  17
ATOM     17  C32 ZIN A   1      18.915   1.806  18.075  0.00  0.00     0.199 C 
ATOM     18  O33 ZIN A   1      17.781   1.478  18.381  0.00  0.00    -0.647 OA
ATOM     19  O34 ZIN A   1      19.749   1.999  18.943  0.00  0.00    -0.647 OA
ENDBRANCH  16  17
ENDBRANCH   3  16
ENDBRANCH   2   3
ENDBRANCH   1   2
BRANCH   1  20
ATOM     20  N12 ZIN A   1      19.089  -0.510  13.962  0.00  0.00     0.117 N 
BRANCH  20  21
ATOM     21  C13 ZIN A   1      17.865  -0.996  14.614  0.00  0.00     0.386 C 
BRANCH  21  22
ATOM     22  C14 ZIN A   1      18.178  -1.402  16.031  0.00  0.00     0.202 C 
ATOM     23  O15 ZIN A   1      17.303  -1.382  16.879  0.00  0.00    -0.647 OA
ATOM     24  O16 ZIN A   1      19.309  -1.749  16.330  0.00  0.00    -0.647 OA
ENDBRANCH  21  22
ENDBRANCH  20  21
BRANCH  20  25
ATOM     25  C17 ZIN A   1      18.953  -0.536  12.500  0.00  0.00     0.346 C 
BRANCH  25  26
ATOM     26  C19 ZIN A   1      20.198   0.082  11.861  0.00  0.00     0.215 C 
BRANCH  26  27
ATOM     27  O20 ZIN A   1      19.820   1.220  11.084  0.00  0.00    -0.384 OA
BRANCH  27  28
ATOM     28  C21 ZIN A   1      18.440   1.237  10.711  0.00  0.00     0.206 C 
BRANCH  28  29
ATOM     29  C22 ZIN A   1      18.315   0.960   9.235  0.00  0.00    -0.035 A 
ATOM     30  C27 ZIN A   1      17.428   0.001   8.783  0.00  0.00     0.009 A 
ATOM     31  C26 ZIN A   1      17.310  -0.249   7.429  0.00  0.00     0.001 A 
ATOM     32  C25 ZIN A   1      18.087   0.452   6.526  0.00  0.00     0.000 A 
ATOM     33  C24 ZIN A   1      18.979   1.407   6.977  0.00  0.00     0.001 A 
ATOM     34  C23 ZIN A   1      19.093   1.661   8.332  0.00  0.00     0.009 A 
ENDBRANCH  28  29
ENDBRANCH  27  28
ENDBRANCH  26  27
ENDBRANCH  25  26
BRANCH  25  35
ATOM     35  C28 ZIN A   1      18.805  -1.962  12.034  0.00  0.00     0.209 C 
ATOM     36  O29 ZIN A   1      17.754  -2.337  11.544  0.00  0.00    -0.646 OA
ATOM     37  O30 ZIN A   1      19.737  -2.740  12.148  0.00  0.00    -0.646 OA
ENDBRANCH  25  35
ENDBRANCH  20  25
ENDBRANCH   1  20
TORSDOF 20
ENDMDL
