MODEL 1
REMARK VINA RESULT:      -8.0      0.000      0.000
REMARK  1 active torsions:
REMARK  status: ('A' for Active; 'I' for Inactive)
REMARK    1  A    between atoms: C8_8  and  C9_9 
ROOT
ATOM      1  C1  <0> d   1      17.182   0.182   9.207  0.00  0.00     0.093 C 
ATOM      2  C2  <0> d   1      18.518  -0.029   9.870  0.00  0.00     0.131 A 
ATOM      3  N3  <0> d   1      19.405  -0.941   9.564  0.00  0.00    -0.135 NA
ATOM      4  N4  <0> d   1      20.424  -0.840  10.344  0.00  0.00    -0.133 NA
ATOM      5  C5  <0> d   1      20.234   0.131  11.190  0.00  0.00     0.154 A 
ATOM      6  C6  <0> d   1      21.139   0.554  12.320  0.00  0.00     0.230 C 
ATOM      7  N7  <0> d   1      20.389   0.415  13.571  0.00  0.00    -0.281 NA
ATOM      8  C8  <0> d   1      19.308   1.080  13.795  0.00  0.00     0.074 C 
ATOM      9  C15 <0> d   1      18.634   2.028  12.901  0.00  0.00     0.022 A 
ATOM     10  C16 <0> d   1      18.121   3.210  13.458  0.00  0.00     0.040 A 
ATOM     11  C17 <0> d   1      17.452   4.121  12.672  0.00  0.00     0.035 A 
ATOM     12 Cl18 <0> d   1      16.830   5.580  13.378  0.00  0.00    -0.084 Cl
ATOM     13  C19 <0> d   1      17.273   3.877  11.320  0.00  0.00     0.026 A 
ATOM     14  C20 <0> d   1      17.780   2.725  10.755  0.00  0.00     0.033 A 
ATOM     15  C21 <0> d   1      18.474   1.803  11.532  0.00  0.00     0.055 A 
ATOM     16  N22 <0> d   1      19.036   0.697  10.897  0.00  0.00    -0.282 N 
ENDROOT
BRANCH   8  17
ATOM     17  C9  <0> d   1      18.672   0.863  15.114  0.00  0.00    -0.007 A 
ATOM     18  C14 <0> d   1      19.116   1.571  16.230  0.00  0.00     0.014 A 
ATOM     19  C13 <0> d   1      18.516   1.368  17.456  0.00  0.00     0.001 A 
ATOM     20  C12 <0> d   1      17.483   0.456  17.582  0.00  0.00     0.000 A 
ATOM     21  C11 <0> d   1      17.042  -0.254  16.479  0.00  0.00     0.001 A 
ATOM     22  C10 <0> d   1      17.631  -0.055  15.246  0.00  0.00     0.014 A 
ENDBRANCH   8  17
TORSDOF 1
ENDMDL
MODEL 2
REMARK VINA RESULT:      -7.9      3.559      5.831
REMARK  1 active torsions:
REMARK  status: ('A' for Active; 'I' for Inactive)
REMARK    1  A    between atoms: C8_8  and  C9_9 
ROOT
ATOM      1  C1  <0> d   1      20.527   3.178  11.627  0.00  0.00     0.093 C 
ATOM      2  C2  <0> d   1      19.280   2.500  12.131  0.00  0.00     0.131 A 
ATOM      3  N3  <0> d   1      18.723   2.666  13.303  0.00  0.00    -0.135 NA
ATOM      4  N4  <0> d   1      17.678   1.920  13.401  0.00  0.00    -0.133 NA
ATOM      5  C5  <0> d   1      17.524   1.236  12.304  0.00  0.00     0.154 A 
ATOM      6  C6  <0> d   1      16.473   0.195  12.011  0.00  0.00     0.230 C 
ATOM      7  N7  <0> d   1      17.160  -1.069  11.729  0.00  0.00    -0.281 NA
ATOM      8  C8  <0> d   1      17.980  -1.193  10.743  0.00  0.00     0.074 C 
ATOM      9  C15 <0> d   1      18.391  -0.166   9.779  0.00  0.00     0.022 A 
ATOM     10  C16 <0> d   1      18.497  -0.533   8.429  0.00  0.00     0.040 A 
ATOM     11  C17 <0> d   1      18.907   0.382   7.485  0.00  0.00     0.035 A 
ATOM     12 Cl18 <0> d   1      19.026  -0.089   5.819  0.00  0.00    -0.084 Cl
ATOM     13  C19 <0> d   1      19.225   1.677   7.862  0.00  0.00     0.026 A 
ATOM     14  C20 <0> d   1      19.116   2.057   9.183  0.00  0.00     0.033 A 
ATOM     15  C21 <0> d   1      18.685   1.149  10.146  0.00  0.00     0.055 A 
ATOM     16  N22 <0> d   1      18.513   1.606  11.452  0.00  0.00    -0.282 N 
ENDROOT
BRANCH   8  17
ATOM     17  C9  <0> d   1      18.578  -2.535  10.559  0.00  0.00    -0.007 A 
ATOM     18  C14 <0> d   1      18.027  -3.427   9.640  0.00  0.00     0.014 A 
ATOM     19  C13 <0> d   1      18.592  -4.674   9.469  0.00  0.00     0.001 A 
ATOM     20  C12 <0> d   1      19.696  -5.045  10.216  0.00  0.00     0.000 A 
ATOM     21  C11 <0> d   1      20.243  -4.167  11.134  0.00  0.00     0.001 A 
ATOM     22  C10 <0> d   1      19.690  -2.914  11.310  0.00  0.00     0.014 A 
ENDBRANCH   8  17
TORSDOF 1
ENDMDL
MODEL 3
REMARK VINA RESULT:      -7.8      3.042      6.436
REMARK  1 active torsions:
REMARK  status: ('A' for Active; 'I' for Inactive)
REMARK    1  A    between atoms: C8_8  and  C9_9 
ROOT
ATOM      1  C1  <0> d   1      17.031   0.599  14.835  0.00  0.00     0.093 C 
ATOM      2  C2  <0> d   1      17.900   1.606  14.127  0.00  0.00     0.131 A 
ATOM      3  N3  <0> d   1      17.962   2.890  14.372  0.00  0.00    -0.135 NA
ATOM      4  N4  <0> d   1      18.800   3.449  13.569  0.00  0.00    -0.133 NA
ATOM      5  C5  <0> d   1      19.303   2.554  12.768  0.00  0.00     0.154 A 
ATOM      6  C6  <0> d   1      20.269   2.779  11.632  0.00  0.00     0.230 C 
ATOM      7  N7  <0> d   1      19.621   2.327  10.397  0.00  0.00    -0.281 NA
ATOM      8  C8  <0> d   1      19.250   1.105  10.231  0.00  0.00     0.074 C 
ATOM      9  C15 <0> d   1      19.363  -0.008  11.180  0.00  0.00     0.022 A 
ATOM     10  C16 <0> d   1      19.761  -1.259  10.686  0.00  0.00     0.040 A 
ATOM     11  C17 <0> d   1      19.856  -2.346  11.526  0.00  0.00     0.035 A 
ATOM     12 Cl18 <0> d   1      20.356  -3.885  10.897  0.00  0.00    -0.084 Cl
ATOM     13  C19 <0> d   1      19.552  -2.215  12.872  0.00  0.00     0.026 A 
ATOM     14  C20 <0> d   1      19.169  -0.990  13.375  0.00  0.00     0.033 A 
ATOM     15  C21 <0> d   1      19.087   0.122  12.543  0.00  0.00     0.055 A 
ATOM     16  N22 <0> d   1      18.775   1.354  13.117  0.00  0.00    -0.282 N 
ENDROOT
BRANCH   8  17
ATOM     17  C9  <0> d   1      18.637   0.784   8.921  0.00  0.00    -0.007 A 
ATOM     18  C14 <0> d   1      19.211   1.261   7.744  0.00  0.00     0.014 A 
ATOM     19  C13 <0> d   1      18.638   0.954   6.526  0.00  0.00     0.001 A 
ATOM     20  C12 <0> d   1      17.489   0.185   6.473  0.00  0.00     0.000 A 
ATOM     21  C11 <0> d   1      16.911  -0.286   7.639  0.00  0.00     0.001 A 
ATOM     22  C10 <0> d   1      17.478   0.009   8.862  0.00  0.00     0.014 A 
ENDBRANCH   8  17
TORSDOF 1
ENDMDL
MODEL 4
REMARK VINA RESULT:      -7.7      1.996      2.516
REMARK  1 active torsions:
REMARK  status: ('A' for Active; 'I' for Inactive)
REMARK    1  A    between atoms: C8_8  and  C9_9 
ROOT
ATOM      1  C1  <0> d   1      16.994  -0.297   8.053  0.00  0.00     0.093 C 
ATOM      2  C2  <0> d   1      17.900  -1.308   8.706  0.00  0.00     0.131 A 
ATOM      3  N3  <0> d   1      18.003  -2.576   8.398  0.00  0.00    -0.135 NA
ATOM      4  N4  <0> d   1      18.863  -3.146   9.168  0.00  0.00    -0.133 NA
ATOM      5  C5  <0> d   1      19.341  -2.275  10.010  0.00  0.00     0.154 A 
ATOM      6  C6  <0> d   1      20.321  -2.524  11.129  0.00  0.00     0.230 C 
ATOM      7  N7  <0> d   1      19.666  -2.155  12.388  0.00  0.00    -0.281 NA
ATOM      8  C8  <0> d   1      19.256  -0.956  12.616  0.00  0.00     0.074 C 
ATOM      9  C15 <0> d   1      19.327   0.205  11.723  0.00  0.00     0.022 A 
ATOM     10  C16 <0> d   1      19.687   1.444  12.276  0.00  0.00     0.040 A 
ATOM     11  C17 <0> d   1      19.740   2.573  11.490  0.00  0.00     0.035 A 
ATOM     12 Cl18 <0> d   1      20.194   4.095  12.192  0.00  0.00    -0.084 Cl
ATOM     13  C19 <0> d   1      19.433   2.499  10.141  0.00  0.00     0.026 A 
ATOM     14  C20 <0> d   1      19.087   1.288   9.579  0.00  0.00     0.033 A 
ATOM     15  C21 <0> d   1      19.047   0.134  10.356  0.00  0.00     0.055 A 
ATOM     16  N22 <0> d   1      18.772  -1.077   9.723  0.00  0.00    -0.282 N 
ENDROOT
BRANCH   8  17
ATOM     17  C9  <0> d   1      18.641  -0.720  13.942  0.00  0.00    -0.007 A 
ATOM     18  C14 <0> d   1      19.096  -1.419  15.060  0.00  0.00     0.014 A 
ATOM     19  C13 <0> d   1      18.522  -1.191  16.294  0.00  0.00     0.001 A 
ATOM     20  C12 <0> d   1      17.488  -0.280  16.422  0.00  0.00     0.000 A 
ATOM     21  C11 <0> d   1      17.028   0.411  15.316  0.00  0.00     0.001 A 
ATOM     22  C10 <0> d   1      17.598   0.196  14.077  0.00  0.00     0.014 A 
ENDBRANCH   8  17
TORSDOF 1
ENDMDL
MODEL 5
REMARK VINA RESULT:      -7.7      3.236      5.981
REMARK  1 active torsions:
REMARK  status: ('A' for Active; 'I' for Inactive)
REMARK    1  A    between atoms: C8_8  and  C9_9 
ROOT
ATOM      1  C1  <0> d   1      17.004  -1.027  16.853  0.00  0.00     0.093 C 
ATOM      2  C2  <0> d   1      17.659   0.295  17.154  0.00  0.00     0.131 A 
ATOM      3  N3  <0> d   1      17.570   0.972  18.270  0.00  0.00    -0.135 NA
ATOM      4  N4  <0> d   1      18.246   2.064  18.176  0.00  0.00    -0.133 NA
ATOM      5  C5  <0> d   1      18.789   2.142  16.995  0.00  0.00     0.154 A 
ATOM      6  C6  <0> d   1      19.605   3.279  16.434  0.00  0.00     0.230 C 
ATOM      7  N7  <0> d   1      18.912   3.785  15.245  0.00  0.00    -0.281 NA
ATOM      8  C8  <0> d   1      18.696   3.042  14.215  0.00  0.00     0.074 C 
ATOM      9  C15 <0> d   1      19.045   1.629  14.035  0.00  0.00     0.022 A 
ATOM     10  C16 <0> d   1      19.561   1.230  12.792  0.00  0.00     0.040 A 
ATOM     11  C17 <0> d   1      19.879  -0.089  12.557  0.00  0.00     0.035 A 
ATOM     12 Cl18 <0> d   1      20.522  -0.562  11.016  0.00  0.00    -0.084 Cl
ATOM     13  C19 <0> d   1      19.687  -1.039  13.547  0.00  0.00     0.026 A 
ATOM     14  C20 <0> d   1      19.191  -0.663  14.777  0.00  0.00     0.033 A 
ATOM     15  C21 <0> d   1      18.882   0.669  15.036  0.00  0.00     0.055 A 
ATOM     16  N22 <0> d   1      18.462   1.010  16.322  0.00  0.00    -0.282 N 
ENDROOT
BRANCH   8  17
ATOM     17  C9  <0> d   1      18.012   3.694  13.075  0.00  0.00    -0.007 A 
ATOM     18  C14 <0> d   1      18.102   3.143  11.797  0.00  0.00     0.014 A 
ATOM     19  C13 <0> d   1      17.458   3.752  10.739  0.00  0.00     0.001 A 
ATOM     20  C12 <0> d   1      16.735   4.914  10.942  0.00  0.00     0.000 A 
ATOM     21  C11 <0> d   1      16.648   5.469  12.206  0.00  0.00     0.001 A 
ATOM     22  C10 <0> d   1      17.282   4.866  13.273  0.00  0.00     0.014 A 
ENDBRANCH   8  17
TORSDOF 1
ENDMDL
MODEL 6
REMARK VINA RESULT:      -7.6      4.462      6.744
REMARK  1 active torsions:
REMARK  status: ('A' for Active; 'I' for Inactive)
REMARK    1  A    between atoms: C8_8  and  C9_9 
ROOT
ATOM      1  C1  <0> d   1      15.876  -5.428   9.150  0.00  0.00     0.093 C 
ATOM      2  C2  <0> d   1      17.020  -5.104  10.074  0.00  0.00     0.131 A 
ATOM      3  N3  <0> d   1      17.199  -5.566  11.285  0.00  0.00    -0.135 NA
ATOM      4  N4  <0> d   1      18.274  -5.069  11.789  0.00  0.00    -0.133 NA
ATOM      5  C5  <0> d   1      18.827  -4.260  10.932  0.00  0.00     0.154 A 
ATOM      6  C6  <0> d   1      20.060  -3.415  11.131  0.00  0.00     0.230 C 
ATOM      7  N7  <0> d   1      19.673  -2.011  10.962  0.00  0.00    -0.281 NA
ATOM      8  C8  <0> d   1      19.188  -1.567   9.854  0.00  0.00     0.074 C 
ATOM      9  C15 <0> d   1      18.913  -2.320   8.626  0.00  0.00     0.022 A 
ATOM     10  C16 <0> d   1      19.242  -1.724   7.399  0.00  0.00     0.040 A 
ATOM     11  C17 <0> d   1      18.979  -2.372   6.213  0.00  0.00     0.035 A 
ATOM     12 Cl18 <0> d   1      19.398  -1.621   4.705  0.00  0.00    -0.084 Cl
ATOM     13  C19 <0> d   1      18.381  -3.622   6.219  0.00  0.00     0.026 A 
ATOM     14  C20 <0> d   1      18.061  -4.227   7.417  0.00  0.00     0.033 A 
ATOM     15  C21 <0> d   1      18.337  -3.592   8.624  0.00  0.00     0.055 A 
ATOM     16  N22 <0> d   1      18.069  -4.281   9.807  0.00  0.00    -0.282 N 
ENDROOT
BRANCH   8  17
ATOM     17  C9  <0> d   1      18.870  -0.121   9.816  0.00  0.00    -0.007 A 
ATOM     18  C14 <0> d   1      19.612   0.737   9.006  0.00  0.00     0.014 A 
ATOM     19  C13 <0> d   1      19.308   2.083   8.971  0.00  0.00     0.001 A 
ATOM     20  C12 <0> d   1      18.277   2.583   9.746  0.00  0.00     0.000 A 
ATOM     21  C11 <0> d   1      17.541   1.737  10.557  0.00  0.00     0.001 A 
ATOM     22  C10 <0> d   1      17.832   0.388  10.596  0.00  0.00     0.014 A 
ENDBRANCH   8  17
TORSDOF 1
ENDMDL
MODEL 7
REMARK VINA RESULT:      -7.5      3.673      7.221
REMARK  1 active torsions:
REMARK  status: ('A' for Active; 'I' for Inactive)
REMARK    1  A    between atoms: C8_8  and  C9_9 
ROOT
ATOM      1  C1  <0> d   1      17.039  -0.095  13.516  0.00  0.00     0.093 C 
ATOM      2  C2  <0> d   1      18.387   0.098  12.873  0.00  0.00     0.131 A 
ATOM      3  N3  <0> d   1      19.266   1.023  13.168  0.00  0.00    -0.135 NA
ATOM      4  N4  <0> d   1      20.301   0.901  12.412  0.00  0.00    -0.133 NA
ATOM      5  C5  <0> d   1      20.130  -0.097  11.593  0.00  0.00     0.154 A 
ATOM      6  C6  <0> d   1      21.058  -0.552  10.494  0.00  0.00     0.230 C 
ATOM      7  N7  <0> d   1      20.331  -0.455   9.225  0.00  0.00    -0.281 NA
ATOM      8  C8  <0> d   1      19.257  -1.129   9.001  0.00  0.00     0.074 C 
ATOM      9  C15 <0> d   1      18.568  -2.051   9.910  0.00  0.00     0.022 A 
ATOM     10  C16 <0> d   1      18.069  -3.251   9.381  0.00  0.00     0.040 A 
ATOM     11  C17 <0> d   1      17.387  -4.140  10.181  0.00  0.00     0.035 A 
ATOM     12 Cl18 <0> d   1      16.783  -5.622   9.509  0.00  0.00    -0.084 Cl
ATOM     13  C19 <0> d   1      17.181  -3.854  11.522  0.00  0.00     0.026 A 
ATOM     14  C20 <0> d   1      17.674  -2.684  12.060  0.00  0.00     0.033 A 
ATOM     15  C21 <0> d   1      18.381  -1.785  11.268  0.00  0.00     0.055 A 
ATOM     16  N22 <0> d   1      18.928  -0.657  11.880  0.00  0.00    -0.282 N 
ENDROOT
BRANCH   8  17
ATOM     17  C9  <0> d   1      18.646  -0.956   7.663  0.00  0.00    -0.007 A 
ATOM     18  C14 <0> d   1      19.205  -1.585   6.551  0.00  0.00     0.014 A 
ATOM     19  C13 <0> d   1      18.628  -1.423   5.308  0.00  0.00     0.001 A 
ATOM     20  C12 <0> d   1      17.505  -0.629   5.161  0.00  0.00     0.000 A 
ATOM     21  C11 <0> d   1      16.950   0.003   6.260  0.00  0.00     0.001 A 
ATOM     22  C10 <0> d   1      17.514  -0.156   7.510  0.00  0.00     0.014 A 
ENDBRANCH   8  17
TORSDOF 1
ENDMDL
MODEL 8
REMARK VINA RESULT:      -7.5      3.219      4.896
REMARK  1 active torsions:
REMARK  status: ('A' for Active; 'I' for Inactive)
REMARK    1  A    between atoms: C8_8  and  C9_9 
ROOT
ATOM      1  C1  <0> d   1      17.377  -2.908  11.261  0.00  0.00     0.093 C 
ATOM      2  C2  <0> d   1      18.411  -2.120  12.021  0.00  0.00     0.131 A 
ATOM      3  N3  <0> d   1      18.855  -2.375  13.225  0.00  0.00    -0.135 NA
ATOM      4  N4  <0> d   1      19.725  -1.490  13.569  0.00  0.00    -0.133 NA
ATOM      5  C5  <0> d   1      19.869  -0.623  12.609  0.00  0.00     0.154 A 
ATOM      6  C6  <0> d   1      20.732   0.614  12.612  0.00  0.00     0.230 C 
ATOM      7  N7  <0> d   1      19.856   1.773  12.414  0.00  0.00    -0.281 NA
ATOM      8  C8  <0> d   1      19.143   1.914  11.351  0.00  0.00     0.074 C 
ATOM      9  C15 <0> d   1      19.042   1.001  10.207  0.00  0.00     0.022 A 
ATOM     10  C16 <0> d   1      19.020   1.557   8.919  0.00  0.00     0.040 A 
ATOM     11  C17 <0> d   1      18.896   0.750   7.810  0.00  0.00     0.035 A 
ATOM     12 Cl18 <0> d   1      18.877   1.456   6.224  0.00  0.00    -0.084 Cl
ATOM     13  C19 <0> d   1      18.787  -0.623   7.956  0.00  0.00     0.026 A 
ATOM     14  C20 <0> d   1      18.817  -1.187   9.214  0.00  0.00     0.033 A 
ATOM     15  C21 <0> d   1      18.960  -0.386  10.343  0.00  0.00     0.055 A 
ATOM     16  N22 <0> d   1      19.068  -1.012  11.585  0.00  0.00    -0.282 N 
ENDROOT
BRANCH   8  17
ATOM     17  C9  <0> d   1      18.328   3.148  11.273  0.00  0.00    -0.007 A 
ATOM     18  C14 <0> d   1      17.740   3.672  12.424  0.00  0.00     0.014 A 
ATOM     19  C13 <0> d   1      16.987   4.826  12.346  0.00  0.00     0.001 A 
ATOM     20  C12 <0> d   1      16.803   5.455  11.127  0.00  0.00     0.000 A 
ATOM     21  C11 <0> d   1      17.377   4.935   9.981  0.00  0.00     0.001 A 
ATOM     22  C10 <0> d   1      18.139   3.786  10.047  0.00  0.00     0.014 A 
ENDBRANCH   8  17
TORSDOF 1
ENDMDL
MODEL 9
REMARK VINA RESULT:      -7.4      2.340      4.564
REMARK  1 active torsions:
REMARK  status: ('A' for Active; 'I' for Inactive)
REMARK    1  A    between atoms: C8_8  and  C9_9 
ROOT
ATOM      1  C1  <0> d   1      20.436  -3.183  11.858  0.00  0.00     0.093 C 
ATOM      2  C2  <0> d   1      19.329  -2.498  11.101  0.00  0.00     0.131 A 
ATOM      3  N3  <0> d   1      18.997  -2.701   9.852  0.00  0.00    -0.135 NA
ATOM      4  N4  <0> d   1      18.014  -1.934   9.529  0.00  0.00    -0.133 NA
ATOM      5  C5  <0> d   1      17.679  -1.199  10.550  0.00  0.00     0.154 A 
ATOM      6  C6  <0> d   1      16.627  -0.119  10.597  0.00  0.00     0.230 C 
ATOM      7  N7  <0> d   1      17.291   1.138  10.955  0.00  0.00    -0.281 NA
ATOM      8  C8  <0> d   1      17.914   1.285  12.072  0.00  0.00     0.074 C 
ATOM      9  C15 <0> d   1      18.102   0.293  13.136  0.00  0.00     0.022 A 
ATOM     10  C16 <0> d   1      17.965   0.717  14.466  0.00  0.00     0.040 A 
ATOM     11  C17 <0> d   1      18.160  -0.165  15.506  0.00  0.00     0.035 A 
ATOM     12 Cl18 <0> d   1      17.980   0.376  17.145  0.00  0.00    -0.084 Cl
ATOM     13  C19 <0> d   1      18.500  -1.483  15.247  0.00  0.00     0.026 A 
ATOM     14  C20 <0> d   1      18.628  -1.919  13.945  0.00  0.00     0.033 A 
ATOM     15  C21 <0> d   1      18.417  -1.045  12.884  0.00  0.00     0.055 A 
ATOM     16  N22 <0> d   1      18.478  -1.555  11.587  0.00  0.00    -0.282 N 
ENDROOT
BRANCH   8  17
ATOM     17  C9  <0> d   1      18.511   2.619  12.314  0.00  0.00    -0.007 A 
ATOM     18  C14 <0> d   1      17.763   3.619  12.933  0.00  0.00     0.014 A 
ATOM     19  C13 <0> d   1      18.327   4.858  13.161  0.00  0.00     0.001 A 
ATOM     20  C12 <0> d   1      19.628   5.113  12.763  0.00  0.00     0.000 A 
ATOM     21  C11 <0> d   1      20.372   4.127  12.142  0.00  0.00     0.001 A 
ATOM     22  C10 <0> d   1      19.822   2.881  11.915  0.00  0.00     0.014 A 
ENDBRANCH   8  17
TORSDOF 1
ENDMDL
