MODEL 1
REMARK VINA RESULT:      -5.2      0.000      0.000
REMARK  3 active torsions:
REMARK  status: ('A' for Active; 'I' for Inactive)
REMARK    1  A    between atoms: C2_2  and  C4_4 
REMARK    2  A    between atoms: C7_6  and  C8_7 
REMARK    3  A    between atoms: C8_7  and  O9_8 
ROOT
ATOM      1  C4  <0> d   1      19.377   0.096   7.707  0.00  0.00     0.225 C 
ATOM      2  C6  <0> d   1      18.508  -1.054   8.207  0.00  0.00     0.075 C 
ATOM      3  C7  <0> d   1      18.881  -2.126   8.873  0.00  0.00     0.033 C 
ATOM      4  O10 <0> d   1      17.247  -0.702   7.798  0.00  0.00    -0.332 OA
ATOM      5  C11 <0> d   1      17.386  -0.105   6.500  0.00  0.00     0.219 A 
ATOM      6  C13 <0> d   1      17.665  -1.096   5.372  0.00  0.00     0.145 A 
ATOM      7  C14 <0> d   1      19.003  -0.407   5.361  0.00  0.00     0.206 A 
ATOM      8  O15 <0> d   1      19.979  -0.547   4.654  0.00  0.00    -0.279 OA
ATOM      9  N16 <0> d   1      18.764   0.419   6.395  0.00  0.00    -0.204 NA
ENDROOT
BRANCH   1  10
ATOM     10  C2  <0> d   1      19.294   1.276   8.641  0.00  0.00     0.198 C 
ATOM     11  O1  <0> d   1      19.437   1.115   9.841  0.00  0.00    -0.646 OA
ATOM     12  O3  <0> d   1      19.089   2.393   8.196  0.00  0.00    -0.646 OA
ENDBRANCH   1  10
BRANCH   3  13
ATOM     13  C8  <0> d   1      17.856  -3.155   9.279  0.00  0.00     0.194 C 
BRANCH  13  14
ATOM     14  O9  <0> d   1      17.265  -3.725   8.111  0.00  0.00    -0.397 OA
ATOM     15  H20 <0> d   1      17.835  -3.700   7.330  0.00  0.00     0.209 HD
ENDBRANCH  13  14
ENDBRANCH   3  13
TORSDOF 3
ENDMDL
MODEL 2
REMARK VINA RESULT:      -5.1      6.443      8.447
REMARK  3 active torsions:
REMARK  status: ('A' for Active; 'I' for Inactive)
REMARK    1  A    between atoms: C2_2  and  C4_4 
REMARK    2  A    between atoms: C7_6  and  C8_7 
REMARK    3  A    between atoms: C8_7  and  O9_8 
ROOT
ATOM      1  C4  <0> d   1      19.029   0.767  15.656  0.00  0.00     0.225 C 
ATOM      2  C6  <0> d   1      19.298   0.859  14.157  0.00  0.00     0.075 C 
ATOM      3  C7  <0> d   1      20.302   0.347  13.477  0.00  0.00     0.033 C 
ATOM      4  O10 <0> d   1      18.243   1.600  13.688  0.00  0.00    -0.332 OA
ATOM      5  C11 <0> d   1      17.978   2.609  14.674  0.00  0.00     0.219 A 
ATOM      6  C13 <0> d   1      18.992   3.750  14.703  0.00  0.00     0.145 A 
ATOM      7  C14 <0> d   1      19.340   3.145  16.037  0.00  0.00     0.206 A 
ATOM      8  O15 <0> d   1      20.133   3.478  16.894  0.00  0.00    -0.279 OA
ATOM      9  N16 <0> d   1      18.483   2.111  15.970  0.00  0.00    -0.204 NA
ENDROOT
BRANCH   1  10
ATOM     10  C2  <0> d   1      18.014  -0.305  15.953  0.00  0.00     0.198 C 
ATOM     11  O1  <0> d   1      17.018  -0.039  16.605  0.00  0.00    -0.646 OA
ATOM     12  O3  <0> d   1      18.184  -1.439  15.537  0.00  0.00    -0.646 OA
ENDBRANCH   1  10
BRANCH   3  13
ATOM     13  C8  <0> d   1      20.385   0.554  11.985  0.00  0.00     0.194 C 
BRANCH  13  14
ATOM     14  O9  <0> d   1      21.584  -0.042  11.488  0.00  0.00    -0.397 OA
ATOM     15  H20 <0> d   1      22.184   0.582  11.057  0.00  0.00     0.209 HD
ENDBRANCH  13  14
ENDBRANCH   3  13
TORSDOF 3
ENDMDL
MODEL 3
REMARK VINA RESULT:      -5.1      3.624      5.674
REMARK  3 active torsions:
REMARK  status: ('A' for Active; 'I' for Inactive)
REMARK    1  A    between atoms: C2_2  and  C4_4 
REMARK    2  A    between atoms: C7_6  and  C8_7 
REMARK    3  A    between atoms: C8_7  and  O9_8 
ROOT
ATOM      1  C4  <0> d   1      17.493   1.341  10.952  0.00  0.00     0.225 C 
ATOM      2  C6  <0> d   1      18.583   1.202  12.009  0.00  0.00     0.075 C 
ATOM      3  C7  <0> d   1      18.484   0.696  13.221  0.00  0.00     0.033 C 
ATOM      4  O10 <0> d   1      19.692   1.728  11.396  0.00  0.00    -0.332 OA
ATOM      5  C11 <0> d   1      19.243   2.856  10.630  0.00  0.00     0.219 A 
ATOM      6  C13 <0> d   1      18.900   4.091  11.460  0.00  0.00     0.145 A 
ATOM      7  C14 <0> d   1      17.502   3.768  11.005  0.00  0.00     0.206 A 
ATOM      8  O15 <0> d   1      16.443   4.331  11.188  0.00  0.00    -0.279 OA
ATOM      9  N16 <0> d   1      17.811   2.649  10.327  0.00  0.00    -0.204 NA
ENDROOT
BRANCH   1  10
ATOM     10  C2  <0> d   1      17.584   0.229   9.939  0.00  0.00     0.198 C 
ATOM     11  O1  <0> d   1      17.683  -0.928  10.310  0.00  0.00    -0.646 OA
ATOM     12  O3  <0> d   1      17.554   0.486   8.747  0.00  0.00    -0.646 OA
ENDBRANCH   1  10
BRANCH   3  13
ATOM     13  C8  <0> d   1      19.693   0.650  14.120  0.00  0.00     0.194 C 
BRANCH  13  14
ATOM     14  O9  <0> d   1      20.838   0.267  13.357  0.00  0.00    -0.397 OA
ATOM     15  H20 <0> d   1      20.719  -0.548  12.852  0.00  0.00     0.209 HD
ENDBRANCH  13  14
ENDBRANCH   3  13
TORSDOF 3
ENDMDL
MODEL 4
REMARK VINA RESULT:      -5.1      3.543      5.742
REMARK  3 active torsions:
REMARK  status: ('A' for Active; 'I' for Inactive)
REMARK    1  A    between atoms: C2_2  and  C4_4 
REMARK    2  A    between atoms: C7_6  and  C8_7 
REMARK    3  A    between atoms: C8_7  and  O9_8 
ROOT
ATOM      1  C4  <0> d   1      18.407   1.898  10.335  0.00  0.00     0.225 C 
ATOM      2  C6  <0> d   1      19.070   1.452  11.635  0.00  0.00     0.075 C 
ATOM      3  C7  <0> d   1      18.731   0.452  12.421  0.00  0.00     0.033 C 
ATOM      4  O10 <0> d   1      20.104   2.340  11.786  0.00  0.00    -0.332 OA
ATOM      5  C11 <0> d   1      19.616   3.619  11.353  0.00  0.00     0.219 A 
ATOM      6  C13 <0> d   1      18.659   4.297  12.330  0.00  0.00     0.145 A 
ATOM      7  C14 <0> d   1      17.660   4.025  11.238  0.00  0.00     0.206 A 
ATOM      8  O15 <0> d   1      16.483   4.298  11.132  0.00  0.00    -0.279 OA
ATOM      9  N16 <0> d   1      18.502   3.376  10.413  0.00  0.00    -0.204 NA
ENDROOT
BRANCH   1  10
ATOM     10  C2  <0> d   1      19.163   1.375   9.141  0.00  0.00     0.198 C 
ATOM     11  O1  <0> d   1      19.260   2.056   8.134  0.00  0.00    -0.646 OA
ATOM     12  O3  <0> d   1      19.684   0.273   9.184  0.00  0.00    -0.646 OA
ENDBRANCH   1  10
BRANCH   3  13
ATOM     13  C8  <0> d   1      19.525   0.175  13.673  0.00  0.00     0.194 C 
BRANCH  13  14
ATOM     14  O9  <0> d   1      20.920   0.263  13.380  0.00  0.00    -0.397 OA
ATOM     15  H20 <0> d   1      21.224  -0.377  12.723  0.00  0.00     0.209 HD
ENDBRANCH  13  14
ENDBRANCH   3  13
TORSDOF 3
ENDMDL
MODEL 5
REMARK VINA RESULT:      -5.0      3.350      5.250
REMARK  3 active torsions:
REMARK  status: ('A' for Active; 'I' for Inactive)
REMARK    1  A    between atoms: C2_2  and  C4_4 
REMARK    2  A    between atoms: C7_6  and  C8_7 
REMARK    3  A    between atoms: C8_7  and  O9_8 
ROOT
ATOM      1  C4  <0> d   1      17.433  -2.122  11.322  0.00  0.00     0.225 C 
ATOM      2  C6  <0> d   1      18.295  -1.852  10.093  0.00  0.00     0.075 C 
ATOM      3  C7  <0> d   1      17.916  -1.762   8.835  0.00  0.00     0.033 C 
ATOM      4  O10 <0> d   1      19.559  -1.725  10.611  0.00  0.00    -0.332 OA
ATOM      5  C11 <0> d   1      19.673  -2.695  11.663  0.00  0.00     0.219 A 
ATOM      6  C13 <0> d   1      19.826  -4.136  11.183  0.00  0.00     0.145 A 
ATOM      7  C14 <0> d   1      18.453  -4.276  11.785  0.00  0.00     0.206 A 
ATOM      8  O15 <0> d   1      17.717  -5.233  11.904  0.00  0.00    -0.279 OA
ATOM      9  N16 <0> d   1      18.308  -2.990  12.148  0.00  0.00    -0.204 NA
ENDROOT
BRANCH   1  10
ATOM     10  C2  <0> d   1      17.115  -0.839  12.046  0.00  0.00     0.198 C 
ATOM     11  O1  <0> d   1      17.656  -0.589  13.109  0.00  0.00    -0.646 OA
ATOM     12  O3  <0> d   1      16.321  -0.048  11.565  0.00  0.00    -0.646 OA
ENDBRANCH   1  10
BRANCH   3  13
ATOM     13  C8  <0> d   1      18.935  -1.486   7.759  0.00  0.00     0.194 C 
BRANCH  13  14
ATOM     14  O9  <0> d   1      19.861  -2.571   7.692  0.00  0.00    -0.397 OA
ATOM     15  H20 <0> d   1      20.766  -2.302   7.484  0.00  0.00     0.209 HD
ENDBRANCH  13  14
ENDBRANCH   3  13
TORSDOF 3
ENDMDL
MODEL 6
REMARK VINA RESULT:      -4.9      2.615      4.628
REMARK  3 active torsions:
REMARK  status: ('A' for Active; 'I' for Inactive)
REMARK    1  A    between atoms: C2_2  and  C4_4 
REMARK    2  A    between atoms: C7_6  and  C8_7 
REMARK    3  A    between atoms: C8_7  and  O9_8 
ROOT
ATOM      1  C4  <0> d   1      17.416  -0.063  10.527  0.00  0.00     0.225 C 
ATOM      2  C6  <0> d   1      18.535   0.957  10.716  0.00  0.00     0.075 C 
ATOM      3  C7  <0> d   1      18.432   2.225  11.056  0.00  0.00     0.033 C 
ATOM      4  O10 <0> d   1      19.671   0.237  10.449  0.00  0.00    -0.332 OA
ATOM      5  C11 <0> d   1      19.356  -0.643   9.360  0.00  0.00     0.219 A 
ATOM      6  C13 <0> d   1      19.259   0.041   7.999  0.00  0.00     0.145 A 
ATOM      7  C14 <0> d   1      17.803  -0.311   8.143  0.00  0.00     0.206 A 
ATOM      8  O15 <0> d   1      16.856  -0.155   7.401  0.00  0.00    -0.279 OA
ATOM      9  N16 <0> d   1      17.893  -0.857   9.369  0.00  0.00    -0.204 NA
ENDROOT
BRANCH   1  10
ATOM     10  C2  <0> d   1      17.273  -0.934  11.749  0.00  0.00     0.198 C 
ATOM     11  O1  <0> d   1      17.087  -2.132  11.626  0.00  0.00    -0.646 OA
ATOM     12  O3  <0> d   1      17.349  -0.440  12.862  0.00  0.00    -0.646 OA
ENDBRANCH   1  10
BRANCH   3  13
ATOM     13  C8  <0> d   1      19.673   3.071  11.191  0.00  0.00     0.194 C 
BRANCH  13  14
ATOM     14  O9  <0> d   1      20.680   2.332  11.883  0.00  0.00    -0.397 OA
ATOM     15  H20 <0> d   1      21.299   1.871  11.301  0.00  0.00     0.209 HD
ENDBRANCH  13  14
ENDBRANCH   3  13
TORSDOF 3
ENDMDL
MODEL 7
REMARK VINA RESULT:      -4.9      3.313      5.757
REMARK  3 active torsions:
REMARK  status: ('A' for Active; 'I' for Inactive)
REMARK    1  A    between atoms: C2_2  and  C4_4 
REMARK    2  A    between atoms: C7_6  and  C8_7 
REMARK    3  A    between atoms: C8_7  and  O9_8 
ROOT
ATOM      1  C4  <0> d   1      19.379   1.234  10.274  0.00  0.00     0.225 C 
ATOM      2  C6  <0> d   1      18.319   2.324  10.405  0.00  0.00     0.075 C 
ATOM      3  C7  <0> d   1      18.476   3.627  10.311  0.00  0.00     0.033 C 
ATOM      4  O10 <0> d   1      17.166   1.620  10.644  0.00  0.00    -0.332 OA
ATOM      5  C11 <0> d   1      17.521   0.525  11.501  0.00  0.00     0.219 A 
ATOM      6  C13 <0> d   1      17.789   0.916  12.952  0.00  0.00     0.145 A 
ATOM      7  C14 <0> d   1      19.199   0.530  12.591  0.00  0.00     0.206 A 
ATOM      8  O15 <0> d   1      20.219   0.488  13.246  0.00  0.00    -0.279 OA
ATOM      9  N16 <0> d   1      18.958   0.247  11.298  0.00  0.00    -0.204 NA
ENDROOT
BRANCH   1  10
ATOM     10  C2  <0> d   1      19.349   0.621   8.897  0.00  0.00     0.198 C 
ATOM     11  O1  <0> d   1      19.211   1.332   7.916  0.00  0.00    -0.646 OA
ATOM     12  O3  <0> d   1      19.469  -0.585   8.764  0.00  0.00    -0.646 OA
ENDBRANCH   1  10
BRANCH   3  13
ATOM     13  C8  <0> d   1      17.288   4.542  10.474  0.00  0.00     0.194 C 
BRANCH  13  14
ATOM     14  O9  <0> d   1      16.636   4.259  11.712  0.00  0.00    -0.397 OA
ATOM     15  H20 <0> d   1      16.578   5.017  12.309  0.00  0.00     0.209 HD
ENDBRANCH  13  14
ENDBRANCH   3  13
TORSDOF 3
ENDMDL
MODEL 8
REMARK VINA RESULT:      -4.9      2.323      3.107
REMARK  3 active torsions:
REMARK  status: ('A' for Active; 'I' for Inactive)
REMARK    1  A    between atoms: C2_2  and  C4_4 
REMARK    2  A    between atoms: C7_6  and  C8_7 
REMARK    3  A    between atoms: C8_7  and  O9_8 
ROOT
ATOM      1  C4  <0> d   1      18.100  -0.360  10.298  0.00  0.00     0.225 C 
ATOM      2  C6  <0> d   1      18.344  -1.602   9.446  0.00  0.00     0.075 C 
ATOM      3  C7  <0> d   1      19.258  -2.535   9.610  0.00  0.00     0.033 C 
ATOM      4  O10 <0> d   1      17.383  -1.514   8.472  0.00  0.00    -0.332 OA
ATOM      5  C11 <0> d   1      17.272  -0.125   8.125  0.00  0.00     0.219 A 
ATOM      6  C13 <0> d   1      18.426   0.412   7.282  0.00  0.00     0.145 A 
ATOM      7  C14 <0> d   1      18.724   1.189   8.536  0.00  0.00     0.206 A 
ATOM      8  O15 <0> d   1      19.572   2.019   8.790  0.00  0.00    -0.279 OA
ATOM      9  N16 <0> d   1      17.739   0.662   9.285  0.00  0.00    -0.204 NA
ENDROOT
BRANCH   1  10
ATOM     10  C2  <0> d   1      16.962  -0.585  11.259  0.00  0.00     0.198 C 
ATOM     11  O1  <0> d   1      16.921  -1.602  11.930  0.00  0.00    -0.646 OA
ATOM     12  O3  <0> d   1      16.083   0.254  11.371  0.00  0.00    -0.646 OA
ENDBRANCH   1  10
BRANCH   3  13
ATOM     13  C8  <0> d   1      19.332  -3.693   8.647  0.00  0.00     0.194 C 
BRANCH  13  14
ATOM     14  O9  <0> d   1      19.799  -3.230   7.380  0.00  0.00    -0.397 OA
ATOM     15  H20 <0> d   1      19.095  -2.931   6.787  0.00  0.00     0.209 HD
ENDBRANCH  13  14
ENDBRANCH   3  13
TORSDOF 3
ENDMDL
MODEL 9
REMARK VINA RESULT:      -4.8      2.401      3.966
REMARK  3 active torsions:
REMARK  status: ('A' for Active; 'I' for Inactive)
REMARK    1  A    between atoms: C2_2  and  C4_4 
REMARK    2  A    between atoms: C7_6  and  C8_7 
REMARK    3  A    between atoms: C8_7  and  O9_8 
ROOT
ATOM      1  C4  <0> d   1      18.178   0.596   9.518  0.00  0.00     0.225 C 
ATOM      2  C6  <0> d   1      18.882  -0.422   8.627  0.00  0.00     0.075 C 
ATOM      3  C7  <0> d   1      18.459  -0.947   7.496  0.00  0.00     0.033 C 
ATOM      4  O10 <0> d   1      20.062  -0.660   9.286  0.00  0.00    -0.332 OA
ATOM      5  C11 <0> d   1      19.757  -0.667  10.689  0.00  0.00     0.219 A 
ATOM      6  C13 <0> d   1      19.032  -1.920  11.174  0.00  0.00     0.145 A 
ATOM      7  C14 <0> d   1      17.897  -0.950  11.368  0.00  0.00     0.206 A 
ATOM      8  O15 <0> d   1      16.779  -1.094  11.816  0.00  0.00    -0.279 OA
ATOM      9  N16 <0> d   1      18.530   0.133  10.882  0.00  0.00    -0.204 NA
ENDROOT
BRANCH   1  10
ATOM     10  C2  <0> d   1      18.711   1.984   9.270  0.00  0.00     0.198 C 
ATOM     11  O1  <0> d   1      18.782   2.783  10.188  0.00  0.00    -0.646 OA
ATOM     12  O3  <0> d   1      19.078   2.305   8.152  0.00  0.00    -0.646 OA
ENDBRANCH   1  10
BRANCH   3  13
ATOM     13  C8  <0> d   1      19.316  -1.947   6.762  0.00  0.00     0.194 C 
BRANCH  13  14
ATOM     14  O9  <0> d   1      19.754  -2.956   7.673  0.00  0.00    -0.397 OA
ATOM     15  H20 <0> d   1      19.120  -3.675   7.799  0.00  0.00     0.209 HD
ENDBRANCH  13  14
ENDBRANCH   3  13
TORSDOF 3
ENDMDL
