MODEL 1
REMARK VINA RESULT:      -9.5      0.000      0.000
REMARK  4 active torsions:
REMARK  status: ('A' for Active; 'I' for Inactive)
REMARK    1  A    between atoms: C26_22  and  O28_23 
REMARK    2  A    between atoms: C32_27  and  C33_28 
REMARK    3  A    between atoms: C33_28  and  C35_30 
REMARK    4  A    between atoms: C35_30  and  O36_31 
ROOT
ATOM      1  C1  RES d   1      16.974  -7.268   8.371  0.00  0.00     0.078 C 
ATOM      2  C2  RES d   1      16.429  -5.927   8.869  0.00  0.00     0.159 C 
ATOM      3  C3  RES d   1      14.953  -5.780   8.494  0.00  0.00     0.078 C 
ATOM      4  O4  RES d   1      16.601  -5.813  10.297  0.00  0.00    -0.347 OA
ATOM      5  C5  RES d   1      17.983  -5.441  10.478  0.00  0.00     0.168 C 
ATOM      6  C7  RES d   1      18.039  -4.310  11.541  0.00  0.00     0.041 C 
ATOM      7  C8  RES d   1      17.863  -3.038  10.706  0.00  0.00     0.007 C 
ATOM      8  C10 RES d   1      18.371  -1.757  11.342  0.00  0.00     0.037 C 
ATOM      9  C12 RES d   1      17.582  -1.462  12.619  0.00  0.00     0.050 C 
ATOM     10  C13 RES d   1      18.122  -0.189  13.278  0.00  0.00     0.201 C 
ATOM     11  F15 RES d   1      17.328   0.145  14.380  0.00  0.00    -0.245 F 
ATOM     12  C16 RES d   1      18.075   0.929  12.253  0.00  0.00    -0.027 A 
ATOM     13  C17 RES d   1      17.487   2.073  12.575  0.00  0.00     0.061 A 
ATOM     14  C18 RES d   1      17.404   3.171  11.601  0.00  0.00     0.172 A 
ATOM     15  O19 RES d   1      16.900   4.236  11.905  0.00  0.00    -0.289 OA
ATOM     16  C20 RES d   1      17.945   2.954  10.249  0.00  0.00     0.052 A 
ATOM     17  C21 RES d   1      18.534   1.806   9.951  0.00  0.00    -0.006 A 
ATOM     18  C22 RES d   1      18.705   0.681  10.915  0.00  0.00     0.039 A 
ATOM     19  C23 RES d   1      20.205   0.477  11.133  0.00  0.00     0.028 C 
ATOM     20  C24 RES d   1      18.177  -0.626  10.319  0.00  0.00     0.147 C 
ATOM     21  F25 RES d   1      16.808  -0.495  10.061  0.00  0.00    -0.238 F 
ATOM     22  C26 RES d   1      18.891  -0.907   9.001  0.00  0.00     0.160 C 
ATOM     23  C29 RES d   1      18.491  -2.271   8.418  0.00  0.00     0.048 C 
ATOM     24  C30 RES d   1      18.755  -3.345   9.473  0.00  0.00     0.004 C 
ATOM     25  C31 RES d   1      20.209  -3.266   9.941  0.00  0.00     0.019 C 
ATOM     26  C32 RES d   1      18.396  -4.797   9.121  0.00  0.00     0.160 C 
ATOM     27  O37 RES d   1      17.200  -4.836   8.321  0.00  0.00    -0.334 OA
ENDROOT
BRANCH  26  28
ATOM     28  C33 RES d   1      19.563  -5.529   8.510  0.00  0.00     0.188 C 
ATOM     29  O34 RES d   1      20.229  -6.275   9.186  0.00  0.00    -0.292 OA
BRANCH  28  30
ATOM     30  C35 RES d   1      19.898  -5.331   7.054  0.00  0.00     0.245 C 
BRANCH  30  31
ATOM     31  O36 RES d   1      21.074  -4.526   6.941  0.00  0.00    -0.393 OA
ATOM     32  H62 RES d   1      21.594  -4.700   6.144  0.00  0.00     0.209 HD
ENDBRANCH  30  31
ENDBRANCH  28  30
ENDBRANCH  26  28
BRANCH  22  33
ATOM     33  O28 RES d   1      20.304  -0.893   9.224  0.00  0.00    -0.392 OA
ATOM     34  H54 RES d   1      20.828  -0.801   8.417  0.00  0.00     0.210 HD
ENDBRANCH  22  33
TORSDOF 4
ENDMDL
MODEL 2
REMARK VINA RESULT:      -8.8      2.795      8.702
REMARK  4 active torsions:
REMARK  status: ('A' for Active; 'I' for Inactive)
REMARK    1  A    between atoms: C26_22  and  O28_23 
REMARK    2  A    between atoms: C32_27  and  C33_28 
REMARK    3  A    between atoms: C33_28  and  C35_30 
REMARK    4  A    between atoms: C35_30  and  O36_31 
ROOT
ATOM      1  C1  RES d   1      16.885   7.282  14.532  0.00  0.00     0.078 C 
ATOM      2  C2  RES d   1      16.365   5.945  14.000  0.00  0.00     0.159 C 
ATOM      3  C3  RES d   1      14.898   5.750  14.390  0.00  0.00     0.078 C 
ATOM      4  O4  RES d   1      16.519   5.879  12.567  0.00  0.00    -0.347 OA
ATOM      5  C5  RES d   1      17.906   5.546  12.356  0.00  0.00     0.168 C 
ATOM      6  C7  RES d   1      17.975   4.451  11.257  0.00  0.00     0.041 C 
ATOM      7  C8  RES d   1      17.841   3.149  12.054  0.00  0.00     0.007 C 
ATOM      8  C10 RES d   1      18.371   1.901  11.372  0.00  0.00     0.037 C 
ATOM      9  C12 RES d   1      17.571   1.627  10.097  0.00  0.00     0.050 C 
ATOM     10  C13 RES d   1      18.132   0.388   9.391  0.00  0.00     0.201 C 
ATOM     11  F15 RES d   1      17.331   0.069   8.290  0.00  0.00    -0.245 F 
ATOM     12  C16 RES d   1      18.127  -0.761  10.381  0.00  0.00    -0.027 A 
ATOM     13  C17 RES d   1      17.562  -1.909  10.031  0.00  0.00     0.061 A 
ATOM     14  C18 RES d   1      17.519  -3.038  10.972  0.00  0.00     0.172 A 
ATOM     15  O19 RES d   1      17.036  -4.105  10.641  0.00  0.00    -0.289 OA
ATOM     16  C20 RES d   1      18.074  -2.850  12.323  0.00  0.00     0.052 A 
ATOM     17  C21 RES d   1      18.639  -1.698  12.649  0.00  0.00    -0.006 A 
ATOM     18  C22 RES d   1      18.770  -0.540  11.718  0.00  0.00     0.039 A 
ATOM     19  C23 RES d   1      20.261  -0.292  11.486  0.00  0.00     0.028 C 
ATOM     20  C24 RES d   1      18.219   0.735  12.362  0.00  0.00     0.147 C 
ATOM     21  F25 RES d   1      16.857   0.562  12.634  0.00  0.00    -0.238 F 
ATOM     22  C26 RES d   1      18.945   0.992  13.678  0.00  0.00     0.160 C 
ATOM     23  C29 RES d   1      18.520   2.327  14.309  0.00  0.00     0.048 C 
ATOM     24  C30 RES d   1      18.743   3.440  13.284  0.00  0.00     0.004 C 
ATOM     25  C31 RES d   1      20.191   3.411  12.794  0.00  0.00     0.019 C 
ATOM     26  C32 RES d   1      18.354   4.871  13.686  0.00  0.00     0.160 C 
ATOM     27  O37 RES d   1      17.169   4.856  14.503  0.00  0.00    -0.334 OA
ENDROOT
BRANCH  26  28
ATOM     28  C33 RES d   1      19.512   5.612  14.304  0.00  0.00     0.188 C 
ATOM     29  O34 RES d   1      20.180   6.360  13.630  0.00  0.00    -0.292 OA
BRANCH  28  30
ATOM     30  C35 RES d   1      19.836   5.422  15.763  0.00  0.00     0.245 C 
BRANCH  30  31
ATOM     31  O36 RES d   1      21.168   4.922  15.895  0.00  0.00    -0.393 OA
ATOM     32  H62 RES d   1      21.252   3.974  15.720  0.00  0.00     0.209 HD
ENDBRANCH  30  31
ENDBRANCH  28  30
ENDBRANCH  26  28
BRANCH  22  33
ATOM     33  O28 RES d   1      20.354   1.020  13.435  0.00  0.00    -0.392 OA
ATOM     34  H54 RES d   1      20.642   1.759  12.883  0.00  0.00     0.210 HD
ENDBRANCH  22  33
TORSDOF 4
ENDMDL
MODEL 3
REMARK VINA RESULT:      -8.4      1.575      2.036
REMARK  4 active torsions:
REMARK  status: ('A' for Active; 'I' for Inactive)
REMARK    1  A    between atoms: C26_22  and  O28_23 
REMARK    2  A    between atoms: C32_27  and  C33_28 
REMARK    3  A    between atoms: C33_28  and  C35_30 
REMARK    4  A    between atoms: C35_30  and  O36_31 
ROOT
ATOM      1  C1  RES d   1      17.639  -6.030   8.350  0.00  0.00     0.078 C 
ATOM      2  C2  RES d   1      17.236  -4.958   9.364  0.00  0.00     0.159 C 
ATOM      3  C3  RES d   1      15.896  -5.313  10.011  0.00  0.00     0.078 C 
ATOM      4  O4  RES d   1      18.259  -4.809  10.371  0.00  0.00    -0.347 OA
ATOM      5  C5  RES d   1      19.276  -3.994   9.752  0.00  0.00     0.168 C 
ATOM      6  C7  RES d   1      19.725  -2.923  10.783  0.00  0.00     0.041 C 
ATOM      7  C8  RES d   1      18.738  -1.775  10.544  0.00  0.00     0.007 C 
ATOM      8  C10 RES d   1      19.197  -0.405  11.009  0.00  0.00     0.037 C 
ATOM      9  C12 RES d   1      19.386  -0.408  12.527  0.00  0.00     0.050 C 
ATOM     10  C13 RES d   1      19.885   0.966  12.988  0.00  0.00     0.201 C 
ATOM     11  F15 RES d   1      19.947   1.000  14.385  0.00  0.00    -0.245 F 
ATOM     12  C16 RES d   1      18.906   2.013  12.491  0.00  0.00    -0.027 A 
ATOM     13  C17 RES d   1      18.408   2.888  13.354  0.00  0.00     0.061 A 
ATOM     14  C18 RES d   1      17.441   3.905  12.914  0.00  0.00     0.172 A 
ATOM     15  O19 RES d   1      17.011   4.734  13.694  0.00  0.00    -0.289 OA
ATOM     16  C20 RES d   1      17.005   3.898  11.507  0.00  0.00     0.052 A 
ATOM     17  C21 RES d   1      17.520   3.020  10.662  0.00  0.00    -0.006 A 
ATOM     18  C22 RES d   1      18.550   2.008  11.034  0.00  0.00     0.039 A 
ATOM     19  C23 RES d   1      19.820   2.318  10.241  0.00  0.00     0.028 C 
ATOM     20  C24 RES d   1      18.110   0.605  10.606  0.00  0.00     0.147 C 
ATOM     21  F25 RES d   1      16.926   0.270  11.274  0.00  0.00    -0.238 F 
ATOM     22  C26 RES d   1      17.837   0.597   9.106  0.00  0.00     0.160 C 
ATOM     23  C29 RES d   1      17.510  -0.816   8.597  0.00  0.00     0.048 C 
ATOM     24  C30 RES d   1      18.654  -1.749   8.994  0.00  0.00     0.004 C 
ATOM     25  C31 RES d   1      19.982  -1.190   8.483  0.00  0.00     0.019 C 
ATOM     26  C32 RES d   1      18.530  -3.233   8.615  0.00  0.00     0.160 C 
ATOM     27  O37 RES d   1      17.161  -3.664   8.727  0.00  0.00    -0.334 OA
ENDROOT
BRANCH  26  28
ATOM     28  C33 RES d   1      19.154  -3.522   7.274  0.00  0.00     0.188 C 
ATOM     29  O34 RES d   1      20.192  -4.135   7.210  0.00  0.00    -0.292 OA
BRANCH  28  30
ATOM     30  C35 RES d   1      18.480  -3.048   6.012  0.00  0.00     0.245 C 
BRANCH  30  31
ATOM     31  O36 RES d   1      17.351  -3.878   5.734  0.00  0.00    -0.393 OA
ATOM     32  H62 RES d   1      16.599  -3.731   6.325  0.00  0.00     0.209 HD
ENDBRANCH  30  31
ENDBRANCH  28  30
ENDBRANCH  26  28
BRANCH  22  33
ATOM     33  O28 RES d   1      18.993   1.083   8.419  0.00  0.00    -0.392 OA
ATOM     34  H54 RES d   1      19.687   1.413   9.004  0.00  0.00     0.210 HD
ENDBRANCH  22  33
TORSDOF 4
ENDMDL
MODEL 4
REMARK VINA RESULT:      -8.3      2.274      7.229
REMARK  4 active torsions:
REMARK  status: ('A' for Active; 'I' for Inactive)
REMARK    1  A    between atoms: C26_22  and  O28_23 
REMARK    2  A    between atoms: C32_27  and  C33_28 
REMARK    3  A    between atoms: C33_28  and  C35_30 
REMARK    4  A    between atoms: C35_30  and  O36_31 
ROOT
ATOM      1  C1  RES d   1      19.044   2.913  12.614  0.00  0.00     0.078 C 
ATOM      2  C2  RES d   1      18.460   2.124  11.440  0.00  0.00     0.159 C 
ATOM      3  C3  RES d   1      17.382   2.946  10.729  0.00  0.00     0.078 C 
ATOM      4  O4  RES d   1      19.502   1.751  10.516  0.00  0.00    -0.347 OA
ATOM      5  C5  RES d   1      20.137   0.601  11.113  0.00  0.00     0.168 C 
ATOM      6  C7  RES d   1      20.359  -0.457   9.998  0.00  0.00     0.041 C 
ATOM      7  C8  RES d   1      19.046  -1.248  10.002  0.00  0.00     0.007 C 
ATOM      8  C10 RES d   1      19.116  -2.643   9.409  0.00  0.00     0.037 C 
ATOM      9  C12 RES d   1      19.482  -2.560   7.926  0.00  0.00     0.050 C 
ATOM     10  C13 RES d   1      19.588  -3.971   7.340  0.00  0.00     0.201 C 
ATOM     11  F15 RES d   1      19.807  -3.894   5.961  0.00  0.00    -0.245 F 
ATOM     12  C16 RES d   1      18.282  -4.694   7.613  0.00  0.00    -0.027 A 
ATOM     13  C17 RES d   1      17.649  -5.281   6.606  0.00  0.00     0.061 A 
ATOM     14  C18 RES d   1      16.371  -5.973   6.828  0.00  0.00     0.172 A 
ATOM     15  O19 RES d   1      15.806  -6.546   5.915  0.00  0.00    -0.289 OA
ATOM     16  C20 RES d   1      15.789  -5.958   8.181  0.00  0.00     0.052 A 
ATOM     17  C21 RES d   1      16.442  -5.373   9.173  0.00  0.00    -0.006 A 
ATOM     18  C22 RES d   1      17.770  -4.711   9.022  0.00  0.00     0.039 A 
ATOM     19  C23 RES d   1      18.776  -5.482   9.877  0.00  0.00     0.028 C 
ATOM     20  C24 RES d   1      17.732  -3.288   9.585  0.00  0.00     0.147 C 
ATOM     21  F25 RES d   1      16.798  -2.533   8.865  0.00  0.00    -0.238 F 
ATOM     22  C26 RES d   1      17.293  -3.332  11.044  0.00  0.00     0.160 C 
ATOM     23  C29 RES d   1      17.355  -1.943  11.698  0.00  0.00     0.048 C 
ATOM     24  C30 RES d   1      18.769  -1.389  11.523  0.00  0.00     0.004 C 
ATOM     25  C31 RES d   1      19.789  -2.387  12.073  0.00  0.00     0.019 C 
ATOM     26  C32 RES d   1      19.061   0.015  12.075  0.00  0.00     0.160 C 
ATOM     27  O37 RES d   1      17.914   0.868  11.900  0.00  0.00    -0.334 OA
ENDROOT
BRANCH  26  28
ATOM     28  C33 RES d   1      19.574  -0.035  13.491  0.00  0.00     0.188 C 
ATOM     29  O34 RES d   1      20.730   0.222  13.724  0.00  0.00    -0.292 OA
BRANCH  28  30
ATOM     30  C35 RES d   1      18.643  -0.406  14.616  0.00  0.00     0.245 C 
BRANCH  30  31
ATOM     31  O36 RES d   1      17.554   0.518  14.658  0.00  0.00    -0.393 OA
ATOM     32  H62 RES d   1      17.358   0.856  15.544  0.00  0.00     0.209 HD
ENDBRANCH  30  31
ENDBRANCH  28  30
ENDBRANCH  26  28
BRANCH  22  33
ATOM     33  O28 RES d   1      18.150  -4.223  11.762  0.00  0.00    -0.392 OA
ATOM     34  H54 RES d   1      18.091  -5.143  11.473  0.00  0.00     0.210 HD
ENDBRANCH  22  33
TORSDOF 4
ENDMDL
MODEL 5
REMARK VINA RESULT:      -8.3      2.624      8.184
REMARK  4 active torsions:
REMARK  status: ('A' for Active; 'I' for Inactive)
REMARK    1  A    between atoms: C26_22  and  O28_23 
REMARK    2  A    between atoms: C32_27  and  C33_28 
REMARK    3  A    between atoms: C33_28  and  C35_30 
REMARK    4  A    between atoms: C35_30  and  O36_31 
ROOT
ATOM      1  C1  RES d   1      17.588   6.118  14.240  0.00  0.00     0.078 C 
ATOM      2  C2  RES d   1      17.221   5.056  13.201  0.00  0.00     0.159 C 
ATOM      3  C3  RES d   1      15.914   5.428  12.497  0.00  0.00     0.078 C 
ATOM      4  O4  RES d   1      18.286   4.902  12.240  0.00  0.00    -0.347 OA
ATOM      5  C5  RES d   1      19.266   4.074  12.899  0.00  0.00     0.168 C 
ATOM      6  C7  RES d   1      19.751   3.005  11.882  0.00  0.00     0.041 C 
ATOM      7  C8  RES d   1      18.743   1.865  12.068  0.00  0.00     0.007 C 
ATOM      8  C10 RES d   1      19.209   0.494  11.615  0.00  0.00     0.037 C 
ATOM      9  C12 RES d   1      19.467   0.504  10.107  0.00  0.00     0.050 C 
ATOM     10  C13 RES d   1      19.972  -0.871   9.660  0.00  0.00     0.201 C 
ATOM     11  F15 RES d   1      20.097  -0.897   8.267  0.00  0.00    -0.245 F 
ATOM     12  C16 RES d   1      18.962  -1.912  10.105  0.00  0.00    -0.027 A 
ATOM     13  C17 RES d   1      18.495  -2.776   9.215  0.00  0.00     0.061 A 
ATOM     14  C18 RES d   1      17.499  -3.786   9.604  0.00  0.00     0.172 A 
ATOM     15  O19 RES d   1      17.097  -4.606   8.800  0.00  0.00    -0.289 OA
ATOM     16  C20 RES d   1      17.000  -3.784  10.990  0.00  0.00     0.052 A 
ATOM     17  C21 RES d   1      17.486  -2.916  11.864  0.00  0.00    -0.006 A 
ATOM     18  C22 RES d   1      18.541  -1.912  11.545  0.00  0.00     0.039 A 
ATOM     19  C23 RES d   1      19.771  -2.240  12.392  0.00  0.00     0.028 C 
ATOM     20  C24 RES d   1      18.096  -0.508  11.962  0.00  0.00     0.147 C 
ATOM     21  F25 RES d   1      16.947  -0.157  11.244  0.00  0.00    -0.238 F 
ATOM     22  C26 RES d   1      17.756  -0.506  13.448  0.00  0.00     0.160 C 
ATOM     23  C29 RES d   1      17.420   0.906  13.952  0.00  0.00     0.048 C 
ATOM     24  C30 RES d   1      18.589   1.831  13.613  0.00  0.00     0.004 C 
ATOM     25  C31 RES d   1      19.888   1.255  14.179  0.00  0.00     0.019 C 
ATOM     26  C32 RES d   1      18.463   3.314  13.996  0.00  0.00     0.160 C 
ATOM     27  O37 RES d   1      17.105   3.759  13.825  0.00  0.00    -0.334 OA
ENDROOT
BRANCH  26  28
ATOM     28  C33 RES d   1      19.029   3.588  15.366  0.00  0.00     0.188 C 
ATOM     29  O34 RES d   1      18.521   3.088  16.340  0.00  0.00    -0.292 OA
BRANCH  28  30
ATOM     30  C35 RES d   1      20.229   4.486  15.519  0.00  0.00     0.245 C 
BRANCH  30  31
ATOM     31  O36 RES d   1      20.925   4.150  16.721  0.00  0.00    -0.393 OA
ATOM     32  H62 RES d   1      21.361   4.902  17.147  0.00  0.00     0.209 HD
ENDBRANCH  30  31
ENDBRANCH  28  30
ENDBRANCH  26  28
BRANCH  22  33
ATOM     33  O28 RES d   1      18.875  -1.009  14.184  0.00  0.00    -0.392 OA
ATOM     34  H54 RES d   1      19.303  -0.350  14.746  0.00  0.00     0.210 HD
ENDBRANCH  22  33
TORSDOF 4
ENDMDL
MODEL 6
REMARK VINA RESULT:      -7.5      3.033      5.499
REMARK  4 active torsions:
REMARK  status: ('A' for Active; 'I' for Inactive)
REMARK    1  A    between atoms: C26_22  and  O28_23 
REMARK    2  A    between atoms: C32_27  and  C33_28 
REMARK    3  A    between atoms: C33_28  and  C35_30 
REMARK    4  A    between atoms: C35_30  and  O36_31 
ROOT
ATOM      1  C1  RES d   1      18.937  -2.658  10.098  0.00  0.00     0.078 C 
ATOM      2  C2  RES d   1      18.333  -1.946  11.310  0.00  0.00     0.159 C 
ATOM      3  C3  RES d   1      17.160  -2.753  11.872  0.00  0.00     0.078 C 
ATOM      4  O4  RES d   1      19.337  -1.742  12.325  0.00  0.00    -0.347 OA
ATOM      5  C5  RES d   1      20.084  -0.589  11.885  0.00  0.00     0.168 C 
ATOM      6  C7  RES d   1      20.304   0.336  13.113  0.00  0.00     0.041 C 
ATOM      7  C8  RES d   1      19.051   1.217  13.114  0.00  0.00     0.007 C 
ATOM      8  C10 RES d   1      19.176   2.540  13.849  0.00  0.00     0.037 C 
ATOM      9  C12 RES d   1      19.440   2.286  15.335  0.00  0.00     0.050 C 
ATOM     10  C13 RES d   1      19.602   3.622  16.066  0.00  0.00     0.201 C 
ATOM     11  F15 RES d   1      19.728   3.395  17.441  0.00  0.00    -0.245 F 
ATOM     12  C16 RES d   1      18.368   4.461  15.794  0.00  0.00    -0.027 A 
ATOM     13  C17 RES d   1      17.713   4.992  16.818  0.00  0.00     0.061 A 
ATOM     14  C18 RES d   1      16.501   5.794  16.596  0.00  0.00     0.172 A 
ATOM     15  O19 RES d   1      15.919   6.314  17.528  0.00  0.00    -0.289 OA
ATOM     16  C20 RES d   1      16.007   5.953  15.217  0.00  0.00     0.052 A 
ATOM     17  C21 RES d   1      16.681   5.421  14.209  0.00  0.00    -0.006 A 
ATOM     18  C22 RES d   1      17.949   4.653  14.367  0.00  0.00     0.039 A 
ATOM     19  C23 RES d   1      19.057   5.428  13.653  0.00  0.00     0.028 C 
ATOM     20  C24 RES d   1      17.852   3.297  13.662  0.00  0.00     0.147 C 
ATOM     21  F25 RES d   1      16.826   2.546  14.247  0.00  0.00    -0.238 F 
ATOM     22  C26 RES d   1      17.511   3.516  12.192  0.00  0.00     0.160 C 
ATOM     23  C29 RES d   1      17.521   2.196  11.405  0.00  0.00     0.048 C 
ATOM     24  C30 RES d   1      18.881   1.526  11.603  0.00  0.00     0.004 C 
ATOM     25  C31 RES d   1      19.999   2.496  11.216  0.00  0.00     0.019 C 
ATOM     26  C32 RES d   1      19.113   0.165  10.929  0.00  0.00     0.160 C 
ATOM     27  O37 RES d   1      17.903  -0.615  10.951  0.00  0.00    -0.334 OA
ENDROOT
BRANCH  26  28
ATOM     28  C33 RES d   1      19.717   0.315   9.556  0.00  0.00     0.188 C 
ATOM     29  O34 RES d   1      20.846  -0.060   9.348  0.00  0.00    -0.292 OA
BRANCH  28  30
ATOM     30  C35 RES d   1      18.913   0.933   8.442  0.00  0.00     0.245 C 
BRANCH  30  31
ATOM     31  O36 RES d   1      17.650   0.272   8.343  0.00  0.00    -0.393 OA
ATOM     32  H62 RES d   1      17.015   0.531   9.026  0.00  0.00     0.209 HD
ENDBRANCH  30  31
ENDBRANCH  28  30
ENDBRANCH  26  28
BRANCH  22  33
ATOM     33  O28 RES d   1      18.470   4.407  11.618  0.00  0.00    -0.392 OA
ATOM     34  H54 RES d   1      19.135   4.725  12.244  0.00  0.00     0.210 HD
ENDBRANCH  22  33
TORSDOF 4
ENDMDL
MODEL 7
REMARK VINA RESULT:      -7.1      3.812      8.635
REMARK  4 active torsions:
REMARK  status: ('A' for Active; 'I' for Inactive)
REMARK    1  A    between atoms: C26_22  and  O28_23 
REMARK    2  A    between atoms: C32_27  and  C33_28 
REMARK    3  A    between atoms: C33_28  and  C35_30 
REMARK    4  A    between atoms: C35_30  and  O36_31 
ROOT
ATOM      1  C1  RES d   1      19.222  -1.471   9.693  0.00  0.00     0.078 C 
ATOM      2  C2  RES d   1      18.355  -1.891   8.505  0.00  0.00     0.159 C 
ATOM      3  C3  RES d   1      17.563  -0.695   7.973  0.00  0.00     0.078 C 
ATOM      4  O4  RES d   1      19.173  -2.459   7.461  0.00  0.00    -0.347 OA
ATOM      5  C5  RES d   1      19.435  -3.812   7.887  0.00  0.00     0.168 C 
ATOM      6  C7  RES d   1      19.247  -4.746   6.660  0.00  0.00     0.041 C 
ATOM      7  C8  RES d   1      17.752  -5.080   6.703  0.00  0.00     0.007 C 
ATOM      8  C10 RES d   1      17.339  -6.346   5.974  0.00  0.00     0.037 C 
ATOM      9  C12 RES d   1      17.634  -6.205   4.479  0.00  0.00     0.050 C 
ATOM     10  C13 RES d   1      17.251  -7.498   3.753  0.00  0.00     0.201 C 
ATOM     11  F15 RES d   1      17.411  -7.330   2.374  0.00  0.00    -0.245 F 
ATOM     12  C16 RES d   1      15.799  -7.803   4.068  0.00  0.00    -0.027 A 
ATOM     13  C17 RES d   1      14.959  -8.037   3.068  0.00  0.00     0.061 A 
ATOM     14  C18 RES d   1      13.540  -8.315   3.333  0.00  0.00     0.172 A 
ATOM     15  O19 RES d   1      12.775  -8.569   2.422  0.00  0.00    -0.289 OA
ATOM     16  C20 RES d   1      13.065  -8.281   4.727  0.00  0.00     0.052 A 
ATOM     17  C21 RES d   1      13.922  -8.052   5.710  0.00  0.00    -0.006 A 
ATOM     18  C22 RES d   1      15.382  -7.826   5.509  0.00  0.00     0.039 A 
ATOM     19  C23 RES d   1      16.131  -8.970   6.194  0.00  0.00     0.028 C 
ATOM     20  C24 RES d   1      15.832  -6.541   6.207  0.00  0.00     0.147 C 
ATOM     21  F25 RES d   1      15.155  -5.451   5.647  0.00  0.00    -0.238 F 
ATOM     22  C26 RES d   1      15.479  -6.619   7.688  0.00  0.00     0.160 C 
ATOM     23  C29 RES d   1      16.018  -5.407   8.465  0.00  0.00     0.048 C 
ATOM     24  C30 RES d   1      17.524  -5.308   8.221  0.00  0.00     0.004 C 
ATOM     25  C31 RES d   1      18.197  -6.634   8.581  0.00  0.00     0.019 C 
ATOM     26  C32 RES d   1      18.279  -4.142   8.878  0.00  0.00     0.160 C 
ATOM     27  O37 RES d   1      17.460  -2.958   8.887  0.00  0.00    -0.334 OA
ENDROOT
BRANCH  26  28
ATOM     28  C33 RES d   1      18.822  -4.519  10.233  0.00  0.00     0.188 C 
ATOM     29  O34 RES d   1      20.008  -4.684  10.383  0.00  0.00    -0.292 OA
BRANCH  28  30
ATOM     30  C35 RES d   1      17.884  -4.689  11.399  0.00  0.00     0.245 C 
BRANCH  30  31
ATOM     31  O36 RES d   1      17.013  -3.558  11.480  0.00  0.00    -0.393 OA
ATOM     32  H62 RES d   1      17.401  -2.794  11.930  0.00  0.00     0.209 HD
ENDBRANCH  30  31
ENDBRANCH  28  30
ENDBRANCH  26  28
BRANCH  22  33
ATOM     33  O28 RES d   1      16.042  -7.812   8.239  0.00  0.00    -0.392 OA
ATOM     34  H54 RES d   1      15.402  -8.527   8.362  0.00  0.00     0.210 HD
ENDBRANCH  22  33
TORSDOF 4
ENDMDL
