MODEL 1
REMARK VINA RESULT:      -6.2      0.000      0.000
REMARK  2 active torsions:
REMARK  status: ('A' for Active; 'I' for Inactive)
REMARK    1  A    between atoms: N2_2  and  C3_3 
REMARK    2  A    between atoms: C3_3  and  C4_4 
ROOT
ATOM      1  C3  ZIN A   1      18.583   0.200  14.007  0.00  0.00     0.244 C 
ATOM      2  C11 ZIN A   1      17.266   0.404  14.763  0.00  0.00     0.055 C 
ATOM      3  C12 ZIN A   1      17.501   0.194  16.259  0.00  0.00     0.004 C 
ATOM      4  C13 ZIN A   1      17.927  -1.252  16.519  0.00  0.00     0.007 C 
ATOM      5  C14 ZIN A   1      19.269  -1.518  15.830  0.00  0.00     0.081 C 
ATOM      6  C15 ZIN A   1      19.137  -1.161  14.366  0.00  0.00     0.170 C 
ATOM      7  O16 ZIN A   1      19.466  -1.942  13.505  0.00  0.00    -0.295 OA
ENDROOT
BRANCH   1   8
ATOM      8  N2  ZIN A   1      19.543   1.242  14.397  0.00  0.00     0.101 N 
ATOM      9  C1  ZIN A   1      18.896   2.560  14.455  0.00  0.00     0.308 C 
ATOM     10  H20 ZIN A   1      20.335   1.256  13.772  0.00  0.00     0.317 HD
ENDBRANCH   1   8
BRANCH   1  11
ATOM     11  C4  ZIN A   1      18.336   0.271  12.522  0.00  0.00     0.009 A 
ATOM     12  C9  ZIN A   1      19.394   0.482  11.655  0.00  0.00     0.043 A 
ATOM     13  C8  ZIN A   1      19.167   0.540  10.291  0.00  0.00     0.024 A 
ATOM     14 Cl10 ZIN A   1      21.005   0.655  12.276  0.00  0.00    -0.084 Cl
ATOM     15  C7  ZIN A   1      17.884   0.401   9.797  0.00  0.00     0.002 A 
ATOM     16  C6  ZIN A   1      16.828   0.198  10.664  0.00  0.00     0.001 A 
ATOM     17  C5  ZIN A   1      17.054   0.133  12.027  0.00  0.00     0.012 A 
ENDBRANCH   1  11
TORSDOF 2
ENDMDL
MODEL 2
REMARK VINA RESULT:      -6.1      1.826      2.141
REMARK  2 active torsions:
REMARK  status: ('A' for Active; 'I' for Inactive)
REMARK    1  A    between atoms: N2_2  and  C3_3 
REMARK    2  A    between atoms: C3_3  and  C4_4 
ROOT
ATOM      1  C3  ZIN A   1      18.836   1.003  13.857  0.00  0.00     0.244 C 
ATOM      2  C11 ZIN A   1      17.452   0.788  14.479  0.00  0.00     0.055 C 
ATOM      3  C12 ZIN A   1      17.597  -0.005  15.778  0.00  0.00     0.004 C 
ATOM      4  C13 ZIN A   1      18.155  -1.397  15.478  0.00  0.00     0.007 C 
ATOM      5  C14 ZIN A   1      19.566  -1.264  14.894  0.00  0.00     0.081 C 
ATOM      6  C15 ZIN A   1      19.505  -0.343  13.694  0.00  0.00     0.170 C 
ATOM      7  O16 ZIN A   1      19.979  -0.676  12.634  0.00  0.00    -0.295 OA
ENDROOT
BRANCH   1   8
ATOM      8  N2  ZIN A   1      19.647   1.854  14.739  0.00  0.00     0.101 N 
ATOM      9  C1  ZIN A   1      18.833   2.921  15.336  0.00  0.00     0.308 C 
ATOM     10  H20 ZIN A   1      20.439   2.237  14.244  0.00  0.00     0.317 HD
ENDBRANCH   1   8
BRANCH   1  11
ATOM     11  C4  ZIN A   1      18.694   1.664  12.510  0.00  0.00     0.009 A 
ATOM     12  C9  ZIN A   1      17.725   1.226  11.624  0.00  0.00     0.043 A 
ATOM     13  C8  ZIN A   1      17.590   1.838  10.391  0.00  0.00     0.024 A 
ATOM     14 Cl10 ZIN A   1      16.667  -0.077  12.068  0.00  0.00    -0.084 Cl
ATOM     15  C7  ZIN A   1      18.431   2.876  10.038  0.00  0.00     0.002 A 
ATOM     16  C6  ZIN A   1      19.403   3.308  10.920  0.00  0.00     0.001 A 
ATOM     17  C5  ZIN A   1      19.534   2.702  12.156  0.00  0.00     0.012 A 
ENDBRANCH   1  11
TORSDOF 2
ENDMDL
MODEL 3
REMARK VINA RESULT:      -6.1      3.282      4.604
REMARK  2 active torsions:
REMARK  status: ('A' for Active; 'I' for Inactive)
REMARK    1  A    between atoms: N2_2  and  C3_3 
REMARK    2  A    between atoms: C3_3  and  C4_4 
ROOT
ATOM      1  C3  ZIN A   1      18.781   2.476  11.450  0.00  0.00     0.244 C 
ATOM      2  C11 ZIN A   1      20.116   3.227  11.425  0.00  0.00     0.055 C 
ATOM      3  C12 ZIN A   1      20.259   4.052  12.704  0.00  0.00     0.004 C 
ATOM      4  C13 ZIN A   1      19.165   5.120  12.760  0.00  0.00     0.007 C 
ATOM      5  C14 ZIN A   1      17.794   4.439  12.835  0.00  0.00     0.081 C 
ATOM      6  C15 ZIN A   1      17.670   3.477  11.674  0.00  0.00     0.170 C 
ATOM      7  O16 ZIN A   1      16.707   3.508  10.945  0.00  0.00    -0.295 OA
ENDROOT
BRANCH   1   8
ATOM      8  N2  ZIN A   1      18.789   1.494  12.543  0.00  0.00     0.101 N 
ATOM      9  C1  ZIN A   1      20.052   0.744  12.570  0.00  0.00     0.308 C 
ATOM     10  H20 ZIN A   1      17.999   0.869  12.473  0.00  0.00     0.317 HD
ENDBRANCH   1   8
BRANCH   1  11
ATOM     11  C4  ZIN A   1      18.569   1.768  10.137  0.00  0.00     0.009 A 
ATOM     12  C9  ZIN A   1      17.659   0.729  10.051  0.00  0.00     0.043 A 
ATOM     13  C8  ZIN A   1      17.459   0.084   8.843  0.00  0.00     0.024 A 
ATOM     14 Cl10 ZIN A   1      16.757   0.246  11.453  0.00  0.00    -0.084 Cl
ATOM     15  C7  ZIN A   1      18.177   0.469   7.727  0.00  0.00     0.002 A 
ATOM     16  C6  ZIN A   1      19.090   1.502   7.815  0.00  0.00     0.001 A 
ATOM     17  C5  ZIN A   1      19.286   2.152   9.020  0.00  0.00     0.012 A 
ENDBRANCH   1  11
TORSDOF 2
ENDMDL
MODEL 4
REMARK VINA RESULT:      -6.1      2.453      3.579
REMARK  2 active torsions:
REMARK  status: ('A' for Active; 'I' for Inactive)
REMARK    1  A    between atoms: N2_2  and  C3_3 
REMARK    2  A    between atoms: C3_3  and  C4_4 
ROOT
ATOM      1  C3  ZIN A   1      19.124   1.452  10.924  0.00  0.00     0.244 C 
ATOM      2  C11 ZIN A   1      17.882   1.516  11.820  0.00  0.00     0.055 C 
ATOM      3  C12 ZIN A   1      18.311   1.758  13.267  0.00  0.00     0.004 C 
ATOM      4  C13 ZIN A   1      19.142   0.576  13.768  0.00  0.00     0.007 C 
ATOM      5  C14 ZIN A   1      20.432   0.478  12.946  0.00  0.00     0.081 C 
ATOM      6  C15 ZIN A   1      20.065   0.406  11.480  0.00  0.00     0.170 C 
ATOM      7  O16 ZIN A   1      20.511  -0.465  10.772  0.00  0.00    -0.295 OA
ENDROOT
BRANCH   1   8
ATOM      8  N2  ZIN A   1      19.793   2.761  10.915  0.00  0.00     0.101 N 
ATOM      9  C1  ZIN A   1      18.814   3.854  10.988  0.00  0.00     0.308 C 
ATOM     10  H20 ZIN A   1      20.384   2.859  10.102  0.00  0.00     0.317 HD
ENDBRANCH   1   8
BRANCH   1  11
ATOM     11  C4  ZIN A   1      18.724   1.079   9.521  0.00  0.00     0.009 A 
ATOM     12  C9  ZIN A   1      17.735   0.134   9.312  0.00  0.00     0.043 A 
ATOM     13  C8  ZIN A   1      17.363  -0.203   8.023  0.00  0.00     0.024 A 
ATOM     14 Cl10 ZIN A   1      16.950  -0.615  10.667  0.00  0.00    -0.084 Cl
ATOM     15  C7  ZIN A   1      17.988   0.394   6.944  0.00  0.00     0.002 A 
ATOM     16  C6  ZIN A   1      18.980   1.332   7.154  0.00  0.00     0.001 A 
ATOM     17  C5  ZIN A   1      19.348   1.675   8.441  0.00  0.00     0.012 A 
ENDBRANCH   1  11
TORSDOF 2
ENDMDL
MODEL 5
REMARK VINA RESULT:      -6.1      2.942      5.975
REMARK  2 active torsions:
REMARK  status: ('A' for Active; 'I' for Inactive)
REMARK    1  A    between atoms: N2_2  and  C3_3 
REMARK    2  A    between atoms: C3_3  and  C4_4 
ROOT
ATOM      1  C3  ZIN A   1      18.593  -0.261   8.858  0.00  0.00     0.244 C 
ATOM      2  C11 ZIN A   1      17.318  -0.582   8.071  0.00  0.00     0.055 C 
ATOM      3  C12 ZIN A   1      17.620  -0.537   6.574  0.00  0.00     0.004 C 
ATOM      4  C13 ZIN A   1      18.029   0.880   6.168  0.00  0.00     0.007 C 
ATOM      5  C14 ZIN A   1      19.332   1.256   6.883  0.00  0.00     0.081 C 
ATOM      6  C15 ZIN A   1      19.137   1.064   8.371  0.00  0.00     0.170 C 
ATOM      7  O16 ZIN A   1      19.409   1.946   9.150  0.00  0.00    -0.295 OA
ENDROOT
BRANCH   1   8
ATOM      8  N2  ZIN A   1      19.591  -1.316   8.633  0.00  0.00     0.101 N 
ATOM      9  C1  ZIN A   1      18.972  -2.647   8.689  0.00  0.00     0.308 C 
ATOM     10  H20 ZIN A   1      20.350  -1.242   9.295  0.00  0.00     0.317 HD
ENDBRANCH   1   8
BRANCH   1  11
ATOM     11  C4  ZIN A   1      18.278  -0.169  10.328  0.00  0.00     0.009 A 
ATOM     12  C9  ZIN A   1      19.293  -0.280  11.262  0.00  0.00     0.043 A 
ATOM     13  C8  ZIN A   1      19.003  -0.189  12.612  0.00  0.00     0.024 A 
ATOM     14 Cl10 ZIN A   1      20.931  -0.517  10.739  0.00  0.00    -0.084 Cl
ATOM     15  C7  ZIN A   1      17.699  -0.000  13.028  0.00  0.00     0.002 A 
ATOM     16  C6  ZIN A   1      16.684   0.104  12.095  0.00  0.00     0.001 A 
ATOM     17  C5  ZIN A   1      16.974   0.020  10.745  0.00  0.00     0.012 A 
ENDBRANCH   1  11
TORSDOF 2
ENDMDL
MODEL 6
REMARK VINA RESULT:      -5.9      2.522      5.132
REMARK  2 active torsions:
REMARK  status: ('A' for Active; 'I' for Inactive)
REMARK    1  A    between atoms: N2_2  and  C3_3 
REMARK    2  A    between atoms: C3_3  and  C4_4 
ROOT
ATOM      1  C3  ZIN A   1      19.304  -1.483  11.458  0.00  0.00     0.244 C 
ATOM      2  C11 ZIN A   1      18.081  -1.981  10.680  0.00  0.00     0.055 C 
ATOM      3  C12 ZIN A   1      18.460  -2.185   9.213  0.00  0.00     0.004 C 
ATOM      4  C13 ZIN A   1      18.852  -0.845   8.587  0.00  0.00     0.007 C 
ATOM      5  C14 ZIN A   1      20.104  -0.304   9.286  0.00  0.00     0.081 C 
ATOM      6  C15 ZIN A   1      19.836  -0.243  10.773  0.00  0.00     0.170 C 
ATOM      7  O16 ZIN A   1      20.042   0.770  11.399  0.00  0.00    -0.295 OA
ENDROOT
BRANCH   1   8
ATOM      8  N2  ZIN A   1      20.340  -2.524  11.468  0.00  0.00     0.101 N 
ATOM      9  C1  ZIN A   1      19.742  -3.863  11.566  0.00  0.00     0.308 C 
ATOM     10  H20 ZIN A   1      21.001  -2.368  12.215  0.00  0.00     0.317 HD
ENDBRANCH   1   8
BRANCH   1  11
ATOM     11  C4  ZIN A   1      18.908  -1.150  12.873  0.00  0.00     0.009 A 
ATOM     12  C9  ZIN A   1      17.751  -0.430  13.116  0.00  0.00     0.043 A 
ATOM     13  C8  ZIN A   1      17.384  -0.130  14.416  0.00  0.00     0.024 A 
ATOM     14 Cl10 ZIN A   1      16.752   0.081  11.792  0.00  0.00    -0.084 Cl
ATOM     15  C7  ZIN A   1      18.180  -0.538  15.470  0.00  0.00     0.002 A 
ATOM     16  C6  ZIN A   1      19.339  -1.250  15.226  0.00  0.00     0.001 A 
ATOM     17  C5  ZIN A   1      19.702  -1.557  13.928  0.00  0.00     0.012 A 
ENDBRANCH   1  11
TORSDOF 2
ENDMDL
MODEL 7
REMARK VINA RESULT:      -5.9      3.172      4.694
REMARK  2 active torsions:
REMARK  status: ('A' for Active; 'I' for Inactive)
REMARK    1  A    between atoms: N2_2  and  C3_3 
REMARK    2  A    between atoms: C3_3  and  C4_4 
ROOT
ATOM      1  C3  ZIN A   1      19.179   0.775  10.670  0.00  0.00     0.244 C 
ATOM      2  C11 ZIN A   1      17.836   1.407  10.289  0.00  0.00     0.055 C 
ATOM      3  C12 ZIN A   1      18.037   2.895  10.004  0.00  0.00     0.004 C 
ATOM      4  C13 ZIN A   1      18.503   3.609  11.274  0.00  0.00     0.007 C 
ATOM      5  C14 ZIN A   1      19.871   3.061  11.692  0.00  0.00     0.081 C 
ATOM      6  C15 ZIN A   1      19.767   1.557  11.824  0.00  0.00     0.170 C 
ATOM      7  O16 ZIN A   1      20.144   0.996  12.825  0.00  0.00    -0.295 OA
ENDROOT
BRANCH   1   8
ATOM      8  N2  ZIN A   1      20.093   0.828   9.522  0.00  0.00     0.101 N 
ATOM      9  C1  ZIN A   1      19.388   0.515   8.271  0.00  0.00     0.308 C 
ATOM     10  H20 ZIN A   1      20.880   0.210   9.657  0.00  0.00     0.317 HD
ENDBRANCH   1   8
BRANCH   1  11
ATOM     11  C4  ZIN A   1      18.970  -0.658  11.084  0.00  0.00     0.009 A 
ATOM     12  C9  ZIN A   1      17.795  -1.032  11.713  0.00  0.00     0.043 A 
ATOM     13  C8  ZIN A   1      17.601  -2.350  12.087  0.00  0.00     0.024 A 
ATOM     14 Cl10 ZIN A   1      16.559   0.148  12.016  0.00  0.00    -0.084 Cl
ATOM     15  C7  ZIN A   1      18.586  -3.290  11.845  0.00  0.00     0.002 A 
ATOM     16  C6  ZIN A   1      19.761  -2.914  11.224  0.00  0.00     0.001 A 
ATOM     17  C5  ZIN A   1      19.954  -1.598  10.843  0.00  0.00     0.012 A 
ENDBRANCH   1  11
TORSDOF 2
ENDMDL
MODEL 8
REMARK VINA RESULT:      -5.9      3.184      4.736
REMARK  2 active torsions:
REMARK  status: ('A' for Active; 'I' for Inactive)
REMARK    1  A    between atoms: N2_2  and  C3_3 
REMARK    2  A    between atoms: C3_3  and  C4_4 
ROOT
ATOM      1  C3  ZIN A   1      18.553  -0.061  10.751  0.00  0.00     0.244 C 
ATOM      2  C11 ZIN A   1      18.997   0.528   9.409  0.00  0.00     0.055 C 
ATOM      3  C12 ZIN A   1      19.260   2.025   9.573  0.00  0.00     0.004 C 
ATOM      4  C13 ZIN A   1      17.963   2.743   9.951  0.00  0.00     0.007 C 
ATOM      5  C14 ZIN A   1      17.481   2.237  11.315  0.00  0.00     0.081 C 
ATOM      6  C15 ZIN A   1      17.366   0.729  11.255  0.00  0.00     0.170 C 
ATOM      7  O16 ZIN A   1      16.351   0.172  11.601  0.00  0.00    -0.295 OA
ENDROOT
BRANCH   1   8
ATOM      8  N2  ZIN A   1      19.654   0.032  11.719  0.00  0.00     0.101 N 
ATOM      9  C1  ZIN A   1      20.910  -0.465  11.139  0.00  0.00     0.308 C 
ATOM     10  H20 ZIN A   1      19.430  -0.462  12.571  0.00  0.00     0.317 HD
ENDBRANCH   1   8
BRANCH   1  11
ATOM     11  C4  ZIN A   1      18.160  -1.505  10.571  0.00  0.00     0.009 A 
ATOM     12  C9  ZIN A   1      18.010  -2.324  11.676  0.00  0.00     0.043 A 
ATOM     13  C8  ZIN A   1      17.642  -3.647  11.509  0.00  0.00     0.024 A 
ATOM     14 Cl10 ZIN A   1      18.264  -1.687  13.270  0.00  0.00    -0.084 Cl
ATOM     15  C7  ZIN A   1      17.439  -4.154  10.240  0.00  0.00     0.002 A 
ATOM     16  C6  ZIN A   1      17.596  -3.337   9.137  0.00  0.00     0.001 A 
ATOM     17  C5  ZIN A   1      17.956  -2.013   9.302  0.00  0.00     0.012 A 
ENDBRANCH   1  11
TORSDOF 2
ENDMDL
MODEL 9
REMARK VINA RESULT:      -5.8      1.874      4.439
REMARK  2 active torsions:
REMARK  status: ('A' for Active; 'I' for Inactive)
REMARK    1  A    between atoms: N2_2  and  C3_3 
REMARK    2  A    between atoms: C3_3  and  C4_4 
ROOT
ATOM      1  C3  ZIN A   1      18.341   1.924  12.843  0.00  0.00     0.244 C 
ATOM      2  C11 ZIN A   1      19.739   2.197  12.278  0.00  0.00     0.055 C 
ATOM      3  C12 ZIN A   1      19.642   3.240  11.165  0.00  0.00     0.004 C 
ATOM      4  C13 ZIN A   1      18.810   2.687  10.006  0.00  0.00     0.007 C 
ATOM      5  C14 ZIN A   1      17.377   2.433  10.486  0.00  0.00     0.081 C 
ATOM      6  C15 ZIN A   1      17.429   1.534  11.701  0.00  0.00     0.170 C 
ATOM      7  O16 ZIN A   1      16.758   0.531  11.759  0.00  0.00    -0.295 OA
ENDROOT
BRANCH   1   8
ATOM      8  N2  ZIN A   1      17.826   3.137  13.494  0.00  0.00     0.101 N 
ATOM      9  C1  ZIN A   1      18.877   3.802  14.276  0.00  0.00     0.308 C 
ATOM     10  H20 ZIN A   1      17.025   2.925  14.071  0.00  0.00     0.317 HD
ENDBRANCH   1   8
BRANCH   1  11
ATOM     11  C4  ZIN A   1      18.405   0.802  13.846  0.00  0.00     0.009 A 
ATOM     12  C9  ZIN A   1      19.184  -0.313  13.587  0.00  0.00     0.043 A 
ATOM     13  C8  ZIN A   1      19.248  -1.340  14.511  0.00  0.00     0.024 A 
ATOM     14 Cl10 ZIN A   1      20.094  -0.413  12.112  0.00  0.00    -0.084 Cl
ATOM     15  C7  ZIN A   1      18.525  -1.260  15.686  0.00  0.00     0.002 A 
ATOM     16  C6  ZIN A   1      17.742  -0.150  15.941  0.00  0.00     0.001 A 
ATOM     17  C5  ZIN A   1      17.682   0.881  15.021  0.00  0.00     0.012 A 
ENDBRANCH   1  11
TORSDOF 2
ENDMDL
