MODEL 1
REMARK VINA RESULT:      -9.1      0.000      0.000
REMARK  7 active torsions:
REMARK  status: ('A' for Active; 'I' for Inactive)
REMARK       I    between atoms: C2_2  and  N4_4 
REMARK    1  A    between atoms: N7_7  and  C8_8 
REMARK    2  A    between atoms: C11_11  and  O12_12 
REMARK    3  A    between atoms: O12_12  and  C13_13 
REMARK    4  A    between atoms: C13_13  and  C14_14 
REMARK    5  A    between atoms: C18_17  and  C19_18 
REMARK    6  A    between atoms: C18_17  and  C25_24 
REMARK    7  A    between atoms: C19_18  and  N20_19 
ROOT
ATOM      1  C14 <0> d   1      18.561   1.864  14.536  0.00  0.00     0.173 C 
ATOM      2  C16 <0> d   1      19.177   2.488  15.814  0.00  0.00     0.206 C 
ATOM      3  O17 <0> d   1      19.544   3.815  15.386  0.00  0.00    -0.347 OA
ATOM      4  C18 <0> d   1      18.757   4.122  14.228  0.00  0.00     0.212 C 
ATOM      5  O33 <0> d   1      17.896   3.005  13.944  0.00  0.00    -0.340 OA
ENDROOT
BRANCH   1   6
ATOM      6  C13 <0> d   1      17.556   0.768  14.892  0.00  0.00     0.209 C 
BRANCH   6   7
ATOM      7  O12 <0> d   1      18.008  -0.481  14.367  0.00  0.00    -0.349 OA
BRANCH   7   8
ATOM      8  C11 <0> d   1      18.008  -0.620  13.014  0.00  0.00     0.069 A 
ATOM      9  C10 <0> d   1      16.905  -0.220  12.276  0.00  0.00     0.039 A 
ATOM     10  C9  <0> d   1      16.904  -0.359  10.902  0.00  0.00     0.032 A 
ATOM     11  C8  <0> d   1      18.009  -0.901  10.260  0.00  0.00     0.030 A 
ATOM     12  C35 <0> d   1      19.112  -1.307  10.999  0.00  0.00     0.032 A 
ATOM     13  C34 <0> d   1      19.113  -1.162  12.373  0.00  0.00     0.039 A 
BRANCH  11  14
ATOM     14  N7  <0> d   1      18.010  -1.044   8.867  0.00  0.00    -0.378 N 
ATOM     15  C6  <0> d   1      17.629   0.079   8.000  0.00  0.00     0.143 C 
ATOM     16  C5  <0> d   1      18.768   0.339   7.006  0.00  0.00     0.145 C 
ATOM     17  N4  <0> d   1      19.149  -0.937   6.385  0.00  0.00    -0.349 N 
ATOM     18  C2  <0> d   1      19.148  -1.075   5.044  0.00  0.00     0.215 C 
ATOM     19  C37 <0> d   1      19.524  -2.063   7.253  0.00  0.00     0.145 C 
ATOM     20  C1  <0> d   1      18.761   0.088   4.167  0.00  0.00     0.117 C 
ATOM     21  O3  <0> d   1      19.460  -2.135   4.543  0.00  0.00    -0.274 OA
ATOM     22  C36 <0> d   1      18.390  -2.321   8.246  0.00  0.00     0.143 C 
ENDBRANCH  11  14
ENDBRANCH   7   8
ENDBRANCH   6   7
ENDBRANCH   1   6
BRANCH   4  23
ATOM     23  C19 <0> d   1      19.677   4.376  13.032  0.00  0.00     0.203 C 
BRANCH  23  24
ATOM     24  N20 <0> d   1      18.965   4.059  11.792  0.00  0.00    -0.345 N 
ATOM     25  C24 <0> d   1      18.025   4.820  11.191  0.00  0.00     0.209 A 
ATOM     26  N23 <0> d   1      17.624   4.211  10.108  0.00  0.00    -0.255 NA
ATOM     27  C22 <0> d   1      18.280   3.048   9.986  0.00  0.00     0.135 A 
ATOM     28  C21 <0> d   1      19.125   2.933  11.028  0.00  0.00     0.111 A 
ENDBRANCH  23  24
ENDBRANCH   4  23
BRANCH   4  29
ATOM     29  C25 <0> d   1      17.921   5.348  14.494  0.00  0.00     0.027 A 
ATOM     30  C31 <0> d   1      18.534   6.573  14.689  0.00  0.00     0.047 A 
ATOM     31  C30 <0> d   1      17.767   7.699  14.928  0.00  0.00     0.048 A 
ATOM     32 Cl32 <0> d   1      20.264   6.699  14.624  0.00  0.00    -0.084 Cl
ATOM     33  C28 <0> d   1      16.388   7.596  14.981  0.00  0.00     0.035 A 
ATOM     34  C27 <0> d   1      15.777   6.370  14.790  0.00  0.00     0.024 A 
ATOM     35 Cl29 <0> d   1      15.424   9.008  15.287  0.00  0.00    -0.084 Cl
ATOM     36  C26 <0> d   1      16.545   5.247  14.547  0.00  0.00     0.016 A 
ENDBRANCH   4  29
TORSDOF 7
ENDMDL
MODEL 2
REMARK VINA RESULT:      -9.0      3.778      9.429
REMARK  7 active torsions:
REMARK  status: ('A' for Active; 'I' for Inactive)
REMARK       I    between atoms: C2_2  and  N4_4 
REMARK    1  A    between atoms: N7_7  and  C8_8 
REMARK    2  A    between atoms: C11_11  and  O12_12 
REMARK    3  A    between atoms: O12_12  and  C13_13 
REMARK    4  A    between atoms: C13_13  and  C14_14 
REMARK    5  A    between atoms: C18_17  and  C19_18 
REMARK    6  A    between atoms: C18_17  and  C25_24 
REMARK    7  A    between atoms: C19_18  and  N20_19 
ROOT
ATOM      1  C14 <0> d   1      19.186   0.208   7.436  0.00  0.00     0.173 C 
ATOM      2  C16 <0> d   1      17.711  -0.165   7.145  0.00  0.00     0.206 C 
ATOM      3  O17 <0> d   1      17.734  -1.607   7.131  0.00  0.00    -0.347 OA
ATOM      4  C18 <0> d   1      18.898  -2.021   7.860  0.00  0.00     0.212 C 
ATOM      5  O33 <0> d   1      19.585  -0.851   8.339  0.00  0.00    -0.340 OA
ENDROOT
BRANCH   1   6
ATOM      6  C13 <0> d   1      19.282   1.574   8.117  0.00  0.00     0.209 C 
BRANCH   6   7
ATOM      7  O12 <0> d   1      18.048   1.866   8.775  0.00  0.00    -0.349 OA
BRANCH   7   8
ATOM      8  C11 <0> d   1      18.048   1.822  10.135  0.00  0.00     0.069 A 
ATOM      9  C10 <0> d   1      18.756   2.769  10.859  0.00  0.00     0.039 A 
ATOM     10  C9  <0> d   1      18.756   2.727  12.239  0.00  0.00     0.032 A 
ATOM     11  C8  <0> d   1      18.047   1.734  12.902  0.00  0.00     0.030 A 
ATOM     12  C35 <0> d   1      17.343   0.783  12.176  0.00  0.00     0.032 A 
ATOM     13  C34 <0> d   1      17.340   0.830  10.796  0.00  0.00     0.039 A 
BRANCH  11  14
ATOM     14  N7  <0> d   1      18.046   1.689  14.301  0.00  0.00    -0.378 N 
ATOM     15  C6  <0> d   1      17.665   0.460  15.010  0.00  0.00     0.143 C 
ATOM     16  C5  <0> d   1      18.804   0.070  15.962  0.00  0.00     0.145 C 
ATOM     17  N4  <0> d   1      19.183   1.252  16.748  0.00  0.00    -0.349 N 
ATOM     18  C2  <0> d   1      19.182   1.209  18.095  0.00  0.00     0.215 C 
ATOM     19  C37 <0> d   1      19.559   2.484  16.039  0.00  0.00     0.145 C 
ATOM     20  C1  <0> d   1      18.794  -0.061  18.808  0.00  0.00     0.117 C 
ATOM     21  O3  <0> d   1      19.493   2.193  18.733  0.00  0.00    -0.274 OA
ATOM     22  C36 <0> d   1      18.426   2.872  15.087  0.00  0.00     0.143 C 
ENDBRANCH  11  14
ENDBRANCH   7   8
ENDBRANCH   6   7
ENDBRANCH   1   6
BRANCH   4  23
ATOM     23  C19 <0> d   1      19.824  -2.820   6.942  0.00  0.00     0.203 C 
BRANCH  23  24
ATOM     24  N20 <0> d   1      19.079  -3.259   5.760  0.00  0.00    -0.345 N 
ATOM     25  C24 <0> d   1      18.903  -2.560   4.618  0.00  0.00     0.209 A 
ATOM     26  N23 <0> d   1      18.188  -3.277   3.794  0.00  0.00    -0.255 NA
ATOM     27  C22 <0> d   1      17.879  -4.444   4.377  0.00  0.00     0.135 A 
ATOM     28  C21 <0> d   1      18.427  -4.454   5.607  0.00  0.00     0.111 A 
ENDBRANCH  23  24
ENDBRANCH   4  23
BRANCH   4  29
ATOM     29  C25 <0> d   1      18.484  -2.876   9.031  0.00  0.00     0.027 A 
ATOM     30  C31 <0> d   1      19.005  -2.625  10.288  0.00  0.00     0.047 A 
ATOM     31  C30 <0> d   1      18.621  -3.406  11.363  0.00  0.00     0.048 A 
ATOM     32 Cl32 <0> d   1      20.130  -1.323  10.518  0.00  0.00    -0.084 Cl
ATOM     33  C28 <0> d   1      17.724  -4.444  11.178  0.00  0.00     0.035 A 
ATOM     34  C27 <0> d   1      17.209  -4.696   9.919  0.00  0.00     0.024 A 
ATOM     35 Cl29 <0> d   1      17.247  -5.429  12.525  0.00  0.00    -0.084 Cl
ATOM     36  C26 <0> d   1      17.590  -3.912   8.846  0.00  0.00     0.016 A 
ENDBRANCH   4  29
TORSDOF 7
ENDMDL
MODEL 3
REMARK VINA RESULT:      -8.9      2.943      7.965
REMARK  7 active torsions:
REMARK  status: ('A' for Active; 'I' for Inactive)
REMARK       I    between atoms: C2_2  and  N4_4 
REMARK    1  A    between atoms: N7_7  and  C8_8 
REMARK    2  A    between atoms: C11_11  and  O12_12 
REMARK    3  A    between atoms: O12_12  and  C13_13 
REMARK    4  A    between atoms: C13_13  and  C14_14 
REMARK    5  A    between atoms: C18_17  and  C19_18 
REMARK    6  A    between atoms: C18_17  and  C25_24 
REMARK    7  A    between atoms: C19_18  and  N20_19 
ROOT
ATOM      1  C14 <0> d   1      18.682  -2.546   9.510  0.00  0.00     0.173 C 
ATOM      2  C16 <0> d   1      20.041  -1.899   9.141  0.00  0.00     0.206 C 
ATOM      3  O17 <0> d   1      19.655  -0.747   8.364  0.00  0.00    -0.347 OA
ATOM      4  C18 <0> d   1      18.296  -0.441   8.703  0.00  0.00     0.212 C 
ATOM      5  O33 <0> d   1      17.842  -1.381   9.693  0.00  0.00    -0.340 OA
ENDROOT
BRANCH   1   6
ATOM      6  C13 <0> d   1      18.792  -3.351  10.805  0.00  0.00     0.209 C 
BRANCH   6   7
ATOM      7  O12 <0> d   1      19.810  -2.786  11.633  0.00  0.00    -0.349 OA
BRANCH   7   8
ATOM      8  C11 <0> d   1      19.435  -1.791  12.482  0.00  0.00     0.069 A 
ATOM      9  C10 <0> d   1      20.013  -0.535  12.376  0.00  0.00     0.039 A 
ATOM     10  C9  <0> d   1      19.633   0.475  13.237  0.00  0.00     0.032 A 
ATOM     11  C8  <0> d   1      18.672   0.233  14.209  0.00  0.00     0.030 A 
ATOM     12  C35 <0> d   1      18.098  -1.026  14.318  0.00  0.00     0.032 A 
ATOM     13  C34 <0> d   1      18.475  -2.034  13.453  0.00  0.00     0.039 A 
BRANCH  11  14
ATOM     14  N7  <0> d   1      18.286   1.256  15.083  0.00  0.00    -0.378 N 
ATOM     15  C6  <0> d   1      18.000   0.966  16.494  0.00  0.00     0.143 C 
ATOM     16  C5  <0> d   1      18.880   1.870  17.369  0.00  0.00     0.145 C 
ATOM     17  N4  <0> d   1      18.753   3.253  16.890  0.00  0.00    -0.349 N 
ATOM     18  C2  <0> d   1      18.381   4.239  17.731  0.00  0.00     0.215 C 
ATOM     19  C37 <0> d   1      19.034   3.542  15.476  0.00  0.00     0.145 C 
ATOM     20  C1  <0> d   1      18.096   3.927  19.178  0.00  0.00     0.117 C 
ATOM     21  O3  <0> d   1      18.275   5.376  17.323  0.00  0.00    -0.274 OA
ATOM     22  C36 <0> d   1      18.159   2.640  14.604  0.00  0.00     0.143 C 
ENDBRANCH  11  14
ENDBRANCH   7   8
ENDBRANCH   6   7
ENDBRANCH   1   6
BRANCH   4  23
ATOM     23  C19 <0> d   1      17.417  -0.546   7.455  0.00  0.00     0.203 C 
BRANCH  23  24
ATOM     24  N20 <0> d   1      18.243  -0.929   6.308  0.00  0.00    -0.345 N 
ATOM     25  C24 <0> d   1      18.993  -0.101   5.549  0.00  0.00     0.209 A 
ATOM     26  N23 <0> d   1      19.588  -0.805   4.624  0.00  0.00    -0.255 NA
ATOM     27  C22 <0> d   1      19.235  -2.092   4.753  0.00  0.00     0.135 A 
ATOM     28  C21 <0> d   1      18.394  -2.192   5.800  0.00  0.00     0.111 A 
ENDBRANCH  23  24
ENDBRANCH   4  23
BRANCH   4  29
ATOM     29  C25 <0> d   1      18.217   0.957   9.262  0.00  0.00     0.027 A 
ATOM     30  C31 <0> d   1      17.435   1.213  10.375  0.00  0.00     0.047 A 
ATOM     31  C30 <0> d   1      17.366   2.494  10.891  0.00  0.00     0.048 A 
ATOM     32 Cl32 <0> d   1      16.550  -0.076  11.130  0.00  0.00    -0.084 Cl
ATOM     33  C28 <0> d   1      18.072   3.521  10.288  0.00  0.00     0.035 A 
ATOM     34  C27 <0> d   1      18.848   3.264   9.173  0.00  0.00     0.024 A 
ATOM     35 Cl29 <0> d   1      17.981   5.131  10.931  0.00  0.00    -0.084 Cl
ATOM     36  C26 <0> d   1      18.920   1.982   8.660  0.00  0.00     0.016 A 
ENDBRANCH   4  29
TORSDOF 7
ENDMDL
MODEL 4
REMARK VINA RESULT:      -8.8      3.317      6.047
REMARK  7 active torsions:
REMARK  status: ('A' for Active; 'I' for Inactive)
REMARK       I    between atoms: C2_2  and  N4_4 
REMARK    1  A    between atoms: N7_7  and  C8_8 
REMARK    2  A    between atoms: C11_11  and  O12_12 
REMARK    3  A    between atoms: O12_12  and  C13_13 
REMARK    4  A    between atoms: C13_13  and  C14_14 
REMARK    5  A    between atoms: C18_17  and  C19_18 
REMARK    6  A    between atoms: C18_17  and  C25_24 
REMARK    7  A    between atoms: C19_18  and  N20_19 
ROOT
ATOM      1  C14 <0> d   1      18.036   2.698  14.164  0.00  0.00     0.173 C 
ATOM      2  C16 <0> d   1      19.491   2.277  14.488  0.00  0.00     0.206 C 
ATOM      3  O17 <0> d   1      19.355   0.890  14.859  0.00  0.00    -0.347 OA
ATOM      4  C18 <0> d   1      18.125   0.417  14.294  0.00  0.00     0.212 C 
ATOM      5  O33 <0> d   1      17.506   1.492  13.564  0.00  0.00    -0.340 OA
ENDROOT
BRANCH   1   6
ATOM      6  C13 <0> d   1      18.011   3.860  13.169  0.00  0.00     0.209 C 
BRANCH   6   7
ATOM      7  O12 <0> d   1      19.194   3.829  12.370  0.00  0.00    -0.349 OA
BRANCH   7   8
ATOM      8  C11 <0> d   1      19.184   3.010  11.283  0.00  0.00     0.069 A 
ATOM      9  C10 <0> d   1      18.423   3.342  10.172  0.00  0.00     0.039 A 
ATOM     10  C9  <0> d   1      18.413   2.512   9.068  0.00  0.00     0.032 A 
ATOM     11  C8  <0> d   1      19.164   1.345   9.072  0.00  0.00     0.030 A 
ATOM     12  C35 <0> d   1      19.921   1.010  10.186  0.00  0.00     0.032 A 
ATOM     13  C34 <0> d   1      19.935   1.844  11.287  0.00  0.00     0.039 A 
BRANCH  11  14
ATOM     14  N7  <0> d   1      19.154   0.502   7.954  0.00  0.00    -0.378 N 
ATOM     15  C6  <0> d   1      19.479  -0.924   8.089  0.00  0.00     0.143 C 
ATOM     16  C5  <0> d   1      18.319  -1.748   7.514  0.00  0.00     0.145 C 
ATOM     17  N4  <0> d   1      17.985  -1.221   6.184  0.00  0.00    -0.349 N 
ATOM     18  C2  <0> d   1      17.976  -2.031   5.107  0.00  0.00     0.215 C 
ATOM     19  C37 <0> d   1      17.666   0.208   6.047  0.00  0.00     0.145 C 
ATOM     20  C1  <0> d   1      18.305  -3.494   5.262  0.00  0.00     0.117 C 
ATOM     21  O3  <0> d   1      17.703  -1.584   4.013  0.00  0.00    -0.274 OA
ATOM     22  C36 <0> d   1      18.820   1.030   6.623  0.00  0.00     0.143 C 
ENDBRANCH  11  14
ENDBRANCH   7   8
ENDBRANCH   6   7
ENDBRANCH   1   6
BRANCH   4  23
ATOM     23  C19 <0> d   1      17.190  -0.048  15.412  0.00  0.00     0.203 C 
BRANCH  23  24
ATOM     24  N20 <0> d   1      17.878   0.060  16.700  0.00  0.00    -0.345 N 
ATOM     25  C24 <0> d   1      17.674   1.009  17.640  0.00  0.00     0.209 A 
ATOM     26  N23 <0> d   1      18.467   0.775  18.650  0.00  0.00    -0.255 NA
ATOM     27  C22 <0> d   1      19.204  -0.315  18.390  0.00  0.00     0.135 A 
ATOM     28  C21 <0> d   1      18.851  -0.778  17.175  0.00  0.00     0.111 A 
ENDBRANCH  23  24
ENDBRANCH   4  23
BRANCH   4  29
ATOM     29  C25 <0> d   1      18.406  -0.731  13.358  0.00  0.00     0.027 A 
ATOM     30  C31 <0> d   1      17.628  -0.907  12.227  0.00  0.00     0.047 A 
ATOM     31  C30 <0> d   1      17.890  -1.957  11.365  0.00  0.00     0.048 A 
ATOM     32 Cl32 <0> d   1      16.333   0.197  11.883  0.00  0.00    -0.084 Cl
ATOM     33  C28 <0> d   1      18.922  -2.836  11.641  0.00  0.00     0.035 A 
ATOM     34  C27 <0> d   1      19.694  -2.662  12.775  0.00  0.00     0.024 A 
ATOM     35 Cl29 <0> d   1      19.247  -4.158  10.564  0.00  0.00    -0.084 Cl
ATOM     36  C26 <0> d   1      19.435  -1.610  13.633  0.00  0.00     0.016 A 
ENDBRANCH   4  29
TORSDOF 7
ENDMDL
MODEL 5
REMARK VINA RESULT:      -8.8      3.956      6.059
REMARK  7 active torsions:
REMARK  status: ('A' for Active; 'I' for Inactive)
REMARK       I    between atoms: C2_2  and  N4_4 
REMARK    1  A    between atoms: N7_7  and  C8_8 
REMARK    2  A    between atoms: C11_11  and  O12_12 
REMARK    3  A    between atoms: O12_12  and  C13_13 
REMARK    4  A    between atoms: C13_13  and  C14_14 
REMARK    5  A    between atoms: C18_17  and  C19_18 
REMARK    6  A    between atoms: C18_17  and  C25_24 
REMARK    7  A    between atoms: C19_18  and  N20_19 
ROOT
ATOM      1  C14 <0> d   1      18.451   0.636  13.173  0.00  0.00     0.173 C 
ATOM      2  C16 <0> d   1      16.997   0.937  12.730  0.00  0.00     0.206 C 
ATOM      3  O17 <0> d   1      17.172   1.878  11.652  0.00  0.00    -0.347 OA
ATOM      4  C18 <0> d   1      18.509   1.718  11.159  0.00  0.00     0.212 C 
ATOM      5  O33 <0> d   1      19.158   0.677  11.910  0.00  0.00    -0.340 OA
ENDROOT
BRANCH   1   6
ATOM      6  C13 <0> d   1      18.554  -0.749  13.813  0.00  0.00     0.209 C 
BRANCH   6   7
ATOM      7  O12 <0> d   1      19.646  -1.463  13.232  0.00  0.00    -0.349 OA
BRANCH   7   8
ATOM      8  C11 <0> d   1      19.338  -2.510  12.420  0.00  0.00     0.069 A 
ATOM      9  C10 <0> d   1      20.334  -3.132  11.683  0.00  0.00     0.039 A 
ATOM     10  C9  <0> d   1      20.022  -4.196  10.859  0.00  0.00     0.032 A 
ATOM     11  C8  <0> d   1      18.710  -4.641  10.768  0.00  0.00     0.030 A 
ATOM     12  C35 <0> d   1      17.713  -4.014  11.502  0.00  0.00     0.032 A 
ATOM     13  C34 <0> d   1      18.027  -2.954  12.330  0.00  0.00     0.039 A 
BRANCH  11  14
ATOM     14  N7  <0> d   1      18.393  -5.718   9.932  0.00  0.00    -0.378 N 
ATOM     15  C6  <0> d   1      17.093  -6.394  10.044  0.00  0.00     0.143 C 
ATOM     16  C5  <0> d   1      16.413  -6.379   8.668  0.00  0.00     0.145 C 
ATOM     17  N4  <0> d   1      17.375  -6.855   7.665  0.00  0.00    -0.349 N 
ATOM     18  C2  <0> d   1      17.070  -7.893   6.860  0.00  0.00     0.215 C 
ATOM     19  C37 <0> d   1      18.679  -6.183   7.557  0.00  0.00     0.145 C 
ATOM     20  C1  <0> d   1      15.730  -8.572   6.983  0.00  0.00     0.117 C 
ATOM     21  O3  <0> d   1      17.875  -8.280   6.039  0.00  0.00    -0.274 OA
ATOM     22  C36 <0> d   1      19.356  -6.195   8.928  0.00  0.00     0.143 C 
ENDBRANCH  11  14
ENDBRANCH   7   8
ENDBRANCH   6   7
ENDBRANCH   1   6
BRANCH   4  23
ATOM     23  C19 <0> d   1      19.281   3.029  11.327  0.00  0.00     0.203 C 
BRANCH  23  24
ATOM     24  N20 <0> d   1      18.368   4.076  11.793  0.00  0.00    -0.345 N 
ATOM     25  C24 <0> d   1      18.324   4.605  13.034  0.00  0.00     0.209 A 
ATOM     26  N23 <0> d   1      17.385   5.512  13.070  0.00  0.00    -0.255 NA
ATOM     27  C22 <0> d   1      16.799   5.587  11.866  0.00  0.00     0.135 A 
ATOM     28  C21 <0> d   1      17.398   4.698  11.052  0.00  0.00     0.111 A 
ENDBRANCH  23  24
ENDBRANCH   4  23
BRANCH   4  29
ATOM     29  C25 <0> d   1      18.470   1.338   9.701  0.00  0.00     0.027 A 
ATOM     30  C31 <0> d   1      17.673   0.287   9.283  0.00  0.00     0.047 A 
ATOM     31  C30 <0> d   1      17.632  -0.059   7.944  0.00  0.00     0.048 A 
ATOM     32 Cl32 <0> d   1      16.715  -0.590  10.436  0.00  0.00    -0.084 Cl
ATOM     33  C28 <0> d   1      18.397   0.640   7.027  0.00  0.00     0.035 A 
ATOM     34  C27 <0> d   1      19.197   1.687   7.447  0.00  0.00     0.024 A 
ATOM     35 Cl29 <0> d   1      18.351   0.202   5.347  0.00  0.00    -0.084 Cl
ATOM     36  C26 <0> d   1      19.233   2.034   8.785  0.00  0.00     0.016 A 
ENDBRANCH   4  29
TORSDOF 7
ENDMDL
MODEL 6
REMARK VINA RESULT:      -8.8      3.959      6.187
REMARK  7 active torsions:
REMARK  status: ('A' for Active; 'I' for Inactive)
REMARK       I    between atoms: C2_2  and  N4_4 
REMARK    1  A    between atoms: N7_7  and  C8_8 
REMARK    2  A    between atoms: C11_11  and  O12_12 
REMARK    3  A    between atoms: O12_12  and  C13_13 
REMARK    4  A    between atoms: C13_13  and  C14_14 
REMARK    5  A    between atoms: C18_17  and  C19_18 
REMARK    6  A    between atoms: C18_17  and  C25_24 
REMARK    7  A    between atoms: C19_18  and  N20_19 
ROOT
ATOM      1  C14 <0> d   1      18.309   0.081  13.089  0.00  0.00     0.173 C 
ATOM      2  C16 <0> d   1      16.855   0.246  12.579  0.00  0.00     0.206 C 
ATOM      3  O17 <0> d   1      17.016   1.031  11.380  0.00  0.00    -0.347 OA
ATOM      4  C18 <0> d   1      18.372   0.866  10.942  0.00  0.00     0.212 C 
ATOM      5  O33 <0> d   1      19.046  -0.025  11.848  0.00  0.00    -0.340 OA
ENDROOT
BRANCH   1   6
ATOM      6  C13 <0> d   1      18.455  -1.192  13.924  0.00  0.00     0.209 C 
BRANCH   6   7
ATOM      7  O12 <0> d   1      19.508  -1.995  13.388  0.00  0.00    -0.349 OA
BRANCH   7   8
ATOM      8  C11 <0> d   1      19.166  -2.910  12.440  0.00  0.00     0.069 A 
ATOM      9  C10 <0> d   1      17.831  -3.197  12.203  0.00  0.00     0.039 A 
ATOM     10  C9  <0> d   1      17.483  -4.124  11.241  0.00  0.00     0.032 A 
ATOM     11  C8  <0> d   1      18.471  -4.771  10.512  0.00  0.00     0.030 A 
ATOM     12  C35 <0> d   1      19.809  -4.487  10.754  0.00  0.00     0.032 A 
ATOM     13  C34 <0> d   1      20.155  -3.555  11.712  0.00  0.00     0.039 A 
BRANCH  11  14
ATOM     14  N7  <0> d   1      18.120  -5.712   9.537  0.00  0.00    -0.378 N 
ATOM     15  C6  <0> d   1      16.732  -6.177   9.412  0.00  0.00     0.143 C 
ATOM     16  C5  <0> d   1      16.264  -5.941   7.970  0.00  0.00     0.145 C 
ATOM     17  N4  <0> d   1      17.278  -6.482   7.054  0.00  0.00    -0.349 N 
ATOM     18  C2  <0> d   1      16.940  -7.389   6.115  0.00  0.00     0.215 C 
ATOM     19  C37 <0> d   1      18.668  -6.021   7.183  0.00  0.00     0.145 C 
ATOM     20  C1  <0> d   1      15.511  -7.852   5.995  0.00  0.00     0.117 C 
ATOM     21  O3  <0> d   1      17.787  -7.832   5.368  0.00  0.00    -0.274 OA
ATOM     22  C36 <0> d   1      19.134  -6.253   8.621  0.00  0.00     0.143 C 
ENDBRANCH  11  14
ENDBRANCH   7   8
ENDBRANCH   6   7
ENDBRANCH   1   6
BRANCH   4  23
ATOM     23  C19 <0> d   1      19.080   2.222  10.935  0.00  0.00     0.203 C 
BRANCH  23  24
ATOM     24  N20 <0> d   1      18.128   3.272  11.305  0.00  0.00    -0.345 N 
ATOM     25  C24 <0> d   1      17.300   3.934  10.469  0.00  0.00     0.209 A 
ATOM     26  N23 <0> d   1      16.601   4.792  11.162  0.00  0.00    -0.255 NA
ATOM     27  C22 <0> d   1      16.961   4.714  12.452  0.00  0.00     0.135 A 
ATOM     28  C21 <0> d   1      17.914   3.769  12.563  0.00  0.00     0.111 A 
ENDBRANCH  23  24
ENDBRANCH   4  23
BRANCH   4  29
ATOM     29  C25 <0> d   1      18.387   0.279   9.553  0.00  0.00     0.027 A 
ATOM     30  C31 <0> d   1      19.513  -0.381   9.095  0.00  0.00     0.047 A 
ATOM     31  C30 <0> d   1      19.525  -0.925   7.823  0.00  0.00     0.048 A 
ATOM     32 Cl32 <0> d   1      20.905  -0.539  10.120  0.00  0.00    -0.084 Cl
ATOM     33  C28 <0> d   1      18.415  -0.797   7.007  0.00  0.00     0.035 A 
ATOM     34  C27 <0> d   1      17.292  -0.132   7.465  0.00  0.00     0.024 A 
ATOM     35 Cl29 <0> d   1      18.431  -1.473   5.407  0.00  0.00    -0.084 Cl
ATOM     36  C26 <0> d   1      17.280   0.407   8.738  0.00  0.00     0.016 A 
ENDBRANCH   4  29
TORSDOF 7
ENDMDL
MODEL 7
REMARK VINA RESULT:      -8.7      2.681      4.826
REMARK  7 active torsions:
REMARK  status: ('A' for Active; 'I' for Inactive)
REMARK       I    between atoms: C2_2  and  N4_4 
REMARK    1  A    between atoms: N7_7  and  C8_8 
REMARK    2  A    between atoms: C11_11  and  O12_12 
REMARK    3  A    between atoms: O12_12  and  C13_13 
REMARK    4  A    between atoms: C13_13  and  C14_14 
REMARK    5  A    between atoms: C18_17  and  C19_18 
REMARK    6  A    between atoms: C18_17  and  C25_24 
REMARK    7  A    between atoms: C19_18  and  N20_19 
ROOT
ATOM      1  C14 <0> d   1      17.693   4.752  12.288  0.00  0.00     0.173 C 
ATOM      2  C16 <0> d   1      19.210   4.744  12.604  0.00  0.00     0.206 C 
ATOM      3  O17 <0> d   1      19.248   4.457  14.017  0.00  0.00    -0.347 OA
ATOM      4  C18 <0> d   1      18.004   3.831  14.358  0.00  0.00     0.212 C 
ATOM      5  O33 <0> d   1      17.203   3.713  13.169  0.00  0.00    -0.340 OA
ENDROOT
BRANCH   1   6
ATOM      6  C13 <0> d   1      17.437   4.394  10.823  0.00  0.00     0.209 C 
BRANCH   6   7
ATOM      7  O12 <0> d   1      18.603   3.781  10.271  0.00  0.00    -0.349 OA
BRANCH   7   8
ATOM      8  C11 <0> d   1      18.507   2.469   9.926  0.00  0.00     0.069 A 
ATOM      9  C10 <0> d   1      19.242   1.977   8.859  0.00  0.00     0.039 A 
ATOM     10  C9  <0> d   1      19.146   0.645   8.508  0.00  0.00     0.032 A 
ATOM     11  C8  <0> d   1      18.311  -0.202   9.225  0.00  0.00     0.030 A 
ATOM     12  C35 <0> d   1      17.571   0.292  10.290  0.00  0.00     0.032 A 
ATOM     13  C34 <0> d   1      17.672   1.624  10.642  0.00  0.00     0.039 A 
BRANCH  11  14
ATOM     14  N7  <0> d   1      18.212  -1.552   8.870  0.00  0.00    -0.378 N 
ATOM     15  C6  <0> d   1      18.333  -1.968   7.466  0.00  0.00     0.143 C 
ATOM     16  C5  <0> d   1      19.445  -3.021   7.360  0.00  0.00     0.145 C 
ATOM     17  N4  <0> d   1      19.217  -4.048   8.386  0.00  0.00    -0.349 N 
ATOM     18  C2  <0> d   1      19.120  -5.348   8.044  0.00  0.00     0.215 C 
ATOM     19  C37 <0> d   1      19.090  -3.631   9.790  0.00  0.00     0.145 C 
ATOM     20  C1  <0> d   1      19.253  -5.760   6.600  0.00  0.00     0.117 C 
ATOM     21  O3  <0> d   1      18.928  -6.187   8.900  0.00  0.00    -0.274 OA
ATOM     22  C36 <0> d   1      17.984  -2.580   9.896  0.00  0.00     0.143 C 
ENDBRANCH  11  14
ENDBRANCH   7   8
ENDBRANCH   6   7
ENDBRANCH   1   6
BRANCH   4  23
ATOM     23  C19 <0> d   1      17.264   4.683  15.391  0.00  0.00     0.203 C 
BRANCH  23  24
ATOM     24  N20 <0> d   1      17.530   6.100  15.135  0.00  0.00    -0.345 N 
ATOM     25  C24 <0> d   1      18.628   6.791  15.510  0.00  0.00     0.209 A 
ATOM     26  N23 <0> d   1      18.507   8.025  15.102  0.00  0.00    -0.255 NA
ATOM     27  C22 <0> d   1      17.335   8.166  14.466  0.00  0.00     0.135 A 
ATOM     28  C21 <0> d   1      16.708   6.975  14.475  0.00  0.00     0.111 A 
ENDBRANCH  23  24
ENDBRANCH   4  23
BRANCH   4  29
ATOM     29  C25 <0> d   1      18.267   2.460  14.927  0.00  0.00     0.027 A 
ATOM     30  C31 <0> d   1      19.016   2.323  16.082  0.00  0.00     0.047 A 
ATOM     31  C30 <0> d   1      19.252   1.065  16.607  0.00  0.00     0.048 A 
ATOM     32 Cl32 <0> d   1      19.648   3.729  16.879  0.00  0.00    -0.084 Cl
ATOM     33  C28 <0> d   1      18.748  -0.055  15.970  0.00  0.00     0.035 A 
ATOM     34  C27 <0> d   1      18.004   0.083  14.812  0.00  0.00     0.024 A 
ATOM     35 Cl29 <0> d   1      19.050  -1.635  16.624  0.00  0.00    -0.084 Cl
ATOM     36  C26 <0> d   1      17.765   1.341  14.291  0.00  0.00     0.016 A 
ENDBRANCH   4  29
TORSDOF 7
ENDMDL
MODEL 8
REMARK VINA RESULT:      -8.7      3.295      8.454
REMARK  7 active torsions:
REMARK  status: ('A' for Active; 'I' for Inactive)
REMARK       I    between atoms: C2_2  and  N4_4 
REMARK    1  A    between atoms: N7_7  and  C8_8 
REMARK    2  A    between atoms: C11_11  and  O12_12 
REMARK    3  A    between atoms: O12_12  and  C13_13 
REMARK    4  A    between atoms: C13_13  and  C14_14 
REMARK    5  A    between atoms: C18_17  and  C19_18 
REMARK    6  A    between atoms: C18_17  and  C25_24 
REMARK    7  A    between atoms: C19_18  and  N20_19 
ROOT
ATOM      1  C14 <0> d   1      18.785  -0.723   9.573  0.00  0.00     0.173 C 
ATOM      2  C16 <0> d   1      17.330  -1.114   9.935  0.00  0.00     0.206 C 
ATOM      3  O17 <0> d   1      17.497  -1.964  11.087  0.00  0.00    -0.347 OA
ATOM      4  C18 <0> d   1      18.777  -1.660  11.659  0.00  0.00     0.212 C 
ATOM      5  O33 <0> d   1      19.396  -0.621  10.881  0.00  0.00    -0.340 OA
ENDROOT
BRANCH   1   6
ATOM      6  C13 <0> d   1      18.826   0.621   8.843  0.00  0.00     0.209 C 
BRANCH   6   7
ATOM      7  O12 <0> d   1      19.777   1.479   9.476  0.00  0.00    -0.349 OA
BRANCH   7   8
ATOM      8  C11 <0> d   1      19.291   2.403  10.348  0.00  0.00     0.069 A 
ATOM      9  C10 <0> d   1      19.878   2.556  11.595  0.00  0.00     0.039 A 
ATOM     10  C9  <0> d   1      19.386   3.494  12.481  0.00  0.00     0.032 A 
ATOM     11  C8  <0> d   1      18.302   4.284  12.123  0.00  0.00     0.030 A 
ATOM     12  C35 <0> d   1      17.711   4.126  10.876  0.00  0.00     0.032 A 
ATOM     13  C34 <0> d   1      18.208   3.191   9.990  0.00  0.00     0.039 A 
BRANCH  11  14
ATOM     14  N7  <0> d   1      17.801   5.235  13.019  0.00  0.00    -0.378 N 
ATOM     15  C6  <0> d   1      16.539   5.933  12.742  0.00  0.00     0.143 C 
ATOM     16  C5  <0> d   1      15.594   5.731  13.934  0.00  0.00     0.145 C 
ATOM     17  N4  <0> d   1      16.323   6.049  15.169  0.00  0.00    -0.349 N 
ATOM     18  C2  <0> d   1      15.842   6.965  16.033  0.00  0.00     0.215 C 
ATOM     19  C37 <0> d   1      17.589   5.354  15.444  0.00  0.00     0.145 C 
ATOM     20  C1  <0> d   1      14.542   7.669  15.738  0.00  0.00     0.117 C 
ATOM     21  O3  <0> d   1      16.455   7.223  17.048  0.00  0.00    -0.274 OA
ATOM     22  C36 <0> d   1      18.531   5.553  14.256  0.00  0.00     0.143 C 
ENDBRANCH  11  14
ENDBRANCH   7   8
ENDBRANCH   6   7
ENDBRANCH   1   6
BRANCH   4  23
ATOM     23  C19 <0> d   1      19.660  -2.910  11.640  0.00  0.00     0.203 C 
BRANCH  23  24
ATOM     24  N20 <0> d   1      18.877  -4.053  11.164  0.00  0.00    -0.345 N 
ATOM     25  C24 <0> d   1      18.917  -4.592   9.927  0.00  0.00     0.209 A 
ATOM     26  N23 <0> d   1      18.084  -5.596   9.880  0.00  0.00    -0.255 NA
ATOM     27  C22 <0> d   1      17.483  -5.727  11.072  0.00  0.00     0.135 A 
ATOM     28  C21 <0> d   1      17.965  -4.772  11.890  0.00  0.00     0.111 A 
ENDBRANCH  23  24
ENDBRANCH   4  23
BRANCH   4  29
ATOM     29  C25 <0> d   1      18.598  -1.188  13.079  0.00  0.00     0.027 A 
ATOM     30  C31 <0> d   1      17.719  -0.157  13.359  0.00  0.00     0.047 A 
ATOM     31  C30 <0> d   1      17.550   0.272  14.663  0.00  0.00     0.048 A 
ATOM     32 Cl32 <0> d   1      16.818   0.589  12.076  0.00  0.00    -0.084 Cl
ATOM     33  C28 <0> d   1      18.270  -0.323  15.685  0.00  0.00     0.035 A 
ATOM     34  C27 <0> d   1      19.152  -1.350  15.402  0.00  0.00     0.024 A 
ATOM     35 Cl29 <0> d   1      18.064   0.219  17.321  0.00  0.00    -0.084 Cl
ATOM     36  C26 <0> d   1      19.316  -1.781  14.099  0.00  0.00     0.016 A 
ENDBRANCH   4  29
TORSDOF 7
ENDMDL
MODEL 9
REMARK VINA RESULT:      -8.5      3.465      6.239
REMARK  7 active torsions:
REMARK  status: ('A' for Active; 'I' for Inactive)
REMARK       I    between atoms: C2_2  and  N4_4 
REMARK    1  A    between atoms: N7_7  and  C8_8 
REMARK    2  A    between atoms: C11_11  and  O12_12 
REMARK    3  A    between atoms: O12_12  and  C13_13 
REMARK    4  A    between atoms: C13_13  and  C14_14 
REMARK    5  A    between atoms: C18_17  and  C19_18 
REMARK    6  A    between atoms: C18_17  and  C25_24 
REMARK    7  A    between atoms: C19_18  and  N20_19 
ROOT
ATOM      1  C14 <0> d   1      18.256   2.801  11.339  0.00  0.00     0.173 C 
ATOM      2  C16 <0> d   1      19.706   2.451  11.759  0.00  0.00     0.206 C 
ATOM      3  O17 <0> d   1      19.517   1.483  12.812  0.00  0.00    -0.347 OA
ATOM      4  C18 <0> d   1      18.206   0.925  12.646  0.00  0.00     0.212 C 
ATOM      5  O33 <0> d   1      17.589   1.525  11.494  0.00  0.00    -0.340 OA
ENDROOT
BRANCH   1   6
ATOM      6  C13 <0> d   1      18.205   3.272   9.885  0.00  0.00     0.209 C 
BRANCH   6   7
ATOM      7  O12 <0> d   1      19.396   2.863   9.210  0.00  0.00    -0.349 OA
BRANCH   7   8
ATOM      8  C11 <0> d   1      19.324   1.726   8.466  0.00  0.00     0.069 A 
ATOM      9  C10 <0> d   1      19.699   0.511   9.018  0.00  0.00     0.039 A 
ATOM     10  C9  <0> d   1      19.626  -0.643   8.264  0.00  0.00     0.032 A 
ATOM     11  C8  <0> d   1      19.178  -0.586   6.951  0.00  0.00     0.030 A 
ATOM     12  C35 <0> d   1      18.808   0.631   6.396  0.00  0.00     0.032 A 
ATOM     13  C34 <0> d   1      18.877   1.784   7.154  0.00  0.00     0.039 A 
BRANCH  11  14
ATOM     14  N7  <0> d   1      19.104  -1.755   6.185  0.00  0.00    -0.378 N 
ATOM     15  C6  <0> d   1      19.279  -3.073   6.811  0.00  0.00     0.143 C 
ATOM     16  C5  <0> d   1      18.052  -3.936   6.487  0.00  0.00     0.145 C 
ATOM     17  N4  <0> d   1      17.800  -3.868   5.041  0.00  0.00    -0.349 N 
ATOM     18  C2  <0> d   1      17.730  -4.994   4.303  0.00  0.00     0.215 C 
ATOM     19  C37 <0> d   1      17.631  -2.549   4.413  0.00  0.00     0.145 C 
ATOM     20  C1  <0> d   1      17.905  -6.338   4.961  0.00  0.00     0.117 C 
ATOM     21  O3  <0> d   1      17.525  -4.924   3.109  0.00  0.00    -0.274 OA
ATOM     22  C36 <0> d   1      18.852  -1.687   4.738  0.00  0.00     0.143 C 
ENDBRANCH  11  14
ENDBRANCH   7   8
ENDBRANCH   6   7
ENDBRANCH   1   6
BRANCH   4  23
ATOM     23  C19 <0> d   1      17.362   1.213  13.889  0.00  0.00     0.203 C 
BRANCH  23  24
ATOM     24  N20 <0> d   1      18.199   1.847  14.911  0.00  0.00    -0.345 N 
ATOM     25  C24 <0> d   1      18.890   1.216  15.884  0.00  0.00     0.209 A 
ATOM     26  N23 <0> d   1      19.518   2.110  16.600  0.00  0.00    -0.255 NA
ATOM     27  C22 <0> d   1      19.246   3.331  16.118  0.00  0.00     0.135 A 
ATOM     28  C21 <0> d   1      18.423   3.190  15.061  0.00  0.00     0.111 A 
ENDBRANCH  23  24
ENDBRANCH   4  23
BRANCH   4  29
ATOM     29  C25 <0> d   1      18.313  -0.565  12.441  0.00  0.00     0.027 A 
ATOM     30  C31 <0> d   1      17.565  -1.182  11.454  0.00  0.00     0.047 A 
ATOM     31  C30 <0> d   1      17.668  -2.548  11.263  0.00  0.00     0.048 A 
ATOM     32 Cl32 <0> d   1      16.509  -0.241  10.449  0.00  0.00    -0.084 Cl
ATOM     33  C28 <0> d   1      18.510  -3.297  12.066  0.00  0.00     0.035 A 
ATOM     34  C27 <0> d   1      19.252  -2.679  13.056  0.00  0.00     0.024 A 
ATOM     35 Cl29 <0> d   1      18.634  -5.013  11.831  0.00  0.00    -0.084 Cl
ATOM     36  C26 <0> d   1      19.153  -1.313  13.243  0.00  0.00     0.016 A 
ENDBRANCH   4  29
TORSDOF 7
ENDMDL
