MODEL 1
REMARK VINA RESULT:      -9.3      0.000      0.000
REMARK  7 active torsions:
REMARK  status: ('A' for Active; 'I' for Inactive)
REMARK    1  A    between atoms: C2_2  and  C3_3 
REMARK       I    between atoms: N7_7  and  C8_8 
REMARK       I    between atoms: C8_8  and  N10_10 
REMARK    2  A    between atoms: N10_10  and  C11_11 
REMARK    3  A    between atoms: C11_11  and  C12_12 
REMARK    4  A    between atoms: C12_12  and  C13_13 
REMARK    5  A    between atoms: C16_16  and  S17_17 
REMARK    6  A    between atoms: S17_17  and  N20_20 
REMARK       I    between atoms: N20_20  and  C21_21 
REMARK       I    between atoms: C21_21  and  N23_23 
REMARK    7  A    between atoms: N23_23  and  C24_24 
ROOT
ATOM      1  C13 ZIN A   1      18.317   0.440   6.189  0.00  0.00    -0.057 A 
ATOM      2  C14 ZIN A   1      17.343  -0.214   6.920  0.00  0.00     0.009 A 
ATOM      3  C15 ZIN A   1      17.272  -0.038   8.290  0.00  0.00     0.026 A 
ATOM      4  C16 ZIN A   1      18.174   0.793   8.928  0.00  0.00     0.081 A 
ATOM      5  C31 ZIN A   1      19.147   1.447   8.197  0.00  0.00     0.026 A 
ATOM      6  C32 ZIN A   1      19.222   1.268   6.828  0.00  0.00     0.009 A 
ENDROOT
BRANCH   1   7
ATOM      7  C12 ZIN A   1      18.395   0.248   4.697  0.00  0.00     0.058 C 
BRANCH   7   8
ATOM      8  C11 ZIN A   1      19.320  -0.930   4.382  0.00  0.00     0.129 C 
BRANCH   8   9
ATOM      9  N10 ZIN A   1      18.559  -2.180   4.452  0.00  0.00    -0.342 N 
ATOM     10  C8  ZIN A   1      18.987  -3.186   5.239  0.00  0.00     0.325 C 
ATOM     11  N7  ZIN A   1      18.287  -4.336   5.304  0.00  0.00    -0.262 N 
ATOM     12  O9  ZIN A   1      20.005  -3.056   5.892  0.00  0.00    -0.247 OA
ATOM     13  C6  ZIN A   1      18.625  -5.516   6.111  0.00  0.00     0.171 A 
ATOM     14  C33 ZIN A   1      17.154  -4.618   4.635  0.00  0.00     0.258 A 
ATOM     15  C4  ZIN A   1      17.537  -6.528   5.836  0.00  0.00    -0.054 A 
ATOM     16  C3  ZIN A   1      16.694  -5.968   4.973  0.00  0.00     0.013 A 
ATOM     17  C5  ZIN A   1      17.428  -7.910   6.426  0.00  0.00     0.046 C 
ATOM     18  O34 ZIN A   1      16.589  -3.861   3.870  0.00  0.00    -0.267 OA
ATOM     19  H45 ZIN A   1      17.747  -2.283   3.931  0.00  0.00     0.164 HD
BRANCH  16  20
ATOM     20  C2  ZIN A   1      15.455  -6.625   4.421  0.00  0.00     0.040 C 
ATOM     21  C1  ZIN A   1      14.240  -6.198   5.246  0.00  0.00     0.010 C 
ENDBRANCH  16  20
ENDBRANCH   8   9
ENDBRANCH   7   8
ENDBRANCH   1   7
BRANCH   4  22
ATOM     22  S17 ZIN A   1      18.081   1.019  10.673  0.00  0.00     0.287 S 
ATOM     23  O18 ZIN A   1      19.419   1.150  11.132  0.00  0.00    -0.198 OA
ATOM     24  O19 ZIN A   1      17.082   2.004  10.897  0.00  0.00    -0.198 OA
BRANCH  22  25
ATOM     25  N20 ZIN A   1      17.501  -0.393  11.318  0.00  0.00    -0.102 NA
ATOM     26  C21 ZIN A   1      18.233  -1.521  11.236  0.00  0.00     0.353 C 
ATOM     27  O22 ZIN A   1      19.318  -1.503  10.689  0.00  0.00    -0.244 OA
ATOM     28  N23 ZIN A   1      17.762  -2.669  11.763  0.00  0.00    -0.336 N 
ATOM     29  H52 ZIN A   1      16.896  -2.683  12.199  0.00  0.00     0.164 HD
BRANCH  28  30
ATOM     30  C24 ZIN A   1      18.558  -3.896  11.673  0.00  0.00     0.086 C 
ATOM     31  C30 ZIN A   1      18.979  -4.125  10.219  0.00  0.00     0.026 C 
ATOM     32  C29 ZIN A   1      17.733  -4.259   9.342  0.00  0.00     0.006 C 
ATOM     33  C27 ZIN A   1      16.895  -5.445   9.823  0.00  0.00    -0.019 C 
ATOM     34  C26 ZIN A   1      16.474  -5.217  11.276  0.00  0.00     0.006 C 
ATOM     35  C28 ZIN A   1      15.650  -5.579   8.944  0.00  0.00     0.010 C 
ATOM     36  C25 ZIN A   1      17.720  -5.083  12.153  0.00  0.00     0.026 C 
ENDBRANCH  28  30
ENDBRANCH  22  25
ENDBRANCH   4  22
TORSDOF 7
ENDMDL
MODEL 2
REMARK VINA RESULT:      -9.3      3.386      8.074
REMARK  7 active torsions:
REMARK  status: ('A' for Active; 'I' for Inactive)
REMARK    1  A    between atoms: C2_2  and  C3_3 
REMARK       I    between atoms: N7_7  and  C8_8 
REMARK       I    between atoms: C8_8  and  N10_10 
REMARK    2  A    between atoms: N10_10  and  C11_11 
REMARK    3  A    between atoms: C11_11  and  C12_12 
REMARK    4  A    between atoms: C12_12  and  C13_13 
REMARK    5  A    between atoms: C16_16  and  S17_17 
REMARK    6  A    between atoms: S17_17  and  N20_20 
REMARK       I    between atoms: N20_20  and  C21_21 
REMARK       I    between atoms: C21_21  and  N23_23 
REMARK    7  A    between atoms: N23_23  and  C24_24 
ROOT
ATOM      1  C13 ZIN A   1      19.117   1.620   8.768  0.00  0.00    -0.057 A 
ATOM      2  C14 ZIN A   1      18.896   2.182   7.525  0.00  0.00     0.009 A 
ATOM      3  C15 ZIN A   1      18.767   1.370   6.412  0.00  0.00     0.026 A 
ATOM      4  C16 ZIN A   1      18.859  -0.003   6.544  0.00  0.00     0.081 A 
ATOM      5  C31 ZIN A   1      19.081  -0.565   7.787  0.00  0.00     0.026 A 
ATOM      6  C32 ZIN A   1      19.214   0.246   8.899  0.00  0.00     0.009 A 
ENDROOT
BRANCH   1   7
ATOM      7  C12 ZIN A   1      19.258   2.503   9.980  0.00  0.00     0.058 C 
BRANCH   7   8
ATOM      8  C11 ZIN A   1      17.887   2.694  10.634  0.00  0.00     0.129 C 
BRANCH   8   9
ATOM      9  N10 ZIN A   1      17.878   2.043  11.947  0.00  0.00    -0.342 N 
ATOM     10  C8  ZIN A   1      18.291   2.721  13.037  0.00  0.00     0.325 C 
ATOM     11  N7  ZIN A   1      18.283   2.124  14.245  0.00  0.00    -0.262 N 
ATOM     12  O9  ZIN A   1      18.669   3.872  12.930  0.00  0.00    -0.247 OA
ATOM     13  C6  ZIN A   1      18.699   2.727  15.517  0.00  0.00     0.171 A 
ATOM     14  C33 ZIN A   1      17.897   0.861  14.507  0.00  0.00     0.258 A 
ATOM     15  C4  ZIN A   1      18.502   1.658  16.565  0.00  0.00    -0.054 A 
ATOM     16  C3  ZIN A   1      18.029   0.583  15.940  0.00  0.00     0.013 A 
ATOM     17  C5  ZIN A   1      18.788   1.783  18.040  0.00  0.00     0.046 C 
ATOM     18  O34 ZIN A   1      17.491   0.069  13.679  0.00  0.00    -0.267 OA
ATOM     19  H45 ZIN A   1      17.576   1.126  12.032  0.00  0.00     0.164 HD
BRANCH  16  20
ATOM     20  C2  ZIN A   1      17.688  -0.726  16.604  0.00  0.00     0.040 C 
ATOM     21  C1  ZIN A   1      18.879  -1.679  16.496  0.00  0.00     0.010 C 
ENDBRANCH  16  20
ENDBRANCH   8   9
ENDBRANCH   7   8
ENDBRANCH   1   7
BRANCH   4  22
ATOM     22  S17 ZIN A   1      18.693  -1.036   5.127  0.00  0.00     0.287 S 
ATOM     23  O18 ZIN A   1      17.741  -0.406   4.280  0.00  0.00    -0.198 OA
ATOM     24  O19 ZIN A   1      20.012  -1.358   4.708  0.00  0.00    -0.198 OA
BRANCH  22  25
ATOM     25  N20 ZIN A   1      18.002  -2.454   5.633  0.00  0.00    -0.102 NA
ATOM     26  C21 ZIN A   1      18.782  -3.484   6.015  0.00  0.00     0.353 C 
ATOM     27  O22 ZIN A   1      19.993  -3.373   5.988  0.00  0.00    -0.244 OA
ATOM     28  N23 ZIN A   1      18.220  -4.638   6.428  0.00  0.00    -0.336 N 
ATOM     29  H52 ZIN A   1      17.255  -4.727   6.449  0.00  0.00     0.164 HD
BRANCH  28  30
ATOM     30  C24 ZIN A   1      19.069  -5.758   6.842  0.00  0.00     0.086 C 
ATOM     31  C30 ZIN A   1      18.190  -6.963   7.187  0.00  0.00     0.026 C 
ATOM     32  C29 ZIN A   1      17.240  -6.592   8.328  0.00  0.00     0.006 C 
ATOM     33  C27 ZIN A   1      18.054  -6.186   9.558  0.00  0.00    -0.019 C 
ATOM     34  C26 ZIN A   1      18.933  -4.981   9.213  0.00  0.00     0.006 C 
ATOM     35  C28 ZIN A   1      17.104  -5.815  10.699  0.00  0.00     0.010 C 
ATOM     36  C25 ZIN A   1      19.883  -5.352   8.073  0.00  0.00     0.026 C 
ENDBRANCH  28  30
ENDBRANCH  22  25
ENDBRANCH   4  22
TORSDOF 7
ENDMDL
MODEL 3
REMARK VINA RESULT:      -9.2      3.187      7.739
REMARK  7 active torsions:
REMARK  status: ('A' for Active; 'I' for Inactive)
REMARK    1  A    between atoms: C2_2  and  C3_3 
REMARK       I    between atoms: N7_7  and  C8_8 
REMARK       I    between atoms: C8_8  and  N10_10 
REMARK    2  A    between atoms: N10_10  and  C11_11 
REMARK    3  A    between atoms: C11_11  and  C12_12 
REMARK    4  A    between atoms: C12_12  and  C13_13 
REMARK    5  A    between atoms: C16_16  and  S17_17 
REMARK    6  A    between atoms: S17_17  and  N20_20 
REMARK       I    between atoms: N20_20  and  C21_21 
REMARK       I    between atoms: C21_21  and  N23_23 
REMARK    7  A    between atoms: N23_23  and  C24_24 
ROOT
ATOM      1  C13 ZIN A   1      18.409   1.731   8.815  0.00  0.00    -0.057 A 
ATOM      2  C14 ZIN A   1      19.148   2.010   7.680  0.00  0.00     0.009 A 
ATOM      3  C15 ZIN A   1      19.184   1.102   6.638  0.00  0.00     0.026 A 
ATOM      4  C16 ZIN A   1      18.481  -0.085   6.731  0.00  0.00     0.081 A 
ATOM      5  C31 ZIN A   1      17.744  -0.365   7.865  0.00  0.00     0.026 A 
ATOM      6  C32 ZIN A   1      17.710   0.541   8.909  0.00  0.00     0.009 A 
ENDROOT
BRANCH   1   7
ATOM      7  C12 ZIN A   1      18.369   2.720   9.950  0.00  0.00     0.058 C 
BRANCH   7   8
ATOM      8  C11 ZIN A   1      19.662   2.616  10.763  0.00  0.00     0.129 C 
BRANCH   8   9
ATOM      9  N10 ZIN A   1      19.348   2.186  12.128  0.00  0.00    -0.342 N 
ATOM     10  C8  ZIN A   1      19.612   0.922  12.514  0.00  0.00     0.325 C 
ATOM     11  N7  ZIN A   1      19.323   0.526  13.769  0.00  0.00    -0.262 N 
ATOM     12  O9  ZIN A   1      20.111   0.139  11.729  0.00  0.00    -0.247 OA
ATOM     13  C6  ZIN A   1      19.551  -0.809  14.335  0.00  0.00     0.171 A 
ATOM     14  C33 ZIN A   1      18.766   1.281  14.735  0.00  0.00     0.258 A 
ATOM     15  C4  ZIN A   1      19.062  -0.742  15.763  0.00  0.00    -0.054 A 
ATOM     16  C3  ZIN A   1      18.615   0.495  15.962  0.00  0.00     0.013 A 
ATOM     17  C5  ZIN A   1      19.077  -1.862  16.770  0.00  0.00     0.046 C 
ATOM     18  O34 ZIN A   1      18.444   2.447  14.610  0.00  0.00    -0.267 OA
ATOM     19  H45 ZIN A   1      18.949   2.811  12.753  0.00  0.00     0.164 HD
BRANCH  16  20
ATOM     20  C2  ZIN A   1      18.032   1.008  17.254  0.00  0.00     0.040 C 
ATOM     21  C1  ZIN A   1      19.142   1.635  18.100  0.00  0.00     0.010 C 
ENDBRANCH  16  20
ENDBRANCH   8   9
ENDBRANCH   7   8
ENDBRANCH   1   7
BRANCH   4  22
ATOM     22  S17 ZIN A   1      18.527  -1.241   5.401  0.00  0.00     0.287 S 
ATOM     23  O18 ZIN A   1      17.588  -0.782   4.438  0.00  0.00    -0.198 OA
ATOM     24  O19 ZIN A   1      19.899  -1.459   5.106  0.00  0.00    -0.198 OA
BRANCH  22  25
ATOM     25  N20 ZIN A   1      17.938  -2.677   5.981  0.00  0.00    -0.102 NA
ATOM     26  C21 ZIN A   1      18.741  -3.498   6.684  0.00  0.00     0.353 C 
ATOM     27  O22 ZIN A   1      19.897  -3.187   6.894  0.00  0.00    -0.244 OA
ATOM     28  N23 ZIN A   1      18.262  -4.667   7.157  0.00  0.00    -0.336 N 
ATOM     29  H52 ZIN A   1      17.340  -4.916   6.989  0.00  0.00     0.164 HD
BRANCH  28  30
ATOM     30  C24 ZIN A   1      19.135  -5.561   7.921  0.00  0.00     0.086 C 
ATOM     31  C30 ZIN A   1      18.328  -6.764   8.414  0.00  0.00     0.026 C 
ATOM     32  C29 ZIN A   1      17.185  -6.278   9.309  0.00  0.00     0.006 C 
ATOM     33  C27 ZIN A   1      17.761  -5.524  10.509  0.00  0.00    -0.019 C 
ATOM     34  C26 ZIN A   1      18.569  -4.322  10.015  0.00  0.00     0.006 C 
ATOM     35  C28 ZIN A   1      16.618  -5.040  11.403  0.00  0.00     0.010 C 
ATOM     36  C25 ZIN A   1      19.711  -4.807   9.122  0.00  0.00     0.026 C 
ENDBRANCH  28  30
ENDBRANCH  22  25
ENDBRANCH   4  22
TORSDOF 7
ENDMDL
MODEL 4
REMARK VINA RESULT:      -9.2      6.538     11.851
REMARK  7 active torsions:
REMARK  status: ('A' for Active; 'I' for Inactive)
REMARK    1  A    between atoms: C2_2  and  C3_3 
REMARK       I    between atoms: N7_7  and  C8_8 
REMARK       I    between atoms: C8_8  and  N10_10 
REMARK    2  A    between atoms: N10_10  and  C11_11 
REMARK    3  A    between atoms: C11_11  and  C12_12 
REMARK    4  A    between atoms: C12_12  and  C13_13 
REMARK    5  A    between atoms: C16_16  and  S17_17 
REMARK    6  A    between atoms: S17_17  and  N20_20 
REMARK       I    between atoms: N20_20  and  C21_21 
REMARK       I    between atoms: C21_21  and  N23_23 
REMARK    7  A    between atoms: N23_23  and  C24_24 
ROOT
ATOM      1  C13 ZIN A   1      18.345  -0.408  16.604  0.00  0.00    -0.057 A 
ATOM      2  C14 ZIN A   1      17.381   0.269  15.880  0.00  0.00     0.009 A 
ATOM      3  C15 ZIN A   1      17.291   0.089  14.511  0.00  0.00     0.026 A 
ATOM      4  C16 ZIN A   1      18.165  -0.768  13.868  0.00  0.00     0.081 A 
ATOM      5  C31 ZIN A   1      19.128  -1.444  14.592  0.00  0.00     0.026 A 
ATOM      6  C32 ZIN A   1      19.221  -1.262  15.959  0.00  0.00     0.009 A 
ENDROOT
BRANCH   1   7
ATOM      7  C12 ZIN A   1      18.443  -0.212  18.094  0.00  0.00     0.058 C 
BRANCH   7   8
ATOM      8  C11 ZIN A   1      19.416   0.930  18.395  0.00  0.00     0.129 C 
BRANCH   8   9
ATOM      9  N10 ZIN A   1      18.704   2.209  18.329  0.00  0.00    -0.342 N 
ATOM     10  C8  ZIN A   1      19.126   3.171  17.485  0.00  0.00     0.325 C 
ATOM     11  N7  ZIN A   1      18.471   4.348  17.423  0.00  0.00    -0.262 N 
ATOM     12  O9  ZIN A   1      20.097   2.979  16.780  0.00  0.00    -0.247 OA
ATOM     13  C6  ZIN A   1      18.807   5.487  16.560  0.00  0.00     0.171 A 
ATOM     14  C33 ZIN A   1      17.391   4.698  18.146  0.00  0.00     0.258 A 
ATOM     15  C4  ZIN A   1      17.780   6.552  16.863  0.00  0.00    -0.054 A 
ATOM     16  C3  ZIN A   1      16.967   6.055  17.791  0.00  0.00     0.013 A 
ATOM     17  C5  ZIN A   1      17.693   7.919  16.235  0.00  0.00     0.046 C 
ATOM     18  O34 ZIN A   1      16.842   3.989  18.968  0.00  0.00    -0.267 OA
ATOM     19  H45 ZIN A   1      17.929   2.362  18.891  0.00  0.00     0.164 HD
BRANCH  16  20
ATOM     20  C2  ZIN A   1      15.791   6.781  18.392  0.00  0.00     0.040 C 
ATOM     21  C1  ZIN A   1      14.500   6.296  17.731  0.00  0.00     0.010 C 
ENDBRANCH  16  20
ENDBRANCH   8   9
ENDBRANCH   7   8
ENDBRANCH   1   7
BRANCH   4  22
ATOM     22  S17 ZIN A   1      18.048  -0.998  12.125  0.00  0.00     0.287 S 
ATOM     23  O18 ZIN A   1      19.382  -1.082  11.641  0.00  0.00    -0.198 OA
ATOM     24  O19 ZIN A   1      17.082  -2.019  11.919  0.00  0.00    -0.198 OA
BRANCH  22  25
ATOM     25  N20 ZIN A   1      17.407   0.391  11.490  0.00  0.00    -0.102 NA
ATOM     26  C21 ZIN A   1      18.160   1.505  11.413  0.00  0.00     0.353 C 
ATOM     27  O22 ZIN A   1      19.309   1.492  11.809  0.00  0.00    -0.244 OA
ATOM     28  N23 ZIN A   1      17.638   2.636  10.895  0.00  0.00    -0.336 N 
ATOM     29  H52 ZIN A   1      16.722   2.647  10.579  0.00  0.00     0.164 HD
BRANCH  28  30
ATOM     30  C24 ZIN A   1      18.457   3.848  10.812  0.00  0.00     0.086 C 
ATOM     31  C30 ZIN A   1      19.030   4.172  12.193  0.00  0.00     0.026 C 
ATOM     32  C29 ZIN A   1      17.884   4.396  13.182  0.00  0.00     0.006 C 
ATOM     33  C27 ZIN A   1      17.018   5.563  12.703  0.00  0.00    -0.019 C 
ATOM     34  C26 ZIN A   1      16.445   5.240  11.322  0.00  0.00     0.006 C 
ATOM     35  C28 ZIN A   1      15.873   5.787  13.692  0.00  0.00     0.010 C 
ATOM     36  C25 ZIN A   1      17.590   5.016  10.333  0.00  0.00     0.026 C 
ENDBRANCH  28  30
ENDBRANCH  22  25
ENDBRANCH   4  22
TORSDOF 7
ENDMDL
MODEL 5
REMARK VINA RESULT:      -9.0      3.365      8.446
REMARK  7 active torsions:
REMARK  status: ('A' for Active; 'I' for Inactive)
REMARK    1  A    between atoms: C2_2  and  C3_3 
REMARK       I    between atoms: N7_7  and  C8_8 
REMARK       I    between atoms: C8_8  and  N10_10 
REMARK    2  A    between atoms: N10_10  and  C11_11 
REMARK    3  A    between atoms: C11_11  and  C12_12 
REMARK    4  A    between atoms: C12_12  and  C13_13 
REMARK    5  A    between atoms: C16_16  and  S17_17 
REMARK    6  A    between atoms: S17_17  and  N20_20 
REMARK       I    between atoms: N20_20  and  C21_21 
REMARK       I    between atoms: C21_21  and  N23_23 
REMARK    7  A    between atoms: N23_23  and  C24_24 
ROOT
ATOM      1  C13 ZIN A   1      19.147   1.554   8.803  0.00  0.00    -0.057 A 
ATOM      2  C14 ZIN A   1      18.961   2.096   7.545  0.00  0.00     0.009 A 
ATOM      3  C15 ZIN A   1      18.823   1.265   6.448  0.00  0.00     0.026 A 
ATOM      4  C16 ZIN A   1      18.872  -0.107   6.609  0.00  0.00     0.081 A 
ATOM      5  C31 ZIN A   1      19.058  -0.648   7.867  0.00  0.00     0.026 A 
ATOM      6  C32 ZIN A   1      19.200   0.181   8.963  0.00  0.00     0.009 A 
ENDROOT
BRANCH   1   7
ATOM      7  C12 ZIN A   1      19.297   2.459   9.998  0.00  0.00     0.058 C 
BRANCH   7   8
ATOM      8  C11 ZIN A   1      17.926   2.686  10.640  0.00  0.00     0.129 C 
BRANCH   8   9
ATOM      9  N10 ZIN A   1      17.889   2.038  11.954  0.00  0.00    -0.342 N 
ATOM     10  C8  ZIN A   1      18.331   2.698  13.043  0.00  0.00     0.325 C 
ATOM     11  N7  ZIN A   1      18.297   2.102  14.252  0.00  0.00    -0.262 N 
ATOM     12  O9  ZIN A   1      18.759   3.831  12.935  0.00  0.00    -0.247 OA
ATOM     13  C6  ZIN A   1      18.740   2.688  15.523  0.00  0.00     0.171 A 
ATOM     14  C33 ZIN A   1      17.857   0.857  14.515  0.00  0.00     0.258 A 
ATOM     15  C4  ZIN A   1      18.497   1.628  16.572  0.00  0.00    -0.054 A 
ATOM     16  C3  ZIN A   1      17.977   0.575  15.948  0.00  0.00     0.013 A 
ATOM     17  C5  ZIN A   1      18.788   1.742  18.046  0.00  0.00     0.046 C 
ATOM     18  O34 ZIN A   1      17.417   0.084  13.687  0.00  0.00    -0.267 OA
ATOM     19  H45 ZIN A   1      17.547   1.134  12.040  0.00  0.00     0.164 HD
BRANCH  16  20
ATOM     20  C2  ZIN A   1      17.579  -0.717  16.613  0.00  0.00     0.040 C 
ATOM     21  C1  ZIN A   1      18.713  -1.735  16.470  0.00  0.00     0.010 C 
ENDBRANCH  16  20
ENDBRANCH   8   9
ENDBRANCH   7   8
ENDBRANCH   1   7
BRANCH   4  22
ATOM     22  S17 ZIN A   1      18.695  -1.164   5.211  0.00  0.00     0.287 S 
ATOM     23  O18 ZIN A   1      17.628  -0.632   4.437  0.00  0.00    -0.198 OA
ATOM     24  O19 ZIN A   1      20.002  -1.369   4.695  0.00  0.00    -0.198 OA
BRANCH  22  25
ATOM     25  N20 ZIN A   1      18.177  -2.635   5.772  0.00  0.00    -0.102 NA
ATOM     26  C21 ZIN A   1      17.659  -3.537   4.916  0.00  0.00     0.353 C 
ATOM     27  O22 ZIN A   1      17.571  -3.272   3.732  0.00  0.00    -0.244 OA
ATOM     28  N23 ZIN A   1      17.238  -4.734   5.372  0.00  0.00    -0.336 N 
ATOM     29  H52 ZIN A   1      17.307  -4.945   6.315  0.00  0.00     0.164 HD
BRANCH  28  30
ATOM     30  C24 ZIN A   1      16.674  -5.715   4.441  0.00  0.00     0.086 C 
ATOM     31  C30 ZIN A   1      15.210  -5.977   4.802  0.00  0.00     0.026 C 
ATOM     32  C29 ZIN A   1      15.126  -6.521   6.230  0.00  0.00     0.006 C 
ATOM     33  C27 ZIN A   1      15.917  -7.827   6.325  0.00  0.00    -0.019 C 
ATOM     34  C26 ZIN A   1      17.380  -7.565   5.964  0.00  0.00     0.006 C 
ATOM     35  C28 ZIN A   1      15.832  -8.371   7.753  0.00  0.00     0.010 C 
ATOM     36  C25 ZIN A   1      17.464  -7.022   4.537  0.00  0.00     0.026 C 
ENDBRANCH  28  30
ENDBRANCH  22  25
ENDBRANCH   4  22
TORSDOF 7
ENDMDL
MODEL 6
REMARK VINA RESULT:      -9.0      4.865      8.980
REMARK  7 active torsions:
REMARK  status: ('A' for Active; 'I' for Inactive)
REMARK    1  A    between atoms: C2_2  and  C3_3 
REMARK       I    between atoms: N7_7  and  C8_8 
REMARK       I    between atoms: C8_8  and  N10_10 
REMARK    2  A    between atoms: N10_10  and  C11_11 
REMARK    3  A    between atoms: C11_11  and  C12_12 
REMARK    4  A    between atoms: C12_12  and  C13_13 
REMARK    5  A    between atoms: C16_16  and  S17_17 
REMARK    6  A    between atoms: S17_17  and  N20_20 
REMARK       I    between atoms: N20_20  and  C21_21 
REMARK       I    between atoms: C21_21  and  N23_23 
REMARK    7  A    between atoms: N23_23  and  C24_24 
ROOT
ATOM      1  C13 ZIN A   1      19.791   5.544  14.295  0.00  0.00    -0.057 A 
ATOM      2  C14 ZIN A   1      20.375   5.044  13.146  0.00  0.00     0.009 A 
ATOM      3  C15 ZIN A   1      19.586   4.692  12.066  0.00  0.00     0.026 A 
ATOM      4  C16 ZIN A   1      18.213   4.840  12.136  0.00  0.00     0.081 A 
ATOM      5  C31 ZIN A   1      17.629   5.339  13.285  0.00  0.00     0.026 A 
ATOM      6  C32 ZIN A   1      18.417   5.687  14.366  0.00  0.00     0.009 A 
ENDROOT
BRANCH   1   7
ATOM      7  C12 ZIN A   1      20.651   5.927  15.471  0.00  0.00     0.058 C 
BRANCH   7   8
ATOM      8  C11 ZIN A   1      20.391   4.962  16.629  0.00  0.00     0.129 C 
BRANCH   8   9
ATOM      9  N10 ZIN A   1      19.908   3.683  16.100  0.00  0.00    -0.342 N 
ATOM     10  C8  ZIN A   1      19.543   2.699  16.945  0.00  0.00     0.325 C 
ATOM     11  N7  ZIN A   1      19.099   1.523  16.458  0.00  0.00    -0.262 N 
ATOM     12  O9  ZIN A   1      19.614   2.872  18.147  0.00  0.00    -0.247 OA
ATOM     13  C6  ZIN A   1      18.668   0.362  17.247  0.00  0.00     0.171 A 
ATOM     14  C33 ZIN A   1      18.976   1.193  15.159  0.00  0.00     0.258 A 
ATOM     15  C4  ZIN A   1      18.267  -0.693  16.243  0.00  0.00    -0.054 A 
ATOM     16  C3  ZIN A   1      18.456  -0.171  15.034  0.00  0.00     0.013 A 
ATOM     17  C5  ZIN A   1      17.751  -2.075  16.551  0.00  0.00     0.046 C 
ATOM     18  O34 ZIN A   1      19.247   1.924  14.226  0.00  0.00    -0.267 OA
ATOM     19  H45 ZIN A   1      19.852   3.546  15.141  0.00  0.00     0.164 HD
BRANCH  16  20
ATOM     20  C2  ZIN A   1      18.184  -0.879  13.732  0.00  0.00     0.040 C 
ATOM     21  C1  ZIN A   1      17.081  -0.141  12.970  0.00  0.00     0.010 C 
ENDBRANCH  16  20
ENDBRANCH   8   9
ENDBRANCH   7   8
ENDBRANCH   1   7
BRANCH   4  22
ATOM     22  S17 ZIN A   1      17.208   4.393  10.760  0.00  0.00     0.287 S 
ATOM     23  O18 ZIN A   1      15.875   4.744  11.105  0.00  0.00    -0.198 OA
ATOM     24  O19 ZIN A   1      17.868   4.889   9.603  0.00  0.00    -0.198 OA
BRANCH  22  25
ATOM     25  N20 ZIN A   1      17.241   2.740  10.646  0.00  0.00    -0.102 NA
ATOM     26  C21 ZIN A   1      18.124   2.140   9.824  0.00  0.00     0.353 C 
ATOM     27  O22 ZIN A   1      18.896   2.811   9.166  0.00  0.00    -0.244 OA
ATOM     28  N23 ZIN A   1      18.152   0.795   9.732  0.00  0.00    -0.336 N 
ATOM     29  H52 ZIN A   1      17.537   0.261  10.256  0.00  0.00     0.164 HD
BRANCH  28  30
ATOM     30  C24 ZIN A   1      19.112   0.143   8.837  0.00  0.00     0.086 C 
ATOM     31  C30 ZIN A   1      18.457  -1.080   8.192  0.00  0.00     0.026 C 
ATOM     32  C29 ZIN A   1      18.025  -2.063   9.283  0.00  0.00     0.006 C 
ATOM     33  C27 ZIN A   1      19.250  -2.505  10.085  0.00  0.00    -0.019 C 
ATOM     34  C26 ZIN A   1      19.905  -1.282  10.730  0.00  0.00     0.006 C 
ATOM     35  C28 ZIN A   1      18.818  -3.488  11.175  0.00  0.00     0.010 C 
ATOM     36  C25 ZIN A   1      20.338  -0.300   9.640  0.00  0.00     0.026 C 
ENDBRANCH  28  30
ENDBRANCH  22  25
ENDBRANCH   4  22
TORSDOF 7
ENDMDL
MODEL 7
REMARK VINA RESULT:      -9.0      3.850      8.611
REMARK  7 active torsions:
REMARK  status: ('A' for Active; 'I' for Inactive)
REMARK    1  A    between atoms: C2_2  and  C3_3 
REMARK       I    between atoms: N7_7  and  C8_8 
REMARK       I    between atoms: C8_8  and  N10_10 
REMARK    2  A    between atoms: N10_10  and  C11_11 
REMARK    3  A    between atoms: C11_11  and  C12_12 
REMARK    4  A    between atoms: C12_12  and  C13_13 
REMARK    5  A    between atoms: C16_16  and  S17_17 
REMARK    6  A    between atoms: S17_17  and  N20_20 
REMARK       I    between atoms: N20_20  and  C21_21 
REMARK       I    between atoms: C21_21  and  N23_23 
REMARK    7  A    between atoms: N23_23  and  C24_24 
ROOT
ATOM      1  C13 ZIN A   1      18.739   2.512  10.885  0.00  0.00    -0.057 A 
ATOM      2  C14 ZIN A   1      17.557   1.985  10.400  0.00  0.00     0.009 A 
ATOM      3  C15 ZIN A   1      17.381   0.614  10.347  0.00  0.00     0.026 A 
ATOM      4  C16 ZIN A   1      18.388  -0.229  10.778  0.00  0.00     0.081 A 
ATOM      5  C31 ZIN A   1      19.571   0.298  11.262  0.00  0.00     0.026 A 
ATOM      6  C32 ZIN A   1      19.748   1.668  11.313  0.00  0.00     0.009 A 
ENDROOT
BRANCH   1   7
ATOM      7  C12 ZIN A   1      18.930   4.005  10.944  0.00  0.00     0.058 C 
BRANCH   7   8
ATOM      8  C11 ZIN A   1      18.289   4.551  12.223  0.00  0.00     0.129 C 
BRANCH   8   9
ATOM      9  N10 ZIN A   1      18.155   3.468  13.202  0.00  0.00    -0.342 N 
ATOM     10  C8  ZIN A   1      18.730   3.583  14.415  0.00  0.00     0.325 C 
ATOM     11  N7  ZIN A   1      18.607   2.588  15.316  0.00  0.00    -0.262 N 
ATOM     12  O9  ZIN A   1      19.360   4.584  14.698  0.00  0.00    -0.247 OA
ATOM     13  C6  ZIN A   1      19.172   2.565  16.671  0.00  0.00     0.171 A 
ATOM     14  C33 ZIN A   1      17.947   1.428  15.137  0.00  0.00     0.258 A 
ATOM     15  C4  ZIN A   1      18.754   1.243  17.270  0.00  0.00    -0.054 A 
ATOM     16  C3  ZIN A   1      18.037   0.607  16.348  0.00  0.00     0.013 A 
ATOM     17  C5  ZIN A   1      19.087   0.739  18.651  0.00  0.00     0.046 C 
ATOM     18  O34 ZIN A   1      17.357   1.111  14.123  0.00  0.00    -0.267 OA
ATOM     19  H45 ZIN A   1      17.652   2.670  12.976  0.00  0.00     0.164 HD
BRANCH  16  20
ATOM     20  C2  ZIN A   1      17.417  -0.755  16.519  0.00  0.00     0.040 C 
ATOM     21  C1  ZIN A   1      18.413  -1.829  16.077  0.00  0.00     0.010 C 
ENDBRANCH  16  20
ENDBRANCH   8   9
ENDBRANCH   7   8
ENDBRANCH   1   7
BRANCH   4  22
ATOM     22  S17 ZIN A   1      18.164  -1.975  10.711  0.00  0.00     0.287 S 
ATOM     23  O18 ZIN A   1      19.458  -2.551  10.830  0.00  0.00    -0.198 OA
ATOM     24  O19 ZIN A   1      17.094  -2.277  11.596  0.00  0.00    -0.198 OA
BRANCH  22  25
ATOM     25  N20 ZIN A   1      17.628  -2.341   9.186  0.00  0.00    -0.102 NA
ATOM     26  C21 ZIN A   1      18.428  -2.128   8.123  0.00  0.00     0.353 C 
ATOM     27  O22 ZIN A   1      19.542  -1.667   8.282  0.00  0.00    -0.244 OA
ATOM     28  N23 ZIN A   1      17.993  -2.427   6.882  0.00  0.00    -0.336 N 
ATOM     29  H52 ZIN A   1      17.105  -2.794   6.755  0.00  0.00     0.164 HD
BRANCH  28  30
ATOM     30  C24 ZIN A   1      18.862  -2.194   5.726  0.00  0.00     0.086 C 
ATOM     31  C30 ZIN A   1      18.131  -1.318   4.707  0.00  0.00     0.026 C 
ATOM     32  C29 ZIN A   1      16.852  -2.025   4.250  0.00  0.00     0.006 C 
ATOM     33  C27 ZIN A   1      17.213  -3.364   3.606  0.00  0.00    -0.019 C 
ATOM     34  C26 ZIN A   1      17.944  -4.240   4.625  0.00  0.00     0.006 C 
ATOM     35  C28 ZIN A   1      15.934  -4.071   3.150  0.00  0.00     0.010 C 
ATOM     36  C25 ZIN A   1      19.222  -3.534   5.081  0.00  0.00     0.026 C 
ENDBRANCH  28  30
ENDBRANCH  22  25
ENDBRANCH   4  22
TORSDOF 7
ENDMDL
MODEL 8
REMARK VINA RESULT:      -8.9      3.670      8.514
REMARK  7 active torsions:
REMARK  status: ('A' for Active; 'I' for Inactive)
REMARK    1  A    between atoms: C2_2  and  C3_3 
REMARK       I    between atoms: N7_7  and  C8_8 
REMARK       I    between atoms: C8_8  and  N10_10 
REMARK    2  A    between atoms: N10_10  and  C11_11 
REMARK    3  A    between atoms: C11_11  and  C12_12 
REMARK    4  A    between atoms: C12_12  and  C13_13 
REMARK    5  A    between atoms: C16_16  and  S17_17 
REMARK    6  A    between atoms: S17_17  and  N20_20 
REMARK       I    between atoms: N20_20  and  C21_21 
REMARK       I    between atoms: C21_21  and  N23_23 
REMARK    7  A    between atoms: N23_23  and  C24_24 
ROOT
ATOM      1  C13 ZIN A   1      18.393   1.374   8.728  0.00  0.00    -0.057 A 
ATOM      2  C14 ZIN A   1      17.708   0.184   8.568  0.00  0.00     0.009 A 
ATOM      3  C15 ZIN A   1      17.797  -0.511   7.376  0.00  0.00     0.026 A 
ATOM      4  C16 ZIN A   1      18.571  -0.015   6.343  0.00  0.00     0.081 A 
ATOM      5  C31 ZIN A   1      19.256   1.175   6.502  0.00  0.00     0.026 A 
ATOM      6  C32 ZIN A   1      19.164   1.872   7.693  0.00  0.00     0.009 A 
ENDROOT
BRANCH   1   7
ATOM      7  C12 ZIN A   1      18.296   2.131  10.027  0.00  0.00     0.058 C 
BRANCH   7   8
ATOM      8  C11 ZIN A   1      17.452   1.330  11.021  0.00  0.00     0.129 C 
BRANCH   8   9
ATOM      9  N10 ZIN A   1      17.869   1.656  12.388  0.00  0.00    -0.342 N 
ATOM     10  C8  ZIN A   1      18.003   0.676  13.303  0.00  0.00     0.325 C 
ATOM     11  N7  ZIN A   1      18.386   0.975  14.560  0.00  0.00    -0.262 N 
ATOM     12  O9  ZIN A   1      17.779  -0.479  12.995  0.00  0.00    -0.247 OA
ATOM     13  C6  ZIN A   1      18.576   0.024  15.662  0.00  0.00     0.171 A 
ATOM     14  C33 ZIN A   1      18.659   2.203  15.039  0.00  0.00     0.258 A 
ATOM     15  C4  ZIN A   1      19.004   0.850  16.852  0.00  0.00    -0.054 A 
ATOM     16  C3  ZIN A   1      19.045   2.118  16.450  0.00  0.00     0.013 A 
ATOM     17  C5  ZIN A   1      19.322   0.337  18.233  0.00  0.00     0.046 C 
ATOM     18  O34 ZIN A   1      18.603   3.232  14.394  0.00  0.00    -0.267 OA
ATOM     19  H45 ZIN A   1      18.047   2.577  12.634  0.00  0.00     0.164 HD
BRANCH  16  20
ATOM     20  C2  ZIN A   1      19.425   3.290  17.318  0.00  0.00     0.040 C 
ATOM     21  C1  ZIN A   1      18.162   3.910  17.919  0.00  0.00     0.010 C 
ENDBRANCH  16  20
ENDBRANCH   8   9
ENDBRANCH   7   8
ENDBRANCH   1   7
BRANCH   4  22
ATOM     22  S17 ZIN A   1      18.686  -0.902   4.825  0.00  0.00     0.287 S 
ATOM     23  O18 ZIN A   1      17.993  -0.127   3.855  0.00  0.00    -0.198 OA
ATOM     24  O19 ZIN A   1      20.047  -1.285   4.686  0.00  0.00    -0.198 OA
BRANCH  22  25
ATOM     25  N20 ZIN A   1      17.820  -2.302   5.009  0.00  0.00    -0.102 NA
ATOM     26  C21 ZIN A   1      18.410  -3.393   5.536  0.00  0.00     0.353 C 
ATOM     27  O22 ZIN A   1      19.576  -3.350   5.876  0.00  0.00    -0.244 OA
ATOM     28  N23 ZIN A   1      17.705  -4.533   5.687  0.00  0.00    -0.336 N 
ATOM     29  H52 ZIN A   1      16.776  -4.567   5.416  0.00  0.00     0.164 HD
BRANCH  28  30
ATOM     30  C24 ZIN A   1      18.347  -5.719   6.259  0.00  0.00     0.086 C 
ATOM     31  C30 ZIN A   1      17.719  -6.978   5.658  0.00  0.00     0.026 C 
ATOM     32  C29 ZIN A   1      16.222  -7.004   5.975  0.00  0.00     0.006 C 
ATOM     33  C27 ZIN A   1      16.022  -7.009   7.492  0.00  0.00    -0.019 C 
ATOM     34  C26 ZIN A   1      16.650  -5.750   8.094  0.00  0.00     0.006 C 
ATOM     35  C28 ZIN A   1      14.526  -7.035   7.809  0.00  0.00     0.010 C 
ATOM     36  C25 ZIN A   1      18.147  -5.725   7.777  0.00  0.00     0.026 C 
ENDBRANCH  28  30
ENDBRANCH  22  25
ENDBRANCH   4  22
TORSDOF 7
ENDMDL
MODEL 9
REMARK VINA RESULT:      -8.8      3.638      5.696
REMARK  7 active torsions:
REMARK  status: ('A' for Active; 'I' for Inactive)
REMARK    1  A    between atoms: C2_2  and  C3_3 
REMARK       I    between atoms: N7_7  and  C8_8 
REMARK       I    between atoms: C8_8  and  N10_10 
REMARK    2  A    between atoms: N10_10  and  C11_11 
REMARK    3  A    between atoms: C11_11  and  C12_12 
REMARK    4  A    between atoms: C12_12  and  C13_13 
REMARK    5  A    between atoms: C16_16  and  S17_17 
REMARK    6  A    between atoms: S17_17  and  N20_20 
REMARK       I    between atoms: N20_20  and  C21_21 
REMARK       I    between atoms: C21_21  and  N23_23 
REMARK    7  A    between atoms: N23_23  and  C24_24 
ROOT
ATOM      1  C13 ZIN A   1      19.153   2.483   9.445  0.00  0.00    -0.057 A 
ATOM      2  C14 ZIN A   1      19.999   2.154  10.487  0.00  0.00     0.009 A 
ATOM      3  C15 ZIN A   1      19.905   2.825  11.692  0.00  0.00     0.026 A 
ATOM      4  C16 ZIN A   1      18.965   3.825  11.855  0.00  0.00     0.081 A 
ATOM      5  C31 ZIN A   1      18.119   4.155  10.813  0.00  0.00     0.026 A 
ATOM      6  C32 ZIN A   1      18.216   3.487   9.606  0.00  0.00     0.009 A 
ENDROOT
BRANCH   1   7
ATOM      7  C12 ZIN A   1      19.256   1.752   8.131  0.00  0.00     0.058 C 
BRANCH   7   8
ATOM      8  C11 ZIN A   1      17.993   0.915   7.914  0.00  0.00     0.129 C 
BRANCH   8   9
ATOM      9  N10 ZIN A   1      18.246  -0.468   8.330  0.00  0.00    -0.342 N 
ATOM     10  C8  ZIN A   1      17.733  -0.927   9.489  0.00  0.00     0.325 C 
ATOM     11  N7  ZIN A   1      17.965  -2.198   9.872  0.00  0.00    -0.262 N 
ATOM     12  O9  ZIN A   1      17.060  -0.194  10.188  0.00  0.00    -0.247 OA
ATOM     13  C6  ZIN A   1      17.478  -2.840  11.099  0.00  0.00     0.171 A 
ATOM     14  C33 ZIN A   1      18.693  -3.112   9.203  0.00  0.00     0.258 A 
ATOM     15  C4  ZIN A   1      18.007  -4.254  11.063  0.00  0.00    -0.054 A 
ATOM     16  C3  ZIN A   1      18.709  -4.378   9.940  0.00  0.00     0.013 A 
ATOM     17  C5  ZIN A   1      17.784  -5.323  12.103  0.00  0.00     0.046 C 
ATOM     18  O34 ZIN A   1      19.249  -2.918   8.140  0.00  0.00    -0.267 OA
ATOM     19  H45 ZIN A   1      18.783  -1.051   7.772  0.00  0.00     0.164 HD
BRANCH  16  20
ATOM     20  C2  ZIN A   1      19.420  -5.630   9.496  0.00  0.00     0.040 C 
ATOM     21  C1  ZIN A   1      18.499  -6.443   8.583  0.00  0.00     0.010 C 
ENDBRANCH  16  20
ENDBRANCH   8   9
ENDBRANCH   7   8
ENDBRANCH   1   7
BRANCH   4  22
ATOM     22  S17 ZIN A   1      18.844   4.679  13.391  0.00  0.00     0.287 S 
ATOM     23  O18 ZIN A   1      20.056   5.405  13.543  0.00  0.00    -0.198 OA
ATOM     24  O19 ZIN A   1      17.563   5.291  13.411  0.00  0.00    -0.198 OA
BRANCH  22  25
ATOM     25  N20 ZIN A   1      18.834   3.533  14.588  0.00  0.00    -0.102 NA
ATOM     26  C21 ZIN A   1      18.032   2.456  14.482  0.00  0.00     0.353 C 
ATOM     27  O22 ZIN A   1      17.315   2.325  13.509  0.00  0.00    -0.244 OA
ATOM     28  N23 ZIN A   1      18.024   1.523  15.455  0.00  0.00    -0.336 N 
ATOM     29  H52 ZIN A   1      18.594   1.628  16.232  0.00  0.00     0.164 HD
BRANCH  28  30
ATOM     30  C24 ZIN A   1      17.150   0.352  15.340  0.00  0.00     0.086 C 
ATOM     31  C30 ZIN A   1      16.750  -0.125  16.738  0.00  0.00     0.026 C 
ATOM     32  C29 ZIN A   1      18.006  -0.500  17.528  0.00  0.00     0.006 C 
ATOM     33  C27 ZIN A   1      18.750  -1.621  16.801  0.00  0.00    -0.019 C 
ATOM     34  C26 ZIN A   1      19.150  -1.144  15.403  0.00  0.00     0.006 C 
ATOM     35  C28 ZIN A   1      20.005  -1.996  17.591  0.00  0.00     0.010 C 
ATOM     36  C25 ZIN A   1      17.895  -0.770  14.613  0.00  0.00     0.026 C 
ENDBRANCH  28  30
ENDBRANCH  22  25
ENDBRANCH   4  22
TORSDOF 7
ENDMDL
