MODEL 1
REMARK VINA RESULT:      -5.2      0.000      0.000
REMARK  8 active torsions:
REMARK  status: ('A' for Active; 'I' for Inactive)
REMARK    1  A    between atoms: O1_1  and  C2_2 
REMARK    2  A    between atoms: C2_2  and  C3_3 
REMARK    3  A    between atoms: C3_3  and  N4_4 
REMARK    4  A    between atoms: C7_7  and  O9_8 
REMARK    5  A    between atoms: C10_9  and  O12_10 
REMARK    6  A    between atoms: C13_11  and  O15_12 
REMARK    7  A    between atoms: C16_13  and  C18_14 
REMARK    8  A    between atoms: C18_14  and  O19_15 
ROOT
ATOM      1  N4  <0> d   1      18.347   1.497  11.114  0.00  0.00    -0.058 N 
ATOM      2  H5  <0> d   1      17.400   1.787  11.308  0.00  0.00     0.280 HD
ATOM      3  C6  <0> d   1      18.329   0.360  10.185  0.00  0.00     0.269 C 
ATOM      4  C7  <0> d   1      19.763  -0.033   9.826  0.00  0.00     0.175 C 
ATOM      5  C10 <0> d   1      20.514  -0.425  11.101  0.00  0.00     0.179 C 
ATOM      6  C13 <0> d   1      20.463   0.742  12.092  0.00  0.00     0.182 C 
ATOM      7  C16 <0> d   1      19.004   1.105  12.366  0.00  0.00     0.242 C 
ENDROOT
BRANCH   1   8
ATOM      8  C3  <0> d   1      19.084   2.612  10.505  0.00  0.00     0.261 C 
BRANCH   8   9
ATOM      9  C2  <0> d   1      18.096   3.686  10.046  0.00  0.00     0.192 C 
BRANCH   9  10
ATOM     10  O1  <0> d   1      16.948   3.672  10.897  0.00  0.00    -0.399 OA
ATOM     11  H20 <0> d   1      16.196   3.182  10.536  0.00  0.00     0.209 HD
ENDBRANCH   9  10
ENDBRANCH   8   9
ENDBRANCH   1   8
BRANCH   7  12
ATOM     12  C18 <0> d   1      18.947   2.271  13.355  0.00  0.00     0.200 C 
BRANCH  12  13
ATOM     13  O19 <0> d   1      19.270   1.802  14.666  0.00  0.00    -0.399 OA
ATOM     14  H32 <0> d   1      18.999   0.889  14.835  0.00  0.00     0.209 HD
ENDBRANCH  12  13
ENDBRANCH   7  12
BRANCH   6  15
ATOM     15  O15 <0> d   1      21.100   0.359  13.313  0.00  0.00    -0.391 OA
ATOM     16  H29 <0> d   1      21.995   0.710  13.416  0.00  0.00     0.210 HD
ENDBRANCH   6  15
BRANCH   4  17
ATOM     17  O9  <0> d   1      19.742  -1.141   8.924  0.00  0.00    -0.391 OA
ATOM     18  H27 <0> d   1      19.315  -0.952   8.078  0.00  0.00     0.210 HD
ENDBRANCH   4  17
BRANCH   5  19
ATOM     19  O12 <0> d   1      21.875  -0.724  10.782  0.00  0.00    -0.390 OA
ATOM     20  H28 <0> d   1      21.983  -1.495  10.208  0.00  0.00     0.210 HD
ENDBRANCH   5  19
TORSDOF 8
ENDMDL
MODEL 2
REMARK VINA RESULT:      -5.2      1.740      2.806
REMARK  8 active torsions:
REMARK  status: ('A' for Active; 'I' for Inactive)
REMARK    1  A    between atoms: O1_1  and  C2_2 
REMARK    2  A    between atoms: C2_2  and  C3_3 
REMARK    3  A    between atoms: C3_3  and  N4_4 
REMARK    4  A    between atoms: C7_7  and  O9_8 
REMARK    5  A    between atoms: C10_9  and  O12_10 
REMARK    6  A    between atoms: C13_11  and  O15_12 
REMARK    7  A    between atoms: C16_13  and  C18_14 
REMARK    8  A    between atoms: C18_14  and  O19_15 
ROOT
ATOM      1  N4  <0> d   1      18.398   0.605   9.803  0.00  0.00    -0.058 N 
ATOM      2  H5  <0> d   1      17.459   0.489   9.449  0.00  0.00     0.280 HD
ATOM      3  C6  <0> d   1      18.917  -0.695  10.244  0.00  0.00     0.269 C 
ATOM      4  C7  <0> d   1      20.367  -0.539  10.708  0.00  0.00     0.175 C 
ATOM      5  C10 <0> d   1      20.421   0.456  11.871  0.00  0.00     0.179 C 
ATOM      6  C13 <0> d   1      19.808   1.786  11.422  0.00  0.00     0.182 C 
ATOM      7  C16 <0> d   1      18.381   1.543  10.932  0.00  0.00     0.242 C 
ENDROOT
BRANCH   1   8
ATOM      8  C3  <0> d   1      19.258   1.138   8.738  0.00  0.00     0.261 C 
BRANCH   8   9
ATOM      9  C2  <0> d   1      18.921   0.448   7.416  0.00  0.00     0.192 C 
BRANCH   9  10
ATOM     10  O1  <0> d   1      18.908   1.413   6.363  0.00  0.00    -0.399 OA
ATOM     11  H20 <0> d   1      19.156   1.057   5.499  0.00  0.00     0.209 HD
ENDBRANCH   9  10
ENDBRANCH   8   9
ENDBRANCH   1   8
BRANCH   7  12
ATOM     12  C18 <0> d   1      17.764   2.868  10.482  0.00  0.00     0.200 C 
BRANCH  12  13
ATOM     13  O19 <0> d   1      17.018   3.438  11.559  0.00  0.00    -0.399 OA
ATOM     14  H32 <0> d   1      16.951   2.868  12.337  0.00  0.00     0.209 HD
ENDBRANCH  12  13
ENDBRANCH   7  12
BRANCH   6  15
ATOM     15  O15 <0> d   1      19.789   2.698  12.522  0.00  0.00    -0.391 OA
ATOM     16  H29 <0> d   1      20.248   2.374  13.309  0.00  0.00     0.210 HD
ENDBRANCH   6  15
BRANCH   4  17
ATOM     17  O9  <0> d   1      20.869  -1.805  11.138  0.00  0.00    -0.391 OA
ATOM     18  H27 <0> d   1      21.781  -1.979  10.868  0.00  0.00     0.210 HD
ENDBRANCH   4  17
BRANCH   5  19
ATOM     19  O12 <0> d   1      21.780   0.661  12.261  0.00  0.00    -0.390 OA
ATOM     20  H28 <0> d   1      22.413   0.102  11.790  0.00  0.00     0.210 HD
ENDBRANCH   5  19
TORSDOF 8
ENDMDL
MODEL 3
REMARK VINA RESULT:      -5.2      2.209      4.719
REMARK  8 active torsions:
REMARK  status: ('A' for Active; 'I' for Inactive)
REMARK    1  A    between atoms: O1_1  and  C2_2 
REMARK    2  A    between atoms: C2_2  and  C3_3 
REMARK    3  A    between atoms: C3_3  and  N4_4 
REMARK    4  A    between atoms: C7_7  and  O9_8 
REMARK    5  A    between atoms: C10_9  and  O12_10 
REMARK    6  A    between atoms: C13_11  and  O15_12 
REMARK    7  A    between atoms: C16_13  and  C18_14 
REMARK    8  A    between atoms: C18_14  and  O19_15 
ROOT
ATOM      1  N4  <0> d   1      18.530  -0.968  11.875  0.00  0.00    -0.058 N 
ATOM      2  H5  <0> d   1      18.085  -1.458  11.113  0.00  0.00     0.280 HD
ATOM      3  C6  <0> d   1      17.505  -0.429  12.776  0.00  0.00     0.269 C 
ATOM      4  C7  <0> d   1      18.176   0.246  13.973  0.00  0.00     0.175 C 
ATOM      5  C10 <0> d   1      19.071   1.384  13.476  0.00  0.00     0.179 C 
ATOM      6  C13 <0> d   1      20.090   0.822  12.480  0.00  0.00     0.182 C 
ATOM      7  C16 <0> d   1      19.348   0.127  11.339  0.00  0.00     0.242 C 
ENDROOT
BRANCH   1   8
ATOM      8  C3  <0> d   1      19.390  -1.900  12.617  0.00  0.00     0.261 C 
BRANCH   8   9
ATOM      9  C2  <0> d   1      19.469  -3.230  11.865  0.00  0.00     0.192 C 
BRANCH   9  10
ATOM     10  O1  <0> d   1      20.829  -3.505  11.525  0.00  0.00    -0.399 OA
ATOM     11  H20 <0> d   1      20.967  -3.717  10.591  0.00  0.00     0.209 HD
ENDBRANCH   9  10
ENDBRANCH   8   9
ENDBRANCH   1   8
BRANCH   7  12
ATOM     12  C18 <0> d   1      20.360  -0.437  10.342  0.00  0.00     0.200 C 
BRANCH  12  13
ATOM     13  O19 <0> d   1      21.642  -0.536  10.966  0.00  0.00    -0.399 OA
ATOM     14  H32 <0> d   1      21.879  -1.433  11.239  0.00  0.00     0.209 HD
ENDBRANCH  12  13
ENDBRANCH   7  12
BRANCH   6  15
ATOM     15  O15 <0> d   1      20.884   1.889  11.956  0.00  0.00    -0.391 OA
ATOM     16  H29 <0> d   1      21.105   2.570  12.605  0.00  0.00     0.210 HD
ENDBRANCH   6  15
BRANCH   4  17
ATOM     17  O9  <0> d   1      17.176   0.772  14.848  0.00  0.00    -0.391 OA
ATOM     18  H27 <0> d   1      17.340   1.682  15.131  0.00  0.00     0.210 HD
ENDBRANCH   4  17
BRANCH   5  19
ATOM     19  O12 <0> d   1      19.757   1.972  14.584  0.00  0.00    -0.390 OA
ATOM     20  H28 <0> d   1      19.656   1.483  15.412  0.00  0.00     0.210 HD
ENDBRANCH   5  19
TORSDOF 8
ENDMDL
MODEL 4
REMARK VINA RESULT:      -5.1      1.899      2.474
REMARK  8 active torsions:
REMARK  status: ('A' for Active; 'I' for Inactive)
REMARK    1  A    between atoms: O1_1  and  C2_2 
REMARK    2  A    between atoms: C2_2  and  C3_3 
REMARK    3  A    between atoms: C3_3  and  N4_4 
REMARK    4  A    between atoms: C7_7  and  O9_8 
REMARK    5  A    between atoms: C10_9  and  O12_10 
REMARK    6  A    between atoms: C13_11  and  O15_12 
REMARK    7  A    between atoms: C16_13  and  C18_14 
REMARK    8  A    between atoms: C18_14  and  O19_15 
ROOT
ATOM      1  N4  <0> d   1      18.602   1.126  11.322  0.00  0.00    -0.058 N 
ATOM      2  H5  <0> d   1      18.178   1.574  12.121  0.00  0.00     0.280 HD
ATOM      3  C6  <0> d   1      17.553   0.678  10.399  0.00  0.00     0.269 C 
ATOM      4  C7  <0> d   1      18.194   0.069   9.150  0.00  0.00     0.175 C 
ATOM      5  C10 <0> d   1      19.061  -1.125   9.558  0.00  0.00     0.179 C 
ATOM      6  C13 <0> d   1      20.105  -0.661  10.578  0.00  0.00     0.182 C 
ATOM      7  C16 <0> d   1      19.394  -0.025  11.772  0.00  0.00     0.242 C 
ENDROOT
BRANCH   1   8
ATOM      8  C3  <0> d   1      19.480   2.083  10.636  0.00  0.00     0.261 C 
BRANCH   8   9
ATOM      9  C2  <0> d   1      19.628   3.343  11.489  0.00  0.00     0.192 C 
BRANCH   9  10
ATOM     10  O1  <0> d   1      21.012   3.583  11.751  0.00  0.00    -0.399 OA
ATOM     11  H20 <0> d   1      21.188   3.965  12.622  0.00  0.00     0.209 HD
ENDBRANCH   9  10
ENDBRANCH   8   9
ENDBRANCH   1   8
BRANCH   7  12
ATOM     12  C18 <0> d   1      20.432   0.441  12.794  0.00  0.00     0.200 C 
BRANCH  12  13
ATOM     13  O19 <0> d   1      21.706   0.566  12.158  0.00  0.00    -0.399 OA
ATOM     14  H32 <0> d   1      21.656   0.761  11.213  0.00  0.00     0.209 HD
ENDBRANCH  12  13
ENDBRANCH   7  12
BRANCH   6  15
ATOM     15  O15 <0> d   1      20.873  -1.783  11.019  0.00  0.00    -0.391 OA
ATOM     16  H29 <0> d   1      20.538  -2.635  10.710  0.00  0.00     0.210 HD
ENDBRANCH   6  15
BRANCH   4  17
ATOM     17  O9  <0> d   1      17.170  -0.369   8.254  0.00  0.00    -0.391 OA
ATOM     18  H27 <0> d   1      17.148   0.113   7.416  0.00  0.00     0.210 HD
ENDBRANCH   4  17
BRANCH   5  19
ATOM     19  O12 <0> d   1      19.719  -1.654   8.405  0.00  0.00    -0.390 OA
ATOM     20  H28 <0> d   1      19.170  -2.250   7.878  0.00  0.00     0.210 HD
ENDBRANCH   5  19
TORSDOF 8
ENDMDL
MODEL 5
REMARK VINA RESULT:      -4.9      3.133      5.151
REMARK  8 active torsions:
REMARK  status: ('A' for Active; 'I' for Inactive)
REMARK    1  A    between atoms: O1_1  and  C2_2 
REMARK    2  A    between atoms: C2_2  and  C3_3 
REMARK    3  A    between atoms: C3_3  and  N4_4 
REMARK    4  A    between atoms: C7_7  and  O9_8 
REMARK    5  A    between atoms: C10_9  and  O12_10 
REMARK    6  A    between atoms: C13_11  and  O15_12 
REMARK    7  A    between atoms: C16_13  and  C18_14 
REMARK    8  A    between atoms: C18_14  and  O19_15 
ROOT
ATOM      1  N4  <0> d   1      18.136  -2.188   9.393  0.00  0.00    -0.058 N 
ATOM      2  H5  <0> d   1      17.171  -2.389   9.173  0.00  0.00     0.280 HD
ATOM      3  C6  <0> d   1      18.366  -2.408  10.826  0.00  0.00     0.269 C 
ATOM      4  C7  <0> d   1      19.844  -2.182  11.149  0.00  0.00     0.175 C 
ATOM      5  C10 <0> d   1      20.227  -0.745  10.784  0.00  0.00     0.179 C 
ATOM      6  C13 <0> d   1      19.913  -0.504   9.304  0.00  0.00     0.182 C 
ATOM      7  C16 <0> d   1      18.434  -0.793   9.050  0.00  0.00     0.242 C 
ENDROOT
BRANCH   1   8
ATOM      8  C3  <0> d   1      19.008  -3.079   8.616  0.00  0.00     0.261 C 
BRANCH   8   9
ATOM      9  C2  <0> d   1      18.306  -4.420   8.401  0.00  0.00     0.192 C 
BRANCH   9  10
ATOM     10  O1  <0> d   1      16.913  -4.198   8.177  0.00  0.00    -0.399 OA
ATOM     11  H20 <0> d   1      16.669  -4.138   7.243  0.00  0.00     0.209 HD
ENDBRANCH   9  10
ENDBRANCH   8   9
ENDBRANCH   1   8
BRANCH   7  12
ATOM     12  C18 <0> d   1      18.115  -0.554   7.573  0.00  0.00     0.200 C 
BRANCH  12  13
ATOM     13  O19 <0> d   1      16.698  -0.499   7.394  0.00  0.00    -0.399 OA
ATOM     14  H32 <0> d   1      16.372   0.364   7.103  0.00  0.00     0.209 HD
ENDBRANCH  12  13
ENDBRANCH   7  12
BRANCH   6  15
ATOM     15  O15 <0> d   1      20.201   0.856   8.971  0.00  0.00    -0.391 OA
ATOM     16  H29 <0> d   1      20.019   1.081   8.049  0.00  0.00     0.210 HD
ENDBRANCH   6  15
BRANCH   4  17
ATOM     17  O9  <0> d   1      20.064  -2.395  12.545  0.00  0.00    -0.391 OA
ATOM     18  H27 <0> d   1      20.188  -1.581  13.052  0.00  0.00     0.210 HD
ENDBRANCH   4  17
BRANCH   5  19
ATOM     19  O12 <0> d   1      21.623  -0.549  11.016  0.00  0.00    -0.390 OA
ATOM     20  H28 <0> d   1      21.860   0.361  11.240  0.00  0.00     0.210 HD
ENDBRANCH   5  19
TORSDOF 8
ENDMDL
MODEL 6
REMARK VINA RESULT:      -4.9      2.517      4.414
REMARK  8 active torsions:
REMARK  status: ('A' for Active; 'I' for Inactive)
REMARK    1  A    between atoms: O1_1  and  C2_2 
REMARK    2  A    between atoms: C2_2  and  C3_3 
REMARK    3  A    between atoms: C3_3  and  N4_4 
REMARK    4  A    between atoms: C7_7  and  O9_8 
REMARK    5  A    between atoms: C10_9  and  O12_10 
REMARK    6  A    between atoms: C13_11  and  O15_12 
REMARK    7  A    between atoms: C16_13  and  C18_14 
REMARK    8  A    between atoms: C18_14  and  O19_15 
ROOT
ATOM      1  N4  <0> d   1      18.357  -0.734  13.029  0.00  0.00    -0.058 N 
ATOM      2  H5  <0> d   1      17.401  -0.643  13.341  0.00  0.00     0.280 HD
ATOM      3  C6  <0> d   1      18.897   0.594  12.717  0.00  0.00     0.269 C 
ATOM      4  C7  <0> d   1      20.369   0.469  12.319  0.00  0.00     0.175 C 
ATOM      5  C10 <0> d   1      20.485  -0.433  11.088  0.00  0.00     0.179 C 
ATOM      6  C13 <0> d   1      19.851  -1.792  11.400  0.00  0.00     0.182 C 
ATOM      7  C16 <0> d   1      18.400  -1.583  11.832  0.00  0.00     0.242 C 
ENDROOT
BRANCH   1   8
ATOM      8  C3  <0> d   1      19.160  -1.351  14.093  0.00  0.00     0.261 C 
BRANCH   8   9
ATOM      9  C2  <0> d   1      18.903  -0.622  15.413  0.00  0.00     0.192 C 
BRANCH   9  10
ATOM     10  O1  <0> d   1      17.525  -0.751  15.768  0.00  0.00    -0.399 OA
ATOM     11  H20 <0> d   1      17.239  -0.141  16.462  0.00  0.00     0.209 HD
ENDBRANCH   9  10
ENDBRANCH   8   9
ENDBRANCH   1   8
BRANCH   7  12
ATOM     12  C18 <0> d   1      17.762  -2.937  12.146  0.00  0.00     0.200 C 
BRANCH  12  13
ATOM     13  O19 <0> d   1      17.194  -3.485  10.955  0.00  0.00    -0.399 OA
ATOM     14  H32 <0> d   1      16.268  -3.247  10.814  0.00  0.00     0.209 HD
ENDBRANCH  12  13
ENDBRANCH   7  12
BRANCH   6  15
ATOM     15  O15 <0> d   1      19.891  -2.617  10.234  0.00  0.00    -0.391 OA
ATOM     16  H29 <0> d   1      20.767  -2.972  10.034  0.00  0.00     0.210 HD
ENDBRANCH   6  15
BRANCH   4  17
ATOM     17  O9  <0> d   1      20.892   1.764  12.014  0.00  0.00    -0.391 OA
ATOM     18  H27 <0> d   1      21.795   1.752  11.669  0.00  0.00     0.210 HD
ENDBRANCH   4  17
BRANCH   5  19
ATOM     19  O12 <0> d   1      21.863  -0.612  10.755  0.00  0.00    -0.390 OA
ATOM     20  H28 <0> d   1      22.359  -1.136  11.399  0.00  0.00     0.210 HD
ENDBRANCH   5  19
TORSDOF 8
ENDMDL
MODEL 7
REMARK VINA RESULT:      -4.8      1.680      4.021
REMARK  8 active torsions:
REMARK  status: ('A' for Active; 'I' for Inactive)
REMARK    1  A    between atoms: O1_1  and  C2_2 
REMARK    2  A    between atoms: C2_2  and  C3_3 
REMARK    3  A    between atoms: C3_3  and  N4_4 
REMARK    4  A    between atoms: C7_7  and  O9_8 
REMARK    5  A    between atoms: C10_9  and  O12_10 
REMARK    6  A    between atoms: C13_11  and  O15_12 
REMARK    7  A    between atoms: C16_13  and  C18_14 
REMARK    8  A    between atoms: C18_14  and  O19_15 
ROOT
ATOM      1  N4  <0> d   1      19.967   2.010  11.164  0.00  0.00    -0.058 N 
ATOM      2  H5  <0> d   1      20.721   1.962  10.494  0.00  0.00     0.280 HD
ATOM      3  C6  <0> d   1      19.944   3.344  11.777  0.00  0.00     0.269 C 
ATOM      4  C7  <0> d   1      18.755   3.448  12.734  0.00  0.00     0.175 C 
ATOM      5  C10 <0> d   1      18.891   2.384  13.827  0.00  0.00     0.179 C 
ATOM      6  C13 <0> d   1      18.989   1.003  13.172  0.00  0.00     0.182 C 
ATOM      7  C16 <0> d   1      20.168   0.990  12.199  0.00  0.00     0.242 C 
ENDROOT
BRANCH   1   8
ATOM      8  C3  <0> d   1      18.690   1.766  10.479  0.00  0.00     0.261 C 
BRANCH   8   9
ATOM      9  C2  <0> d   1      18.873   1.964   8.974  0.00  0.00     0.192 C 
BRANCH   9  10
ATOM     10  O1  <0> d   1      20.157   1.477   8.581  0.00  0.00    -0.399 OA
ATOM     11  H20 <0> d   1      20.352   0.583   8.895  0.00  0.00     0.209 HD
ENDBRANCH   9  10
ENDBRANCH   8   9
ENDBRANCH   1   8
BRANCH   7  12
ATOM     12  C18 <0> d   1      20.270  -0.387  11.541  0.00  0.00     0.200 C 
BRANCH  12  13
ATOM     13  O19 <0> d   1      21.481  -0.466  10.786  0.00  0.00    -0.399 OA
ATOM     14  H32 <0> d   1      21.375  -0.258   9.848  0.00  0.00     0.209 HD
ENDBRANCH  12  13
ENDBRANCH   7  12
BRANCH   6  15
ATOM     15  O15 <0> d   1      19.188   0.010  14.180  0.00  0.00    -0.391 OA
ATOM     16  H29 <0> d   1      19.978   0.150  14.720  0.00  0.00     0.210 HD
ENDBRANCH   6  15
BRANCH   4  17
ATOM     17  O9  <0> d   1      18.736   4.746  13.332  0.00  0.00    -0.391 OA
ATOM     18  H27 <0> d   1      18.361   5.434  12.766  0.00  0.00     0.210 HD
ENDBRANCH   4  17
BRANCH   5  19
ATOM     19  O12 <0> d   1      17.747   2.429  14.683  0.00  0.00    -0.390 OA
ATOM     20  H28 <0> d   1      16.904   2.366  14.214  0.00  0.00     0.210 HD
ENDBRANCH   5  19
TORSDOF 8
ENDMDL
MODEL 8
REMARK VINA RESULT:      -4.8      2.321      2.958
REMARK  8 active torsions:
REMARK  status: ('A' for Active; 'I' for Inactive)
REMARK    1  A    between atoms: O1_1  and  C2_2 
REMARK    2  A    between atoms: C2_2  and  C3_3 
REMARK    3  A    between atoms: C3_3  and  N4_4 
REMARK    4  A    between atoms: C7_7  and  O9_8 
REMARK    5  A    between atoms: C10_9  and  O12_10 
REMARK    6  A    between atoms: C13_11  and  O15_12 
REMARK    7  A    between atoms: C16_13  and  C18_14 
REMARK    8  A    between atoms: C18_14  and  O19_15 
ROOT
ATOM      1  N4  <0> d   1      17.905   1.851  13.491  0.00  0.00    -0.058 N 
ATOM      2  H5  <0> d   1      16.910   1.944  13.631  0.00  0.00     0.280 HD
ATOM      3  C6  <0> d   1      18.229   2.137  12.088  0.00  0.00     0.269 C 
ATOM      4  C7  <0> d   1      19.745   2.076  11.889  0.00  0.00     0.175 C 
ATOM      5  C10 <0> d   1      20.246   0.676  12.255  0.00  0.00     0.179 C 
ATOM      6  C13 <0> d   1      19.837   0.359  13.696  0.00  0.00     0.182 C 
ATOM      7  C16 <0> d   1      18.320   0.484  13.828  0.00  0.00     0.242 C 
ENDROOT
BRANCH   1   8
ATOM      8  C3  <0> d   1      18.611   2.804  14.359  0.00  0.00     0.261 C 
BRANCH   8   9
ATOM      9  C2  <0> d   1      17.840   4.124  14.400  0.00  0.00     0.192 C 
BRANCH   9  10
ATOM     10  O1  <0> d   1      18.722   5.201  14.081  0.00  0.00    -0.399 OA
ATOM     11  H20 <0> d   1      18.349   5.846  13.465  0.00  0.00     0.209 HD
ENDBRANCH   9  10
ENDBRANCH   8   9
ENDBRANCH   1   8
BRANCH   7  12
ATOM     12  C18 <0> d   1      17.906   0.169  15.267  0.00  0.00     0.200 C 
BRANCH  12  13
ATOM     13  O19 <0> d   1      17.979  -1.241  15.486  0.00  0.00    -0.399 OA
ATOM     14  H32 <0> d   1      18.474  -1.720  14.809  0.00  0.00     0.209 HD
ENDBRANCH  12  13
ENDBRANCH   7  12
BRANCH   6  15
ATOM     15  O15 <0> d   1      20.238  -0.974  14.024  0.00  0.00    -0.391 OA
ATOM     16  H29 <0> d   1      20.410  -1.112  14.965  0.00  0.00     0.210 HD
ENDBRANCH   6  15
BRANCH   4  17
ATOM     17  O9  <0> d   1      20.058   2.352  10.522  0.00  0.00    -0.391 OA
ATOM     18  H27 <0> d   1      20.539   1.642  10.077  0.00  0.00     0.210 HD
ENDBRANCH   4  17
BRANCH   5  19
ATOM     19  O12 <0> d   1      21.670   0.633  12.140  0.00  0.00    -0.390 OA
ATOM     20  H28 <0> d   1      22.001   0.877  11.264  0.00  0.00     0.210 HD
ENDBRANCH   5  19
TORSDOF 8
ENDMDL
MODEL 9
REMARK VINA RESULT:      -4.7      2.781      4.228
REMARK  8 active torsions:
REMARK  status: ('A' for Active; 'I' for Inactive)
REMARK    1  A    between atoms: O1_1  and  C2_2 
REMARK    2  A    between atoms: C2_2  and  C3_3 
REMARK    3  A    between atoms: C3_3  and  N4_4 
REMARK    4  A    between atoms: C7_7  and  O9_8 
REMARK    5  A    between atoms: C10_9  and  O12_10 
REMARK    6  A    between atoms: C13_11  and  O15_12 
REMARK    7  A    between atoms: C16_13  and  C18_14 
REMARK    8  A    between atoms: C18_14  and  O19_15 
ROOT
ATOM      1  N4  <0> d   1      19.446   1.990  13.764  0.00  0.00    -0.058 N 
ATOM      2  H5  <0> d   1      20.361   2.341  14.008  0.00  0.00     0.280 HD
ATOM      3  C6  <0> d   1      19.503   0.530  13.630  0.00  0.00     0.269 C 
ATOM      4  C7  <0> d   1      18.102  -0.013  13.339  0.00  0.00     0.175 C 
ATOM      5  C10 <0> d   1      17.583   0.601  12.036  0.00  0.00     0.179 C 
ATOM      6  C13 <0> d   1      17.598   2.127  12.161  0.00  0.00     0.182 C 
ATOM      7  C16 <0> d   1      19.016   2.590  12.496  0.00  0.00     0.242 C 
ENDROOT
BRANCH   1   8
ATOM      8  C3  <0> d   1      18.490   2.347  14.821  0.00  0.00     0.261 C 
BRANCH   8   9
ATOM      9  C2  <0> d   1      19.246   2.604  16.126  0.00  0.00     0.192 C 
BRANCH   9  10
ATOM     10  O1  <0> d   1      20.170   3.678  15.938  0.00  0.00    -0.399 OA
ATOM     11  H20 <0> d   1      20.630   3.947  16.745  0.00  0.00     0.209 HD
ENDBRANCH   9  10
ENDBRANCH   8   9
ENDBRANCH   1   8
BRANCH   7  12
ATOM     12  C18 <0> d   1      19.038   4.114  12.622  0.00  0.00     0.200 C 
BRANCH  12  13
ATOM     13  O19 <0> d   1      20.341   4.541  13.027  0.00  0.00    -0.399 OA
ATOM     14  H32 <0> d   1      20.591   5.412  12.692  0.00  0.00     0.209 HD
ENDBRANCH  12  13
ENDBRANCH   7  12
BRANCH   6  15
ATOM     15  O15 <0> d   1      17.182   2.711  10.925  0.00  0.00    -0.391 OA
ATOM     16  H29 <0> d   1      17.019   3.663  10.975  0.00  0.00     0.210 HD
ENDBRANCH   6  15
BRANCH   4  17
ATOM     17  O9  <0> d   1      18.160  -1.435  13.207  0.00  0.00    -0.391 OA
ATOM     18  H27 <0> d   1      18.602  -1.881  13.942  0.00  0.00     0.210 HD
ENDBRANCH   4  17
BRANCH   5  19
ATOM     19  O12 <0> d   1      16.247   0.153  11.796  0.00  0.00    -0.390 OA
ATOM     20  H28 <0> d   1      15.915  -0.467  12.460  0.00  0.00     0.210 HD
ENDBRANCH   5  19
TORSDOF 8
ENDMDL
