MODEL 1
REMARK VINA RESULT:      -8.9      0.000      0.000
REMARK  5 active torsions:
REMARK  status: ('A' for Active; 'I' for Inactive)
REMARK    1  A    between atoms: O2_2  and  C3_3 
REMARK    2  A    between atoms: C4_4  and  O5_5 
REMARK    3  A    between atoms: C9_9  and  N10_10 
REMARK    4  A    between atoms: C12_12  and  N13_13 
REMARK       I    between atoms: N16_16  and  C17_17 
REMARK    5  A    between atoms: C17_17  and  C19_19 
ROOT
ATOM      1  N13 ZIN A   1      18.359  -1.124   8.730  0.00  0.00    -0.248 NA
ATOM      2  C14 ZIN A   1      19.713  -0.561   8.824  0.00  0.00     0.118 C 
ATOM      3  C15 ZIN A   1      19.693   0.655   9.756  0.00  0.00     0.140 C 
ATOM      4  N16 ZIN A   1      19.098   0.251  11.038  0.00  0.00    -0.348 N 
ATOM      5  C17 ZIN A   1      19.723   0.511  12.204  0.00  0.00     0.251 C 
ATOM      6  O18 ZIN A   1      20.828   1.010  12.201  0.00  0.00    -0.270 OA
ATOM      7  C30 ZIN A   1      17.802  -0.445  11.015  0.00  0.00     0.140 C 
ATOM      8  C31 ZIN A   1      17.896  -1.617  10.034  0.00  0.00     0.118 C 
ENDROOT
BRANCH   1   9
ATOM      9  C12 ZIN A   1      18.303  -2.122   7.774  0.00  0.00     0.206 A 
ATOM     10  N11 ZIN A   1      18.290  -1.774   6.489  0.00  0.00    -0.200 NA
ATOM     11  C9  ZIN A   1      18.237  -2.684   5.527  0.00  0.00     0.137 A 
ATOM     12  C8  ZIN A   1      18.193  -4.050   5.895  0.00  0.00     0.041 A 
ATOM     13  C7  ZIN A   1      18.136  -5.072   4.939  0.00  0.00     0.057 A 
ATOM     14  C33 ZIN A   1      18.209  -4.376   7.273  0.00  0.00     0.077 A 
ATOM     15  C4  ZIN A   1      18.095  -6.376   5.343  0.00  0.00     0.102 A 
ATOM     16  C3  ZIN A   1      18.109  -6.704   6.705  0.00  0.00     0.103 A 
ATOM     17  C34 ZIN A   1      18.160  -5.719   7.666  0.00  0.00     0.072 A 
ATOM     18  N32 ZIN A   1      18.265  -3.379   8.171  0.00  0.00    -0.217 NA
BRANCH  11  19
ATOM     19  N10 ZIN A   1      18.225  -2.309   4.200  0.00  0.00    -0.383 N 
ATOM     20  H42 ZIN A   1      17.448  -1.861   3.830  0.00  0.00     0.157 HD
ATOM     21  H43 ZIN A   1      18.993  -2.492   3.636  0.00  0.00     0.157 HD
ENDBRANCH  11  19
BRANCH  15  22
ATOM     22  O5  ZIN A   1      18.038  -7.366   4.412  0.00  0.00    -0.353 OA
ATOM     23  C6  ZIN A   1      16.782  -7.578   3.764  0.00  0.00     0.210 C 
ENDBRANCH  15  22
BRANCH  16  24
ATOM     24  O2  ZIN A   1      18.066  -8.009   7.082  0.00  0.00    -0.353 OA
ATOM     25  C1  ZIN A   1      16.815  -8.505   7.562  0.00  0.00     0.210 C 
ENDBRANCH  16  24
ENDBRANCH   1   9
BRANCH   5  26
ATOM     26  C19 ZIN A   1      19.048   0.181  13.511  0.00  0.00     0.245 C 
ATOM     27  O29 ZIN A   1      19.377   1.175  14.488  0.00  0.00    -0.331 OA
ATOM     28  C28 ZIN A   1      19.097   0.873  15.785  0.00  0.00     0.103 A 
ATOM     29  C23 ZIN A   1      18.862  -0.441  16.175  0.00  0.00     0.102 A 
ATOM     30  C27 ZIN A   1      19.051   1.890  16.726  0.00  0.00     0.040 A 
ATOM     31  O22 ZIN A   1      18.897  -1.454  15.267  0.00  0.00    -0.345 OA
ATOM     32  C24 ZIN A   1      18.588  -0.726  17.504  0.00  0.00     0.039 A 
ATOM     33  C21 ZIN A   1      19.545  -1.178  14.020  0.00  0.00     0.218 C 
ATOM     34  C25 ZIN A   1      18.546   0.292  18.438  0.00  0.00     0.003 A 
ATOM     35  C26 ZIN A   1      18.777   1.598  18.049  0.00  0.00     0.003 A 
ENDBRANCH   5  26
TORSDOF 5
ENDMDL
MODEL 2
REMARK VINA RESULT:      -8.7      2.727     10.607
REMARK  5 active torsions:
REMARK  status: ('A' for Active; 'I' for Inactive)
REMARK    1  A    between atoms: O2_2  and  C3_3 
REMARK    2  A    between atoms: C4_4  and  O5_5 
REMARK    3  A    between atoms: C9_9  and  N10_10 
REMARK    4  A    between atoms: C12_12  and  N13_13 
REMARK       I    between atoms: N16_16  and  C17_17 
REMARK    5  A    between atoms: C17_17  and  C19_19 
ROOT
ATOM      1  N13 ZIN A   1      18.634  -2.681  12.375  0.00  0.00    -0.248 NA
ATOM      2  C14 ZIN A   1      19.885  -3.272  11.882  0.00  0.00     0.118 C 
ATOM      3  C15 ZIN A   1      19.593  -4.650  11.278  0.00  0.00     0.140 C 
ATOM      4  N16 ZIN A   1      18.535  -4.502  10.268  0.00  0.00    -0.348 N 
ATOM      5  C17 ZIN A   1      18.691  -4.999   9.025  0.00  0.00     0.251 C 
ATOM      6  O18 ZIN A   1      19.745  -5.505   8.702  0.00  0.00    -0.270 OA
ATOM      7  C30 ZIN A   1      17.302  -3.796  10.649  0.00  0.00     0.140 C 
ATOM      8  C31 ZIN A   1      17.684  -2.453  11.277  0.00  0.00     0.118 C 
ENDROOT
BRANCH   1   9
ATOM      9  C12 ZIN A   1      18.879  -1.511  13.071  0.00  0.00     0.206 A 
ATOM     10  N11 ZIN A   1      19.350  -0.459  12.404  0.00  0.00    -0.200 NA
ATOM     11  C9  ZIN A   1      19.605   0.689  13.016  0.00  0.00     0.137 A 
ATOM     12  C8  ZIN A   1      19.364   0.777  14.408  0.00  0.00     0.041 A 
ATOM     13  C7  ZIN A   1      19.607   1.954  15.126  0.00  0.00     0.057 A 
ATOM     14  C33 ZIN A   1      18.863  -0.366  15.077  0.00  0.00     0.077 A 
ATOM     15  C4  ZIN A   1      19.360   1.992  16.469  0.00  0.00     0.102 A 
ATOM     16  C3  ZIN A   1      18.865   0.864  17.138  0.00  0.00     0.103 A 
ATOM     17  C34 ZIN A   1      18.622  -0.308  16.455  0.00  0.00     0.072 A 
ATOM     18  N32 ZIN A   1      18.637  -1.483  14.367  0.00  0.00    -0.217 NA
BRANCH  11  19
ATOM     19  N10 ZIN A   1      20.092   1.770  12.312  0.00  0.00    -0.383 N 
ATOM     20  H42 ZIN A   1      19.790   2.665  12.530  0.00  0.00     0.157 HD
ATOM     21  H43 ZIN A   1      20.737   1.636  11.600  0.00  0.00     0.157 HD
ENDBRANCH  11  19
BRANCH  15  22
ATOM     22  O5  ZIN A   1      19.598   3.136  17.165  0.00  0.00    -0.353 OA
ATOM     23  C6  ZIN A   1      19.839   4.321  16.404  0.00  0.00     0.210 C 
ENDBRANCH  15  22
BRANCH  16  24
ATOM     24  O2  ZIN A   1      18.628   0.925  18.474  0.00  0.00    -0.353 OA
ATOM     25  C1  ZIN A   1      17.342   1.394  18.884  0.00  0.00     0.210 C 
ENDBRANCH  16  24
ENDBRANCH   1   9
BRANCH   5  26
ATOM     26  C19 ZIN A   1      17.555  -4.928   8.036  0.00  0.00     0.245 C 
ATOM     27  O29 ZIN A   1      16.502  -5.807   8.447  0.00  0.00    -0.331 OA
ATOM     28  C28 ZIN A   1      15.542  -6.084   7.522  0.00  0.00     0.103 A 
ATOM     29  C23 ZIN A   1      15.764  -5.842   6.171  0.00  0.00     0.102 A 
ATOM     30  C27 ZIN A   1      14.333  -6.620   7.938  0.00  0.00     0.040 A 
ATOM     31  O22 ZIN A   1      16.942  -5.313   5.743  0.00  0.00    -0.345 OA
ATOM     32  C24 ZIN A   1      14.775  -6.142   5.247  0.00  0.00     0.039 A 
ATOM     33  C21 ZIN A   1      18.046  -5.378   6.653  0.00  0.00     0.218 C 
ATOM     34  C25 ZIN A   1      13.572  -6.678   5.667  0.00  0.00     0.003 A 
ATOM     35  C26 ZIN A   1      13.351  -6.915   7.010  0.00  0.00     0.003 A 
ENDBRANCH   5  26
TORSDOF 5
ENDMDL
MODEL 3
REMARK VINA RESULT:      -8.7      4.291     12.044
REMARK  5 active torsions:
REMARK  status: ('A' for Active; 'I' for Inactive)
REMARK    1  A    between atoms: O2_2  and  C3_3 
REMARK    2  A    between atoms: C4_4  and  O5_5 
REMARK    3  A    between atoms: C9_9  and  N10_10 
REMARK    4  A    between atoms: C12_12  and  N13_13 
REMARK       I    between atoms: N16_16  and  C17_17 
REMARK    5  A    between atoms: C17_17  and  C19_19 
ROOT
ATOM      1  N13 ZIN A   1      18.224   1.711  13.973  0.00  0.00    -0.248 NA
ATOM      2  C14 ZIN A   1      19.542   1.061  13.992  0.00  0.00     0.118 C 
ATOM      3  C15 ZIN A   1      19.478  -0.240  13.184  0.00  0.00     0.140 C 
ATOM      4  N16 ZIN A   1      18.955   0.068  11.845  0.00  0.00    -0.348 N 
ATOM      5  C17 ZIN A   1      19.603  -0.345  10.737  0.00  0.00     0.251 C 
ATOM      6  O18 ZIN A   1      20.673  -0.907  10.835  0.00  0.00    -0.270 OA
ATOM      7  C30 ZIN A   1      17.706   0.839  11.744  0.00  0.00     0.140 C 
ATOM      8  C31 ZIN A   1      17.840   2.096  12.609  0.00  0.00     0.118 C 
ENDROOT
BRANCH   1   9
ATOM      9  C12 ZIN A   1      18.198   2.802  14.823  0.00  0.00     0.206 A 
ATOM     10  N11 ZIN A   1      18.656   2.654  16.064  0.00  0.00    -0.200 NA
ATOM     11  C9  ZIN A   1      18.657   3.662  16.925  0.00  0.00     0.137 A 
ATOM     12  C8  ZIN A   1      18.155   4.914  16.495  0.00  0.00     0.041 A 
ATOM     13  C7  ZIN A   1      18.121   6.027  17.344  0.00  0.00     0.057 A 
ATOM     14  C33 ZIN A   1      17.676   5.026  15.167  0.00  0.00     0.077 A 
ATOM     15  C4  ZIN A   1      17.626   7.215  16.884  0.00  0.00     0.102 A 
ATOM     16  C3  ZIN A   1      17.151   7.332  15.572  0.00  0.00     0.103 A 
ATOM     17  C34 ZIN A   1      17.168   6.251  14.718  0.00  0.00     0.072 A 
ATOM     18  N32 ZIN A   1      17.720   3.945  14.372  0.00  0.00    -0.217 NA
BRANCH  11  19
ATOM     19  N10 ZIN A   1      19.136   3.495  18.207  0.00  0.00    -0.383 N 
ATOM     20  H42 ZIN A   1      18.939   2.682  18.696  0.00  0.00     0.157 HD
ATOM     21  H43 ZIN A   1      19.671   4.191  18.620  0.00  0.00     0.157 HD
ENDBRANCH  11  19
BRANCH  15  22
ATOM     22  O5  ZIN A   1      17.594   8.295  17.711  0.00  0.00    -0.353 OA
ATOM     23  C6  ZIN A   1      16.703   8.232  18.827  0.00  0.00     0.210 C 
ENDBRANCH  15  22
BRANCH  16  24
ATOM     24  O2  ZIN A   1      16.662   8.523  15.138  0.00  0.00    -0.353 OA
ATOM     25  C1  ZIN A   1      17.554   9.358  14.395  0.00  0.00     0.210 C 
ENDBRANCH  16  24
ENDBRANCH   1   9
BRANCH   5  26
ATOM     26  C19 ZIN A   1      18.998  -0.110   9.377  0.00  0.00     0.245 C 
ATOM     27  O29 ZIN A   1      19.383  -1.164   8.488  0.00  0.00    -0.331 OA
ATOM     28  C28 ZIN A   1      19.171  -0.951   7.160  0.00  0.00     0.103 A 
ATOM     29  C23 ZIN A   1      18.951   0.332   6.671  0.00  0.00     0.102 A 
ATOM     30  C27 ZIN A   1      19.181  -2.029   6.289  0.00  0.00     0.040 A 
ATOM     31  O22 ZIN A   1      18.933   1.403   7.510  0.00  0.00    -0.345 OA
ATOM     32  C24 ZIN A   1      18.747   0.525   5.313  0.00  0.00     0.039 A 
ATOM     33  C21 ZIN A   1      19.515   1.217   8.804  0.00  0.00     0.218 C 
ATOM     34  C25 ZIN A   1      18.761  -0.554   4.449  0.00  0.00     0.003 A 
ATOM     35  C26 ZIN A   1      18.976  -1.829   4.937  0.00  0.00     0.003 A 
ENDBRANCH   5  26
TORSDOF 5
ENDMDL
MODEL 4
REMARK VINA RESULT:      -8.6      2.291     10.781
REMARK  5 active torsions:
REMARK  status: ('A' for Active; 'I' for Inactive)
REMARK    1  A    between atoms: O2_2  and  C3_3 
REMARK    2  A    between atoms: C4_4  and  O5_5 
REMARK    3  A    between atoms: C9_9  and  N10_10 
REMARK    4  A    between atoms: C12_12  and  N13_13 
REMARK       I    between atoms: N16_16  and  C17_17 
REMARK    5  A    between atoms: C17_17  and  C19_19 
ROOT
ATOM      1  N13 ZIN A   1      18.758  -2.967  11.375  0.00  0.00    -0.248 NA
ATOM      2  C14 ZIN A   1      20.010  -3.702  11.144  0.00  0.00     0.118 C 
ATOM      3  C15 ZIN A   1      19.703  -5.007  10.402  0.00  0.00     0.140 C 
ATOM      4  N16 ZIN A   1      18.937  -4.686   9.189  0.00  0.00    -0.348 N 
ATOM      5  C17 ZIN A   1      19.319  -5.157   7.985  0.00  0.00     0.251 C 
ATOM      6  O18 ZIN A   1      20.351  -5.786   7.879  0.00  0.00    -0.270 OA
ATOM      7  C30 ZIN A   1      17.743  -3.838   9.323  0.00  0.00     0.140 C 
ATOM      8  C31 ZIN A   1      18.126  -2.579  10.106  0.00  0.00     0.118 C 
ENDROOT
BRANCH   1   9
ATOM      9  C12 ZIN A   1      18.972  -1.865  12.181  0.00  0.00     0.206 A 
ATOM     10  N11 ZIN A   1      19.731  -0.874  11.719  0.00  0.00    -0.200 NA
ATOM     11  C9  ZIN A   1      19.972   0.209  12.445  0.00  0.00     0.137 A 
ATOM     12  C8  ZIN A   1      19.402   0.293  13.738  0.00  0.00     0.041 A 
ATOM     13  C7  ZIN A   1      19.609   1.402  14.566  0.00  0.00     0.057 A 
ATOM     14  C33 ZIN A   1      18.601  -0.785  14.190  0.00  0.00     0.077 A 
ATOM     15  C4  ZIN A   1      19.038   1.438  15.806  0.00  0.00     0.102 A 
ATOM     16  C3  ZIN A   1      18.246   0.375  16.260  0.00  0.00     0.103 A 
ATOM     17  C34 ZIN A   1      18.030  -0.731  15.467  0.00  0.00     0.072 A 
ATOM     18  N32 ZIN A   1      18.416  -1.837  13.377  0.00  0.00    -0.217 NA
BRANCH  11  19
ATOM     19  N10 ZIN A   1      20.760   1.228  11.952  0.00  0.00    -0.383 N 
ATOM     20  H42 ZIN A   1      21.438   1.631  12.515  0.00  0.00     0.157 HD
ATOM     21  H43 ZIN A   1      20.636   1.541  11.042  0.00  0.00     0.157 HD
ENDBRANCH  11  19
BRANCH  15  22
ATOM     22  O5  ZIN A   1      19.242   2.516  16.610  0.00  0.00    -0.353 OA
ATOM     23  C6  ZIN A   1      19.359   3.789  15.971  0.00  0.00     0.210 C 
ENDBRANCH  15  22
BRANCH  16  24
ATOM     24  O2  ZIN A   1      17.689   0.433  17.498  0.00  0.00    -0.353 OA
ATOM     25  C1  ZIN A   1      18.479  -0.048  18.588  0.00  0.00     0.210 C 
ENDBRANCH  16  24
ENDBRANCH   1   9
BRANCH   5  26
ATOM     26  C19 ZIN A   1      18.464  -4.904   6.770  0.00  0.00     0.245 C 
ATOM     27  O29 ZIN A   1      18.297  -6.121   6.035  0.00  0.00    -0.331 OA
ATOM     28  C28 ZIN A   1      17.808  -6.008   4.769  0.00  0.00     0.103 A 
ATOM     29  C23 ZIN A   1      17.826  -4.786   4.105  0.00  0.00     0.102 A 
ATOM     30  C27 ZIN A   1      17.292  -7.128   4.137  0.00  0.00     0.040 A 
ATOM     31  O22 ZIN A   1      18.324  -3.673   4.710  0.00  0.00    -0.345 OA
ATOM     32  C24 ZIN A   1      17.331  -4.697   2.813  0.00  0.00     0.039 A 
ATOM     33  C21 ZIN A   1      19.153  -3.880   5.858  0.00  0.00     0.218 C 
ATOM     34  C25 ZIN A   1      16.820  -5.818   2.188  0.00  0.00     0.003 A 
ATOM     35  C26 ZIN A   1      16.799  -7.031   2.849  0.00  0.00     0.003 A 
ENDBRANCH   5  26
TORSDOF 5
ENDMDL
MODEL 5
REMARK VINA RESULT:      -8.5      2.736      4.493
REMARK  5 active torsions:
REMARK  status: ('A' for Active; 'I' for Inactive)
REMARK    1  A    between atoms: O2_2  and  C3_3 
REMARK    2  A    between atoms: C4_4  and  O5_5 
REMARK    3  A    between atoms: C9_9  and  N10_10 
REMARK    4  A    between atoms: C12_12  and  N13_13 
REMARK       I    between atoms: N16_16  and  C17_17 
REMARK    5  A    between atoms: C17_17  and  C19_19 
ROOT
ATOM      1  N13 ZIN A   1      19.322  -1.727  11.488  0.00  0.00    -0.248 NA
ATOM      2  C14 ZIN A   1      18.242  -2.063  12.426  0.00  0.00     0.118 C 
ATOM      3  C15 ZIN A   1      18.590  -1.521  13.817  0.00  0.00     0.140 C 
ATOM      4  N16 ZIN A   1      18.887  -0.086  13.698  0.00  0.00    -0.348 N 
ATOM      5  C17 ZIN A   1      18.282   0.814  14.499  0.00  0.00     0.251 C 
ATOM      6  O18 ZIN A   1      17.421   0.454  15.274  0.00  0.00    -0.270 OA
ATOM      7  C30 ZIN A   1      19.861   0.342  12.683  0.00  0.00     0.140 C 
ATOM      8  C31 ZIN A   1      19.463  -0.272  11.337  0.00  0.00     0.118 C 
ENDROOT
BRANCH   1   9
ATOM      9  C12 ZIN A   1      19.122  -2.336  10.263  0.00  0.00     0.206 A 
ATOM     10  N11 ZIN A   1      18.704  -3.600  10.240  0.00  0.00    -0.200 NA
ATOM     11  C9  ZIN A   1      18.495  -4.238   9.098  0.00  0.00     0.137 A 
ATOM     12  C8  ZIN A   1      18.727  -3.543   7.887  0.00  0.00     0.041 A 
ATOM     13  C7  ZIN A   1      18.529  -4.146   6.639  0.00  0.00     0.057 A 
ATOM     14  C33 ZIN A   1      19.171  -2.200   7.957  0.00  0.00     0.077 A 
ATOM     15  C4  ZIN A   1      18.767  -3.435   5.497  0.00  0.00     0.102 A 
ATOM     16  C3  ZIN A   1      19.207  -2.106   5.560  0.00  0.00     0.103 A 
ATOM     17  C34 ZIN A   1      19.414  -1.490   6.775  0.00  0.00     0.072 A 
ATOM     18  N32 ZIN A   1      19.353  -1.643   9.166  0.00  0.00    -0.217 NA
BRANCH  11  19
ATOM     19  N10 ZIN A   1      18.061  -5.547   9.089  0.00  0.00    -0.383 N 
ATOM     20  H42 ZIN A   1      18.105  -6.077   9.900  0.00  0.00     0.157 HD
ATOM     21  H43 ZIN A   1      17.713  -5.938   8.273  0.00  0.00     0.157 HD
ENDBRANCH  11  19
BRANCH  15  22
ATOM     22  O5  ZIN A   1      18.575  -4.024   4.286  0.00  0.00    -0.353 OA
ATOM     23  C6  ZIN A   1      17.232  -4.087   3.801  0.00  0.00     0.210 C 
ENDBRANCH  15  22
BRANCH  16  24
ATOM     24  O2  ZIN A   1      19.438  -1.419   4.411  0.00  0.00    -0.353 OA
ATOM     25  C1  ZIN A   1      18.950  -0.077   4.348  0.00  0.00     0.210 C 
ENDBRANCH  16  24
ENDBRANCH   1   9
BRANCH   5  26
ATOM     26  C19 ZIN A   1      18.676   2.267  14.433  0.00  0.00     0.245 C 
ATOM     27  O29 ZIN A   1      18.391   2.902  15.684  0.00  0.00    -0.331 OA
ATOM     28  C28 ZIN A   1      18.408   4.264  15.696  0.00  0.00     0.103 A 
ATOM     29  C23 ZIN A   1      18.333   4.987  14.511  0.00  0.00     0.102 A 
ATOM     30  C27 ZIN A   1      18.497   4.932  16.908  0.00  0.00     0.040 A 
ATOM     31  O22 ZIN A   1      18.250   4.351  13.311  0.00  0.00    -0.345 OA
ATOM     32  C24 ZIN A   1      18.343   6.373  14.549  0.00  0.00     0.039 A 
ATOM     33  C21 ZIN A   1      17.863   2.973  13.338  0.00  0.00     0.218 C 
ATOM     34  C25 ZIN A   1      18.430   7.033  15.760  0.00  0.00     0.003 A 
ATOM     35  C26 ZIN A   1      18.507   6.314  16.937  0.00  0.00     0.003 A 
ENDBRANCH   5  26
TORSDOF 5
ENDMDL
MODEL 6
REMARK VINA RESULT:      -8.5      4.682     11.116
REMARK  5 active torsions:
REMARK  status: ('A' for Active; 'I' for Inactive)
REMARK    1  A    between atoms: O2_2  and  C3_3 
REMARK    2  A    between atoms: C4_4  and  O5_5 
REMARK    3  A    between atoms: C9_9  and  N10_10 
REMARK    4  A    between atoms: C12_12  and  N13_13 
REMARK       I    between atoms: N16_16  and  C17_17 
REMARK    5  A    between atoms: C17_17  and  C19_19 
ROOT
ATOM      1  N13 ZIN A   1      19.109   3.235  11.671  0.00  0.00    -0.248 NA
ATOM      2  C14 ZIN A   1      18.227   3.350  10.501  0.00  0.00     0.118 C 
ATOM      3  C15 ZIN A   1      18.675   2.352   9.428  0.00  0.00     0.140 C 
ATOM      4  N16 ZIN A   1      18.736   1.013  10.032  0.00  0.00    -0.348 N 
ATOM      5  C17 ZIN A   1      18.117  -0.036   9.453  0.00  0.00     0.251 C 
ATOM      6  O18 ZIN A   1      17.432   0.133   8.466  0.00  0.00    -0.270 OA
ATOM      7  C30 ZIN A   1      19.489   0.847  11.284  0.00  0.00     0.140 C 
ATOM      8  C31 ZIN A   1      19.010   1.904  12.284  0.00  0.00     0.118 C 
ENDROOT
BRANCH   1   9
ATOM      9  C12 ZIN A   1      18.838   4.228  12.594  0.00  0.00     0.206 A 
ATOM     10  N11 ZIN A   1      19.855   4.781  13.252  0.00  0.00    -0.200 NA
ATOM     11  C9  ZIN A   1      19.660   5.737  14.149  0.00  0.00     0.137 A 
ATOM     12  C8  ZIN A   1      18.333   6.165  14.399  0.00  0.00     0.041 A 
ATOM     13  C7  ZIN A   1      18.044   7.169  15.330  0.00  0.00     0.057 A 
ATOM     14  C33 ZIN A   1      17.282   5.549  13.677  0.00  0.00     0.077 A 
ATOM     15  C4  ZIN A   1      16.748   7.547  15.538  0.00  0.00     0.102 A 
ATOM     16  C3  ZIN A   1      15.703   6.942  14.827  0.00  0.00     0.103 A 
ATOM     17  C34 ZIN A   1      15.960   5.948  13.908  0.00  0.00     0.072 A 
ATOM     18  N32 ZIN A   1      17.585   4.589  12.788  0.00  0.00    -0.217 NA
BRANCH  11  19
ATOM     19  N10 ZIN A   1      20.723   6.302  14.823  0.00  0.00    -0.383 N 
ATOM     20  H42 ZIN A   1      21.546   6.499  14.350  0.00  0.00     0.157 HD
ATOM     21  H43 ZIN A   1      20.647   6.502  15.769  0.00  0.00     0.157 HD
ENDBRANCH  11  19
BRANCH  15  22
ATOM     22  O5  ZIN A   1      16.468   8.523  16.444  0.00  0.00    -0.353 OA
ATOM     23  C6  ZIN A   1      17.395   9.606  16.538  0.00  0.00     0.210 C 
ENDBRANCH  15  22
BRANCH  16  24
ATOM     24  O2  ZIN A   1      14.422   7.335  15.051  0.00  0.00    -0.353 OA
ATOM     25  C1  ZIN A   1      13.423   6.312  15.066  0.00  0.00     0.210 C 
ENDBRANCH  16  24
ENDBRANCH   1   9
BRANCH   5  26
ATOM     26  C19 ZIN A   1      18.277  -1.418  10.030  0.00  0.00     0.245 C 
ATOM     27  O29 ZIN A   1      17.871  -2.395   9.065  0.00  0.00    -0.331 OA
ATOM     28  C28 ZIN A   1      17.672  -3.661   9.524  0.00  0.00     0.103 A 
ATOM     29  C23 ZIN A   1      17.507  -3.909  10.883  0.00  0.00     0.102 A 
ATOM     30  C27 ZIN A   1      17.629  -4.712   8.622  0.00  0.00     0.040 A 
ATOM     31  O22 ZIN A   1      17.551  -2.892  11.786  0.00  0.00    -0.345 OA
ATOM     32  C24 ZIN A   1      17.297  -5.206  11.326  0.00  0.00     0.039 A 
ATOM     33  C21 ZIN A   1      17.386  -1.566  11.271  0.00  0.00     0.218 C 
ATOM     34  C25 ZIN A   1      17.253  -6.249  10.420  0.00  0.00     0.003 A 
ATOM     35  C26 ZIN A   1      17.420  -6.003   9.071  0.00  0.00     0.003 A 
ENDBRANCH   5  26
TORSDOF 5
ENDMDL
MODEL 7
REMARK VINA RESULT:      -8.3      3.666      5.690
REMARK  5 active torsions:
REMARK  status: ('A' for Active; 'I' for Inactive)
REMARK    1  A    between atoms: O2_2  and  C3_3 
REMARK    2  A    between atoms: C4_4  and  O5_5 
REMARK    3  A    between atoms: C9_9  and  N10_10 
REMARK    4  A    between atoms: C12_12  and  N13_13 
REMARK       I    between atoms: N16_16  and  C17_17 
REMARK    5  A    between atoms: C17_17  and  C19_19 
ROOT
ATOM      1  N13 ZIN A   1      18.768   2.695  11.575  0.00  0.00    -0.248 NA
ATOM      2  C14 ZIN A   1      20.025   3.411  11.833  0.00  0.00     0.118 C 
ATOM      3  C15 ZIN A   1      19.721   4.722  12.566  0.00  0.00     0.140 C 
ATOM      4  N16 ZIN A   1      18.924   4.414  13.763  0.00  0.00    -0.348 N 
ATOM      5  C17 ZIN A   1      19.287   4.881  14.974  0.00  0.00     0.251 C 
ATOM      6  O18 ZIN A   1      20.324   5.496  15.102  0.00  0.00    -0.270 OA
ATOM      7  C30 ZIN A   1      17.721   3.582  13.604  0.00  0.00     0.140 C 
ATOM      8  C31 ZIN A   1      18.104   2.317  12.830  0.00  0.00     0.118 C 
ENDROOT
BRANCH   1   9
ATOM      9  C12 ZIN A   1      18.984   1.588  10.775  0.00  0.00     0.206 A 
ATOM     10  N11 ZIN A   1      19.697   0.576  11.264  0.00  0.00    -0.200 NA
ATOM     11  C9  ZIN A   1      19.938  -0.511  10.545  0.00  0.00     0.137 A 
ATOM     12  C8  ZIN A   1      19.417  -0.578   9.231  0.00  0.00     0.041 A 
ATOM     13  C7  ZIN A   1      19.627  -1.691   8.408  0.00  0.00     0.057 A 
ATOM     14  C33 ZIN A   1      18.664   0.521   8.750  0.00  0.00     0.077 A 
ATOM     15  C4  ZIN A   1      19.105  -1.709   7.146  0.00  0.00     0.102 A 
ATOM     16  C3  ZIN A   1      18.359  -0.625   6.664  0.00  0.00     0.103 A 
ATOM     17  C34 ZIN A   1      18.142   0.485   7.451  0.00  0.00     0.072 A 
ATOM     18  N32 ZIN A   1      18.475   1.577   9.558  0.00  0.00    -0.217 NA
BRANCH  11  19
ATOM     19  N10 ZIN A   1      20.679  -1.552  11.066  0.00  0.00    -0.383 N 
ATOM     20  H42 ZIN A   1      20.236  -2.267  11.548  0.00  0.00     0.157 HD
ATOM     21  H43 ZIN A   1      21.642  -1.569  10.949  0.00  0.00     0.157 HD
ENDBRANCH  11  19
BRANCH  15  22
ATOM     22  O5  ZIN A   1      19.311  -2.792   6.349  0.00  0.00    -0.353 OA
ATOM     23  C6  ZIN A   1      19.959  -3.920   6.940  0.00  0.00     0.210 C 
ENDBRANCH  15  22
BRANCH  16  24
ATOM     24  O2  ZIN A   1      17.851  -0.666   5.405  0.00  0.00    -0.353 OA
ATOM     25  C1  ZIN A   1      18.666  -0.135   4.359  0.00  0.00     0.210 C 
ENDBRANCH  16  24
ENDBRANCH   1   9
BRANCH   5  26
ATOM     26  C19 ZIN A   1      18.402   4.641  16.170  0.00  0.00     0.245 C 
ATOM     27  O29 ZIN A   1      18.266   5.853  16.922  0.00  0.00    -0.331 OA
ATOM     28  C28 ZIN A   1      17.752   5.739  18.177  0.00  0.00     0.103 A 
ATOM     29  C23 ZIN A   1      17.713   4.508  18.822  0.00  0.00     0.102 A 
ATOM     30  C27 ZIN A   1      17.266   6.868  18.817  0.00  0.00     0.040 A 
ATOM     31  O22 ZIN A   1      18.180   3.386  18.209  0.00  0.00    -0.345 OA
ATOM     32  C24 ZIN A   1      17.193   4.418  20.104  0.00  0.00     0.039 A 
ATOM     33  C21 ZIN A   1      19.037   3.579  17.078  0.00  0.00     0.218 C 
ATOM     34  C25 ZIN A   1      16.712   5.548  20.738  0.00  0.00     0.003 A 
ATOM     35  C26 ZIN A   1      16.748   6.771  20.095  0.00  0.00     0.003 A 
ENDBRANCH   5  26
TORSDOF 5
ENDMDL
MODEL 8
REMARK VINA RESULT:      -8.3      2.681     10.799
REMARK  5 active torsions:
REMARK  status: ('A' for Active; 'I' for Inactive)
REMARK    1  A    between atoms: O2_2  and  C3_3 
REMARK    2  A    between atoms: C4_4  and  O5_5 
REMARK    3  A    between atoms: C9_9  and  N10_10 
REMARK    4  A    between atoms: C12_12  and  N13_13 
REMARK       I    between atoms: N16_16  and  C17_17 
REMARK    5  A    between atoms: C17_17  and  C19_19 
ROOT
ATOM      1  N13 ZIN A   1      18.289  -2.579  12.096  0.00  0.00    -0.248 NA
ATOM      2  C14 ZIN A   1      19.571  -3.291  12.006  0.00  0.00     0.118 C 
ATOM      3  C15 ZIN A   1      19.383  -4.572  11.186  0.00  0.00     0.140 C 
ATOM      4  N16 ZIN A   1      18.777  -4.216   9.895  0.00  0.00    -0.348 N 
ATOM      5  C17 ZIN A   1      19.320  -4.640   8.736  0.00  0.00     0.251 C 
ATOM      6  O18 ZIN A   1      20.366  -5.254   8.745  0.00  0.00    -0.270 OA
ATOM      7  C30 ZIN A   1      17.563  -3.386   9.901  0.00  0.00     0.140 C 
ATOM      8  C31 ZIN A   1      17.822  -2.152  10.770  0.00  0.00     0.118 C 
ENDROOT
BRANCH   1   9
ATOM      9  C12 ZIN A   1      18.379  -1.503  12.961  0.00  0.00     0.206 A 
ATOM     10  N11 ZIN A   1      18.651  -1.736  14.242  0.00  0.00    -0.200 NA
ATOM     11  C9  ZIN A   1      18.750  -0.747  15.119  0.00  0.00     0.137 A 
ATOM     12  C8  ZIN A   1      18.559   0.579  14.662  0.00  0.00     0.041 A 
ATOM     13  C7  ZIN A   1      18.647   1.678  15.525  0.00  0.00     0.057 A 
ATOM     14  C33 ZIN A   1      18.271   0.781  13.290  0.00  0.00     0.077 A 
ATOM     15  C4  ZIN A   1      18.453   2.939  15.038  0.00  0.00     0.102 A 
ATOM     16  C3  ZIN A   1      18.167   3.146  13.682  0.00  0.00     0.103 A 
ATOM     17  C34 ZIN A   1      18.070   2.082  12.812  0.00  0.00     0.072 A 
ATOM     18  N32 ZIN A   1      18.192  -0.288  12.482  0.00  0.00    -0.217 NA
BRANCH  11  19
ATOM     19  N10 ZIN A   1      19.033  -1.004  16.444  0.00  0.00    -0.383 N 
ATOM     20  H42 ZIN A   1      19.954  -1.072  16.739  0.00  0.00     0.157 HD
ATOM     21  H43 ZIN A   1      18.311  -1.117  17.082  0.00  0.00     0.157 HD
ENDBRANCH  11  19
BRANCH  15  22
ATOM     22  O5  ZIN A   1      18.538   4.005  15.878  0.00  0.00    -0.353 OA
ATOM     23  C6  ZIN A   1      19.846   4.392  16.306  0.00  0.00     0.210 C 
ENDBRANCH  15  22
BRANCH  16  24
ATOM     24  O2  ZIN A   1      17.978   4.410  13.220  0.00  0.00    -0.353 OA
ATOM     25  C1  ZIN A   1      18.252   4.644  11.837  0.00  0.00     0.210 C 
ENDBRANCH  16  24
ENDBRANCH   1   9
BRANCH   5  26
ATOM     26  C19 ZIN A   1      18.627  -4.352   7.429  0.00  0.00     0.245 C 
ATOM     27  O29 ZIN A   1      18.385  -5.579   6.730  0.00  0.00    -0.331 OA
ATOM     28  C28 ZIN A   1      18.041  -5.476   5.417  0.00  0.00     0.103 A 
ATOM     29  C23 ZIN A   1      18.274  -4.302   4.710  0.00  0.00     0.102 A 
ATOM     30  C27 ZIN A   1      17.457  -6.560   4.781  0.00  0.00     0.040 A 
ATOM     31  O22 ZIN A   1      18.842  -3.224   5.317  0.00  0.00    -0.345 OA
ATOM     32  C24 ZIN A   1      17.924  -4.224   3.370  0.00  0.00     0.039 A 
ATOM     33  C21 ZIN A   1      19.523  -3.467   6.553  0.00  0.00     0.218 C 
ATOM     34  C25 ZIN A   1      17.343  -5.309   2.741  0.00  0.00     0.003 A 
ATOM     35  C26 ZIN A   1      17.110  -6.474   3.445  0.00  0.00     0.003 A 
ENDBRANCH   5  26
TORSDOF 5
ENDMDL
MODEL 9
REMARK VINA RESULT:      -8.2      2.861     10.636
REMARK  5 active torsions:
REMARK  status: ('A' for Active; 'I' for Inactive)
REMARK    1  A    between atoms: O2_2  and  C3_3 
REMARK    2  A    between atoms: C4_4  and  O5_5 
REMARK    3  A    between atoms: C9_9  and  N10_10 
REMARK    4  A    between atoms: C12_12  and  N13_13 
REMARK       I    between atoms: N16_16  and  C17_17 
REMARK    5  A    between atoms: C17_17  and  C19_19 
ROOT
ATOM      1  N13 ZIN A   1      19.505   1.995  11.596  0.00  0.00    -0.248 NA
ATOM      2  C14 ZIN A   1      18.509   2.431  10.607  0.00  0.00     0.118 C 
ATOM      3  C15 ZIN A   1      18.923   1.935   9.217  0.00  0.00     0.140 C 
ATOM      4  N16 ZIN A   1      19.139   0.483   9.284  0.00  0.00    -0.348 N 
ATOM      5  C17 ZIN A   1      18.545  -0.346   8.402  0.00  0.00     0.251 C 
ATOM      6  O18 ZIN A   1      17.758   0.094   7.591  0.00  0.00    -0.270 OA
ATOM      7  C30 ZIN A   1      20.019  -0.043  10.339  0.00  0.00     0.140 C 
ATOM      8  C31 ZIN A   1      19.562   0.530  11.684  0.00  0.00     0.118 C 
ENDROOT
BRANCH   1   9
ATOM      9  C12 ZIN A   1      19.253   2.557  12.834  0.00  0.00     0.206 A 
ATOM     10  N11 ZIN A   1      19.025   3.867  12.905  0.00  0.00    -0.200 NA
ATOM     11  C9  ZIN A   1      18.777   4.464  14.062  0.00  0.00     0.137 A 
ATOM     12  C8  ZIN A   1      18.761   3.673  15.237  0.00  0.00     0.041 A 
ATOM     13  C7  ZIN A   1      18.507   4.228  16.497  0.00  0.00     0.057 A 
ATOM     14  C33 ZIN A   1      19.009   2.284  15.115  0.00  0.00     0.077 A 
ATOM     15  C4  ZIN A   1      18.502   3.425  17.602  0.00  0.00     0.102 A 
ATOM     16  C3  ZIN A   1      18.748   2.050  17.489  0.00  0.00     0.103 A 
ATOM     17  C34 ZIN A   1      19.005   1.480  16.261  0.00  0.00     0.072 A 
ATOM     18  N32 ZIN A   1      19.249   1.775  13.896  0.00  0.00    -0.217 NA
BRANCH  11  19
ATOM     19  N10 ZIN A   1      18.542   5.821  14.121  0.00  0.00    -0.383 N 
ATOM     20  H42 ZIN A   1      18.536   6.276  14.977  0.00  0.00     0.157 HD
ATOM     21  H43 ZIN A   1      18.382   6.322  13.305  0.00  0.00     0.157 HD
ENDBRANCH  11  19
BRANCH  15  22
ATOM     22  O5  ZIN A   1      18.257   3.966  18.826  0.00  0.00    -0.353 OA
ATOM     23  C6  ZIN A   1      16.907   4.338  19.112  0.00  0.00     0.210 C 
ENDBRANCH  15  22
BRANCH  16  24
ATOM     24  O2  ZIN A   1      18.739   1.272  18.603  0.00  0.00    -0.353 OA
ATOM     25  C1  ZIN A   1      18.902  -0.135  18.412  0.00  0.00     0.210 C 
ENDBRANCH  16  24
ENDBRANCH   1   9
BRANCH   5  26
ATOM     26  C19 ZIN A   1      18.861  -1.820   8.423  0.00  0.00     0.245 C 
ATOM     27  O29 ZIN A   1      18.555  -2.397   7.148  0.00  0.00    -0.331 OA
ATOM     28  C28 ZIN A   1      18.500  -3.756   7.090  0.00  0.00     0.103 A 
ATOM     29  C23 ZIN A   1      18.375  -4.514   8.249  0.00  0.00     0.102 A 
ATOM     30  C27 ZIN A   1      18.565  -4.387   5.858  0.00  0.00     0.040 A 
ATOM     31  O22 ZIN A   1      18.315  -3.914   9.470  0.00  0.00    -0.345 OA
ATOM     32  C24 ZIN A   1      18.312  -5.896   8.165  0.00  0.00     0.039 A 
ATOM     33  C21 ZIN A   1      18.002  -2.517   9.486  0.00  0.00     0.218 C 
ATOM     34  C25 ZIN A   1      18.375  -6.519   6.933  0.00  0.00     0.003 A 
ATOM     35  C26 ZIN A   1      18.502  -5.766   5.781  0.00  0.00     0.003 A 
ENDBRANCH   5  26
TORSDOF 5
ENDMDL
