MODEL 1
REMARK VINA RESULT:      -8.8      0.000      0.000
REMARK  5 active torsions:
REMARK  status: ('A' for Active; 'I' for Inactive)
REMARK    1  A    between atoms: N6_6  and  C7_7 
REMARK    2  A    between atoms: C7_7  and  C8_8 
REMARK    3  A    between atoms: C8_8  and  C9_9 
REMARK    4  A    between atoms: C9_9  and  N10_10 
REMARK    5  A    between atoms: C21_21  and  C22_22 
ROOT
ATOM      1  N10 ZIN A   1      18.197   2.442  13.434  0.00  0.00    -0.345 N 
ATOM      2  C11 ZIN A   1      18.311   2.743  12.079  0.00  0.00     0.052 A 
ATOM      3  C12 ZIN A   1      17.613   3.834  11.574  0.00  0.00     0.031 A 
ATOM      4  C13 ZIN A   1      17.705   4.165  10.236  0.00  0.00     0.002 A 
ATOM      5  C14 ZIN A   1      18.493   3.412   9.387  0.00  0.00     0.002 A 
ATOM      6  C15 ZIN A   1      19.191   2.322   9.878  0.00  0.00     0.021 A 
ATOM      7  C16 ZIN A   1      19.102   1.984  11.222  0.00  0.00     0.032 A 
ATOM      8  S17 ZIN A   1      19.994   0.588  11.819  0.00  0.00    -0.086 SA
ATOM      9  C18 ZIN A   1      19.214   0.232  13.356  0.00  0.00     0.032 A 
ATOM     10  C19 ZIN A   1      19.405  -1.011  13.943  0.00  0.00     0.022 A 
ATOM     11  C20 ZIN A   1      18.799  -1.313  15.149  0.00  0.00     0.017 A 
ATOM     12  C21 ZIN A   1      17.999  -0.374  15.772  0.00  0.00     0.050 A 
ATOM     13  C26 ZIN A   1      17.804   0.867  15.195  0.00  0.00     0.047 A 
ATOM     14  C27 ZIN A   1      18.415   1.181  13.983  0.00  0.00     0.053 A 
ENDROOT
BRANCH   1  15
ATOM     15  C9  ZIN A   1      17.829   3.528  14.345  0.00  0.00     0.131 C 
BRANCH  15  16
ATOM     16  C8  ZIN A   1      19.064   4.381  14.646  0.00  0.00     0.050 C 
BRANCH  16  17
ATOM     17  C7  ZIN A   1      19.575   4.059  16.053  0.00  0.00     0.274 C 
BRANCH  17  18
ATOM     18  N6  ZIN A   1      18.437   3.951  16.975  0.00  0.00     0.091 N 
ATOM     19  C5  ZIN A   1      18.068   5.268  17.513  0.00  0.00     0.300 C 
ATOM     20  C4  ZIN A   1      16.844   5.121  18.419  0.00  0.00     0.264 C 
ATOM     21  N2  ZIN A   1      17.156   4.195  19.516  0.00  0.00    -0.072 N 
ATOM     22  C1  ZIN A   1      15.986   4.067  20.396  0.00  0.00     0.269 C 
ATOM     23  H3  ZIN A   1      17.937   4.550  20.044  0.00  0.00     0.279 HD
ATOM     24  C29 ZIN A   1      17.497   2.878  18.963  0.00  0.00     0.264 C 
ATOM     25  C28 ZIN A   1      18.727   3.005  18.062  0.00  0.00     0.300 C 
ENDBRANCH  17  18
ENDBRANCH  16  17
ENDBRANCH  15  16
ENDBRANCH   1  15
BRANCH  12  26
ATOM     26  C22 ZIN A   1      17.339  -0.703  17.086  0.00  0.00     0.417 C 
ATOM     27  F23 ZIN A   1      16.881  -2.024  17.060  0.00  0.00    -0.166 F 
ATOM     28  F24 ZIN A   1      18.264  -0.550  18.124  0.00  0.00    -0.166 F 
ATOM     29  F25 ZIN A   1      16.258   0.161  17.293  0.00  0.00    -0.166 F 
ENDBRANCH  12  26
TORSDOF 5
ENDMDL
MODEL 2
REMARK VINA RESULT:      -8.5      3.813      7.935
REMARK  5 active torsions:
REMARK  status: ('A' for Active; 'I' for Inactive)
REMARK    1  A    between atoms: N6_6  and  C7_7 
REMARK    2  A    between atoms: C7_7  and  C8_8 
REMARK    3  A    between atoms: C8_8  and  C9_9 
REMARK    4  A    between atoms: C9_9  and  N10_10 
REMARK    5  A    between atoms: C21_21  and  C22_22 
ROOT
ATOM      1  N10 ZIN A   1      18.491   1.408  14.561  0.00  0.00    -0.345 N 
ATOM      2  C11 ZIN A   1      18.530   1.075  15.912  0.00  0.00     0.052 A 
ATOM      3  C12 ZIN A   1      18.086  -0.183  16.305  0.00  0.00     0.031 A 
ATOM      4  C13 ZIN A   1      18.114  -0.549  17.638  0.00  0.00     0.002 A 
ATOM      5  C14 ZIN A   1      18.583   0.334  18.591  0.00  0.00     0.002 A 
ATOM      6  C15 ZIN A   1      19.024   1.590  18.211  0.00  0.00     0.021 A 
ATOM      7  C16 ZIN A   1      18.999   1.964  16.875  0.00  0.00     0.032 A 
ATOM      8  S17 ZIN A   1      19.560   3.570  16.419  0.00  0.00    -0.086 SA
ATOM      9  C18 ZIN A   1      18.887   3.796  14.809  0.00  0.00     0.032 A 
ATOM     10  C19 ZIN A   1      18.814   5.076  14.276  0.00  0.00     0.022 A 
ATOM     11  C20 ZIN A   1      18.287   5.277  13.014  0.00  0.00     0.017 A 
ATOM     12  C21 ZIN A   1      17.830   4.199  12.278  0.00  0.00     0.050 A 
ATOM     13  C26 ZIN A   1      17.900   2.921  12.801  0.00  0.00     0.047 A 
ATOM     14  C27 ZIN A   1      18.435   2.710  14.070  0.00  0.00     0.053 A 
ENDROOT
BRANCH   1  15
ATOM     15  C9  ZIN A   1      18.519   0.313  13.588  0.00  0.00     0.131 C 
BRANCH  15  16
ATOM     16  C8  ZIN A   1      19.967  -0.125  13.354  0.00  0.00     0.050 C 
BRANCH  16  17
ATOM     17  C7  ZIN A   1      20.391   0.255  11.933  0.00  0.00     0.274 C 
BRANCH  17  18
ATOM     18  N6  ZIN A   1      19.668  -0.581  10.966  0.00  0.00     0.091 N 
ATOM     19  C5  ZIN A   1      19.900  -2.008  11.228  0.00  0.00     0.300 C 
ATOM     20  C4  ZIN A   1      19.083  -2.844  10.239  0.00  0.00     0.264 C 
ATOM     21  N2  ZIN A   1      19.485  -2.508   8.867  0.00  0.00    -0.072 N 
ATOM     22  C1  ZIN A   1      18.714  -3.324   7.918  0.00  0.00     0.269 C 
ATOM     23  H3  ZIN A   1      20.469  -2.696   8.749  0.00  0.00     0.279 HD
ATOM     24  C29 ZIN A   1      19.224  -1.085   8.613  0.00  0.00     0.264 C 
ATOM     25  C28 ZIN A   1      20.042  -0.235   9.588  0.00  0.00     0.300 C 
ENDBRANCH  17  18
ENDBRANCH  16  17
ENDBRANCH  15  16
ENDBRANCH   1  15
BRANCH  12  26
ATOM     26  C22 ZIN A   1      17.256   4.418  10.903  0.00  0.00     0.417 C 
ATOM     27  F23 ZIN A   1      15.927   4.842  11.014  0.00  0.00    -0.166 F 
ATOM     28  F24 ZIN A   1      18.002   5.393  10.235  0.00  0.00    -0.166 F 
ATOM     29  F25 ZIN A   1      17.302   3.219  10.183  0.00  0.00    -0.166 F 
ENDBRANCH  12  26
TORSDOF 5
ENDMDL
MODEL 3
REMARK VINA RESULT:      -8.5      4.937      6.725
REMARK  5 active torsions:
REMARK  status: ('A' for Active; 'I' for Inactive)
REMARK    1  A    between atoms: N6_6  and  C7_7 
REMARK    2  A    between atoms: C7_7  and  C8_8 
REMARK    3  A    between atoms: C8_8  and  C9_9 
REMARK    4  A    between atoms: C9_9  and  N10_10 
REMARK    5  A    between atoms: C21_21  and  C22_22 
ROOT
ATOM      1  N10 ZIN A   1      18.522  -1.729   8.370  0.00  0.00    -0.345 N 
ATOM      2  C11 ZIN A   1      18.600  -1.232   7.071  0.00  0.00     0.052 A 
ATOM      3  C12 ZIN A   1      18.168   0.066   6.823  0.00  0.00     0.031 A 
ATOM      4  C13 ZIN A   1      18.235   0.593   5.547  0.00  0.00     0.002 A 
ATOM      5  C14 ZIN A   1      18.733  -0.167   4.507  0.00  0.00     0.002 A 
ATOM      6  C15 ZIN A   1      19.164  -1.461   4.742  0.00  0.00     0.021 A 
ATOM      7  C16 ZIN A   1      19.099  -1.997   6.021  0.00  0.00     0.032 A 
ATOM      8  S17 ZIN A   1      19.648  -3.648   6.291  0.00  0.00    -0.086 SA
ATOM      9  C18 ZIN A   1      18.928  -4.069   7.841  0.00  0.00     0.032 A 
ATOM     10  C19 ZIN A   1      18.840  -5.405   8.210  0.00  0.00     0.022 A 
ATOM     11  C20 ZIN A   1      18.276  -5.758   9.421  0.00  0.00     0.017 A 
ATOM     12  C21 ZIN A   1      17.796  -4.778  10.270  0.00  0.00     0.050 A 
ATOM     13  C26 ZIN A   1      17.881  -3.445   9.911  0.00  0.00     0.047 A 
ATOM     14  C27 ZIN A   1      18.452  -3.081   8.695  0.00  0.00     0.053 A 
ENDROOT
BRANCH   1  15
ATOM     15  C9  ZIN A   1      18.520  -0.762   9.470  0.00  0.00     0.131 C 
BRANCH  15  16
ATOM     16  C8  ZIN A   1      19.953  -0.303   9.749  0.00  0.00     0.050 C 
BRANCH  16  17
ATOM     17  C7  ZIN A   1      20.454  -0.954  11.042  0.00  0.00     0.274 C 
BRANCH  17  18
ATOM     18  N6  ZIN A   1      19.618  -0.514  12.167  0.00  0.00     0.091 N 
ATOM     19  C5  ZIN A   1      20.272   0.567  12.917  0.00  0.00     0.300 C 
ATOM     20  C4  ZIN A   1      19.345   1.036  14.041  0.00  0.00     0.264 C 
ATOM     21  N2  ZIN A   1      19.048  -0.093  14.933  0.00  0.00    -0.072 N 
ATOM     22  C1  ZIN A   1      18.173   0.362  16.023  0.00  0.00     0.269 C 
ATOM     23  H3  ZIN A   1      19.908  -0.451  15.320  0.00  0.00     0.279 HD
ATOM     24  C29 ZIN A   1      18.373  -1.153  14.174  0.00  0.00     0.264 C 
ATOM     25  C28 ZIN A   1      19.291  -1.641  13.051  0.00  0.00     0.300 C 
ENDBRANCH  17  18
ENDBRANCH  16  17
ENDBRANCH  15  16
ENDBRANCH   1  15
BRANCH  12  26
ATOM     26  C22 ZIN A   1      17.181  -5.162  11.590  0.00  0.00     0.417 C 
ATOM     27  F23 ZIN A   1      17.331  -6.539  11.792  0.00  0.00    -0.166 F 
ATOM     28  F24 ZIN A   1      17.820  -4.468  12.623  0.00  0.00    -0.166 F 
ATOM     29  F25 ZIN A   1      15.820  -4.839  11.582  0.00  0.00    -0.166 F 
ENDBRANCH  12  26
TORSDOF 5
ENDMDL
MODEL 4
REMARK VINA RESULT:      -8.4      3.510      4.643
REMARK  5 active torsions:
REMARK  status: ('A' for Active; 'I' for Inactive)
REMARK    1  A    between atoms: N6_6  and  C7_7 
REMARK    2  A    between atoms: C7_7  and  C8_8 
REMARK    3  A    between atoms: C8_8  and  C9_9 
REMARK    4  A    between atoms: C9_9  and  N10_10 
REMARK    5  A    between atoms: C21_21  and  C22_22 
ROOT
ATOM      1  N10 ZIN A   1      18.028  -0.451  11.617  0.00  0.00    -0.345 N 
ATOM      2  C11 ZIN A   1      18.153   0.815  11.051  0.00  0.00     0.052 A 
ATOM      3  C12 ZIN A   1      17.516   1.888  11.662  0.00  0.00     0.031 A 
ATOM      4  C13 ZIN A   1      17.621   3.160  11.131  0.00  0.00     0.002 A 
ATOM      5  C14 ZIN A   1      18.363   3.373   9.985  0.00  0.00     0.002 A 
ATOM      6  C15 ZIN A   1      19.000   2.312   9.367  0.00  0.00     0.021 A 
ATOM      7  C16 ZIN A   1      18.897   1.032   9.895  0.00  0.00     0.032 A 
ATOM      8  S17 ZIN A   1      19.712  -0.302   9.084  0.00  0.00    -0.086 SA
ATOM      9  C18 ZIN A   1      18.919  -1.727   9.745  0.00  0.00     0.032 A 
ATOM     10  C19 ZIN A   1      19.042  -2.942   9.085  0.00  0.00     0.022 A 
ATOM     11  C20 ZIN A   1      18.425  -4.073   9.585  0.00  0.00     0.017 A 
ATOM     12  C21 ZIN A   1      17.681  -3.996  10.748  0.00  0.00     0.050 A 
ATOM     13  C26 ZIN A   1      17.554  -2.790  11.412  0.00  0.00     0.047 A 
ATOM     14  C27 ZIN A   1      18.177  -1.647  10.918  0.00  0.00     0.053 A 
ENDROOT
BRANCH   1  15
ATOM     15  C9  ZIN A   1      17.725  -0.531  13.047  0.00  0.00     0.131 C 
BRANCH  15  16
ATOM     16  C8  ZIN A   1      19.030  -0.517  13.847  0.00  0.00     0.050 C 
BRANCH  16  17
ATOM     17  C7  ZIN A   1      18.790  -1.132  15.228  0.00  0.00     0.274 C 
BRANCH  17  18
ATOM     18  N6  ZIN A   1      18.853  -0.079  16.250  0.00  0.00     0.091 N 
ATOM     19  C5  ZIN A   1      17.629  -0.062  17.064  0.00  0.00     0.300 C 
ATOM     20  C4  ZIN A   1      17.759   1.006  18.152  0.00  0.00     0.264 C 
ATOM     21  N2  ZIN A   1      17.970   2.319  17.527  0.00  0.00    -0.072 N 
ATOM     22  C1  ZIN A   1      18.077   3.347  18.572  0.00  0.00     0.269 C 
ATOM     23  H3  ZIN A   1      17.192   2.533  16.923  0.00  0.00     0.279 HD
ATOM     24  C29 ZIN A   1      19.209   2.292  16.738  0.00  0.00     0.264 C 
ATOM     25  C28 ZIN A   1      19.091   1.236  15.638  0.00  0.00     0.300 C 
ENDBRANCH  17  18
ENDBRANCH  16  17
ENDBRANCH  15  16
ENDBRANCH   1  15
BRANCH  12  26
ATOM     26  C22 ZIN A   1      17.009  -5.228  11.293  0.00  0.00     0.417 C 
ATOM     27  F23 ZIN A   1      17.068  -6.252  10.341  0.00  0.00    -0.166 F 
ATOM     28  F24 ZIN A   1      17.662  -5.639  12.460  0.00  0.00    -0.166 F 
ATOM     29  F25 ZIN A   1      15.671  -4.940  11.584  0.00  0.00    -0.166 F 
ENDBRANCH  12  26
TORSDOF 5
ENDMDL
MODEL 5
REMARK VINA RESULT:      -8.4      3.859      7.331
REMARK  5 active torsions:
REMARK  status: ('A' for Active; 'I' for Inactive)
REMARK    1  A    between atoms: N6_6  and  C7_7 
REMARK    2  A    between atoms: C7_7  and  C8_8 
REMARK    3  A    between atoms: C8_8  and  C9_9 
REMARK    4  A    between atoms: C9_9  and  N10_10 
REMARK    5  A    between atoms: C21_21  and  C22_22 
ROOT
ATOM      1  N10 ZIN A   1      17.744   0.171  12.068  0.00  0.00    -0.345 N 
ATOM      2  C11 ZIN A   1      18.148   0.872  10.934  0.00  0.00     0.052 A 
ATOM      3  C12 ZIN A   1      18.343   0.172   9.749  0.00  0.00     0.031 A 
ATOM      4  C13 ZIN A   1      18.740   0.835   8.603  0.00  0.00     0.002 A 
ATOM      5  C14 ZIN A   1      18.946   2.201   8.627  0.00  0.00     0.002 A 
ATOM      6  C15 ZIN A   1      18.757   2.907   9.802  0.00  0.00     0.021 A 
ATOM      7  C16 ZIN A   1      18.360   2.247  10.957  0.00  0.00     0.032 A 
ATOM      8  S17 ZIN A   1      18.133   3.168  12.441  0.00  0.00    -0.086 SA
ATOM      9  C18 ZIN A   1      18.155   1.934  13.695  0.00  0.00     0.032 A 
ATOM     10  C19 ZIN A   1      18.365   2.309  15.015  0.00  0.00     0.022 A 
ATOM     11  C20 ZIN A   1      18.388   1.356  16.016  0.00  0.00     0.017 A 
ATOM     12  C21 ZIN A   1      18.202   0.022  15.702  0.00  0.00     0.050 A 
ATOM     13  C26 ZIN A   1      17.992  -0.360  14.390  0.00  0.00     0.047 A 
ATOM     14  C27 ZIN A   1      17.962   0.595  13.377  0.00  0.00     0.053 A 
ENDROOT
BRANCH   1  15
ATOM     15  C9  ZIN A   1      17.036  -1.095  11.870  0.00  0.00     0.131 C 
BRANCH  15  16
ATOM     16  C8  ZIN A   1      18.050  -2.238  11.779  0.00  0.00     0.050 C 
BRANCH  16  17
ATOM     17  C7  ZIN A   1      17.315  -3.552  11.504  0.00  0.00     0.274 C 
BRANCH  17  18
ATOM     18  N6  ZIN A   1      17.949  -4.239  10.370  0.00  0.00     0.091 N 
ATOM     19  C5  ZIN A   1      19.362  -4.527  10.653  0.00  0.00     0.300 C 
ATOM     20  C4  ZIN A   1      19.968  -5.293   9.475  0.00  0.00     0.264 C 
ATOM     21  N2  ZIN A   1      19.850  -4.487   8.253  0.00  0.00    -0.072 N 
ATOM     22  C1  ZIN A   1      20.448  -5.216   7.126  0.00  0.00     0.269 C 
ATOM     23  H3  ZIN A   1      20.332  -3.610   8.381  0.00  0.00     0.279 HD
ATOM     24  C29 ZIN A   1      18.432  -4.229   7.971  0.00  0.00     0.264 C 
ATOM     25  C28 ZIN A   1      17.812  -3.453   9.136  0.00  0.00     0.300 C 
ENDBRANCH  17  18
ENDBRANCH  16  17
ENDBRANCH  15  16
ENDBRANCH   1  15
BRANCH  12  26
ATOM     26  C22 ZIN A   1      18.228  -1.017  16.792  0.00  0.00     0.417 C 
ATOM     27  F23 ZIN A   1      16.958  -1.588  16.922  0.00  0.00    -0.166 F 
ATOM     28  F24 ZIN A   1      19.155  -2.012  16.467  0.00  0.00    -0.166 F 
ATOM     29  F25 ZIN A   1      18.594  -0.415  18.001  0.00  0.00    -0.166 F 
ENDBRANCH  12  26
TORSDOF 5
ENDMDL
MODEL 6
REMARK VINA RESULT:      -8.2      4.852      6.931
REMARK  5 active torsions:
REMARK  status: ('A' for Active; 'I' for Inactive)
REMARK    1  A    between atoms: N6_6  and  C7_7 
REMARK    2  A    between atoms: C7_7  and  C8_8 
REMARK    3  A    between atoms: C8_8  and  C9_9 
REMARK    4  A    between atoms: C9_9  and  N10_10 
REMARK    5  A    between atoms: C21_21  and  C22_22 
ROOT
ATOM      1  N10 ZIN A   1      18.977   0.514  10.330  0.00  0.00    -0.345 N 
ATOM      2  C11 ZIN A   1      19.193   0.002  11.606  0.00  0.00     0.052 A 
ATOM      3  C12 ZIN A   1      19.894   0.773  12.527  0.00  0.00     0.031 A 
ATOM      4  C13 ZIN A   1      20.124   0.299  13.805  0.00  0.00     0.002 A 
ATOM      5  C14 ZIN A   1      19.657  -0.947  14.177  0.00  0.00     0.002 A 
ATOM      6  C15 ZIN A   1      18.960  -1.723  13.269  0.00  0.00     0.021 A 
ATOM      7  C16 ZIN A   1      18.727  -1.254  11.983  0.00  0.00     0.032 A 
ATOM      8  S17 ZIN A   1      17.843  -2.265  10.844  0.00  0.00    -0.086 SA
ATOM      9  C18 ZIN A   1      18.225  -1.551   9.282  0.00  0.00     0.032 A 
ATOM     10  C19 ZIN A   1      18.004  -2.286   8.126  0.00  0.00     0.022 A 
ATOM     11  C20 ZIN A   1      18.299  -1.744   6.888  0.00  0.00     0.017 A 
ATOM     12  C21 ZIN A   1      18.818  -0.466   6.801  0.00  0.00     0.050 A 
ATOM     13  C26 ZIN A   1      19.041   0.273   7.948  0.00  0.00     0.047 A 
ATOM     14  C27 ZIN A   1      18.741  -0.263   9.198  0.00  0.00     0.053 A 
ENDROOT
BRANCH   1  15
ATOM     15  C9  ZIN A   1      18.992   1.969  10.167  0.00  0.00     0.131 C 
BRANCH  15  16
ATOM     16  C8  ZIN A   1      17.730   2.566  10.795  0.00  0.00     0.050 C 
BRANCH  16  17
ATOM     17  C7  ZIN A   1      17.865   4.089  10.864  0.00  0.00     0.274 C 
BRANCH  17  18
ATOM     18  N6  ZIN A   1      18.173   4.490  12.243  0.00  0.00     0.091 N 
ATOM     19  C5  ZIN A   1      19.611   4.751  12.407  0.00  0.00     0.300 C 
ATOM     20  C4  ZIN A   1      19.880   5.223  13.837  0.00  0.00     0.264 C 
ATOM     21  N2  ZIN A   1      19.441   4.190  14.784  0.00  0.00    -0.072 N 
ATOM     22  C1  ZIN A   1      19.717   4.636  16.157  0.00  0.00     0.269 C 
ATOM     23  H3  ZIN A   1      19.941   3.333  14.603  0.00  0.00     0.279 HD
ATOM     24  C29 ZIN A   1      18.000   3.960  14.626  0.00  0.00     0.264 C 
ATOM     25  C28 ZIN A   1      17.713   3.476  13.202  0.00  0.00     0.300 C 
ENDBRANCH  17  18
ENDBRANCH  16  17
ENDBRANCH  15  16
ENDBRANCH   1  15
BRANCH  12  26
ATOM     26  C22 ZIN A   1      19.140   0.123   5.453  0.00  0.00     0.417 C 
ATOM     27  F23 ZIN A   1      20.033  -0.716   4.777  0.00  0.00    -0.166 F 
ATOM     28  F24 ZIN A   1      17.965   0.251   4.706  0.00  0.00    -0.166 F 
ATOM     29  F25 ZIN A   1      19.724   1.383   5.623  0.00  0.00    -0.166 F 
ENDBRANCH  12  26
TORSDOF 5
ENDMDL
MODEL 7
REMARK VINA RESULT:      -8.1      5.749      9.423
REMARK  5 active torsions:
REMARK  status: ('A' for Active; 'I' for Inactive)
REMARK    1  A    between atoms: N6_6  and  C7_7 
REMARK    2  A    between atoms: C7_7  and  C8_8 
REMARK    3  A    between atoms: C8_8  and  C9_9 
REMARK    4  A    between atoms: C9_9  and  N10_10 
REMARK    5  A    between atoms: C21_21  and  C22_22 
ROOT
ATOM      1  N10 ZIN A   1      19.401  -0.644  11.509  0.00  0.00    -0.345 N 
ATOM      2  C11 ZIN A   1      19.154  -0.414  12.859  0.00  0.00     0.052 A 
ATOM      3  C12 ZIN A   1      18.860  -1.497  13.680  0.00  0.00     0.031 A 
ATOM      4  C13 ZIN A   1      18.613  -1.308  15.027  0.00  0.00     0.002 A 
ATOM      5  C14 ZIN A   1      18.657  -0.037  15.568  0.00  0.00     0.002 A 
ATOM      6  C15 ZIN A   1      18.946   1.048  14.760  0.00  0.00     0.021 A 
ATOM      7  C16 ZIN A   1      19.194   0.865  13.407  0.00  0.00     0.032 A 
ATOM      8  S17 ZIN A   1      19.553   2.264  12.399  0.00  0.00    -0.086 SA
ATOM      9  C18 ZIN A   1      19.283   1.670  10.765  0.00  0.00     0.032 A 
ATOM     10  C19 ZIN A   1      19.117   2.580   9.730  0.00  0.00     0.022 A 
ATOM     11  C20 ZIN A   1      18.902   2.136   8.439  0.00  0.00     0.017 A 
ATOM     12  C21 ZIN A   1      18.849   0.779   8.176  0.00  0.00     0.050 A 
ATOM     13  C26 ZIN A   1      19.014  -0.134   9.201  0.00  0.00     0.047 A 
ATOM     14  C27 ZIN A   1      19.237   0.306  10.503  0.00  0.00     0.053 A 
ENDROOT
BRANCH   1  15
ATOM     15  C9  ZIN A   1      19.872  -1.975  11.119  0.00  0.00     0.131 C 
BRANCH  15  16
ATOM     16  C8  ZIN A   1      18.673  -2.905  10.928  0.00  0.00     0.050 C 
BRANCH  16  17
ATOM     17  C7  ZIN A   1      19.158  -4.355  10.854  0.00  0.00     0.274 C 
BRANCH  17  18
ATOM     18  N6  ZIN A   1      18.287  -5.117   9.948  0.00  0.00     0.091 N 
ATOM     19  C5  ZIN A   1      18.718  -4.962   8.551  0.00  0.00     0.300 C 
ATOM     20  C4  ZIN A   1      17.825  -5.816   7.648  0.00  0.00     0.264 C 
ATOM     21  N2  ZIN A   1      16.427  -5.390   7.798  0.00  0.00    -0.072 N 
ATOM     22  C1  ZIN A   1      15.572  -6.198   6.917  0.00  0.00     0.269 C 
ATOM     23  H3  ZIN A   1      16.343  -4.417   7.547  0.00  0.00     0.279 HD
ATOM     24  C29 ZIN A   1      16.005  -5.574   9.193  0.00  0.00     0.264 C 
ATOM     25  C28 ZIN A   1      16.882  -4.718  10.109  0.00  0.00     0.300 C 
ENDBRANCH  17  18
ENDBRANCH  16  17
ENDBRANCH  15  16
ENDBRANCH   1  15
BRANCH  12  26
ATOM     26  C22 ZIN A   1      18.614   0.295   6.769  0.00  0.00     0.417 C 
ATOM     27  F23 ZIN A   1      17.241   0.295   6.499  0.00  0.00    -0.166 F 
ATOM     28  F24 ZIN A   1      19.267   1.143   5.868  0.00  0.00    -0.166 F 
ATOM     29  F25 ZIN A   1      19.115  -1.005   6.634  0.00  0.00    -0.166 F 
ENDBRANCH  12  26
TORSDOF 5
ENDMDL
MODEL 8
REMARK VINA RESULT:      -8.0      3.632      5.665
REMARK  5 active torsions:
REMARK  status: ('A' for Active; 'I' for Inactive)
REMARK    1  A    between atoms: N6_6  and  C7_7 
REMARK    2  A    between atoms: C7_7  and  C8_8 
REMARK    3  A    between atoms: C8_8  and  C9_9 
REMARK    4  A    between atoms: C9_9  and  N10_10 
REMARK    5  A    between atoms: C21_21  and  C22_22 
ROOT
ATOM      1  N10 ZIN A   1      18.552  -1.097  11.534  0.00  0.00    -0.345 N 
ATOM      2  C11 ZIN A   1      18.845  -2.339  10.975  0.00  0.00     0.052 A 
ATOM      3  C12 ZIN A   1      19.192  -3.388  11.818  0.00  0.00     0.031 A 
ATOM      4  C13 ZIN A   1      19.484  -4.635  11.298  0.00  0.00     0.002 A 
ATOM      5  C14 ZIN A   1      19.433  -4.848   9.934  0.00  0.00     0.002 A 
ATOM      6  C15 ZIN A   1      19.091  -3.810   9.086  0.00  0.00     0.021 A 
ATOM      7  C16 ZIN A   1      18.797  -2.555   9.601  0.00  0.00     0.032 A 
ATOM      8  S17 ZIN A   1      18.371  -1.249   8.498  0.00  0.00    -0.086 SA
ATOM      9  C18 ZIN A   1      18.594   0.199   9.475  0.00  0.00     0.032 A 
ATOM     10  C19 ZIN A   1      18.701   1.432   8.847  0.00  0.00     0.022 A 
ATOM     11  C20 ZIN A   1      18.878   2.581   9.594  0.00  0.00     0.017 A 
ATOM     12  C21 ZIN A   1      18.950   2.503  10.973  0.00  0.00     0.050 A 
ATOM     13  C26 ZIN A   1      18.843   1.279  11.606  0.00  0.00     0.047 A 
ATOM     14  C27 ZIN A   1      18.659   0.117  10.860  0.00  0.00     0.053 A 
ENDROOT
BRANCH   1  15
ATOM     15  C9  ZIN A   1      18.096  -1.068  12.926  0.00  0.00     0.131 C 
BRANCH  15  16
ATOM     16  C8  ZIN A   1      19.295  -0.849  13.851  0.00  0.00     0.050 C 
BRANCH  16  17
ATOM     17  C7  ZIN A   1      18.936  -1.304  15.268  0.00  0.00     0.274 C 
BRANCH  17  18
ATOM     18  N6  ZIN A   1      18.611  -0.132  16.091  0.00  0.00     0.091 N 
ATOM     19  C5  ZIN A   1      19.247   1.079  15.556  0.00  0.00     0.300 C 
ATOM     20  C4  ZIN A   1      18.837   2.285  16.405  0.00  0.00     0.264 C 
ATOM     21  N2  ZIN A   1      19.253   2.067  17.797  0.00  0.00    -0.072 N 
ATOM     22  C1  ZIN A   1      18.875   3.233  18.608  0.00  0.00     0.269 C 
ATOM     23  H3  ZIN A   1      20.253   1.942  17.833  0.00  0.00     0.279 HD
ATOM     24  C29 ZIN A   1      18.590   0.868  18.325  0.00  0.00     0.264 C 
ATOM     25  C28 ZIN A   1      18.998  -0.350  17.493  0.00  0.00     0.300 C 
ENDBRANCH  17  18
ENDBRANCH  16  17
ENDBRANCH  15  16
ENDBRANCH   1  15
BRANCH  12  26
ATOM     26  C22 ZIN A   1      19.143   3.755  11.787  0.00  0.00     0.417 C 
ATOM     27  F23 ZIN A   1      20.507   4.060  11.858  0.00  0.00    -0.166 F 
ATOM     28  F24 ZIN A   1      18.460   4.816  11.183  0.00  0.00    -0.166 F 
ATOM     29  F25 ZIN A   1      18.644   3.554  13.078  0.00  0.00    -0.166 F 
ENDBRANCH  12  26
TORSDOF 5
ENDMDL
MODEL 9
REMARK VINA RESULT:      -7.9      4.532      6.759
REMARK  5 active torsions:
REMARK  status: ('A' for Active; 'I' for Inactive)
REMARK    1  A    between atoms: N6_6  and  C7_7 
REMARK    2  A    between atoms: C7_7  and  C8_8 
REMARK    3  A    between atoms: C8_8  and  C9_9 
REMARK    4  A    between atoms: C9_9  and  N10_10 
REMARK    5  A    between atoms: C21_21  and  C22_22 
ROOT
ATOM      1  N10 ZIN A   1      18.220  -1.861   9.864  0.00  0.00    -0.345 N 
ATOM      2  C11 ZIN A   1      18.727  -3.101   9.484  0.00  0.00     0.052 A 
ATOM      3  C12 ZIN A   1      18.872  -4.090  10.450  0.00  0.00     0.031 A 
ATOM      4  C13 ZIN A   1      19.368  -5.334  10.107  0.00  0.00     0.002 A 
ATOM      5  C14 ZIN A   1      19.723  -5.604   8.800  0.00  0.00     0.002 A 
ATOM      6  C15 ZIN A   1      19.585  -4.626   7.831  0.00  0.00     0.021 A 
ATOM      7  C16 ZIN A   1      19.089  -3.374   8.168  0.00  0.00     0.032 A 
ATOM      8  S17 ZIN A   1      18.930  -2.145   6.917  0.00  0.00    -0.086 SA
ATOM      9  C18 ZIN A   1      18.784  -0.648   7.831  0.00  0.00     0.032 A 
ATOM     10  C19 ZIN A   1      19.001   0.564   7.190  0.00  0.00     0.022 A 
ATOM     11  C20 ZIN A   1      18.894   1.751   7.890  0.00  0.00     0.017 A 
ATOM     12  C21 ZIN A   1      18.570   1.733   9.234  0.00  0.00     0.050 A 
ATOM     13  C26 ZIN A   1      18.351   0.531   9.879  0.00  0.00     0.047 A 
ATOM     14  C27 ZIN A   1      18.451  -0.670   9.180  0.00  0.00     0.053 A 
ENDROOT
BRANCH   1  15
ATOM     15  C9  ZIN A   1      17.381  -1.807  11.064  0.00  0.00     0.131 C 
BRANCH  15  16
ATOM     16  C8  ZIN A   1      18.247  -1.456  12.276  0.00  0.00     0.050 C 
BRANCH  16  17
ATOM     17  C7  ZIN A   1      17.730  -0.165  12.916  0.00  0.00     0.274 C 
BRANCH  17  18
ATOM     18  N6  ZIN A   1      17.839  -0.265  14.377  0.00  0.00     0.091 N 
ATOM     19  C5  ZIN A   1      18.066   1.056  14.980  0.00  0.00     0.300 C 
ATOM     20  C4  ZIN A   1      18.113   0.917  16.503  0.00  0.00     0.264 C 
ATOM     21  N2  ZIN A   1      19.195  -0.003  16.877  0.00  0.00    -0.072 N 
ATOM     22  C1  ZIN A   1      19.251  -0.123  18.341  0.00  0.00     0.269 C 
ATOM     23  H3  ZIN A   1      20.074   0.353  16.535  0.00  0.00     0.279 HD
ATOM     24  C29 ZIN A   1      18.940  -1.325  16.288  0.00  0.00     0.264 C 
ATOM     25  C28 ZIN A   1      18.901  -1.205  14.763  0.00  0.00     0.300 C 
ENDBRANCH  17  18
ENDBRANCH  16  17
ENDBRANCH  15  16
ENDBRANCH   1  15
BRANCH  12  26
ATOM     26  C22 ZIN A   1      18.454   3.027   9.996  0.00  0.00     0.417 C 
ATOM     27  F23 ZIN A   1      18.246   4.080   9.099  0.00  0.00    -0.166 F 
ATOM     28  F24 ZIN A   1      17.375   2.951  10.884  0.00  0.00    -0.166 F 
ATOM     29  F25 ZIN A   1      19.633   3.253  10.713  0.00  0.00    -0.166 F 
ENDBRANCH  12  26
TORSDOF 5
ENDMDL
