MODEL 1
REMARK VINA RESULT:      -7.8      0.000      0.000
REMARK  5 active torsions:
REMARK  status: ('A' for Active; 'I' for Inactive)
REMARK    1  A    between atoms: O2_2  and  C3_3 
REMARK    2  A    between atoms: C6_6  and  C7_7 
REMARK    3  A    between atoms: C12_12  and  O13_13 
REMARK    4  A    between atoms: C15_15  and  O16_16 
REMARK    5  A    between atoms: C21_21  and  O22_22 
ROOT
ATOM      1  C7  <0> d   1      19.057   0.592   8.381  0.00  0.00     0.090 A 
ATOM      2  C8  <0> d   1      19.145   1.064   7.109  0.00  0.00     0.094 A 
ATOM      3  C9  <0> d   1      19.220   0.150   6.030  0.00  0.00     0.190 A 
ATOM      4  O10 <0> d   1      19.300   0.538   4.876  0.00  0.00    -0.287 OA
ATOM      5  C11 <0> d   1      19.199  -1.286   6.355  0.00  0.00     0.081 A 
ATOM      6  C12 <0> d   1      19.270  -2.260   5.352  0.00  0.00     0.085 A 
ATOM      7  C14 <0> d   1      19.248  -3.598   5.699  0.00  0.00     0.074 A 
ATOM      8  C15 <0> d   1      19.156  -3.972   7.035  0.00  0.00     0.071 A 
ATOM      9  C17 <0> d   1      19.085  -3.013   8.034  0.00  0.00     0.075 A 
ATOM     10  C18 <0> d   1      19.106  -1.666   7.706  0.00  0.00     0.095 A 
ATOM     11  O19 <0> d   1      19.045  -0.720   8.666  0.00  0.00    -0.309 OA
ENDROOT
BRANCH   1  12
ATOM     12  C6  <0> d   1      18.980   1.559   9.492  0.00  0.00     0.001 A 
ATOM     13  C5  <0> d   1      18.431   2.827   9.280  0.00  0.00     0.017 A 
ATOM     14  C4  <0> d   1      18.360   3.730  10.319  0.00  0.00     0.040 A 
ATOM     15  C3  <0> d   1      18.832   3.383  11.578  0.00  0.00     0.101 A 
ATOM     16  C21 <0> d   1      19.384   2.122  11.795  0.00  0.00     0.099 A 
ATOM     17  C20 <0> d   1      19.455   1.210  10.760  0.00  0.00     0.053 A 
BRANCH  15  18
ATOM     18  O2  <0> d   1      18.758   4.276  12.599  0.00  0.00    -0.353 OA
ATOM     19  C1  <0> d   1      17.451   4.661  13.031  0.00  0.00     0.210 C 
ENDBRANCH  15  18
BRANCH  16  20
ATOM     20  O22 <0> d   1      19.846   1.785  13.030  0.00  0.00    -0.358 OA
ATOM     21  H34 <0> d   1      20.162   2.536  13.550  0.00  0.00     0.217 HD
ENDBRANCH  16  20
ENDBRANCH   1  12
BRANCH   6  22
ATOM     22  O13 <0> d   1      19.360  -1.893   4.048  0.00  0.00    -0.360 OA
ATOM     23  H29 <0> d   1      19.945  -2.454   3.521  0.00  0.00     0.217 HD
ENDBRANCH   6  22
BRANCH   8  24
ATOM     24  O16 <0> d   1      19.136  -5.289   7.365  0.00  0.00    -0.361 OA
ATOM     25  H31 <0> d   1      18.331  -5.567   7.823  0.00  0.00     0.217 HD
ENDBRANCH   8  24
TORSDOF 5
ENDMDL
MODEL 2
REMARK VINA RESULT:      -7.6      2.256      8.188
REMARK  5 active torsions:
REMARK  status: ('A' for Active; 'I' for Inactive)
REMARK    1  A    between atoms: O2_2  and  C3_3 
REMARK    2  A    between atoms: C6_6  and  C7_7 
REMARK    3  A    between atoms: C12_12  and  O13_13 
REMARK    4  A    between atoms: C15_15  and  O16_16 
REMARK    5  A    between atoms: C21_21  and  O22_22 
ROOT
ATOM      1  C7  <0> d   1      18.471   2.037  11.098  0.00  0.00     0.090 A 
ATOM      2  C8  <0> d   1      17.922   1.241  12.054  0.00  0.00     0.094 A 
ATOM      3  C9  <0> d   1      17.940   1.661  13.406  0.00  0.00     0.190 A 
ATOM      4  O10 <0> d   1      17.457   0.973  14.290  0.00  0.00    -0.287 OA
ATOM      5  C11 <0> d   1      18.565   2.961  13.704  0.00  0.00     0.081 A 
ATOM      6  C12 <0> d   1      18.628   3.455  15.012  0.00  0.00     0.085 A 
ATOM      7  C14 <0> d   1      19.224   4.679  15.250  0.00  0.00     0.074 A 
ATOM      8  C15 <0> d   1      19.756   5.414  14.196  0.00  0.00     0.071 A 
ATOM      9  C17 <0> d   1      19.697   4.931  12.897  0.00  0.00     0.075 A 
ATOM     10  C18 <0> d   1      19.103   3.705  12.639  0.00  0.00     0.095 A 
ATOM     11  O19 <0> d   1      19.043   3.218  11.382  0.00  0.00    -0.309 OA
ENDROOT
BRANCH   1  12
ATOM     12  C6  <0> d   1      18.443   1.583   9.695  0.00  0.00     0.001 A 
ATOM     13  C5  <0> d   1      19.183   2.262   8.723  0.00  0.00     0.017 A 
ATOM     14  C4  <0> d   1      19.155   1.836   7.413  0.00  0.00     0.040 A 
ATOM     15  C3  <0> d   1      18.394   0.732   7.055  0.00  0.00     0.101 A 
ATOM     16  C21 <0> d   1      17.650   0.053   8.017  0.00  0.00     0.099 A 
ATOM     17  C20 <0> d   1      17.676   0.471   9.334  0.00  0.00     0.053 A 
BRANCH  15  18
ATOM     18  O2  <0> d   1      18.371   0.316   5.762  0.00  0.00    -0.353 OA
ATOM     19  C1  <0> d   1      19.488  -0.450   5.307  0.00  0.00     0.210 C 
ENDBRANCH  15  18
BRANCH  16  20
ATOM     20  O22 <0> d   1      16.904  -1.029   7.663  0.00  0.00    -0.358 OA
ATOM     21  H34 <0> d   1      16.688  -1.066   6.721  0.00  0.00     0.217 HD
ENDBRANCH  16  20
ENDBRANCH   1  12
BRANCH   6  22
ATOM     22  O13 <0> d   1      18.109   2.736  16.040  0.00  0.00    -0.360 OA
ATOM     23  H29 <0> d   1      18.514   1.866  16.155  0.00  0.00     0.217 HD
ENDBRANCH   6  22
BRANCH   8  24
ATOM     24  O16 <0> d   1      20.339   6.615  14.440  0.00  0.00    -0.361 OA
ATOM     25  H31 <0> d   1      19.837   7.371  14.108  0.00  0.00     0.217 HD
ENDBRANCH   8  24
TORSDOF 5
ENDMDL
MODEL 3
REMARK VINA RESULT:      -7.5      1.671      3.274
REMARK  5 active torsions:
REMARK  status: ('A' for Active; 'I' for Inactive)
REMARK    1  A    between atoms: O2_2  and  C3_3 
REMARK    2  A    between atoms: C6_6  and  C7_7 
REMARK    3  A    between atoms: C12_12  and  O13_13 
REMARK    4  A    between atoms: C15_15  and  O16_16 
REMARK    5  A    between atoms: C21_21  and  O22_22 
ROOT
ATOM      1  C7  <0> d   1      17.922   1.375  10.065  0.00  0.00     0.090 A 
ATOM      2  C8  <0> d   1      17.627   0.116  10.488  0.00  0.00     0.094 A 
ATOM      3  C9  <0> d   1      17.776  -0.972   9.595  0.00  0.00     0.190 A 
ATOM      4  O10 <0> d   1      17.520  -2.114   9.939  0.00  0.00    -0.287 OA
ATOM      5  C11 <0> d   1      18.251  -0.672   8.233  0.00  0.00     0.081 A 
ATOM      6  C12 <0> d   1      18.426  -1.686   7.284  0.00  0.00     0.085 A 
ATOM      7  C14 <0> d   1      18.873  -1.362   6.017  0.00  0.00     0.074 A 
ATOM      8  C15 <0> d   1      19.146  -0.039   5.688  0.00  0.00     0.071 A 
ATOM      9  C17 <0> d   1      18.975   0.970   6.624  0.00  0.00     0.075 A 
ATOM     10  C18 <0> d   1      18.527   0.666   7.900  0.00  0.00     0.095 A 
ATOM     11  O19 <0> d   1      18.349   1.637   8.820  0.00  0.00    -0.309 OA
ENDROOT
BRANCH   1  12
ATOM     12  C6  <0> d   1      17.761   2.496  11.010  0.00  0.00     0.001 A 
ATOM     13  C5  <0> d   1      17.545   3.791  10.530  0.00  0.00     0.017 A 
ATOM     14  C4  <0> d   1      17.394   4.837  11.414  0.00  0.00     0.040 A 
ATOM     15  C3  <0> d   1      17.456   4.609  12.782  0.00  0.00     0.101 A 
ATOM     16  C21 <0> d   1      17.676   3.321  13.267  0.00  0.00     0.099 A 
ATOM     17  C20 <0> d   1      17.823   2.266  12.387  0.00  0.00     0.053 A 
BRANCH  15  18
ATOM     18  O2  <0> d   1      17.306   5.644  13.649  0.00  0.00    -0.353 OA
ATOM     19  C1  <0> d   1      15.969   6.013  13.993  0.00  0.00     0.210 C 
ENDBRANCH  15  18
BRANCH  16  20
ATOM     20  O22 <0> d   1      17.737   3.100  14.609  0.00  0.00    -0.358 OA
ATOM     21  H34 <0> d   1      17.603   3.894  15.144  0.00  0.00     0.217 HD
ENDBRANCH  16  20
ENDBRANCH   1  12
BRANCH   6  22
ATOM     22  O13 <0> d   1      18.159  -2.977   7.606  0.00  0.00    -0.360 OA
ATOM     23  H29 <0> d   1      17.690  -3.084   8.445  0.00  0.00     0.217 HD
ENDBRANCH   6  22
BRANCH   8  24
ATOM     24  O16 <0> d   1      19.584   0.268   4.441  0.00  0.00    -0.361 OA
ATOM     25  H31 <0> d   1      19.409  -0.419   3.783  0.00  0.00     0.217 HD
ENDBRANCH   8  24
TORSDOF 5
ENDMDL
MODEL 4
REMARK VINA RESULT:      -7.5      1.538      7.672
REMARK  5 active torsions:
REMARK  status: ('A' for Active; 'I' for Inactive)
REMARK    1  A    between atoms: O2_2  and  C3_3 
REMARK    2  A    between atoms: C6_6  and  C7_7 
REMARK    3  A    between atoms: C12_12  and  O13_13 
REMARK    4  A    between atoms: C15_15  and  O16_16 
REMARK    5  A    between atoms: C21_21  and  O22_22 
ROOT
ATOM      1  C7  <0> d   1      19.132   0.712   9.321  0.00  0.00     0.090 A 
ATOM      2  C8  <0> d   1      19.798   0.210  10.396  0.00  0.00     0.094 A 
ATOM      3  C9  <0> d   1      19.734   0.890  11.635  0.00  0.00     0.190 A 
ATOM      4  O10 <0> d   1      20.319   0.469  12.620  0.00  0.00    -0.287 OA
ATOM      5  C11 <0> d   1      18.933   2.125  11.691  0.00  0.00     0.081 A 
ATOM      6  C12 <0> d   1      18.815   2.863  12.875  0.00  0.00     0.085 A 
ATOM      7  C14 <0> d   1      18.055   4.017  12.884  0.00  0.00     0.074 A 
ATOM      8  C15 <0> d   1      17.414   4.442  11.726  0.00  0.00     0.071 A 
ATOM      9  C17 <0> d   1      17.527   3.716  10.550  0.00  0.00     0.075 A 
ATOM     10  C18 <0> d   1      18.284   2.556  10.520  0.00  0.00     0.095 A 
ATOM     11  O19 <0> d   1      18.410   1.842   9.381  0.00  0.00    -0.309 OA
ENDROOT
BRANCH   1  12
ATOM     12  C6  <0> d   1      19.211  -0.011   8.038  0.00  0.00     0.001 A 
ATOM     13  C5  <0> d   1      19.276  -1.407   8.023  0.00  0.00     0.017 A 
ATOM     14  C4  <0> d   1      19.350  -2.081   6.823  0.00  0.00     0.040 A 
ATOM     15  C3  <0> d   1      19.360  -1.376   5.627  0.00  0.00     0.101 A 
ATOM     16  C21 <0> d   1      19.299   0.017   5.634  0.00  0.00     0.099 A 
ATOM     17  C20 <0> d   1      19.220   0.698   6.833  0.00  0.00     0.053 A 
BRANCH  15  18
ATOM     18  O2  <0> d   1      19.432  -2.045   4.447  0.00  0.00    -0.353 OA
ATOM     19  C1  <0> d   1      18.631  -3.222   4.318  0.00  0.00     0.210 C 
ENDBRANCH  15  18
BRANCH  16  20
ATOM     20  O22 <0> d   1      19.309   0.705   4.461  0.00  0.00    -0.358 OA
ATOM     21  H34 <0> d   1      18.478   1.157   4.263  0.00  0.00     0.217 HD
ENDBRANCH  16  20
ENDBRANCH   1  12
BRANCH   6  22
ATOM     22  O13 <0> d   1      19.442   2.447  14.004  0.00  0.00    -0.360 OA
ATOM     23  H29 <0> d   1      19.128   1.596  14.338  0.00  0.00     0.217 HD
ENDBRANCH   6  22
BRANCH   8  24
ATOM     24  O16 <0> d   1      16.670   5.577  11.747  0.00  0.00    -0.361 OA
ATOM     25  H31 <0> d   1      16.333   5.810  12.622  0.00  0.00     0.217 HD
ENDBRANCH   8  24
TORSDOF 5
ENDMDL
MODEL 5
REMARK VINA RESULT:      -7.5      3.835      8.648
REMARK  5 active torsions:
REMARK  status: ('A' for Active; 'I' for Inactive)
REMARK    1  A    between atoms: O2_2  and  C3_3 
REMARK    2  A    between atoms: C6_6  and  C7_7 
REMARK    3  A    between atoms: C12_12  and  O13_13 
REMARK    4  A    between atoms: C15_15  and  O16_16 
REMARK    5  A    between atoms: C21_21  and  O22_22 
ROOT
ATOM      1  C7  <0> d   1      18.566  -1.653  12.571  0.00  0.00     0.090 A 
ATOM      2  C8  <0> d   1      18.080  -0.446  12.175  0.00  0.00     0.094 A 
ATOM      3  C9  <0> d   1      17.929   0.591  13.126  0.00  0.00     0.190 A 
ATOM      4  O10 <0> d   1      17.497   1.686  12.806  0.00  0.00    -0.287 OA
ATOM      5  C11 <0> d   1      18.315   0.297  14.517  0.00  0.00     0.081 A 
ATOM      6  C12 <0> d   1      18.199   1.263  15.523  0.00  0.00     0.085 A 
ATOM      7  C14 <0> d   1      18.571   0.947  16.816  0.00  0.00     0.074 A 
ATOM      8  C15 <0> d   1      19.057  -0.321  17.114  0.00  0.00     0.071 A 
ATOM      9  C17 <0> d   1      19.175  -1.283  16.122  0.00  0.00     0.075 A 
ATOM     10  C18 <0> d   1      18.806  -0.985  14.819  0.00  0.00     0.095 A 
ATOM     11  O19 <0> d   1      18.909  -1.912  13.843  0.00  0.00    -0.309 OA
ENDROOT
BRANCH   1  12
ATOM     12  C6  <0> d   1      18.716  -2.722  11.566  0.00  0.00     0.001 A 
ATOM     13  C5  <0> d   1      19.772  -3.631  11.662  0.00  0.00     0.017 A 
ATOM     14  C4  <0> d   1      19.911  -4.629  10.722  0.00  0.00     0.040 A 
ATOM     15  C3  <0> d   1      19.003  -4.734   9.678  0.00  0.00     0.101 A 
ATOM     16  C21 <0> d   1      17.949  -3.828   9.573  0.00  0.00     0.099 A 
ATOM     17  C20 <0> d   1      17.801  -2.828  10.514  0.00  0.00     0.053 A 
BRANCH  15  18
ATOM     18  O2  <0> d   1      19.143  -5.721   8.754  0.00  0.00    -0.353 OA
ATOM     19  C1  <0> d   1      20.061  -5.482   7.684  0.00  0.00     0.210 C 
ENDBRANCH  15  18
BRANCH  16  20
ATOM     20  O22 <0> d   1      17.060  -3.933   8.548  0.00  0.00    -0.358 OA
ATOM     21  H34 <0> d   1      16.180  -3.590   8.753  0.00  0.00     0.217 HD
ENDBRANCH  16  20
ENDBRANCH   1  12
BRANCH   6  22
ATOM     22  O13 <0> d   1      17.724   2.501  15.231  0.00  0.00    -0.360 OA
ATOM     23  H29 <0> d   1      16.776   2.524  15.042  0.00  0.00     0.217 HD
ENDBRANCH   6  22
BRANCH   8  24
ATOM     24  O16 <0> d   1      19.419  -0.621  18.387  0.00  0.00    -0.361 OA
ATOM     25  H31 <0> d   1      20.119  -1.285  18.451  0.00  0.00     0.217 HD
ENDBRANCH   8  24
TORSDOF 5
ENDMDL
MODEL 6
REMARK VINA RESULT:      -7.5      3.602      5.141
REMARK  5 active torsions:
REMARK  status: ('A' for Active; 'I' for Inactive)
REMARK    1  A    between atoms: O2_2  and  C3_3 
REMARK    2  A    between atoms: C6_6  and  C7_7 
REMARK    3  A    between atoms: C12_12  and  O13_13 
REMARK    4  A    between atoms: C15_15  and  O16_16 
REMARK    5  A    between atoms: C21_21  and  O22_22 
ROOT
ATOM      1  C7  <0> d   1      18.961  -1.175  12.760  0.00  0.00     0.090 A 
ATOM      2  C8  <0> d   1      19.617  -2.358  12.617  0.00  0.00     0.094 A 
ATOM      3  C9  <0> d   1      19.645  -2.991  11.352  0.00  0.00     0.190 A 
ATOM      4  O10 <0> d   1      20.223  -4.052  11.186  0.00  0.00    -0.287 OA
ATOM      5  C11 <0> d   1      18.950  -2.317  10.241  0.00  0.00     0.081 A 
ATOM      6  C12 <0> d   1      18.926  -2.871   8.955  0.00  0.00     0.085 A 
ATOM      7  C14 <0> d   1      18.261  -2.208   7.941  0.00  0.00     0.074 A 
ATOM      8  C15 <0> d   1      17.622  -0.999   8.197  0.00  0.00     0.071 A 
ATOM      9  C17 <0> d   1      17.642  -0.445   9.468  0.00  0.00     0.075 A 
ATOM     10  C18 <0> d   1      18.303  -1.096  10.498  0.00  0.00     0.095 A 
ATOM     11  O19 <0> d   1      18.326  -0.573  11.743  0.00  0.00    -0.309 OA
ENDROOT
BRANCH   1  12
ATOM     12  C6  <0> d   1      18.942  -0.531  14.088  0.00  0.00     0.001 A 
ATOM     13  C5  <0> d   1      18.576  -1.267  15.218  0.00  0.00     0.017 A 
ATOM     14  C4  <0> d   1      18.558  -0.664  16.457  0.00  0.00     0.040 A 
ATOM     15  C3  <0> d   1      18.904   0.674  16.586  0.00  0.00     0.101 A 
ATOM     16  C21 <0> d   1      19.266   1.416  15.463  0.00  0.00     0.099 A 
ATOM     17  C20 <0> d   1      19.290   0.816  14.218  0.00  0.00     0.053 A 
BRANCH  15  18
ATOM     18  O2  <0> d   1      18.887   1.264  17.810  0.00  0.00    -0.353 OA
ATOM     19  C1  <0> d   1      17.751   1.005  18.638  0.00  0.00     0.210 C 
ENDBRANCH  15  18
BRANCH  16  20
ATOM     20  O22 <0> d   1      19.604   2.727  15.592  0.00  0.00    -0.358 OA
ATOM     21  H34 <0> d   1      19.071   3.326  15.052  0.00  0.00     0.217 HD
ENDBRANCH  16  20
ENDBRANCH   1  12
BRANCH   6  22
ATOM     22  O13 <0> d   1      19.550  -4.051   8.708  0.00  0.00    -0.360 OA
ATOM     23  H29 <0> d   1      19.790  -4.182   7.780  0.00  0.00     0.217 HD
ENDBRANCH   6  22
BRANCH   8  24
ATOM     24  O16 <0> d   1      16.972  -0.357   7.193  0.00  0.00    -0.361 OA
ATOM     25  H31 <0> d   1      16.009  -0.396   7.260  0.00  0.00     0.217 HD
ENDBRANCH   8  24
TORSDOF 5
ENDMDL
MODEL 7
REMARK VINA RESULT:      -7.4      4.486      9.577
REMARK  5 active torsions:
REMARK  status: ('A' for Active; 'I' for Inactive)
REMARK    1  A    between atoms: O2_2  and  C3_3 
REMARK    2  A    between atoms: C6_6  and  C7_7 
REMARK    3  A    between atoms: C12_12  and  O13_13 
REMARK    4  A    between atoms: C15_15  and  O16_16 
REMARK    5  A    between atoms: C21_21  and  O22_22 
ROOT
ATOM      1  C7  <0> d   1      18.853  -0.305  14.507  0.00  0.00     0.090 A 
ATOM      2  C8  <0> d   1      19.017  -0.864  15.736  0.00  0.00     0.094 A 
ATOM      3  C9  <0> d   1      19.137  -0.028  16.871  0.00  0.00     0.190 A 
ATOM      4  O10 <0> d   1      19.286  -0.494  17.989  0.00  0.00    -0.287 OA
ATOM      5  C11 <0> d   1      19.077   1.427  16.652  0.00  0.00     0.081 A 
ATOM      6  C12 <0> d   1      19.188   2.329  17.717  0.00  0.00     0.085 A 
ATOM      7  C14 <0> d   1      19.127   3.687  17.468  0.00  0.00     0.074 A 
ATOM      8  C15 <0> d   1      18.956   4.153  16.169  0.00  0.00     0.071 A 
ATOM      9  C17 <0> d   1      18.846   3.266  15.109  0.00  0.00     0.075 A 
ATOM     10  C18 <0> d   1      18.905   1.900  15.339  0.00  0.00     0.095 A 
ATOM     11  O19 <0> d   1      18.805   1.023  14.317  0.00  0.00    -0.309 OA
ENDROOT
BRANCH   1  12
ATOM     12  C6  <0> d   1      18.729  -1.193  13.335  0.00  0.00     0.001 A 
ATOM     13  C5  <0> d   1      17.524  -1.260  12.631  0.00  0.00     0.017 A 
ATOM     14  C4  <0> d   1      17.410  -2.090  11.537  0.00  0.00     0.040 A 
ATOM     15  C3  <0> d   1      18.491  -2.861  11.131  0.00  0.00     0.101 A 
ATOM     16  C21 <0> d   1      19.695  -2.802  11.831  0.00  0.00     0.099 A 
ATOM     17  C20 <0> d   1      19.818  -1.969  12.926  0.00  0.00     0.053 A 
BRANCH  15  18
ATOM     18  O2  <0> d   1      18.374  -3.677  10.051  0.00  0.00    -0.353 OA
ATOM     19  C1  <0> d   1      17.155  -4.411   9.921  0.00  0.00     0.210 C 
ENDBRANCH  15  18
BRANCH  16  20
ATOM     20  O22 <0> d   1      20.752  -3.559  11.431  0.00  0.00    -0.358 OA
ATOM     21  H34 <0> d   1      20.887  -3.573  10.474  0.00  0.00     0.217 HD
ENDBRANCH  16  20
ENDBRANCH   1  12
BRANCH   6  22
ATOM     22  O13 <0> d   1      19.355   1.873  18.984  0.00  0.00    -0.360 OA
ATOM     23  H29 <0> d   1      19.743   0.988  19.036  0.00  0.00     0.217 HD
ENDBRANCH   6  22
BRANCH   8  24
ATOM     24  O16 <0> d   1      18.898   5.489  15.936  0.00  0.00    -0.361 OA
ATOM     25  H31 <0> d   1      18.152   5.760  15.383  0.00  0.00     0.217 HD
ENDBRANCH   8  24
TORSDOF 5
ENDMDL
MODEL 8
REMARK VINA RESULT:      -7.4      2.374      7.313
REMARK  5 active torsions:
REMARK  status: ('A' for Active; 'I' for Inactive)
REMARK    1  A    between atoms: O2_2  and  C3_3 
REMARK    2  A    between atoms: C6_6  and  C7_7 
REMARK    3  A    between atoms: C12_12  and  O13_13 
REMARK    4  A    between atoms: C15_15  and  O16_16 
REMARK    5  A    between atoms: C21_21  and  O22_22 
ROOT
ATOM      1  C7  <0> d   1      18.722   1.361  10.860  0.00  0.00     0.090 A 
ATOM      2  C8  <0> d   1      19.112   2.610  11.232  0.00  0.00     0.094 A 
ATOM      3  C9  <0> d   1      19.229   2.923  12.607  0.00  0.00     0.190 A 
ATOM      4  O10 <0> d   1      19.575   4.032  12.978  0.00  0.00    -0.287 OA
ATOM      5  C11 <0> d   1      18.916   1.857  13.575  0.00  0.00     0.081 A 
ATOM      6  C12 <0> d   1      19.004   2.077  14.954  0.00  0.00     0.085 A 
ATOM      7  C14 <0> d   1      18.701   1.051  15.829  0.00  0.00     0.074 A 
ATOM      8  C15 <0> d   1      18.311  -0.192  15.340  0.00  0.00     0.071 A 
ATOM      9  C17 <0> d   1      18.222  -0.417  13.975  0.00  0.00     0.075 A 
ATOM     10  C18 <0> d   1      18.522   0.600  13.082  0.00  0.00     0.095 A 
ATOM     11  O19 <0> d   1      18.433   0.399  11.751  0.00  0.00    -0.309 OA
ENDROOT
BRANCH   1  12
ATOM     12  C6  <0> d   1      18.605   1.053   9.422  0.00  0.00     0.001 A 
ATOM     13  C5  <0> d   1      19.033   1.983   8.470  0.00  0.00     0.017 A 
ATOM     14  C4  <0> d   1      18.924   1.695   7.127  0.00  0.00     0.040 A 
ATOM     15  C3  <0> d   1      18.389   0.481   6.716  0.00  0.00     0.101 A 
ATOM     16  C21 <0> d   1      17.956  -0.449   7.660  0.00  0.00     0.099 A 
ATOM     17  C20 <0> d   1      18.067  -0.168   9.008  0.00  0.00     0.053 A 
BRANCH  15  18
ATOM     18  O2  <0> d   1      18.284   0.202   5.391  0.00  0.00    -0.353 OA
ATOM     19  C1  <0> d   1      19.449  -0.312   4.742  0.00  0.00     0.210 C 
ENDBRANCH  15  18
BRANCH  16  20
ATOM     20  O22 <0> d   1      17.431  -1.637   7.254  0.00  0.00    -0.358 OA
ATOM     21  H34 <0> d   1      17.580  -1.833   6.319  0.00  0.00     0.217 HD
ENDBRANCH  16  20
ENDBRANCH   1  12
BRANCH   6  22
ATOM     22  O13 <0> d   1      19.384   3.291  15.429  0.00  0.00    -0.360 OA
ATOM     23  H29 <0> d   1      19.096   3.466  16.336  0.00  0.00     0.217 HD
ENDBRANCH   6  22
BRANCH   8  24
ATOM     24  O16 <0> d   1      18.015  -1.192  16.208  0.00  0.00    -0.361 OA
ATOM     25  H31 <0> d   1      18.742  -1.813  16.355  0.00  0.00     0.217 HD
ENDBRANCH   8  24
TORSDOF 5
ENDMDL
MODEL 9
REMARK VINA RESULT:      -7.3      1.516      7.196
REMARK  5 active torsions:
REMARK  status: ('A' for Active; 'I' for Inactive)
REMARK    1  A    between atoms: O2_2  and  C3_3 
REMARK    2  A    between atoms: C6_6  and  C7_7 
REMARK    3  A    between atoms: C12_12  and  O13_13 
REMARK    4  A    between atoms: C15_15  and  O16_16 
REMARK    5  A    between atoms: C21_21  and  O22_22 
ROOT
ATOM      1  C7  <0> d   1      18.745   1.291   9.389  0.00  0.00     0.090 A 
ATOM      2  C8  <0> d   1      18.443   2.609   9.239  0.00  0.00     0.094 A 
ATOM      3  C9  <0> d   1      18.228   3.409  10.386  0.00  0.00     0.190 A 
ATOM      4  O10 <0> d   1      17.955   4.595  10.290  0.00  0.00    -0.287 OA
ATOM      5  C11 <0> d   1      18.348   2.757  11.701  0.00  0.00     0.081 A 
ATOM      6  C12 <0> d   1      18.151   3.471  12.889  0.00  0.00     0.085 A 
ATOM      7  C14 <0> d   1      18.272   2.821  14.103  0.00  0.00     0.074 A 
ATOM      8  C15 <0> d   1      18.585   1.467  14.143  0.00  0.00     0.071 A 
ATOM      9  C17 <0> d   1      18.781   0.753  12.970  0.00  0.00     0.075 A 
ATOM     10  C18 <0> d   1      18.665   1.387  11.743  0.00  0.00     0.095 A 
ATOM     11  O19 <0> d   1      18.846   0.705  10.593  0.00  0.00    -0.309 OA
ENDROOT
BRANCH   1  12
ATOM     12  C6  <0> d   1      18.965   0.473   8.182  0.00  0.00     0.001 A 
ATOM     13  C5  <0> d   1      18.816   1.041   6.914  0.00  0.00     0.017 A 
ATOM     14  C4  <0> d   1      19.022   0.275   5.786  0.00  0.00     0.040 A 
ATOM     15  C3  <0> d   1      19.377  -1.062   5.907  0.00  0.00     0.101 A 
ATOM     16  C21 <0> d   1      19.522  -1.636   7.169  0.00  0.00     0.099 A 
ATOM     17  C20 <0> d   1      19.322  -0.873   8.303  0.00  0.00     0.053 A 
BRANCH  15  18
ATOM     18  O2  <0> d   1      19.579  -1.812   4.793  0.00  0.00    -0.353 OA
ATOM     19  C1  <0> d   1      18.450  -2.514   4.269  0.00  0.00     0.210 C 
ENDBRANCH  15  18
BRANCH  16  20
ATOM     20  O22 <0> d   1      19.870  -2.947   7.284  0.00  0.00    -0.358 OA
ATOM     21  H34 <0> d   1      19.187  -3.500   7.687  0.00  0.00     0.217 HD
ENDBRANCH  16  20
ENDBRANCH   1  12
BRANCH   6  22
ATOM     22  O13 <0> d   1      17.844   4.793  12.848  0.00  0.00    -0.360 OA
ATOM     23  H29 <0> d   1      17.061   5.031  13.363  0.00  0.00     0.217 HD
ENDBRANCH   6  22
BRANCH   8  24
ATOM     24  O16 <0> d   1      18.701   0.839  15.340  0.00  0.00    -0.361 OA
ATOM     25  H31 <0> d   1      18.707   1.438  16.099  0.00  0.00     0.217 HD
ENDBRANCH   8  24
TORSDOF 5
ENDMDL
