MODEL 1
REMARK VINA RESULT:      -9.0      0.000      0.000
REMARK  6 active torsions:
REMARK  status: ('A' for Active; 'I' for Inactive)
REMARK    1  A    between atoms: C2_2  and  N3_3 
REMARK    2  A    between atoms: C5_5  and  C7_6 
REMARK    3  A    between atoms: C7_6  and  C8_7 
REMARK    4  A    between atoms: C8_7  and  N9_8 
REMARK    5  A    between atoms: C15_14  and  C16_15 
REMARK    6  A    between atoms: C15_14  and  C22_21 
ROOT
ATOM      1  N3  <0> d   1      19.152  -1.721  10.879  0.00  0.00    -0.351 N 
ATOM      2  C4  <0> d   1      17.687  -1.778  10.848  0.00  0.00     0.132 C 
ATOM      3  C5  <0> d   1      17.218  -0.309  10.747  0.00  0.00     0.032 C 
ATOM      4  C15 <0> d   1      18.441   0.367  10.084  0.00  0.00     0.100 C 
ATOM      5  C28 <0> d   1      19.604  -0.527  10.455  0.00  0.00     0.238 C 
ATOM      6  O29 <0> d   1      20.773  -0.215  10.376  0.00  0.00    -0.272 OA
ENDROOT
BRANCH   4   7
ATOM      7  C16 <0> d   1      18.267   0.421   8.589  0.00  0.00    -0.035 A 
ATOM      8  C21 <0> d   1      19.178   1.111   7.811  0.00  0.00     0.009 A 
ATOM      9  C20 <0> d   1      19.020   1.158   6.438  0.00  0.00     0.001 A 
ATOM     10  C19 <0> d   1      17.945   0.524   5.845  0.00  0.00     0.000 A 
ATOM     11  C18 <0> d   1      17.031  -0.162   6.622  0.00  0.00     0.001 A 
ATOM     12  C17 <0> d   1      17.191  -0.212   7.994  0.00  0.00     0.009 A 
ENDBRANCH   4   7
BRANCH   4  13
ATOM     13  C22 <0> d   1      18.644   1.753  10.641  0.00  0.00    -0.035 A 
ATOM     14  C27 <0> d   1      17.718   2.745  10.379  0.00  0.00     0.009 A 
ATOM     15  C26 <0> d   1      17.902   4.015  10.892  0.00  0.00     0.001 A 
ATOM     16  C25 <0> d   1      19.017   4.296  11.660  0.00  0.00     0.000 A 
ATOM     17  C24 <0> d   1      19.947   3.305  11.917  0.00  0.00     0.001 A 
ATOM     18  C23 <0> d   1      19.759   2.033  11.406  0.00  0.00     0.009 A 
ENDBRANCH   4  13
BRANCH   3  19
ATOM     19  C7  <0> d   1      16.954   0.277  12.136  0.00  0.00     0.038 C 
BRANCH  19  20
ATOM     20  C8  <0> d   1      17.402  -0.722  13.205  0.00  0.00     0.273 C 
BRANCH  20  21
ATOM     21  N9  <0> d   1      18.164  -0.017  14.245  0.00  0.00     0.092 N 
ATOM     22  C14 <0> d   1      17.772   1.397  14.318  0.00  0.00     0.298 C 
ATOM     23  C13 <0> d   1      18.629   2.106  15.370  0.00  0.00     0.198 C 
ATOM     24  O12 <0> d   1      18.482   1.437  16.626  0.00  0.00    -0.388 OA
ATOM     25  C11 <0> d   1      18.856   0.057  16.591  0.00  0.00     0.198 C 
ATOM     26  C10 <0> d   1      18.000  -0.671  15.552  0.00  0.00     0.298 C 
ENDBRANCH  20  21
ENDBRANCH  19  20
ENDBRANCH   3  19
BRANCH   1  27
ATOM     27  C2  <0> d   1      20.014  -2.820  11.320  0.00  0.00     0.121 C 
ATOM     28  C1  <0> d   1      19.181  -4.095  11.465  0.00  0.00     0.026 C 
ENDBRANCH   1  27
TORSDOF 6
ENDMDL
MODEL 2
REMARK VINA RESULT:      -8.5      1.611      4.152
REMARK  6 active torsions:
REMARK  status: ('A' for Active; 'I' for Inactive)
REMARK    1  A    between atoms: C2_2  and  N3_3 
REMARK    2  A    between atoms: C5_5  and  C7_6 
REMARK    3  A    between atoms: C7_6  and  C8_7 
REMARK    4  A    between atoms: C8_7  and  N9_8 
REMARK    5  A    between atoms: C15_14  and  C16_15 
REMARK    6  A    between atoms: C15_14  and  C22_21 
ROOT
ATOM      1  N3  <0> d   1      18.061   1.940  11.205  0.00  0.00    -0.351 N 
ATOM      2  C4  <0> d   1      19.480   1.984  10.836  0.00  0.00     0.132 C 
ATOM      3  C5  <0> d   1      19.836   0.546  10.395  0.00  0.00     0.032 C 
ATOM      4  C15 <0> d   1      18.460   0.006   9.942  0.00  0.00     0.100 C 
ATOM      5  C28 <0> d   1      17.462   0.839  10.716  0.00  0.00     0.238 C 
ATOM      6  O29 <0> d   1      16.292   0.559  10.867  0.00  0.00    -0.272 OA
ENDROOT
BRANCH   4   7
ATOM      7  C16 <0> d   1      18.280   0.199   8.459  0.00  0.00    -0.035 A 
ATOM      8  C21 <0> d   1      19.236   0.879   7.728  0.00  0.00     0.009 A 
ATOM      9  C20 <0> d   1      19.072   1.053   6.366  0.00  0.00     0.001 A 
ATOM     10  C19 <0> d   1      17.946   0.555   5.737  0.00  0.00     0.000 A 
ATOM     11  C18 <0> d   1      16.987  -0.120   6.468  0.00  0.00     0.001 A 
ATOM     12  C17 <0> d   1      17.154  -0.298   7.829  0.00  0.00     0.009 A 
ENDBRANCH   4   7
BRANCH   4  13
ATOM     13  C22 <0> d   1      18.321  -1.451  10.303  0.00  0.00    -0.035 A 
ATOM     14  C27 <0> d   1      18.931  -2.417   9.525  0.00  0.00     0.009 A 
ATOM     15  C26 <0> d   1      18.807  -3.753   9.858  0.00  0.00     0.001 A 
ATOM     16  C25 <0> d   1      18.063  -4.123  10.964  0.00  0.00     0.000 A 
ATOM     17  C24 <0> d   1      17.448  -3.158  11.739  0.00  0.00     0.001 A 
ATOM     18  C23 <0> d   1      17.577  -1.822  11.407  0.00  0.00     0.009 A 
ENDBRANCH   4  13
BRANCH   3  19
ATOM     19  C7  <0> d   1      20.385  -0.266  11.569  0.00  0.00     0.038 C 
BRANCH  19  20
ATOM     20  C8  <0> d   1      20.490   0.630  12.805  0.00  0.00     0.273 C 
BRANCH  20  21
ATOM     21  N9  <0> d   1      19.432   0.274  13.760  0.00  0.00     0.092 N 
ATOM     22  C14 <0> d   1      19.678  -1.049  14.350  0.00  0.00     0.298 C 
ATOM     23  C13 <0> d   1      18.525  -1.405  15.291  0.00  0.00     0.198 C 
ATOM     24  O12 <0> d   1      18.396  -0.385  16.285  0.00  0.00    -0.388 OA
ATOM     25  C11 <0> d   1      18.155   0.918  15.746  0.00  0.00     0.198 C 
ATOM     26  C10 <0> d   1      19.305   1.296  14.809  0.00  0.00     0.298 C 
ENDBRANCH  20  21
ENDBRANCH  19  20
ENDBRANCH   3  19
BRANCH   1  27
ATOM     27  C2  <0> d   1      17.382   2.961  12.007  0.00  0.00     0.121 C 
ATOM     28  C1  <0> d   1      17.302   4.265  11.211  0.00  0.00     0.026 C 
ENDBRANCH   1  27
TORSDOF 6
ENDMDL
MODEL 3
REMARK VINA RESULT:      -8.5      1.812      6.861
REMARK  6 active torsions:
REMARK  status: ('A' for Active; 'I' for Inactive)
REMARK    1  A    between atoms: C2_2  and  N3_3 
REMARK    2  A    between atoms: C5_5  and  C7_6 
REMARK    3  A    between atoms: C7_6  and  C8_7 
REMARK    4  A    between atoms: C8_7  and  N9_8 
REMARK    5  A    between atoms: C15_14  and  C16_15 
REMARK    6  A    between atoms: C15_14  and  C22_21 
ROOT
ATOM      1  N3  <0> d   1      19.162   1.681  12.134  0.00  0.00    -0.351 N 
ATOM      2  C4  <0> d   1      17.695   1.682  12.158  0.00  0.00     0.132 C 
ATOM      3  C5  <0> d   1      17.282   0.195  12.233  0.00  0.00     0.032 C 
ATOM      4  C15 <0> d   1      18.526  -0.444  12.892  0.00  0.00     0.100 C 
ATOM      5  C28 <0> d   1      19.656   0.498  12.541  0.00  0.00     0.238 C 
ATOM      6  O29 <0> d   1      20.836   0.230  12.622  0.00  0.00    -0.272 OA
ENDROOT
BRANCH   4   7
ATOM      7  C16 <0> d   1      18.347  -0.530  14.385  0.00  0.00    -0.035 A 
ATOM      8  C21 <0> d   1      17.355   0.206  15.006  0.00  0.00     0.009 A 
ATOM      9  C20 <0> d   1      17.188   0.125  16.376  0.00  0.00     0.001 A 
ATOM     10  C19 <0> d   1      18.020  -0.685  17.126  0.00  0.00     0.000 A 
ATOM     11  C18 <0> d   1      19.015  -1.417  16.507  0.00  0.00     0.001 A 
ATOM     12  C17 <0> d   1      19.179  -1.339  15.136  0.00  0.00     0.009 A 
ENDBRANCH   4   7
BRANCH   4  13
ATOM     13  C22 <0> d   1      18.784  -1.812  12.314  0.00  0.00    -0.035 A 
ATOM     14  C27 <0> d   1      19.990  -2.086  11.697  0.00  0.00     0.009 A 
ATOM     15  C26 <0> d   1      20.229  -3.342  11.171  0.00  0.00     0.001 A 
ATOM     16  C25 <0> d   1      19.257  -4.322  11.254  0.00  0.00     0.000 A 
ATOM     17  C24 <0> d   1      18.048  -4.047  11.866  0.00  0.00     0.001 A 
ATOM     18  C23 <0> d   1      17.813  -2.792  12.396  0.00  0.00     0.009 A 
ENDBRANCH   4  13
BRANCH   3  19
ATOM     19  C7  <0> d   1      17.047  -0.378  10.834  0.00  0.00     0.038 C 
BRANCH  19  20
ATOM     20  C8  <0> d   1      17.295   0.711   9.788  0.00  0.00     0.273 C 
BRANCH  20  21
ATOM     21  N9  <0> d   1      17.620   0.087   8.498  0.00  0.00     0.092 N 
ATOM     22  C14 <0> d   1      18.629   0.872   7.773  0.00  0.00     0.298 C 
ATOM     23  C13 <0> d   1      18.894   0.221   6.413  0.00  0.00     0.198 C 
ATOM     24  O12 <0> d   1      19.304  -1.135   6.612  0.00  0.00    -0.388 OA
ATOM     25  C11 <0> d   1      18.345  -1.930   7.315  0.00  0.00     0.198 C 
ATOM     26  C10 <0> d   1      18.074  -1.299   8.684  0.00  0.00     0.298 C 
ENDBRANCH  20  21
ENDBRANCH  19  20
ENDBRANCH   3  19
BRANCH   1  27
ATOM     27  C2  <0> d   1      19.983   2.819  11.715  0.00  0.00     0.121 C 
ATOM     28  C1  <0> d   1      19.456   4.097  12.369  0.00  0.00     0.026 C 
ENDBRANCH   1  27
TORSDOF 6
ENDMDL
MODEL 4
REMARK VINA RESULT:      -8.4      2.016      5.898
REMARK  6 active torsions:
REMARK  status: ('A' for Active; 'I' for Inactive)
REMARK    1  A    between atoms: C2_2  and  N3_3 
REMARK    2  A    between atoms: C5_5  and  C7_6 
REMARK    3  A    between atoms: C7_6  and  C8_7 
REMARK    4  A    between atoms: C8_7  and  N9_8 
REMARK    5  A    between atoms: C15_14  and  C16_15 
REMARK    6  A    between atoms: C15_14  and  C22_21 
ROOT
ATOM      1  N3  <0> d   1      18.068  -2.057  11.636  0.00  0.00    -0.351 N 
ATOM      2  C4  <0> d   1      19.490  -2.121  11.992  0.00  0.00     0.132 C 
ATOM      3  C5  <0> d   1      19.860  -0.700  12.473  0.00  0.00     0.032 C 
ATOM      4  C15 <0> d   1      18.491  -0.164  12.952  0.00  0.00     0.100 C 
ATOM      5  C28 <0> d   1      17.482  -0.967  12.162  0.00  0.00     0.238 C 
ATOM      6  O29 <0> d   1      16.312  -0.674  12.028  0.00  0.00    -0.272 OA
ENDROOT
BRANCH   4   7
ATOM      7  C16 <0> d   1      18.321  -0.400  14.431  0.00  0.00    -0.035 A 
ATOM      8  C21 <0> d   1      19.204  -1.220  15.107  0.00  0.00     0.009 A 
ATOM      9  C20 <0> d   1      19.049  -1.433  16.464  0.00  0.00     0.001 A 
ATOM     10  C19 <0> d   1      18.005  -0.834  17.143  0.00  0.00     0.000 A 
ATOM     11  C18 <0> d   1      17.118  -0.018  16.466  0.00  0.00     0.001 A 
ATOM     12  C17 <0> d   1      17.276   0.199  15.110  0.00  0.00     0.009 A 
ENDBRANCH   4   7
BRANCH   4  13
ATOM     13  C22 <0> d   1      18.360   1.304  12.636  0.00  0.00    -0.035 A 
ATOM     14  C27 <0> d   1      17.665   1.709  11.512  0.00  0.00     0.009 A 
ATOM     15  C26 <0> d   1      17.541   3.055  11.223  0.00  0.00     0.001 A 
ATOM     16  C25 <0> d   1      18.121   3.996  12.054  0.00  0.00     0.000 A 
ATOM     17  C24 <0> d   1      18.821   3.591  13.176  0.00  0.00     0.001 A 
ATOM     18  C23 <0> d   1      18.940   2.245  13.466  0.00  0.00     0.009 A 
ENDBRANCH   4  13
BRANCH   3  19
ATOM     19  C7  <0> d   1      20.406   0.143  11.319  0.00  0.00     0.038 C 
BRANCH  19  20
ATOM     20  C8  <0> d   1      20.503  -0.719  10.058  0.00  0.00     0.273 C 
BRANCH  20  21
ATOM     21  N9  <0> d   1      19.490  -0.283   9.087  0.00  0.00     0.092 N 
ATOM     22  C14 <0> d   1      19.811   1.049   8.554  0.00  0.00     0.298 C 
ATOM     23  C13 <0> d   1      18.703   1.489   7.595  0.00  0.00     0.198 C 
ATOM     24  O12 <0> d   1      18.560   0.512   6.560  0.00  0.00    -0.388 OA
ATOM     25  C11 <0> d   1      18.246  -0.797   7.043  0.00  0.00     0.198 C 
ATOM     26  C10 <0> d   1      19.350  -1.260   7.998  0.00  0.00     0.298 C 
ENDBRANCH  20  21
ENDBRANCH  19  20
ENDBRANCH   3  19
BRANCH   1  27
ATOM     27  C2  <0> d   1      17.376  -3.048  10.809  0.00  0.00     0.121 C 
ATOM     28  C1  <0> d   1      17.250  -4.361  11.585  0.00  0.00     0.026 C 
ENDBRANCH   1  27
TORSDOF 6
ENDMDL
MODEL 5
REMARK VINA RESULT:      -8.4      2.030      5.068
REMARK  6 active torsions:
REMARK  status: ('A' for Active; 'I' for Inactive)
REMARK    1  A    between atoms: C2_2  and  N3_3 
REMARK    2  A    between atoms: C5_5  and  C7_6 
REMARK    3  A    between atoms: C7_6  and  C8_7 
REMARK    4  A    between atoms: C8_7  and  N9_8 
REMARK    5  A    between atoms: C15_14  and  C16_15 
REMARK    6  A    between atoms: C15_14  and  C22_21 
ROOT
ATOM      1  N3  <0> d   1      18.353   0.255  10.169  0.00  0.00    -0.351 N 
ATOM      2  C4  <0> d   1      19.804   0.074  10.281  0.00  0.00     0.132 C 
ATOM      3  C5  <0> d   1      20.050  -0.402  11.731  0.00  0.00     0.032 C 
ATOM      4  C15 <0> d   1      18.694  -1.057  12.082  0.00  0.00     0.100 C 
ATOM      5  C28 <0> d   1      17.703  -0.369  11.168  0.00  0.00     0.238 C 
ATOM      6  O29 <0> d   1      16.499  -0.384  11.311  0.00  0.00    -0.272 OA
ENDROOT
BRANCH   4   7
ATOM      7  C16 <0> d   1      18.736  -2.537  11.805  0.00  0.00    -0.035 A 
ATOM      8  C21 <0> d   1      19.946  -3.162  11.568  0.00  0.00     0.009 A 
ATOM      9  C20 <0> d   1      19.985  -4.522  11.317  0.00  0.00     0.001 A 
ATOM     10  C19 <0> d   1      18.812  -5.253  11.295  0.00  0.00     0.000 A 
ATOM     11  C18 <0> d   1      17.602  -4.628  11.527  0.00  0.00     0.001 A 
ATOM     12  C17 <0> d   1      17.564  -3.269  11.781  0.00  0.00     0.009 A 
ENDBRANCH   4   7
BRANCH   4  13
ATOM     13  C22 <0> d   1      18.343  -0.802  13.525  0.00  0.00    -0.035 A 
ATOM     14  C27 <0> d   1      18.895  -1.586  14.520  0.00  0.00     0.009 A 
ATOM     15  C26 <0> d   1      18.577  -1.351  15.844  0.00  0.00     0.001 A 
ATOM     16  C25 <0> d   1      17.697  -0.336  16.173  0.00  0.00     0.000 A 
ATOM     17  C24 <0> d   1      17.139   0.446  15.178  0.00  0.00     0.001 A 
ATOM     18  C23 <0> d   1      17.463   0.212  13.854  0.00  0.00     0.009 A 
ENDBRANCH   4  13
BRANCH   3  19
ATOM     19  C7  <0> d   1      20.341   0.784  12.653  0.00  0.00     0.038 C 
BRANCH  19  20
ATOM     20  C8  <0> d   1      20.224   2.088  11.861  0.00  0.00     0.273 C 
BRANCH  20  21
ATOM     21  N9  <0> d   1      19.013   2.808  12.277  0.00  0.00     0.092 N 
ATOM     22  C14 <0> d   1      19.175   3.378  13.622  0.00  0.00     0.298 C 
ATOM     23  C13 <0> d   1      17.873   4.065  14.040  0.00  0.00     0.198 C 
ATOM     24  O12 <0> d   1      17.532   5.058  13.069  0.00  0.00    -0.388 OA
ATOM     25  C11 <0> d   1      17.365   4.538  11.747  0.00  0.00     0.198 C 
ATOM     26  C10 <0> d   1      18.663   3.855  11.307  0.00  0.00     0.298 C 
ENDBRANCH  20  21
ENDBRANCH  19  20
ENDBRANCH   3  19
BRANCH   1  27
ATOM     27  C2  <0> d   1      17.694   1.023   9.109  0.00  0.00     0.121 C 
ATOM     28  C1  <0> d   1      18.752   1.710   8.245  0.00  0.00     0.026 C 
ENDBRANCH   1  27
TORSDOF 6
ENDMDL
MODEL 6
REMARK VINA RESULT:      -8.0      1.820      5.229
REMARK  6 active torsions:
REMARK  status: ('A' for Active; 'I' for Inactive)
REMARK    1  A    between atoms: C2_2  and  N3_3 
REMARK    2  A    between atoms: C5_5  and  C7_6 
REMARK    3  A    between atoms: C7_6  and  C8_7 
REMARK    4  A    between atoms: C8_7  and  N9_8 
REMARK    5  A    between atoms: C15_14  and  C16_15 
REMARK    6  A    between atoms: C15_14  and  C22_21 
ROOT
ATOM      1  N3  <0> d   1      18.224  -0.329  12.714  0.00  0.00    -0.351 N 
ATOM      2  C4  <0> d   1      19.665  -0.056  12.693  0.00  0.00     0.132 C 
ATOM      3  C5  <0> d   1      19.963   0.480  11.275  0.00  0.00     0.032 C 
ATOM      4  C15 <0> d   1      18.592   1.063  10.864  0.00  0.00     0.100 C 
ATOM      5  C28 <0> d   1      17.595   0.288  11.697  0.00  0.00     0.238 C 
ATOM      6  O29 <0> d   1      16.402   0.235  11.484  0.00  0.00    -0.272 OA
ENDROOT
BRANCH   4   7
ATOM      7  C16 <0> d   1      18.526   2.534  11.186  0.00  0.00    -0.035 A 
ATOM      8  C21 <0> d   1      19.574   3.144  11.850  0.00  0.00     0.009 A 
ATOM      9  C20 <0> d   1      19.515   4.494  12.142  0.00  0.00     0.001 A 
ATOM     10  C19 <0> d   1      18.404   5.231  11.779  0.00  0.00     0.000 A 
ATOM     11  C18 <0> d   1      17.354   4.621  11.120  0.00  0.00     0.001 A 
ATOM     12  C17 <0> d   1      17.415   3.272  10.824  0.00  0.00     0.009 A 
ENDBRANCH   4   7
BRANCH   4  13
ATOM     13  C22 <0> d   1      18.340   0.835   9.396  0.00  0.00    -0.035 A 
ATOM     14  C27 <0> d   1      19.083   1.520   8.452  0.00  0.00     0.009 A 
ATOM     15  C26 <0> d   1      18.855   1.309   7.106  0.00  0.00     0.001 A 
ATOM     16  C25 <0> d   1      17.877   0.419   6.702  0.00  0.00     0.000 A 
ATOM     17  C24 <0> d   1      17.130  -0.262   7.645  0.00  0.00     0.001 A 
ATOM     18  C23 <0> d   1      17.362  -0.053   8.992  0.00  0.00     0.009 A 
ENDBRANCH   4  13
BRANCH   3  19
ATOM     19  C7  <0> d   1      20.380  -0.655  10.337  0.00  0.00     0.038 C 
BRANCH  19  20
ATOM     20  C8  <0> d   1      20.334  -1.985  11.094  0.00  0.00     0.273 C 
BRANCH  20  21
ATOM     21  N9  <0> d   1      19.142  -2.740  10.685  0.00  0.00     0.092 N 
ATOM     22  C14 <0> d   1      19.204  -3.090   9.259  0.00  0.00     0.298 C 
ATOM     23  C13 <0> d   1      17.919  -3.822   8.863  0.00  0.00     0.198 C 
ATOM     24  O12 <0> d   1      17.756  -4.973   9.696  0.00  0.00    -0.388 OA
ATOM     25  C11 <0> d   1      17.692  -4.669  11.092  0.00  0.00     0.198 C 
ATOM     26  C10 <0> d   1      18.975  -3.945  11.510  0.00  0.00     0.298 C 
ENDBRANCH  20  21
ENDBRANCH  19  20
ENDBRANCH   3  19
BRANCH   1  27
ATOM     27  C2  <0> d   1      17.554  -1.169  13.710  0.00  0.00     0.121 C 
ATOM     28  C1  <0> d   1      18.124  -0.867  15.097  0.00  0.00     0.026 C 
ENDBRANCH   1  27
TORSDOF 6
ENDMDL
MODEL 7
REMARK VINA RESULT:      -7.7      1.985      5.620
REMARK  6 active torsions:
REMARK  status: ('A' for Active; 'I' for Inactive)
REMARK    1  A    between atoms: C2_2  and  N3_3 
REMARK    2  A    between atoms: C5_5  and  C7_6 
REMARK    3  A    between atoms: C7_6  and  C8_7 
REMARK    4  A    between atoms: C8_7  and  N9_8 
REMARK    5  A    between atoms: C15_14  and  C16_15 
REMARK    6  A    between atoms: C15_14  and  C22_21 
ROOT
ATOM      1  N3  <0> d   1      19.106   1.077  10.403  0.00  0.00    -0.351 N 
ATOM      2  C4  <0> d   1      17.650   1.224  10.299  0.00  0.00     0.132 C 
ATOM      3  C5  <0> d   1      17.110   0.998  11.729  0.00  0.00     0.032 C 
ATOM      4  C15 <0> d   1      18.331   1.390  12.593  0.00  0.00     0.100 C 
ATOM      5  C28 <0> d   1      19.517   1.166  11.681  0.00  0.00     0.238 C 
ATOM      6  O29 <0> d   1      20.670   1.085  12.047  0.00  0.00    -0.272 OA
ENDROOT
BRANCH   4   7
ATOM      7  C16 <0> d   1      18.242   2.836  13.007  0.00  0.00    -0.035 A 
ATOM      8  C21 <0> d   1      17.382   3.693  12.345  0.00  0.00     0.009 A 
ATOM      9  C20 <0> d   1      17.298   5.019  12.728  0.00  0.00     0.001 A 
ATOM     10  C19 <0> d   1      18.081   5.489  13.765  0.00  0.00     0.000 A 
ATOM     11  C18 <0> d   1      18.944   4.634  14.423  0.00  0.00     0.001 A 
ATOM     12  C17 <0> d   1      19.025   3.307  14.043  0.00  0.00     0.009 A 
ENDBRANCH   4   7
BRANCH   4  13
ATOM     13  C22 <0> d   1      18.426   0.501  13.806  0.00  0.00    -0.035 A 
ATOM     14  C27 <0> d   1      19.423  -0.453  13.889  0.00  0.00     0.009 A 
ATOM     15  C26 <0> d   1      19.513  -1.265  15.003  0.00  0.00     0.001 A 
ATOM     16  C25 <0> d   1      18.599  -1.131  16.032  0.00  0.00     0.000 A 
ATOM     17  C24 <0> d   1      17.597  -0.181  15.948  0.00  0.00     0.001 A 
ATOM     18  C23 <0> d   1      17.511   0.634  14.834  0.00  0.00     0.009 A 
ENDBRANCH   4  13
BRANCH   3  19
ATOM     19  C7  <0> d   1      16.733  -0.470  11.945  0.00  0.00     0.038 C 
BRANCH  19  20
ATOM     20  C8  <0> d   1      17.289  -1.314  10.797  0.00  0.00     0.273 C 
BRANCH  20  21
ATOM     21  N9  <0> d   1      18.010  -2.472  11.344  0.00  0.00     0.092 N 
ATOM     22  C14 <0> d   1      17.325  -3.727  11.004  0.00  0.00     0.298 C 
ATOM     23  C13 <0> d   1      18.074  -4.900  11.642  0.00  0.00     0.198 C 
ATOM     24  O12 <0> d   1      19.434  -4.887  11.199  0.00  0.00    -0.388 OA
ATOM     25  C11 <0> d   1      20.132  -3.679  11.515  0.00  0.00     0.198 C 
ATOM     26  C10 <0> d   1      19.403  -2.495  10.875  0.00  0.00     0.298 C 
ENDBRANCH  20  21
ENDBRANCH  19  20
ENDBRANCH   3  19
BRANCH   1  27
ATOM     27  C2  <0> d   1      19.999   0.857   9.263  0.00  0.00     0.121 C 
ATOM     28  C1  <0> d   1      19.388   1.483   8.008  0.00  0.00     0.026 C 
ENDBRANCH   1  27
TORSDOF 6
ENDMDL
MODEL 8
REMARK VINA RESULT:      -7.6      1.927      4.335
REMARK  6 active torsions:
REMARK  status: ('A' for Active; 'I' for Inactive)
REMARK    1  A    between atoms: C2_2  and  N3_3 
REMARK    2  A    between atoms: C5_5  and  C7_6 
REMARK    3  A    between atoms: C7_6  and  C8_7 
REMARK    4  A    between atoms: C8_7  and  N9_8 
REMARK    5  A    between atoms: C15_14  and  C16_15 
REMARK    6  A    between atoms: C15_14  and  C22_21 
ROOT
ATOM      1  N3  <0> d   1      19.139  -1.306  12.802  0.00  0.00    -0.351 N 
ATOM      2  C4  <0> d   1      17.687  -1.488  12.911  0.00  0.00     0.132 C 
ATOM      3  C5  <0> d   1      17.136  -1.280  11.483  0.00  0.00     0.032 C 
ATOM      4  C15 <0> d   1      18.363  -1.645  10.616  0.00  0.00     0.100 C 
ATOM      5  C28 <0> d   1      19.547  -1.388  11.523  0.00  0.00     0.238 C 
ATOM      6  O29 <0> d   1      20.696  -1.281  11.152  0.00  0.00    -0.272 OA
ENDROOT
BRANCH   4   7
ATOM      7  C16 <0> d   1      18.309  -3.094  10.207  0.00  0.00    -0.035 A 
ATOM      8  C21 <0> d   1      17.319  -3.918  10.711  0.00  0.00     0.009 A 
ATOM      9  C20 <0> d   1      17.268  -5.247  10.333  0.00  0.00     0.001 A 
ATOM     10  C19 <0> d   1      18.211  -5.754   9.459  0.00  0.00     0.000 A 
ATOM     11  C18 <0> d   1      19.203  -4.932   8.959  0.00  0.00     0.001 A 
ATOM     12  C17 <0> d   1      19.252  -3.602   9.334  0.00  0.00     0.009 A 
ENDBRANCH   4   7
BRANCH   4  13
ATOM     13  C22 <0> d   1      18.432  -0.758   9.399  0.00  0.00    -0.035 A 
ATOM     14  C27 <0> d   1      19.371   0.253   9.333  0.00  0.00     0.009 A 
ATOM     15  C26 <0> d   1      19.437   1.064   8.215  0.00  0.00     0.001 A 
ATOM     16  C25 <0> d   1      18.556   0.870   7.167  0.00  0.00     0.000 A 
ATOM     17  C24 <0> d   1      17.612  -0.139   7.235  0.00  0.00     0.001 A 
ATOM     18  C23 <0> d   1      17.551  -0.952   8.352  0.00  0.00     0.009 A 
ENDBRANCH   4  13
BRANCH   3  19
ATOM     19  C7  <0> d   1      16.722   0.177  11.263  0.00  0.00     0.038 C 
BRANCH  19  20
ATOM     20  C8  <0> d   1      17.028   0.990  12.523  0.00  0.00     0.273 C 
BRANCH  20  21
ATOM     21  N9  <0> d   1      17.966   2.071  12.192  0.00  0.00     0.092 N 
ATOM     22  C14 <0> d   1      17.474   2.866  11.058  0.00  0.00     0.298 C 
ATOM     23  C13 <0> d   1      18.506   3.942  10.710  0.00  0.00     0.198 C 
ATOM     24  O12 <0> d   1      18.758   4.745  11.867  0.00  0.00    -0.388 OA
ATOM     25  C11 <0> d   1      19.238   4.003  12.991  0.00  0.00     0.198 C 
ATOM     26  C10 <0> d   1      18.213   2.929  13.361  0.00  0.00     0.298 C 
ENDBRANCH  20  21
ENDBRANCH  19  20
ENDBRANCH   3  19
BRANCH   1  27
ATOM     27  C2  <0> d   1      20.030  -1.059  13.938  0.00  0.00     0.121 C 
ATOM     28  C1  <0> d   1      19.254  -1.242  15.244  0.00  0.00     0.026 C 
ENDBRANCH   1  27
TORSDOF 6
ENDMDL
MODEL 9
REMARK VINA RESULT:      -6.3      2.749      5.171
REMARK  6 active torsions:
REMARK  status: ('A' for Active; 'I' for Inactive)
REMARK    1  A    between atoms: C2_2  and  N3_3 
REMARK    2  A    between atoms: C5_5  and  C7_6 
REMARK    3  A    between atoms: C7_6  and  C8_7 
REMARK    4  A    between atoms: C8_7  and  N9_8 
REMARK    5  A    between atoms: C15_14  and  C16_15 
REMARK    6  A    between atoms: C15_14  and  C22_21 
ROOT
ATOM      1  N3  <0> d   1      17.893   1.630  11.532  0.00  0.00    -0.351 N 
ATOM      2  C4  <0> d   1      19.348   1.748  11.686  0.00  0.00     0.132 C 
ATOM      3  C5  <0> d   1      19.698   0.923  12.944  0.00  0.00     0.032 C 
ATOM      4  C15 <0> d   1      18.531  -0.090  12.992  0.00  0.00     0.100 C 
ATOM      5  C28 <0> d   1      17.407   0.605  12.256  0.00  0.00     0.238 C 
ATOM      6  O29 <0> d   1      16.239   0.282  12.304  0.00  0.00    -0.272 OA
ENDROOT
BRANCH   4   7
ATOM      7  C16 <0> d   1      18.915  -1.369  12.295  0.00  0.00    -0.035 A 
ATOM      8  C21 <0> d   1      20.201  -1.538  11.817  0.00  0.00     0.009 A 
ATOM      9  C20 <0> d   1      20.553  -2.714  11.181  0.00  0.00     0.001 A 
ATOM     10  C19 <0> d   1      19.616  -3.717  11.014  0.00  0.00     0.000 A 
ATOM     11  C18 <0> d   1      18.329  -3.546  11.487  0.00  0.00     0.001 A 
ATOM     12  C17 <0> d   1      17.978  -2.372  12.127  0.00  0.00     0.009 A 
ENDBRANCH   4   7
BRANCH   4  13
ATOM     13  C22 <0> d   1      18.132  -0.368  14.419  0.00  0.00    -0.035 A 
ATOM     14  C27 <0> d   1      18.765  -1.369  15.131  0.00  0.00     0.009 A 
ATOM     15  C26 <0> d   1      18.402  -1.622  16.441  0.00  0.00     0.001 A 
ATOM     16  C25 <0> d   1      17.399  -0.879  17.035  0.00  0.00     0.000 A 
ATOM     17  C24 <0> d   1      16.762   0.120  16.322  0.00  0.00     0.001 A 
ATOM     18  C23 <0> d   1      17.129   0.374  15.013  0.00  0.00     0.009 A 
ENDBRANCH   4  13
BRANCH   3  19
ATOM     19  C7  <0> d   1      19.708   1.808  14.193  0.00  0.00     0.038 C 
BRANCH  19  20
ATOM     20  C8  <0> d   1      19.184   3.201  13.835  0.00  0.00     0.273 C 
BRANCH  20  21
ATOM     21  N9  <0> d   1      19.119   4.026  15.049  0.00  0.00     0.092 N 
ATOM     22  C14 <0> d   1      18.035   5.014  14.957  0.00  0.00     0.298 C 
ATOM     23  C13 <0> d   1      18.040   5.889  16.212  0.00  0.00     0.198 C 
ATOM     24  O12 <0> d   1      17.917   5.056  17.368  0.00  0.00    -0.388 OA
ATOM     25  C11 <0> d   1      18.958   4.082  17.490  0.00  0.00     0.198 C 
ATOM     26  C10 <0> d   1      18.961   3.189  16.247  0.00  0.00     0.298 C 
ENDBRANCH  20  21
ENDBRANCH  19  20
ENDBRANCH   3  19
BRANCH   1  27
ATOM     27  C2  <0> d   1      17.074   2.516  10.703  0.00  0.00     0.121 C 
ATOM     28  C1  <0> d   1      17.330   3.970  11.102  0.00  0.00     0.026 C 
ENDBRANCH   1  27
TORSDOF 6
ENDMDL
