MODEL 1
REMARK VINA RESULT:      -7.5      0.000      0.000
REMARK  11 active torsions:
REMARK  status: ('A' for Active; 'I' for Inactive)
REMARK    1  A    between atoms: N2_2  and  C4_4 
REMARK    2  A    between atoms: N2_2  and  C18_18 
REMARK    3  A    between atoms: C4_4  and  C5_5 
REMARK    4  A    between atoms: C5_5  and  O6_6 
REMARK    5  A    between atoms: O6_6  and  C7_7 
REMARK    6  A    between atoms: C10_10  and  N11_11 
REMARK    7  A    between atoms: N11_11  and  S12_12 
REMARK    8  A    between atoms: C18_18  and  C19_19 
REMARK    9  A    between atoms: C19_19  and  C20_20 
REMARK   10  A    between atoms: C23_23  and  N24_24 
REMARK   11  A    between atoms: N24_24  and  S25_25 
ROOT
ATOM      1  C1  ZIN A   1      17.310   4.886  11.760  0.00  0.00     0.269 C 
ATOM      2  N2  ZIN A   1      18.062   3.624  11.730  0.00  0.00    -0.073 N 
ATOM      3  H3  ZIN A   1      19.051   3.822  11.690  0.00  0.00     0.279 HD
ENDROOT
BRANCH   2   4
ATOM      4  C4  ZIN A   1      17.766   2.849  12.943  0.00  0.00     0.261 C 
BRANCH   4   5
ATOM      5  C5  ZIN A   1      19.013   2.070  13.366  0.00  0.00     0.203 C 
BRANCH   5   6
ATOM      6  O6  ZIN A   1      18.643   0.733  13.714  0.00  0.00    -0.349 OA
BRANCH   6   7
ATOM      7  C7  ZIN A   1      18.783  -0.216  12.750  0.00  0.00     0.069 A 
ATOM      8  C17 ZIN A   1      17.763  -1.129  12.523  0.00  0.00     0.039 A 
ATOM      9  C16 ZIN A   1      17.902  -2.090  11.542  0.00  0.00     0.033 A 
ATOM     10  C10 ZIN A   1      19.067  -2.150  10.789  0.00  0.00     0.042 A 
ATOM     11  C9  ZIN A   1      20.090  -1.239  11.020  0.00  0.00     0.033 A 
ATOM     12  C8  ZIN A   1      19.947  -0.274  11.999  0.00  0.00     0.039 A 
BRANCH  10  13
ATOM     13  N11 ZIN A   1      19.212  -3.128   9.798  0.00  0.00    -0.285 N 
ATOM     14  H40 ZIN A   1      19.246  -2.869   8.864  0.00  0.00     0.178 HD
BRANCH  13  15
ATOM     15  S12 ZIN A   1      19.325  -4.724  10.222  0.00  0.00     0.227 S 
ATOM     16  C13 ZIN A   1      20.217  -5.496   8.844  0.00  0.00     0.186 C 
ATOM     17  O14 ZIN A   1      20.126  -4.720  11.395  0.00  0.00    -0.206 OA
ATOM     18  O15 ZIN A   1      17.977  -5.173  10.256  0.00  0.00    -0.206 OA
ENDBRANCH  13  15
ENDBRANCH  10  13
ENDBRANCH   6   7
ENDBRANCH   5   6
ENDBRANCH   4   5
ENDBRANCH   2   4
BRANCH   2  19
ATOM     19  C18 ZIN A   1      17.671   2.848  10.545  0.00  0.00     0.239 C 
BRANCH  19  20
ATOM     20  C19 ZIN A   1      18.895   2.622   9.657  0.00  0.00     0.066 C 
BRANCH  20  21
ATOM     21  C20 ZIN A   1      18.591   1.548   8.644  0.00  0.00    -0.057 A 
ATOM     22  C30 ZIN A   1      17.677   0.555   8.946  0.00  0.00     0.009 A 
ATOM     23  C29 ZIN A   1      17.393  -0.427   8.018  0.00  0.00     0.030 A 
ATOM     24  C23 ZIN A   1      18.033  -0.423   6.784  0.00  0.00     0.042 A 
ATOM     25  C22 ZIN A   1      18.954   0.574   6.488  0.00  0.00     0.030 A 
ATOM     26  C21 ZIN A   1      19.230   1.556   7.418  0.00  0.00     0.009 A 
BRANCH  24  27
ATOM     27  N24 ZIN A   1      17.751  -1.418   5.846  0.00  0.00    -0.285 N 
ATOM     28  H52 ZIN A   1      16.872  -1.468   5.441  0.00  0.00     0.178 HD
BRANCH  27  29
ATOM     29  S25 ZIN A   1      18.920  -2.514   5.426  0.00  0.00     0.227 S 
ATOM     30  C26 ZIN A   1      17.996  -3.946   4.804  0.00  0.00     0.186 C 
ATOM     31  O27 ZIN A   1      19.629  -1.881   4.369  0.00  0.00    -0.206 OA
ATOM     32  O28 ZIN A   1      19.562  -2.830   6.653  0.00  0.00    -0.206 OA
ENDBRANCH  27  29
ENDBRANCH  24  27
ENDBRANCH  20  21
ENDBRANCH  19  20
ENDBRANCH   2  19
TORSDOF 11
ENDMDL
MODEL 2
REMARK VINA RESULT:      -7.5      1.927      4.813
REMARK  11 active torsions:
REMARK  status: ('A' for Active; 'I' for Inactive)
REMARK    1  A    between atoms: N2_2  and  C4_4 
REMARK    2  A    between atoms: N2_2  and  C18_18 
REMARK    3  A    between atoms: C4_4  and  C5_5 
REMARK    4  A    between atoms: C5_5  and  O6_6 
REMARK    5  A    between atoms: O6_6  and  C7_7 
REMARK    6  A    between atoms: C10_10  and  N11_11 
REMARK    7  A    between atoms: N11_11  and  S12_12 
REMARK    8  A    between atoms: C18_18  and  C19_19 
REMARK    9  A    between atoms: C19_19  and  C20_20 
REMARK   10  A    between atoms: C23_23  and  N24_24 
REMARK   11  A    between atoms: N24_24  and  S25_25 
ROOT
ATOM      1  C1  ZIN A   1      20.361   0.965  12.228  0.00  0.00     0.269 C 
ATOM      2  N2  ZIN A   1      19.343   0.732  13.262  0.00  0.00    -0.073 N 
ATOM      3  H3  ZIN A   1      19.565   1.277  14.081  0.00  0.00     0.279 HD
ENDROOT
BRANCH   2   4
ATOM      4  C4  ZIN A   1      18.025   1.131  12.750  0.00  0.00     0.261 C 
BRANCH   4   5
ATOM      5  C5  ZIN A   1      18.190   2.295  11.770  0.00  0.00     0.203 C 
BRANCH   5   6
ATOM      6  O6  ZIN A   1      17.370   2.069  10.621  0.00  0.00    -0.349 OA
BRANCH   6   7
ATOM      7  C7  ZIN A   1      17.851   1.218   9.677  0.00  0.00     0.069 A 
ATOM      8  C17 ZIN A   1      17.348  -0.072   9.585  0.00  0.00     0.039 A 
ATOM      9  C16 ZIN A   1      17.833  -0.936   8.624  0.00  0.00     0.033 A 
ATOM     10  C10 ZIN A   1      18.831  -0.517   7.754  0.00  0.00     0.042 A 
ATOM     11  C9  ZIN A   1      19.338   0.773   7.849  0.00  0.00     0.033 A 
ATOM     12  C8  ZIN A   1      18.848   1.637   8.809  0.00  0.00     0.039 A 
BRANCH  10  13
ATOM     13  N11 ZIN A   1      19.328  -1.394   6.783  0.00  0.00    -0.285 N 
ATOM     14  H40 ZIN A   1      19.939  -2.102   7.037  0.00  0.00     0.178 HD
BRANCH  13  15
ATOM     15  S12 ZIN A   1      18.872  -1.221   5.200  0.00  0.00     0.227 S 
ATOM     16  C13 ZIN A   1      18.740  -2.919   4.578  0.00  0.00     0.186 C 
ATOM     17  O14 ZIN A   1      17.589  -0.614   5.270  0.00  0.00    -0.206 OA
ATOM     18  O15 ZIN A   1      19.967  -0.550   4.592  0.00  0.00    -0.206 OA
ENDBRANCH  13  15
ENDBRANCH  10  13
ENDBRANCH   6   7
ENDBRANCH   5   6
ENDBRANCH   4   5
ENDBRANCH   2   4
BRANCH   2  19
ATOM     19  C18 ZIN A   1      19.320  -0.695  13.615  0.00  0.00     0.239 C 
BRANCH  19  20
ATOM     20  C19 ZIN A   1      18.031  -1.329  13.091  0.00  0.00     0.066 C 
BRANCH  20  21
ATOM     21  C20 ZIN A   1      18.371  -2.484  12.184  0.00  0.00    -0.057 A 
ATOM     22  C30 ZIN A   1      19.692  -2.841  11.989  0.00  0.00     0.009 A 
ATOM     23  C29 ZIN A   1      20.006  -3.902  11.163  0.00  0.00     0.030 A 
ATOM     24  C23 ZIN A   1      18.994  -4.603  10.519  0.00  0.00     0.042 A 
ATOM     25  C22 ZIN A   1      17.668  -4.236  10.713  0.00  0.00     0.030 A 
ATOM     26  C21 ZIN A   1      17.361  -3.178  11.545  0.00  0.00     0.009 A 
BRANCH  24  27
ATOM     27  N24 ZIN A   1      19.309  -5.672   9.677  0.00  0.00    -0.285 N 
ATOM     28  H52 ZIN A   1      19.326  -6.576  10.027  0.00  0.00     0.178 HD
BRANCH  27  29
ATOM     29  S25 ZIN A   1      19.654  -5.396   8.081  0.00  0.00     0.227 S 
ATOM     30  C26 ZIN A   1      18.398  -6.341   7.176  0.00  0.00     0.186 C 
ATOM     31  O27 ZIN A   1      19.445  -4.001   7.914  0.00  0.00    -0.206 OA
ATOM     32  O28 ZIN A   1      20.940  -5.972   7.896  0.00  0.00    -0.206 OA
ENDBRANCH  27  29
ENDBRANCH  24  27
ENDBRANCH  20  21
ENDBRANCH  19  20
ENDBRANCH   2  19
TORSDOF 11
ENDMDL
MODEL 3
REMARK VINA RESULT:      -7.4      1.490      2.133
REMARK  11 active torsions:
REMARK  status: ('A' for Active; 'I' for Inactive)
REMARK    1  A    between atoms: N2_2  and  C4_4 
REMARK    2  A    between atoms: N2_2  and  C18_18 
REMARK    3  A    between atoms: C4_4  and  C5_5 
REMARK    4  A    between atoms: C5_5  and  O6_6 
REMARK    5  A    between atoms: O6_6  and  C7_7 
REMARK    6  A    between atoms: C10_10  and  N11_11 
REMARK    7  A    between atoms: N11_11  and  S12_12 
REMARK    8  A    between atoms: C18_18  and  C19_19 
REMARK    9  A    between atoms: C19_19  and  C20_20 
REMARK   10  A    between atoms: C23_23  and  N24_24 
REMARK   11  A    between atoms: N24_24  and  S25_25 
ROOT
ATOM      1  C1  ZIN A   1      17.919   2.169  12.815  0.00  0.00     0.269 C 
ATOM      2  N2  ZIN A   1      19.320   1.729  12.761  0.00  0.00    -0.073 N 
ATOM      3  H3  ZIN A   1      19.909   2.432  13.182  0.00  0.00     0.279 HD
ENDROOT
BRANCH   2   4
ATOM      4  C4  ZIN A   1      19.465   0.466  13.496  0.00  0.00     0.261 C 
BRANCH   4   5
ATOM      5  C5  ZIN A   1      18.102  -0.220  13.608  0.00  0.00     0.203 C 
BRANCH   5   6
ATOM      6  O6  ZIN A   1      18.285  -1.636  13.667  0.00  0.00    -0.349 OA
BRANCH   6   7
ATOM      7  C7  ZIN A   1      18.553  -2.273  12.497  0.00  0.00     0.069 A 
ATOM      8  C17 ZIN A   1      19.799  -2.849  12.290  0.00  0.00     0.039 A 
ATOM      9  C16 ZIN A   1      20.072  -3.500  11.104  0.00  0.00     0.033 A 
ATOM     10  C10 ZIN A   1      19.101  -3.571  10.112  0.00  0.00     0.042 A 
ATOM     11  C9  ZIN A   1      17.856  -2.990  10.317  0.00  0.00     0.033 A 
ATOM     12  C8  ZIN A   1      17.585  -2.344  11.507  0.00  0.00     0.039 A 
BRANCH  10  13
ATOM     13  N11 ZIN A   1      19.378  -4.225   8.906  0.00  0.00    -0.285 N 
ATOM     14  H40 ZIN A   1      19.698  -3.719   8.143  0.00  0.00     0.178 HD
BRANCH  13  15
ATOM     15  S12 ZIN A   1      19.160  -5.862   8.784  0.00  0.00     0.227 S 
ATOM     16  C13 ZIN A   1      18.531  -6.110   7.101  0.00  0.00     0.186 C 
ATOM     17  O14 ZIN A   1      20.468  -6.401   8.913  0.00  0.00    -0.206 OA
ATOM     18  O15 ZIN A   1      18.150  -6.153   9.741  0.00  0.00    -0.206 OA
ENDBRANCH  13  15
ENDBRANCH  10  13
ENDBRANCH   6   7
ENDBRANCH   5   6
ENDBRANCH   4   5
ENDBRANCH   2   4
BRANCH   2  19
ATOM     19  C18 ZIN A   1      19.718   1.531  11.361  0.00  0.00     0.239 C 
BRANCH  19  20
ATOM     20  C19 ZIN A   1      18.770   2.307  10.446  0.00  0.00     0.066 C 
BRANCH  20  21
ATOM     21  C20 ZIN A   1      18.528   1.517   9.185  0.00  0.00    -0.057 A 
ATOM     22  C30 ZIN A   1      19.279   1.778   8.054  0.00  0.00     0.009 A 
ATOM     23  C29 ZIN A   1      19.064   1.052   6.899  0.00  0.00     0.030 A 
ATOM     24  C23 ZIN A   1      18.084   0.067   6.871  0.00  0.00     0.042 A 
ATOM     25  C22 ZIN A   1      17.328  -0.187   8.008  0.00  0.00     0.030 A 
ATOM     26  C21 ZIN A   1      17.552   0.539   9.162  0.00  0.00     0.009 A 
BRANCH  24  27
ATOM     27  N24 ZIN A   1      17.860  -0.664   5.702  0.00  0.00    -0.285 N 
ATOM     28  H52 ZIN A   1      17.083  -0.476   5.155  0.00  0.00     0.178 HD
BRANCH  27  29
ATOM     29  S25 ZIN A   1      18.922  -1.852   5.252  0.00  0.00     0.227 S 
ATOM     30  C26 ZIN A   1      17.932  -2.984   4.237  0.00  0.00     0.186 C 
ATOM     31  O27 ZIN A   1      19.884  -1.178   4.453  0.00  0.00    -0.206 OA
ATOM     32  O28 ZIN A   1      19.292  -2.474   6.476  0.00  0.00    -0.206 OA
ENDBRANCH  27  29
ENDBRANCH  24  27
ENDBRANCH  20  21
ENDBRANCH  19  20
ENDBRANCH   2  19
TORSDOF 11
ENDMDL
MODEL 4
REMARK VINA RESULT:      -7.2      1.716      2.333
REMARK  11 active torsions:
REMARK  status: ('A' for Active; 'I' for Inactive)
REMARK    1  A    between atoms: N2_2  and  C4_4 
REMARK    2  A    between atoms: N2_2  and  C18_18 
REMARK    3  A    between atoms: C4_4  and  C5_5 
REMARK    4  A    between atoms: C5_5  and  O6_6 
REMARK    5  A    between atoms: O6_6  and  C7_7 
REMARK    6  A    between atoms: C10_10  and  N11_11 
REMARK    7  A    between atoms: N11_11  and  S12_12 
REMARK    8  A    between atoms: C18_18  and  C19_19 
REMARK    9  A    between atoms: C19_19  and  C20_20 
REMARK   10  A    between atoms: C23_23  and  N24_24 
REMARK   11  A    between atoms: N24_24  and  S25_25 
ROOT
ATOM      1  C1  ZIN A   1      17.565   4.738  12.147  0.00  0.00     0.269 C 
ATOM      2  N2  ZIN A   1      18.956   4.289  12.295  0.00  0.00    -0.073 N 
ATOM      3  H3  ZIN A   1      19.580   5.059  12.106  0.00  0.00     0.279 HD
ENDROOT
BRANCH   2   4
ATOM      4  C4  ZIN A   1      19.173   3.811  13.667  0.00  0.00     0.261 C 
BRANCH   4   5
ATOM      5  C5  ZIN A   1      17.857   3.272  14.233  0.00  0.00     0.203 C 
BRANCH   5   6
ATOM      6  O6  ZIN A   1      18.122   2.122  15.040  0.00  0.00    -0.349 OA
BRANCH   6   7
ATOM      7  C7  ZIN A   1      18.227   0.929  14.398  0.00  0.00     0.069 A 
ATOM      8  C17 ZIN A   1      19.216   0.027  14.766  0.00  0.00     0.039 A 
ATOM      9  C16 ZIN A   1      19.321  -1.187  14.118  0.00  0.00     0.033 A 
ATOM     10  C10 ZIN A   1      18.442  -1.503  13.089  0.00  0.00     0.042 A 
ATOM     11  C9  ZIN A   1      17.456  -0.599  12.717  0.00  0.00     0.033 A 
ATOM     12  C8  ZIN A   1      17.350   0.614  13.371  0.00  0.00     0.039 A 
BRANCH  10  13
ATOM     13  N11 ZIN A   1      18.552  -2.731  12.427  0.00  0.00    -0.285 N 
ATOM     14  H40 ZIN A   1      18.002  -3.481  12.703  0.00  0.00     0.178 HD
BRANCH  13  15
ATOM     15  S12 ZIN A   1      19.620  -2.903  11.174  0.00  0.00     0.227 S 
ATOM     16  C13 ZIN A   1      18.630  -3.607   9.828  0.00  0.00     0.186 C 
ATOM     17  O14 ZIN A   1      20.012  -1.574  10.862  0.00  0.00    -0.206 OA
ATOM     18  O15 ZIN A   1      20.565  -3.854  11.647  0.00  0.00    -0.206 OA
ENDBRANCH  13  15
ENDBRANCH  10  13
ENDBRANCH   6   7
ENDBRANCH   5   6
ENDBRANCH   4   5
ENDBRANCH   2   4
BRANCH   2  19
ATOM     19  C18 ZIN A   1      19.224   3.199  11.347  0.00  0.00     0.239 C 
BRANCH  19  20
ATOM     20  C19 ZIN A   1      17.947   2.876  10.569  0.00  0.00     0.066 C 
BRANCH  20  21
ATOM     21  C20 ZIN A   1      18.234   1.790   9.563  0.00  0.00    -0.057 A 
ATOM     22  C30 ZIN A   1      19.310   1.912   8.704  0.00  0.00     0.009 A 
ATOM     23  C29 ZIN A   1      19.578   0.917   7.785  0.00  0.00     0.030 A 
ATOM     24  C23 ZIN A   1      18.757  -0.202   7.716  0.00  0.00     0.042 A 
ATOM     25  C22 ZIN A   1      17.673  -0.318   8.576  0.00  0.00     0.030 A 
ATOM     26  C21 ZIN A   1      17.414   0.679   9.497  0.00  0.00     0.009 A 
BRANCH  24  27
ATOM     27  N24 ZIN A   1      19.022  -1.207   6.783  0.00  0.00    -0.285 N 
ATOM     28  H52 ZIN A   1      19.376  -2.060   7.076  0.00  0.00     0.178 HD
BRANCH  27  29
ATOM     29  S25 ZIN A   1      18.729  -0.942   5.174  0.00  0.00     0.227 S 
ATOM     30  C26 ZIN A   1      17.876  -2.442   4.615  0.00  0.00     0.186 C 
ATOM     31  O27 ZIN A   1      17.844   0.170   5.158  0.00  0.00    -0.206 OA
ATOM     32  O28 ZIN A   1      20.023  -0.857   4.592  0.00  0.00    -0.206 OA
ENDBRANCH  27  29
ENDBRANCH  24  27
ENDBRANCH  20  21
ENDBRANCH  19  20
ENDBRANCH   2  19
TORSDOF 11
ENDMDL
MODEL 5
REMARK VINA RESULT:      -7.1      1.944      4.872
REMARK  11 active torsions:
REMARK  status: ('A' for Active; 'I' for Inactive)
REMARK    1  A    between atoms: N2_2  and  C4_4 
REMARK    2  A    between atoms: N2_2  and  C18_18 
REMARK    3  A    between atoms: C4_4  and  C5_5 
REMARK    4  A    between atoms: C5_5  and  O6_6 
REMARK    5  A    between atoms: O6_6  and  C7_7 
REMARK    6  A    between atoms: C10_10  and  N11_11 
REMARK    7  A    between atoms: N11_11  and  S12_12 
REMARK    8  A    between atoms: C18_18  and  C19_19 
REMARK    9  A    between atoms: C19_19  and  C20_20 
REMARK   10  A    between atoms: C23_23  and  N24_24 
REMARK   11  A    between atoms: N24_24  and  S25_25 
ROOT
ATOM      1  C1  ZIN A   1      19.499   1.207  14.219  0.00  0.00     0.269 C 
ATOM      2  N2  ZIN A   1      19.059   0.553  12.980  0.00  0.00    -0.073 N 
ATOM      3  H3  ZIN A   1      18.154   0.912  12.713  0.00  0.00     0.279 HD
ENDROOT
BRANCH   2   4
ATOM      4  C4  ZIN A   1      20.028   0.825  11.910  0.00  0.00     0.261 C 
BRANCH   4   5
ATOM      5  C5  ZIN A   1      19.811   2.241  11.374  0.00  0.00     0.203 C 
BRANCH   5   6
ATOM      6  O6  ZIN A   1      18.538   2.315  10.728  0.00  0.00    -0.349 OA
BRANCH   6   7
ATOM      7  C7  ZIN A   1      18.393   1.619   9.569  0.00  0.00     0.069 A 
ATOM      8  C17 ZIN A   1      19.164   1.945   8.463  0.00  0.00     0.039 A 
ATOM      9  C16 ZIN A   1      19.021   1.236   7.287  0.00  0.00     0.033 A 
ATOM     10  C10 ZIN A   1      18.098   0.201   7.209  0.00  0.00     0.042 A 
ATOM     11  C9  ZIN A   1      17.323  -0.123   8.315  0.00  0.00     0.033 A 
ATOM     12  C8  ZIN A   1      17.471   0.586   9.492  0.00  0.00     0.039 A 
BRANCH  10  13
ATOM     13  N11 ZIN A   1      17.948  -0.516   6.015  0.00  0.00    -0.285 N 
ATOM     14  H40 ZIN A   1      17.179  -0.352   5.447  0.00  0.00     0.178 HD
BRANCH  13  15
ATOM     15  S12 ZIN A   1      19.081  -1.640   5.577  0.00  0.00     0.227 S 
ATOM     16  C13 ZIN A   1      18.138  -2.910   4.688  0.00  0.00     0.186 C 
ATOM     17  O14 ZIN A   1      19.941  -0.943   4.687  0.00  0.00    -0.206 OA
ATOM     18  O15 ZIN A   1      19.563  -2.151   6.812  0.00  0.00    -0.206 OA
ENDBRANCH  13  15
ENDBRANCH  10  13
ENDBRANCH   6   7
ENDBRANCH   5   6
ENDBRANCH   4   5
ENDBRANCH   2   4
BRANCH   2  19
ATOM     19  C18 ZIN A   1      18.963  -0.898  13.197  0.00  0.00     0.239 C 
BRANCH  19  20
ATOM     20  C19 ZIN A   1      17.695  -1.431  12.528  0.00  0.00     0.066 C 
BRANCH  20  21
ATOM     21  C20 ZIN A   1      18.036  -2.643  11.699  0.00  0.00    -0.057 A 
ATOM     22  C30 ZIN A   1      17.191  -3.737  11.697  0.00  0.00     0.009 A 
ATOM     23  C29 ZIN A   1      17.498  -4.846  10.934  0.00  0.00     0.030 A 
ATOM     24  C23 ZIN A   1      18.663  -4.867  10.177  0.00  0.00     0.042 A 
ATOM     25  C22 ZIN A   1      19.513  -3.767  10.187  0.00  0.00     0.030 A 
ATOM     26  C21 ZIN A   1      19.196  -2.659  10.948  0.00  0.00     0.009 A 
BRANCH  24  27
ATOM     27  N24 ZIN A   1      18.980  -5.990   9.410  0.00  0.00    -0.285 N 
ATOM     28  H52 ZIN A   1      19.361  -6.774   9.832  0.00  0.00     0.178 HD
BRANCH  27  29
ATOM     29  S25 ZIN A   1      18.702  -5.982   7.777  0.00  0.00     0.227 S 
ATOM     30  C26 ZIN A   1      20.286  -5.477   7.051  0.00  0.00     0.186 C 
ATOM     31  O27 ZIN A   1      18.420  -7.339   7.463  0.00  0.00    -0.206 OA
ATOM     32  O28 ZIN A   1      17.723  -4.969   7.593  0.00  0.00    -0.206 OA
ENDBRANCH  27  29
ENDBRANCH  24  27
ENDBRANCH  20  21
ENDBRANCH  19  20
ENDBRANCH   2  19
TORSDOF 11
ENDMDL
MODEL 6
REMARK VINA RESULT:      -7.0      4.380      8.839
REMARK  11 active torsions:
REMARK  status: ('A' for Active; 'I' for Inactive)
REMARK    1  A    between atoms: N2_2  and  C4_4 
REMARK    2  A    between atoms: N2_2  and  C18_18 
REMARK    3  A    between atoms: C4_4  and  C5_5 
REMARK    4  A    between atoms: C5_5  and  O6_6 
REMARK    5  A    between atoms: O6_6  and  C7_7 
REMARK    6  A    between atoms: C10_10  and  N11_11 
REMARK    7  A    between atoms: N11_11  and  S12_12 
REMARK    8  A    between atoms: C18_18  and  C19_19 
REMARK    9  A    between atoms: C19_19  and  C20_20 
REMARK   10  A    between atoms: C23_23  and  N24_24 
REMARK   11  A    between atoms: N24_24  and  S25_25 
ROOT
ATOM      1  C1  ZIN A   1      18.485  -2.974  10.238  0.00  0.00     0.269 C 
ATOM      2  N2  ZIN A   1      19.132  -1.667  10.058  0.00  0.00    -0.073 N 
ATOM      3  H3  ZIN A   1      19.889  -1.754   9.396  0.00  0.00     0.279 HD
ENDROOT
BRANCH   2   4
ATOM      4  C4  ZIN A   1      18.149  -0.700   9.553  0.00  0.00     0.261 C 
BRANCH   4   5
ATOM      5  C5  ZIN A   1      18.842   0.637   9.281  0.00  0.00     0.203 C 
BRANCH   5   6
ATOM      6  O6  ZIN A   1      17.926   1.706   9.527  0.00  0.00    -0.349 OA
BRANCH   6   7
ATOM      7  C7  ZIN A   1      18.298   2.637  10.445  0.00  0.00     0.069 A 
ATOM      8  C17 ZIN A   1      19.482   2.480  11.152  0.00  0.00     0.039 A 
ATOM      9  C16 ZIN A   1      19.862   3.427  12.082  0.00  0.00     0.033 A 
ATOM     10  C10 ZIN A   1      19.055   4.533  12.317  0.00  0.00     0.042 A 
ATOM     11  C9  ZIN A   1      17.867   4.687  11.613  0.00  0.00     0.033 A 
ATOM     12  C8  ZIN A   1      17.491   3.741  10.680  0.00  0.00     0.039 A 
BRANCH  10  13
ATOM     13  N11 ZIN A   1      19.436   5.491  13.264  0.00  0.00    -0.285 N 
ATOM     14  H40 ZIN A   1      20.213   6.048  13.102  0.00  0.00     0.178 HD
BRANCH  13  15
ATOM     15  S12 ZIN A   1      18.562   5.670  14.658  0.00  0.00     0.227 S 
ATOM     16  C13 ZIN A   1      19.812   5.904  15.950  0.00  0.00     0.186 C 
ATOM     17  O14 ZIN A   1      17.823   6.867  14.457  0.00  0.00    -0.206 OA
ATOM     18  O15 ZIN A   1      17.903   4.422  14.821  0.00  0.00    -0.206 OA
ENDBRANCH  13  15
ENDBRANCH  10  13
ENDBRANCH   6   7
ENDBRANCH   5   6
ENDBRANCH   4   5
ENDBRANCH   2   4
BRANCH   2  19
ATOM     19  C18 ZIN A   1      19.662  -1.201  11.347  0.00  0.00     0.239 C 
BRANCH  19  20
ATOM     20  C19 ZIN A   1      19.063  -2.040  12.477  0.00  0.00     0.066 C 
BRANCH  20  21
ATOM     21  C20 ZIN A   1      18.746  -1.149  13.651  0.00  0.00    -0.057 A 
ATOM     22  C30 ZIN A   1      18.101   0.057  13.447  0.00  0.00     0.009 A 
ATOM     23  C29 ZIN A   1      17.805   0.873  14.520  0.00  0.00     0.030 A 
ATOM     24  C23 ZIN A   1      18.164   0.486  15.806  0.00  0.00     0.042 A 
ATOM     25  C22 ZIN A   1      18.817  -0.724  16.006  0.00  0.00     0.030 A 
ATOM     26  C21 ZIN A   1      19.106  -1.537  14.928  0.00  0.00     0.009 A 
BRANCH  24  27
ATOM     27  N24 ZIN A   1      17.871   1.312  16.893  0.00  0.00    -0.285 N 
ATOM     28  H52 ZIN A   1      16.959   1.388  17.212  0.00  0.00     0.178 HD
BRANCH  27  29
ATOM     29  S25 ZIN A   1      19.082   2.161  17.638  0.00  0.00     0.227 S 
ATOM     30  C26 ZIN A   1      18.240   3.574  18.403  0.00  0.00     0.186 C 
ATOM     31  O27 ZIN A   1      19.570   1.273  18.634  0.00  0.00    -0.206 OA
ATOM     32  O28 ZIN A   1      19.914   2.595  16.571  0.00  0.00    -0.206 OA
ENDBRANCH  27  29
ENDBRANCH  24  27
ENDBRANCH  20  21
ENDBRANCH  19  20
ENDBRANCH   2  19
TORSDOF 11
ENDMDL
MODEL 7
REMARK VINA RESULT:      -7.0      2.597      3.587
REMARK  11 active torsions:
REMARK  status: ('A' for Active; 'I' for Inactive)
REMARK    1  A    between atoms: N2_2  and  C4_4 
REMARK    2  A    between atoms: N2_2  and  C18_18 
REMARK    3  A    between atoms: C4_4  and  C5_5 
REMARK    4  A    between atoms: C5_5  and  O6_6 
REMARK    5  A    between atoms: O6_6  and  C7_7 
REMARK    6  A    between atoms: C10_10  and  N11_11 
REMARK    7  A    between atoms: N11_11  and  S12_12 
REMARK    8  A    between atoms: C18_18  and  C19_19 
REMARK    9  A    between atoms: C19_19  and  C20_20 
REMARK   10  A    between atoms: C23_23  and  N24_24 
REMARK   11  A    between atoms: N24_24  and  S25_25 
ROOT
ATOM      1  C1  ZIN A   1      20.570   5.796  15.647  0.00  0.00     0.269 C 
ATOM      2  N2  ZIN A   1      20.062   4.530  15.101  0.00  0.00    -0.073 N 
ATOM      3  H3  ZIN A   1      20.829   3.997  14.717  0.00  0.00     0.279 HD
ENDROOT
BRANCH   2   4
ATOM      4  C4  ZIN A   1      19.418   3.757  16.172  0.00  0.00     0.261 C 
BRANCH   4   5
ATOM      5  C5  ZIN A   1      18.550   2.659  15.557  0.00  0.00     0.203 C 
BRANCH   5   6
ATOM      6  O6  ZIN A   1      19.266   1.422  15.572  0.00  0.00    -0.349 OA
BRANCH   6   7
ATOM      7  C7  ZIN A   1      18.875   0.472  14.680  0.00  0.00     0.069 A 
ATOM      8  C17 ZIN A   1      17.795   0.711  13.842  0.00  0.00     0.039 A 
ATOM      9  C16 ZIN A   1      17.401  -0.251  12.933  0.00  0.00     0.033 A 
ATOM     10  C10 ZIN A   1      18.079  -1.461  12.864  0.00  0.00     0.042 A 
ATOM     11  C9  ZIN A   1      19.157  -1.701  13.707  0.00  0.00     0.033 A 
ATOM     12  C8  ZIN A   1      19.553  -0.735  14.612  0.00  0.00     0.039 A 
BRANCH  10  13
ATOM     13  N11 ZIN A   1      17.676  -2.439  11.948  0.00  0.00    -0.285 N 
ATOM     14  H40 ZIN A   1      16.840  -2.912  12.080  0.00  0.00     0.178 HD
BRANCH  13  15
ATOM     15  S12 ZIN A   1      18.628  -2.789  10.639  0.00  0.00     0.227 S 
ATOM     16  C13 ZIN A   1      19.309  -4.431  11.000  0.00  0.00     0.186 C 
ATOM     17  O14 ZIN A   1      17.718  -2.855   9.550  0.00  0.00    -0.206 OA
ATOM     18  O15 ZIN A   1      19.653  -1.805  10.678  0.00  0.00    -0.206 OA
ENDBRANCH  13  15
ENDBRANCH  10  13
ENDBRANCH   6   7
ENDBRANCH   5   6
ENDBRANCH   4   5
ENDBRANCH   2   4
BRANCH   2  19
ATOM     19  C18 ZIN A   1      19.083   4.810  14.042  0.00  0.00     0.239 C 
BRANCH  19  20
ATOM     20  C19 ZIN A   1      19.799   4.887  12.693  0.00  0.00     0.066 C 
BRANCH  20  21
ATOM     21  C20 ZIN A   1      19.324   3.764  11.807  0.00  0.00    -0.057 A 
ATOM     22  C30 ZIN A   1      20.125   2.654  11.611  0.00  0.00     0.009 A 
ATOM     23  C29 ZIN A   1      19.690   1.622  10.804  0.00  0.00     0.030 A 
ATOM     24  C23 ZIN A   1      18.451   1.704  10.179  0.00  0.00     0.042 A 
ATOM     25  C22 ZIN A   1      17.652   2.824  10.374  0.00  0.00     0.030 A 
ATOM     26  C21 ZIN A   1      18.092   3.850  11.187  0.00  0.00     0.009 A 
BRANCH  24  27
ATOM     27  N24 ZIN A   1      18.011   0.664   9.357  0.00  0.00    -0.285 N 
ATOM     28  H52 ZIN A   1      17.359   0.028   9.688  0.00  0.00     0.178 HD
BRANCH  27  29
ATOM     29  S25 ZIN A   1      18.604   0.518   7.818  0.00  0.00     0.227 S 
ATOM     30  C26 ZIN A   1      17.170   0.017   6.826  0.00  0.00     0.186 C 
ATOM     31  O27 ZIN A   1      19.012   1.835   7.474  0.00  0.00    -0.206 OA
ATOM     32  O28 ZIN A   1      19.546  -0.543   7.904  0.00  0.00    -0.206 OA
ENDBRANCH  27  29
ENDBRANCH  24  27
ENDBRANCH  20  21
ENDBRANCH  19  20
ENDBRANCH   2  19
TORSDOF 11
ENDMDL
MODEL 8
REMARK VINA RESULT:      -6.9      4.474      8.206
REMARK  11 active torsions:
REMARK  status: ('A' for Active; 'I' for Inactive)
REMARK    1  A    between atoms: N2_2  and  C4_4 
REMARK    2  A    between atoms: N2_2  and  C18_18 
REMARK    3  A    between atoms: C4_4  and  C5_5 
REMARK    4  A    between atoms: C5_5  and  O6_6 
REMARK    5  A    between atoms: O6_6  and  C7_7 
REMARK    6  A    between atoms: C10_10  and  N11_11 
REMARK    7  A    between atoms: N11_11  and  S12_12 
REMARK    8  A    between atoms: C18_18  and  C19_19 
REMARK    9  A    between atoms: C19_19  and  C20_20 
REMARK   10  A    between atoms: C23_23  and  N24_24 
REMARK   11  A    between atoms: N24_24  and  S25_25 
ROOT
ATOM      1  C1  ZIN A   1      19.014   1.117   7.643  0.00  0.00     0.269 C 
ATOM      2  N2  ZIN A   1      18.711   1.078   9.080  0.00  0.00    -0.073 N 
ATOM      3  H3  ZIN A   1      17.711   1.100   9.213  0.00  0.00     0.279 HD
ENDROOT
BRANCH   2   4
ATOM      4  C4  ZIN A   1      19.255  -0.156   9.662  0.00  0.00     0.261 C 
BRANCH   4   5
ATOM      5  C5  ZIN A   1      18.331  -0.644  10.779  0.00  0.00     0.203 C 
BRANCH   5   6
ATOM      6  O6  ZIN A   1      19.114  -1.029  11.911  0.00  0.00    -0.349 OA
BRANCH   6   7
ATOM      7  C7  ZIN A   1      18.813  -0.441  13.099  0.00  0.00     0.069 A 
ATOM      8  C17 ZIN A   1      17.972   0.664  13.132  0.00  0.00     0.039 A 
ATOM      9  C16 ZIN A   1      17.661   1.259  14.338  0.00  0.00     0.033 A 
ATOM     10  C10 ZIN A   1      18.198   0.759  15.518  0.00  0.00     0.042 A 
ATOM     11  C9  ZIN A   1      19.043  -0.343  15.484  0.00  0.00     0.033 A 
ATOM     12  C8  ZIN A   1      19.348  -0.940  14.276  0.00  0.00     0.039 A 
BRANCH  10  13
ATOM     13  N11 ZIN A   1      17.888   1.365  16.741  0.00  0.00    -0.285 N 
ATOM     14  H40 ZIN A   1      17.028   1.204  17.157  0.00  0.00     0.178 HD
BRANCH  13  15
ATOM     15  S12 ZIN A   1      18.991   2.358  17.475  0.00  0.00     0.227 S 
ATOM     16  C13 ZIN A   1      17.988   3.482  18.484  0.00  0.00     0.186 C 
ATOM     17  O14 ZIN A   1      19.751   1.488  18.302  0.00  0.00    -0.206 OA
ATOM     18  O15 ZIN A   1      19.599   3.061  16.400  0.00  0.00    -0.206 OA
ENDBRANCH  13  15
ENDBRANCH  10  13
ENDBRANCH   6   7
ENDBRANCH   5   6
ENDBRANCH   4   5
ENDBRANCH   2   4
BRANCH   2  19
ATOM     19  C18 ZIN A   1      19.318   2.242   9.741  0.00  0.00     0.239 C 
BRANCH  19  20
ATOM     20  C19 ZIN A   1      18.311   3.393   9.772  0.00  0.00     0.066 C 
BRANCH  20  21
ATOM     21  C20 ZIN A   1      18.212   3.937  11.175  0.00  0.00    -0.057 A 
ATOM     22  C30 ZIN A   1      17.001   4.405  11.648  0.00  0.00     0.009 A 
ATOM     23  C29 ZIN A   1      16.906   4.899  12.934  0.00  0.00     0.030 A 
ATOM     24  C23 ZIN A   1      18.032   4.935  13.748  0.00  0.00     0.042 A 
ATOM     25  C22 ZIN A   1      19.248   4.469  13.266  0.00  0.00     0.030 A 
ATOM     26  C21 ZIN A   1      19.334   3.971  11.981  0.00  0.00     0.009 A 
BRANCH  24  27
ATOM     27  N24 ZIN A   1      17.941   5.440  15.047  0.00  0.00    -0.285 N 
ATOM     28  H52 ZIN A   1      17.822   4.835  15.795  0.00  0.00     0.178 HD
BRANCH  27  29
ATOM     29  S25 ZIN A   1      18.036   7.073  15.310  0.00  0.00     0.227 S 
ATOM     30  C26 ZIN A   1      17.723   7.265  17.086  0.00  0.00     0.186 C 
ATOM     31  O27 ZIN A   1      19.385   7.398  15.003  0.00  0.00    -0.206 OA
ATOM     32  O28 ZIN A   1      16.962   7.613  14.553  0.00  0.00    -0.206 OA
ENDBRANCH  27  29
ENDBRANCH  24  27
ENDBRANCH  20  21
ENDBRANCH  19  20
ENDBRANCH   2  19
TORSDOF 11
ENDMDL
MODEL 9
REMARK VINA RESULT:      -6.9      3.249      8.093
REMARK  11 active torsions:
REMARK  status: ('A' for Active; 'I' for Inactive)
REMARK    1  A    between atoms: N2_2  and  C4_4 
REMARK    2  A    between atoms: N2_2  and  C18_18 
REMARK    3  A    between atoms: C4_4  and  C5_5 
REMARK    4  A    between atoms: C5_5  and  O6_6 
REMARK    5  A    between atoms: O6_6  and  C7_7 
REMARK    6  A    between atoms: C10_10  and  N11_11 
REMARK    7  A    between atoms: N11_11  and  S12_12 
REMARK    8  A    between atoms: C18_18  and  C19_19 
REMARK    9  A    between atoms: C19_19  and  C20_20 
REMARK   10  A    between atoms: C23_23  and  N24_24 
REMARK   11  A    between atoms: N24_24  and  S25_25 
ROOT
ATOM      1  C1  ZIN A   1      19.254  -5.214   9.550  0.00  0.00     0.269 C 
ATOM      2  N2  ZIN A   1      19.524  -3.770   9.527  0.00  0.00    -0.073 N 
ATOM      3  H3  ZIN A   1      20.406  -3.600   9.066  0.00  0.00     0.279 HD
ENDROOT
BRANCH   2   4
ATOM      4  C4  ZIN A   1      18.451  -3.083   8.797  0.00  0.00     0.261 C 
BRANCH   4   5
ATOM      5  C5  ZIN A   1      19.062  -2.093   7.804  0.00  0.00     0.203 C 
BRANCH   5   6
ATOM      6  O6  ZIN A   1      18.130  -1.042   7.545  0.00  0.00    -0.349 OA
BRANCH   6   7
ATOM      7  C7  ZIN A   1      18.236   0.079   8.307  0.00  0.00     0.069 A 
ATOM      8  C17 ZIN A   1      17.342   0.297   9.347  0.00  0.00     0.039 A 
ATOM      9  C16 ZIN A   1      17.451   1.432  10.125  0.00  0.00     0.033 A 
ATOM     10  C10 ZIN A   1      18.450   2.361   9.861  0.00  0.00     0.042 A 
ATOM     11  C9  ZIN A   1      19.341   2.144   8.818  0.00  0.00     0.033 A 
ATOM     12  C8  ZIN A   1      19.233   1.005   8.044  0.00  0.00     0.039 A 
BRANCH  10  13
ATOM     13  N11 ZIN A   1      18.558   3.515  10.646  0.00  0.00    -0.285 N 
ATOM     14  H40 ZIN A   1      18.273   4.371  10.290  0.00  0.00     0.178 HD
BRANCH  13  15
ATOM     15  S12 ZIN A   1      19.174   3.419  12.179  0.00  0.00     0.227 S 
ATOM     16  C13 ZIN A   1      17.722   3.541  13.259  0.00  0.00     0.186 C 
ATOM     17  O14 ZIN A   1      19.740   2.117  12.249  0.00  0.00    -0.206 OA
ATOM     18  O15 ZIN A   1      19.987   4.578  12.304  0.00  0.00    -0.206 OA
ENDBRANCH  13  15
ENDBRANCH  10  13
ENDBRANCH   6   7
ENDBRANCH   5   6
ENDBRANCH   4   5
ENDBRANCH   2   4
BRANCH   2  19
ATOM     19  C18 ZIN A   1      19.586  -3.261  10.904  0.00  0.00     0.239 C 
BRANCH  19  20
ATOM     20  C19 ZIN A   1      18.245  -2.625  11.273  0.00  0.00     0.066 C 
BRANCH  20  21
ATOM     21  C20 ZIN A   1      18.407  -1.797  12.522  0.00  0.00    -0.057 A 
ATOM     22  C30 ZIN A   1      19.509  -1.985  13.335  0.00  0.00     0.009 A 
ATOM     23  C29 ZIN A   1      19.663  -1.224  14.477  0.00  0.00     0.030 A 
ATOM     24  C23 ZIN A   1      18.704  -0.276  14.814  0.00  0.00     0.042 A 
ATOM     25  C22 ZIN A   1      17.596  -0.095  13.997  0.00  0.00     0.030 A 
ATOM     26  C21 ZIN A   1      17.451  -0.856  12.853  0.00  0.00     0.009 A 
BRANCH  24  27
ATOM     27  N24 ZIN A   1      18.854   0.491  15.972  0.00  0.00    -0.285 N 
ATOM     28  H52 ZIN A   1      19.231   1.382  15.917  0.00  0.00     0.178 HD
BRANCH  27  29
ATOM     29  S25 ZIN A   1      18.387  -0.123  17.437  0.00  0.00     0.227 S 
ATOM     30  C26 ZIN A   1      17.605   1.277  18.285  0.00  0.00     0.186 C 
ATOM     31  O27 ZIN A   1      17.421  -1.112  17.111  0.00  0.00    -0.206 OA
ATOM     32  O28 ZIN A   1      19.608  -0.474  18.075  0.00  0.00    -0.206 OA
ENDBRANCH  27  29
ENDBRANCH  24  27
ENDBRANCH  20  21
ENDBRANCH  19  20
ENDBRANCH   2  19
TORSDOF 11
ENDMDL
