MODEL 1
REMARK VINA RESULT:      -8.8      0.000      0.000
REMARK  8 active torsions:
REMARK  status: ('A' for Active; 'I' for Inactive)
REMARK    1  A    between atoms: C2_2  and  C3_3 
REMARK    2  A    between atoms: C3_3  and  C4_4 
REMARK    3  A    between atoms: C12_12  and  C13_13 
REMARK    4  A    between atoms: C15_15  and  S16_16 
REMARK    5  A    between atoms: S16_16  and  N19_19 
REMARK    6  A    between atoms: N22_22  and  C23_23 
REMARK    7  A    between atoms: C29_29  and  O30_30 
REMARK    8  A    between atoms: O30_30  and  C31_31 
ROOT
ATOM      1  C13 ZIN A   1      18.657   0.972  14.153  0.00  0.00     0.048 A 
ATOM      2  C14 ZIN A   1      19.162   0.589  12.910  0.00  0.00     0.043 A 
ATOM      3  C15 ZIN A   1      19.357  -0.747  12.628  0.00  0.00     0.080 A 
ATOM      4  C27 ZIN A   1      19.053  -1.711  13.574  0.00  0.00     0.028 A 
ATOM      5  C28 ZIN A   1      18.551  -1.345  14.809  0.00  0.00     0.039 A 
ATOM      6  C29 ZIN A   1      18.355  -0.007  15.109  0.00  0.00     0.083 A 
ENDROOT
BRANCH   1   7
ATOM      7  C12 ZIN A   1      18.446   2.401  14.462  0.00  0.00     0.186 A 
ATOM      8  N11 ZIN A   1      18.947   2.906  15.645  0.00  0.00    -0.186 NA
ATOM      9  C9  ZIN A   1      18.774   4.210  15.962  0.00  0.00     0.299 A 
ATOM     10  C8  ZIN A   1      18.047   5.059  15.019  0.00  0.00     0.154 A 
ATOM     11  O10 ZIN A   1      19.212   4.663  17.003  0.00  0.00    -0.263 OA
ATOM     12  C6  ZIN A   1      17.685   6.384  14.991  0.00  0.00     0.067 A 
ATOM     13  N34 ZIN A   1      17.565   4.494  13.851  0.00  0.00    -0.210 N 
ATOM     14  N5  ZIN A   1      17.023   6.591  13.852  0.00  0.00    -0.236 NA
ATOM     15  C7  ZIN A   1      17.982   7.412  16.051  0.00  0.00     0.073 C 
ATOM     16  C4  ZIN A   1      16.951   5.473  13.169  0.00  0.00     0.128 A 
ATOM     17  N33 ZIN A   1      17.797   3.137  13.607  0.00  0.00    -0.144 NA
BRANCH  16  18
ATOM     18  C3  ZIN A   1      16.277   5.311  11.831  0.00  0.00     0.080 C 
BRANCH  18  19
ATOM     19  C2  ZIN A   1      17.309   5.494  10.716  0.00  0.00     0.003 C 
ATOM     20  C1  ZIN A   1      17.768   4.122  10.216  0.00  0.00     0.005 C 
ENDBRANCH  18  19
ENDBRANCH  16  18
ENDBRANCH   1   7
BRANCH   6  21
ATOM     21  O30 ZIN A   1      17.862   0.354  16.322  0.00  0.00    -0.351 OA
BRANCH  21  22
ATOM     22  C31 ZIN A   1      18.280  -0.418  17.449  0.00  0.00     0.171 C 
ATOM     23  C32 ZIN A   1      19.386   0.328  18.198  0.00  0.00     0.034 C 
ENDBRANCH  21  22
ENDBRANCH   6  21
BRANCH   3  24
ATOM     24  S16 ZIN A   1      19.996  -1.228  11.059  0.00  0.00     0.261 S 
ATOM     25  O17 ZIN A   1      21.243  -0.562  10.913  0.00  0.00    -0.200 OA
ATOM     26  O18 ZIN A   1      19.856  -2.640  10.984  0.00  0.00    -0.200 OA
BRANCH  24  27
ATOM     27  N19 ZIN A   1      18.991  -0.597   9.905  0.00  0.00    -0.303 N 
ATOM     28  C26 ZIN A   1      17.839  -1.364   9.405  0.00  0.00     0.165 C 
ATOM     29  C25 ZIN A   1      17.885  -1.377   7.878  0.00  0.00     0.293 C 
ATOM     30  N22 ZIN A   1      17.978   0.001   7.379  0.00  0.00     0.091 N 
ATOM     31  C21 ZIN A   1      19.223   0.644   7.820  0.00  0.00     0.293 C 
ATOM     32  C20 ZIN A   1      19.229   0.744   9.349  0.00  0.00     0.165 C 
BRANCH  30  33
ATOM     33  C23 ZIN A   1      17.853   0.041   5.916  0.00  0.00     0.268 C 
ATOM     34  C24 ZIN A   1      19.233   0.259   5.292  0.00  0.00     0.037 C 
ENDBRANCH  30  33
ENDBRANCH  24  27
ENDBRANCH   3  24
TORSDOF 8
ENDMDL
MODEL 2
REMARK VINA RESULT:      -8.6      3.361      9.611
REMARK  8 active torsions:
REMARK  status: ('A' for Active; 'I' for Inactive)
REMARK    1  A    between atoms: C2_2  and  C3_3 
REMARK    2  A    between atoms: C3_3  and  C4_4 
REMARK    3  A    between atoms: C12_12  and  C13_13 
REMARK    4  A    between atoms: C15_15  and  S16_16 
REMARK    5  A    between atoms: S16_16  and  N19_19 
REMARK    6  A    between atoms: N22_22  and  C23_23 
REMARK    7  A    between atoms: C29_29  and  O30_30 
REMARK    8  A    between atoms: O30_30  and  C31_31 
ROOT
ATOM      1  C13 ZIN A   1      18.786  -0.582   8.667  0.00  0.00     0.048 A 
ATOM      2  C14 ZIN A   1      19.213  -0.381   9.980  0.00  0.00     0.043 A 
ATOM      3  C15 ZIN A   1      19.433   0.901  10.443  0.00  0.00     0.080 A 
ATOM      4  C27 ZIN A   1      19.232   1.987   9.609  0.00  0.00     0.028 A 
ATOM      5  C28 ZIN A   1      18.809   1.800   8.306  0.00  0.00     0.039 A 
ATOM      6  C29 ZIN A   1      18.589   0.520   7.826  0.00  0.00     0.083 A 
ENDROOT
BRANCH   1   7
ATOM      7  C12 ZIN A   1      18.549  -1.952   8.165  0.00  0.00     0.186 A 
ATOM      8  N11 ZIN A   1      19.037  -2.297   6.921  0.00  0.00    -0.186 NA
ATOM      9  C9  ZIN A   1      18.840  -3.541   6.429  0.00  0.00     0.299 A 
ATOM     10  C8  ZIN A   1      18.101  -4.500   7.249  0.00  0.00     0.154 A 
ATOM     11  O10 ZIN A   1      19.267  -3.854   5.332  0.00  0.00    -0.263 OA
ATOM     12  C6  ZIN A   1      17.714  -5.809   7.096  0.00  0.00     0.067 A 
ATOM     13  N34 ZIN A   1      17.632  -4.093   8.486  0.00  0.00    -0.210 N 
ATOM     14  N5  ZIN A   1      17.052  -6.160   8.198  0.00  0.00    -0.236 NA
ATOM     15  C7  ZIN A   1      17.990  -6.687   5.902  0.00  0.00     0.073 C 
ATOM     16  C4  ZIN A   1      17.001  -5.146   9.029  0.00  0.00     0.128 A 
ATOM     17  N33 ZIN A   1      17.888  -2.788   8.913  0.00  0.00    -0.144 NA
BRANCH  16  18
ATOM     18  C3  ZIN A   1      16.335  -5.158  10.381  0.00  0.00     0.080 C 
BRANCH  18  19
ATOM     19  C2  ZIN A   1      17.351  -5.576  11.446  0.00  0.00     0.003 C 
ATOM     20  C1  ZIN A   1      17.972  -4.327  12.074  0.00  0.00     0.005 C 
ENDBRANCH  18  19
ENDBRANCH  16  18
ENDBRANCH   1   7
BRANCH   6  21
ATOM     21  O30 ZIN A   1      18.174   0.334   6.546  0.00  0.00    -0.351 OA
BRANCH  21  22
ATOM     22  C31 ZIN A   1      19.046   0.786   5.508  0.00  0.00     0.171 C 
ATOM     23  C32 ZIN A   1      18.862  -0.091   4.269  0.00  0.00     0.034 C 
ENDBRANCH  21  22
ENDBRANCH   6  21
BRANCH   3  24
ATOM     24  S16 ZIN A   1      19.972   1.154  12.100  0.00  0.00     0.261 S 
ATOM     25  O17 ZIN A   1      21.270   0.582  12.191  0.00  0.00    -0.200 OA
ATOM     26  O18 ZIN A   1      19.699   2.514  12.408  0.00  0.00    -0.200 OA
BRANCH  24  27
ATOM     27  N19 ZIN A   1      18.992   0.247  13.079  0.00  0.00    -0.303 N 
ATOM     28  C26 ZIN A   1      17.649   0.719  13.449  0.00  0.00     0.165 C 
ATOM     29  C25 ZIN A   1      17.500   0.636  14.967  0.00  0.00     0.293 C 
ATOM     30  N22 ZIN A   1      17.827  -0.724  15.417  0.00  0.00     0.091 N 
ATOM     31  C21 ZIN A   1      19.227  -1.060  15.123  0.00  0.00     0.293 C 
ATOM     32  C20 ZIN A   1      19.444  -1.049  13.607  0.00  0.00     0.165 C 
BRANCH  30  33
ATOM     33  C23 ZIN A   1      17.534  -0.891  16.846  0.00  0.00     0.268 C 
ATOM     34  C24 ZIN A   1      18.741  -0.441  17.671  0.00  0.00     0.037 C 
ENDBRANCH  30  33
ENDBRANCH  24  27
ENDBRANCH   3  24
TORSDOF 8
ENDMDL
MODEL 3
REMARK VINA RESULT:      -8.3      2.255      5.125
REMARK  8 active torsions:
REMARK  status: ('A' for Active; 'I' for Inactive)
REMARK    1  A    between atoms: C2_2  and  C3_3 
REMARK    2  A    between atoms: C3_3  and  C4_4 
REMARK    3  A    between atoms: C12_12  and  C13_13 
REMARK    4  A    between atoms: C15_15  and  S16_16 
REMARK    5  A    between atoms: S16_16  and  N19_19 
REMARK    6  A    between atoms: N22_22  and  C23_23 
REMARK    7  A    between atoms: C29_29  and  O30_30 
REMARK    8  A    between atoms: O30_30  and  C31_31 
ROOT
ATOM      1  C13 ZIN A   1      18.660   2.593  12.243  0.00  0.00     0.048 A 
ATOM      2  C14 ZIN A   1      19.049   1.424  11.588  0.00  0.00     0.043 A 
ATOM      3  C15 ZIN A   1      19.048   1.375  10.209  0.00  0.00     0.080 A 
ATOM      4  C27 ZIN A   1      18.662   2.481   9.472  0.00  0.00     0.028 A 
ATOM      5  C28 ZIN A   1      18.275   3.644  10.109  0.00  0.00     0.039 A 
ATOM      6  C29 ZIN A   1      18.265   3.708  11.493  0.00  0.00     0.083 A 
ENDROOT
BRANCH   1   7
ATOM      7  C12 ZIN A   1      18.659   2.652  13.719  0.00  0.00     0.186 A 
ATOM      8  N11 ZIN A   1      19.130   3.792  14.338  0.00  0.00    -0.186 NA
ATOM      9  C9  ZIN A   1      19.145   3.883  15.688  0.00  0.00     0.299 A 
ATOM     10  C8  ZIN A   1      18.649   2.745  16.462  0.00  0.00     0.154 A 
ATOM     11  O10 ZIN A   1      19.559   4.884  16.242  0.00  0.00    -0.263 OA
ATOM     12  C6  ZIN A   1      18.510   2.474  17.801  0.00  0.00     0.067 A 
ATOM     13  N34 ZIN A   1      18.194   1.628  15.784  0.00  0.00    -0.210 N 
ATOM     14  N5  ZIN A   1      17.989   1.251  17.907  0.00  0.00    -0.236 NA
ATOM     15  C7  ZIN A   1      18.878   3.389  18.940  0.00  0.00     0.073 C 
ATOM     16  C4  ZIN A   1      17.797   0.744  16.712  0.00  0.00     0.128 A 
ATOM     17  N33 ZIN A   1      18.213   1.628  14.387  0.00  0.00    -0.144 NA
BRANCH  16  18
ATOM     18  C3  ZIN A   1      17.224  -0.620  16.425  0.00  0.00     0.080 C 
BRANCH  18  19
ATOM     19  C2  ZIN A   1      18.314  -1.517  15.836  0.00  0.00     0.003 C 
ATOM     20  C1  ZIN A   1      19.437  -1.694  16.860  0.00  0.00     0.005 C 
ENDBRANCH  18  19
ENDBRANCH  16  18
ENDBRANCH   1   7
BRANCH   6  21
ATOM     21  O30 ZIN A   1      17.885   4.851  12.120  0.00  0.00    -0.351 OA
BRANCH  21  22
ATOM     22  C31 ZIN A   1      16.494   5.175  12.091  0.00  0.00     0.171 C 
ATOM     23  C32 ZIN A   1      16.054   5.665  13.472  0.00  0.00     0.034 C 
ENDBRANCH  21  22
ENDBRANCH   6  21
BRANCH   3  24
ATOM     24  S16 ZIN A   1      19.539  -0.102   9.384  0.00  0.00     0.261 S 
ATOM     25  O17 ZIN A   1      19.435   0.163   7.991  0.00  0.00    -0.200 OA
ATOM     26  O18 ZIN A   1      20.744  -0.528  10.006  0.00  0.00    -0.200 OA
BRANCH  24  27
ATOM     27  N19 ZIN A   1      18.402  -1.256   9.726  0.00  0.00    -0.303 N 
ATOM     28  C26 ZIN A   1      17.509  -1.116  10.886  0.00  0.00     0.165 C 
ATOM     29  C25 ZIN A   1      17.561  -2.405  11.704  0.00  0.00     0.293 C 
ATOM     30  N22 ZIN A   1      17.271  -3.550  10.831  0.00  0.00     0.091 N 
ATOM     31  C21 ZIN A   1      18.289  -3.690   9.780  0.00  0.00     0.293 C 
ATOM     32  C20 ZIN A   1      18.262  -2.451   8.880  0.00  0.00     0.165 C 
BRANCH  30  33
ATOM     33  C23 ZIN A   1      17.146  -4.788  11.611  0.00  0.00     0.268 C 
ATOM     34  C24 ZIN A   1      17.290  -5.995  10.682  0.00  0.00     0.037 C 
ENDBRANCH  30  33
ENDBRANCH  24  27
ENDBRANCH   3  24
TORSDOF 8
ENDMDL
MODEL 4
REMARK VINA RESULT:      -8.1      1.749      2.407
REMARK  8 active torsions:
REMARK  status: ('A' for Active; 'I' for Inactive)
REMARK    1  A    between atoms: C2_2  and  C3_3 
REMARK    2  A    between atoms: C3_3  and  C4_4 
REMARK    3  A    between atoms: C12_12  and  C13_13 
REMARK    4  A    between atoms: C15_15  and  S16_16 
REMARK    5  A    between atoms: S16_16  and  N19_19 
REMARK    6  A    between atoms: N22_22  and  C23_23 
REMARK    7  A    between atoms: C29_29  and  O30_30 
REMARK    8  A    between atoms: O30_30  and  C31_31 
ROOT
ATOM      1  C13 ZIN A   1      18.452   0.805  14.277  0.00  0.00     0.048 A 
ATOM      2  C14 ZIN A   1      18.932   0.264  13.083  0.00  0.00     0.043 A 
ATOM      3  C15 ZIN A   1      19.102  -1.100  12.964  0.00  0.00     0.080 A 
ATOM      4  C27 ZIN A   1      18.800  -1.935  14.026  0.00  0.00     0.028 A 
ATOM      5  C28 ZIN A   1      18.323  -1.412  15.213  0.00  0.00     0.039 A 
ATOM      6  C29 ZIN A   1      18.152  -0.044  15.349  0.00  0.00     0.083 A 
ENDROOT
BRANCH   1   7
ATOM      7  C12 ZIN A   1      18.268   2.265  14.410  0.00  0.00     0.186 A 
ATOM      8  N11 ZIN A   1      18.676   2.882  15.575  0.00  0.00    -0.186 NA
ATOM      9  C9  ZIN A   1      18.524   4.216  15.734  0.00  0.00     0.299 A 
ATOM     10  C8  ZIN A   1      17.920   4.978  14.641  0.00  0.00     0.154 A 
ATOM     11  O10 ZIN A   1      18.880   4.769  16.759  0.00  0.00    -0.263 OA
ATOM     12  C6  ZIN A   1      17.611   6.301  14.438  0.00  0.00     0.067 A 
ATOM     13  N34 ZIN A   1      17.526   4.302  13.499  0.00  0.00    -0.210 N 
ATOM     14  N5  ZIN A   1      17.066   6.400  13.226  0.00  0.00    -0.236 NA
ATOM     15  C7  ZIN A   1      17.847   7.430  15.407  0.00  0.00     0.073 C 
ATOM     16  C4  ZIN A   1      17.015   5.216  12.662  0.00  0.00     0.128 A 
ATOM     17  N33 ZIN A   1      17.728   2.921  13.424  0.00  0.00    -0.144 NA
BRANCH  16  18
ATOM     18  C3  ZIN A   1      16.462   4.928  11.289  0.00  0.00     0.080 C 
BRANCH  18  19
ATOM     19  C2  ZIN A   1      17.588   5.018  10.257  0.00  0.00     0.003 C 
ATOM     20  C1  ZIN A   1      18.117   3.614   9.956  0.00  0.00     0.005 C 
ENDBRANCH  18  19
ENDBRANCH  16  18
ENDBRANCH   1   7
BRANCH   6  21
ATOM     21  O30 ZIN A   1      17.685   0.472  16.516  0.00  0.00    -0.351 OA
BRANCH  21  22
ATOM     22  C31 ZIN A   1      18.108  -0.165  17.723  0.00  0.00     0.171 C 
ATOM     23  C32 ZIN A   1      19.398   0.490  18.220  0.00  0.00     0.034 C 
ENDBRANCH  21  22
ENDBRANCH   6  21
BRANCH   3  24
ATOM     24  S16 ZIN A   1      19.708  -1.780  11.457  0.00  0.00     0.261 S 
ATOM     25  O17 ZIN A   1      20.165  -0.683  10.677  0.00  0.00    -0.200 OA
ATOM     26  O18 ZIN A   1      20.537  -2.877  11.816  0.00  0.00    -0.200 OA
BRANCH  24  27
ATOM     27  N19 ZIN A   1      18.411  -2.419  10.650  0.00  0.00    -0.303 N 
ATOM     28  C26 ZIN A   1      17.410  -3.234  11.355  0.00  0.00     0.165 C 
ATOM     29  C25 ZIN A   1      17.213  -4.540  10.588  0.00  0.00     0.293 C 
ATOM     30  N22 ZIN A   1      16.896  -4.242   9.186  0.00  0.00     0.091 N 
ATOM     31  C21 ZIN A   1      18.007  -3.543   8.526  0.00  0.00     0.293 C 
ATOM     32  C20 ZIN A   1      18.233  -2.190   9.208  0.00  0.00     0.165 C 
BRANCH  30  33
ATOM     33  C23 ZIN A   1      16.534  -5.464   8.456  0.00  0.00     0.268 C 
ATOM     34  C24 ZIN A   1      16.963  -6.689   9.266  0.00  0.00     0.037 C 
ENDBRANCH  30  33
ENDBRANCH  24  27
ENDBRANCH   3  24
TORSDOF 8
ENDMDL
MODEL 5
REMARK VINA RESULT:      -8.1      3.159      9.281
REMARK  8 active torsions:
REMARK  status: ('A' for Active; 'I' for Inactive)
REMARK    1  A    between atoms: C2_2  and  C3_3 
REMARK    2  A    between atoms: C3_3  and  C4_4 
REMARK    3  A    between atoms: C12_12  and  C13_13 
REMARK    4  A    between atoms: C15_15  and  S16_16 
REMARK    5  A    between atoms: S16_16  and  N19_19 
REMARK    6  A    between atoms: N22_22  and  C23_23 
REMARK    7  A    between atoms: C29_29  and  O30_30 
REMARK    8  A    between atoms: O30_30  and  C31_31 
ROOT
ATOM      1  C13 ZIN A   1      18.502  -0.236   8.739  0.00  0.00     0.048 A 
ATOM      2  C14 ZIN A   1      18.286   0.563   9.863  0.00  0.00     0.043 A 
ATOM      3  C15 ZIN A   1      18.569   1.913   9.811  0.00  0.00     0.080 A 
ATOM      4  C27 ZIN A   1      19.066   2.478   8.650  0.00  0.00     0.028 A 
ATOM      5  C28 ZIN A   1      19.283   1.697   7.530  0.00  0.00     0.039 A 
ATOM      6  C29 ZIN A   1      19.010   0.340   7.567  0.00  0.00     0.083 A 
ENDROOT
BRANCH   1   7
ATOM      7  C12 ZIN A   1      18.202  -1.682   8.787  0.00  0.00     0.186 A 
ATOM      8  N11 ZIN A   1      17.909  -2.258  10.006  0.00  0.00    -0.186 NA
ATOM      9  C9  ZIN A   1      17.629  -3.579  10.091  0.00  0.00     0.299 A 
ATOM     10  C8  ZIN A   1      17.646  -4.369   8.859  0.00  0.00     0.154 A 
ATOM     11  O10 ZIN A   1      17.370  -4.096  11.162  0.00  0.00    -0.263 OA
ATOM     12  C6  ZIN A   1      17.422  -5.689   8.554  0.00  0.00     0.067 A 
ATOM     13  N34 ZIN A   1      17.952  -3.734   7.668  0.00  0.00    -0.210 N 
ATOM     14  N5  ZIN A   1      17.583  -5.825   7.237  0.00  0.00    -0.236 NA
ATOM     15  C7  ZIN A   1      17.060  -6.781   9.527  0.00  0.00     0.073 C 
ATOM     16  C4  ZIN A   1      17.895  -4.667   6.705  0.00  0.00     0.128 A 
ATOM     17  N33 ZIN A   1      18.223  -2.363   7.679  0.00  0.00    -0.144 NA
BRANCH  16  18
ATOM     18  C3  ZIN A   1      18.156  -4.422   5.241  0.00  0.00     0.080 C 
BRANCH  18  19
ATOM     19  C2  ZIN A   1      16.898  -4.757   4.436  0.00  0.00     0.003 C 
ATOM     20  C1  ZIN A   1      16.534  -3.570   3.542  0.00  0.00     0.005 C 
ENDBRANCH  18  19
ENDBRANCH  16  18
ENDBRANCH   1   7
BRANCH   6  21
ATOM     21  O30 ZIN A   1      19.223  -0.429   6.468  0.00  0.00    -0.351 OA
BRANCH  21  22
ATOM     22  C31 ZIN A   1      19.273   0.241   5.207  0.00  0.00     0.171 C 
ATOM     23  C32 ZIN A   1      18.256  -0.390   4.253  0.00  0.00     0.034 C 
ENDBRANCH  21  22
ENDBRANCH   6  21
BRANCH   3  24
ATOM     24  S16 ZIN A   1      18.297   2.920  11.231  0.00  0.00     0.261 S 
ATOM     25  O17 ZIN A   1      19.141   4.054  11.085  0.00  0.00    -0.200 OA
ATOM     26  O18 ZIN A   1      16.888   3.016  11.391  0.00  0.00    -0.200 OA
BRANCH  24  27
ATOM     27  N19 ZIN A   1      18.862   2.082  12.542  0.00  0.00    -0.303 N 
ATOM     28  C26 ZIN A   1      20.152   1.378  12.490  0.00  0.00     0.165 C 
ATOM     29  C25 ZIN A   1      19.946  -0.060  12.962  0.00  0.00     0.293 C 
ATOM     30  N22 ZIN A   1      19.294  -0.054  14.278  0.00  0.00     0.091 N 
ATOM     31  C21 ZIN A   1      17.956   0.550  14.207  0.00  0.00     0.293 C 
ATOM     32  C20 ZIN A   1      18.084   2.018  13.789  0.00  0.00     0.165 C 
BRANCH  30  33
ATOM     33  C23 ZIN A   1      19.231  -1.409  14.841  0.00  0.00     0.268 C 
ATOM     34  C24 ZIN A   1      18.949  -1.326  16.342  0.00  0.00     0.037 C 
ENDBRANCH  30  33
ENDBRANCH  24  27
ENDBRANCH   3  24
TORSDOF 8
ENDMDL
MODEL 6
REMARK VINA RESULT:      -8.0      2.366      7.940
REMARK  8 active torsions:
REMARK  status: ('A' for Active; 'I' for Inactive)
REMARK    1  A    between atoms: C2_2  and  C3_3 
REMARK    2  A    between atoms: C3_3  and  C4_4 
REMARK    3  A    between atoms: C12_12  and  C13_13 
REMARK    4  A    between atoms: C15_15  and  S16_16 
REMARK    5  A    between atoms: S16_16  and  N19_19 
REMARK    6  A    between atoms: N22_22  and  C23_23 
REMARK    7  A    between atoms: C29_29  and  O30_30 
REMARK    8  A    between atoms: O30_30  and  C31_31 
ROOT
ATOM      1  C13 ZIN A   1      18.507   0.763  12.865  0.00  0.00     0.048 A 
ATOM      2  C14 ZIN A   1      18.695   2.080  12.441  0.00  0.00     0.043 A 
ATOM      3  C15 ZIN A   1      18.562   3.117  13.341  0.00  0.00     0.080 A 
ATOM      4  C27 ZIN A   1      18.240   2.858  14.662  0.00  0.00     0.028 A 
ATOM      5  C28 ZIN A   1      18.051   1.558  15.093  0.00  0.00     0.039 A 
ATOM      6  C29 ZIN A   1      18.177   0.506  14.201  0.00  0.00     0.083 A 
ENDROOT
BRANCH   1   7
ATOM      7  C12 ZIN A   1      18.649  -0.352  11.906  0.00  0.00     0.186 A 
ATOM      8  N11 ZIN A   1      19.249  -1.520  12.331  0.00  0.00    -0.186 NA
ATOM      9  C9  ZIN A   1      19.397  -2.563  11.482  0.00  0.00     0.299 A 
ATOM     10  C8  ZIN A   1      18.903  -2.415  10.113  0.00  0.00     0.154 A 
ATOM     11  O10 ZIN A   1      19.925  -3.597  11.848  0.00  0.00    -0.263 OA
ATOM     12  C6  ZIN A   1      18.874  -3.223   9.002  0.00  0.00     0.067 A 
ATOM     13  N34 ZIN A   1      18.315  -1.217   9.745  0.00  0.00    -0.210 N 
ATOM     14  N5  ZIN A   1      18.288  -2.532   8.024  0.00  0.00    -0.236 NA
ATOM     15  C7  ZIN A   1      19.406  -4.629   8.908  0.00  0.00     0.073 C 
ATOM     16  C4  ZIN A   1      17.951  -1.341   8.460  0.00  0.00     0.128 A 
ATOM     17  N33 ZIN A   1      18.202  -0.197  10.693  0.00  0.00    -0.144 NA
BRANCH  16  18
ATOM     18  C3  ZIN A   1      17.267  -0.275   7.643  0.00  0.00     0.080 C 
BRANCH  18  19
ATOM     19  C2  ZIN A   1      18.283   0.378   6.704  0.00  0.00     0.003 C 
ATOM     20  C1  ZIN A   1      19.064   1.451   7.466  0.00  0.00     0.005 C 
ENDBRANCH  18  19
ENDBRANCH  16  18
ENDBRANCH   1   7
BRANCH   6  21
ATOM     21  O30 ZIN A   1      17.991  -0.771  14.623  0.00  0.00    -0.351 OA
BRANCH  21  22
ATOM     22  C31 ZIN A   1      17.873  -0.979  16.032  0.00  0.00     0.171 C 
ATOM     23  C32 ZIN A   1      19.175  -1.574  16.571  0.00  0.00     0.034 C 
ENDBRANCH  21  22
ENDBRANCH   6  21
BRANCH   3  24
ATOM     24  S16 ZIN A   1      18.799   4.778  12.806  0.00  0.00     0.261 S 
ATOM     25  O17 ZIN A   1      20.181   4.908  12.503  0.00  0.00    -0.200 OA
ATOM     26  O18 ZIN A   1      17.769   5.048  11.865  0.00  0.00    -0.200 OA
BRANCH  24  27
ATOM     27  N19 ZIN A   1      18.512   5.760  14.108  0.00  0.00    -0.303 N 
ATOM     28  C26 ZIN A   1      19.616   6.222  14.963  0.00  0.00     0.165 C 
ATOM     29  C25 ZIN A   1      19.265   5.926  16.420  0.00  0.00     0.293 C 
ATOM     30  N22 ZIN A   1      17.951   6.503  16.734  0.00  0.00     0.091 N 
ATOM     31  C21 ZIN A   1      16.891   5.888  15.924  0.00  0.00     0.293 C 
ATOM     32  C20 ZIN A   1      17.145   6.187  14.443  0.00  0.00     0.165 C 
BRANCH  30  33
ATOM     33  C23 ZIN A   1      17.654   6.387  18.168  0.00  0.00     0.268 C 
ATOM     34  C24 ZIN A   1      17.395   4.921  18.518  0.00  0.00     0.037 C 
ENDBRANCH  30  33
ENDBRANCH  24  27
ENDBRANCH   3  24
TORSDOF 8
ENDMDL
MODEL 7
REMARK VINA RESULT:      -7.9      3.604      6.942
REMARK  8 active torsions:
REMARK  status: ('A' for Active; 'I' for Inactive)
REMARK    1  A    between atoms: C2_2  and  C3_3 
REMARK    2  A    between atoms: C3_3  and  C4_4 
REMARK    3  A    between atoms: C12_12  and  C13_13 
REMARK    4  A    between atoms: C15_15  and  S16_16 
REMARK    5  A    between atoms: S16_16  and  N19_19 
REMARK    6  A    between atoms: N22_22  and  C23_23 
REMARK    7  A    between atoms: C29_29  and  O30_30 
REMARK    8  A    between atoms: O30_30  and  C31_31 
ROOT
ATOM      1  C13 ZIN A   1      19.154  -1.539   8.838  0.00  0.00     0.048 A 
ATOM      2  C14 ZIN A   1      19.210  -2.835   9.352  0.00  0.00     0.043 A 
ATOM      3  C15 ZIN A   1      19.288  -3.913   8.494  0.00  0.00     0.080 A 
ATOM      4  C27 ZIN A   1      19.310  -3.714   7.125  0.00  0.00     0.028 A 
ATOM      5  C28 ZIN A   1      19.256  -2.435   6.603  0.00  0.00     0.039 A 
ATOM      6  C29 ZIN A   1      19.172  -1.343   7.451  0.00  0.00     0.083 A 
ENDROOT
BRANCH   1   7
ATOM      7  C12 ZIN A   1      19.070  -0.380   9.751  0.00  0.00     0.186 A 
ATOM      8  N11 ZIN A   1      18.851   0.873   9.216  0.00  0.00    -0.186 NA
ATOM      9  C9  ZIN A   1      18.768   1.957  10.020  0.00  0.00     0.299 A 
ATOM     10  C8  ZIN A   1      18.917   1.761  11.462  0.00  0.00     0.154 A 
ATOM     11  O10 ZIN A   1      18.575   3.066   9.556  0.00  0.00    -0.263 OA
ATOM     12  C6  ZIN A   1      18.895   2.588  12.558  0.00  0.00     0.067 A 
ATOM     13  N34 ZIN A   1      19.141   0.481  11.938  0.00  0.00    -0.210 N 
ATOM     14  N5  ZIN A   1      19.090   1.826  13.635  0.00  0.00    -0.236 NA
ATOM     15  C7  ZIN A   1      18.687   4.080  12.545  0.00  0.00     0.073 C 
ATOM     16  C4  ZIN A   1      19.235   0.573  13.273  0.00  0.00     0.128 A 
ATOM     17  N33 ZIN A   1      19.206  -0.580  11.030  0.00  0.00    -0.144 NA
BRANCH  16  18
ATOM     18  C3  ZIN A   1      19.474  -0.583  14.210  0.00  0.00     0.080 C 
BRANCH  18  19
ATOM     19  C2  ZIN A   1      18.196  -0.871  15.001  0.00  0.00     0.003 C 
ATOM     20  C1  ZIN A   1      18.559  -1.227  16.444  0.00  0.00     0.005 C 
ENDBRANCH  18  19
ENDBRANCH  16  18
ENDBRANCH   1   7
BRANCH   6  21
ATOM     21  O30 ZIN A   1      19.118  -0.086   6.940  0.00  0.00    -0.351 OA
BRANCH  21  22
ATOM     22  C31 ZIN A   1      18.316   0.107   5.774  0.00  0.00     0.171 C 
ATOM     23  C32 ZIN A   1      16.836   0.010   6.150  0.00  0.00     0.034 C 
ENDBRANCH  21  22
ENDBRANCH   6  21
BRANCH   3  24
ATOM     24  S16 ZIN A   1      19.357  -5.548   9.145  0.00  0.00     0.261 S 
ATOM     25  O17 ZIN A   1      20.314  -6.250   8.363  0.00  0.00    -0.200 OA
ATOM     26  O18 ZIN A   1      19.454  -5.415  10.557  0.00  0.00    -0.200 OA
BRANCH  24  27
ATOM     27  N19 ZIN A   1      17.893  -6.259   8.842  0.00  0.00    -0.303 N 
ATOM     28  C26 ZIN A   1      17.713  -7.156   7.689  0.00  0.00     0.165 C 
ATOM     29  C25 ZIN A   1      16.489  -6.699   6.899  0.00  0.00     0.293 C 
ATOM     30  N22 ZIN A   1      15.332  -6.605   7.799  0.00  0.00     0.091 N 
ATOM     31  C21 ZIN A   1      15.549  -5.591   8.841  0.00  0.00     0.293 C 
ATOM     32  C20 ZIN A   1      16.736  -6.007   9.715  0.00  0.00     0.165 C 
BRANCH  30  33
ATOM     33  C23 ZIN A   1      14.100  -6.333   7.048  0.00  0.00     0.268 C 
ATOM     34  C24 ZIN A   1      12.918  -6.253   8.016  0.00  0.00     0.037 C 
ENDBRANCH  30  33
ENDBRANCH  24  27
ENDBRANCH   3  24
TORSDOF 8
ENDMDL
MODEL 8
REMARK VINA RESULT:      -7.8      2.800      8.111
REMARK  8 active torsions:
REMARK  status: ('A' for Active; 'I' for Inactive)
REMARK    1  A    between atoms: C2_2  and  C3_3 
REMARK    2  A    between atoms: C3_3  and  C4_4 
REMARK    3  A    between atoms: C12_12  and  C13_13 
REMARK    4  A    between atoms: C15_15  and  S16_16 
REMARK    5  A    between atoms: S16_16  and  N19_19 
REMARK    6  A    between atoms: N22_22  and  C23_23 
REMARK    7  A    between atoms: C29_29  and  O30_30 
REMARK    8  A    between atoms: O30_30  and  C31_31 
ROOT
ATOM      1  C13 ZIN A   1      18.817  -2.568  10.178  0.00  0.00     0.048 A 
ATOM      2  C14 ZIN A   1      19.319  -1.392  10.738  0.00  0.00     0.043 A 
ATOM      3  C15 ZIN A   1      19.407  -1.266  12.109  0.00  0.00     0.080 A 
ATOM      4  C27 ZIN A   1      18.997  -2.300  12.932  0.00  0.00     0.028 A 
ATOM      5  C28 ZIN A   1      18.499  -3.470  12.390  0.00  0.00     0.039 A 
ATOM      6  C29 ZIN A   1      18.400  -3.610  11.016  0.00  0.00     0.083 A 
ENDROOT
BRANCH   1   7
ATOM      7  C12 ZIN A   1      18.720  -2.710   8.711  0.00  0.00     0.186 A 
ATOM      8  N11 ZIN A   1      18.938  -3.951   8.148  0.00  0.00    -0.186 NA
ATOM      9  C9  ZIN A   1      18.859  -4.120   6.808  0.00  0.00     0.299 A 
ATOM     10  C8  ZIN A   1      18.537  -2.957   5.983  0.00  0.00     0.154 A 
ATOM     11  O10 ZIN A   1      19.050  -5.211   6.303  0.00  0.00    -0.263 OA
ATOM     12  C6  ZIN A   1      18.374  -2.741   4.636  0.00  0.00     0.067 A 
ATOM     13  N34 ZIN A   1      18.334  -1.737   6.605  0.00  0.00    -0.210 N 
ATOM     14  N5  ZIN A   1      18.081  -1.450   4.473  0.00  0.00    -0.236 NA
ATOM     15  C7  ZIN A   1      18.502  -3.772   3.546  0.00  0.00     0.073 C 
ATOM     16  C4  ZIN A   1      18.053  -0.849   5.639  0.00  0.00     0.128 A 
ATOM     17  N33 ZIN A   1      18.433  -1.660   7.997  0.00  0.00    -0.144 NA
BRANCH  16  18
ATOM     18  C3  ZIN A   1      17.758   0.612   5.860  0.00  0.00     0.080 C 
BRANCH  18  19
ATOM     19  C2  ZIN A   1      19.051   1.344   6.224  0.00  0.00     0.003 C 
ATOM     20  C1  ZIN A   1      19.016   1.737   7.703  0.00  0.00     0.005 C 
ENDBRANCH  18  19
ENDBRANCH  16  18
ENDBRANCH   1   7
BRANCH   6  21
ATOM     21  O30 ZIN A   1      17.910  -4.759  10.482  0.00  0.00    -0.351 OA
BRANCH  21  22
ATOM     22  C31 ZIN A   1      16.514  -5.010  10.652  0.00  0.00     0.171 C 
ATOM     23  C32 ZIN A   1      15.894  -5.385   9.305  0.00  0.00     0.034 C 
ENDBRANCH  21  22
ENDBRANCH   6  21
BRANCH   3  24
ATOM     24  S16 ZIN A   1      20.039   0.220  12.813  0.00  0.00     0.261 S 
ATOM     25  O17 ZIN A   1      20.209  -0.036  14.201  0.00  0.00    -0.200 OA
ATOM     26  O18 ZIN A   1      21.098   0.646  11.967  0.00  0.00    -0.200 OA
BRANCH  24  27
ATOM     27  N19 ZIN A   1      18.851   1.366  12.691  0.00  0.00    -0.303 N 
ATOM     28  C26 ZIN A   1      17.613   1.093  11.945  0.00  0.00     0.165 C 
ATOM     29  C25 ZIN A   1      17.376   2.232  10.955  0.00  0.00     0.293 C 
ATOM     30  N22 ZIN A   1      17.402   3.515  11.669  0.00  0.00     0.091 N 
ATOM     31  C21 ZIN A   1      18.719   3.763  12.271  0.00  0.00     0.293 C 
ATOM     32  C20 ZIN A   1      19.009   2.686  13.321  0.00  0.00     0.165 C 
BRANCH  30  33
ATOM     33  C23 ZIN A   1      17.011   4.619  10.783  0.00  0.00     0.268 C 
ATOM     34  C24 ZIN A   1      18.073   4.803   9.697  0.00  0.00     0.037 C 
ENDBRANCH  30  33
ENDBRANCH  24  27
ENDBRANCH   3  24
TORSDOF 8
ENDMDL
MODEL 9
REMARK VINA RESULT:      -7.7      3.392      9.294
REMARK  8 active torsions:
REMARK  status: ('A' for Active; 'I' for Inactive)
REMARK    1  A    between atoms: C2_2  and  C3_3 
REMARK    2  A    between atoms: C3_3  and  C4_4 
REMARK    3  A    between atoms: C12_12  and  C13_13 
REMARK    4  A    between atoms: C15_15  and  S16_16 
REMARK    5  A    between atoms: S16_16  and  N19_19 
REMARK    6  A    between atoms: N22_22  and  C23_23 
REMARK    7  A    between atoms: C29_29  and  O30_30 
REMARK    8  A    between atoms: O30_30  and  C31_31 
ROOT
ATOM      1  C13 ZIN A   1      17.741   4.216  13.890  0.00  0.00     0.048 A 
ATOM      2  C14 ZIN A   1      18.062   4.937  15.042  0.00  0.00     0.043 A 
ATOM      3  C15 ZIN A   1      17.700   6.264  15.146  0.00  0.00     0.080 A 
ATOM      4  C27 ZIN A   1      17.020   6.884  14.112  0.00  0.00     0.028 A 
ATOM      5  C28 ZIN A   1      16.696   6.181  12.967  0.00  0.00     0.039 A 
ATOM      6  C29 ZIN A   1      17.057   4.849  12.846  0.00  0.00     0.083 A 
ENDROOT
BRANCH   1   7
ATOM      7  C12 ZIN A   1      18.127   2.795  13.773  0.00  0.00     0.186 A 
ATOM      8  N11 ZIN A   1      18.864   2.395  12.676  0.00  0.00    -0.186 NA
ATOM      9  C9  ZIN A   1      19.235   1.102  12.534  0.00  0.00     0.299 A 
ATOM     10  C8  ZIN A   1      18.836   0.151  13.570  0.00  0.00     0.154 A 
ATOM     11  O10 ZIN A   1      19.885   0.741  11.570  0.00  0.00    -0.263 OA
ATOM     12  C6  ZIN A   1      19.018  -1.196  13.768  0.00  0.00     0.067 A 
ATOM     13  N34 ZIN A   1      18.093   0.611  14.643  0.00  0.00    -0.210 N 
ATOM     14  N5  ZIN A   1      18.413  -1.514  14.914  0.00  0.00    -0.236 NA
ATOM     15  C7  ZIN A   1      19.763  -2.139  12.860  0.00  0.00     0.073 C 
ATOM     16  C4  ZIN A   1      17.864  -0.445  15.440  0.00  0.00     0.128 A 
ATOM     17  N33 ZIN A   1      17.760   1.966  14.707  0.00  0.00    -0.144 NA
BRANCH  16  18
ATOM     18  C3  ZIN A   1      17.092  -0.408  16.733  0.00  0.00     0.080 C 
BRANCH  18  19
ATOM     19  C2  ZIN A   1      18.040  -0.061  17.883  0.00  0.00     0.003 C 
ATOM     20  C1  ZIN A   1      17.755   1.362  18.367  0.00  0.00     0.005 C 
ENDBRANCH  18  19
ENDBRANCH  16  18
ENDBRANCH   1   7
BRANCH   6  21
ATOM     21  O30 ZIN A   1      16.740   4.157  11.721  0.00  0.00    -0.351 OA
BRANCH  21  22
ATOM     22  C31 ZIN A   1      17.118   4.739  10.472  0.00  0.00     0.171 C 
ATOM     23  C32 ZIN A   1      18.128   3.830   9.770  0.00  0.00     0.034 C 
ENDBRANCH  21  22
ENDBRANCH   6  21
BRANCH   3  24
ATOM     24  S16 ZIN A   1      18.106   7.173  16.599  0.00  0.00     0.261 S 
ATOM     25  O17 ZIN A   1      19.220   6.513  17.186  0.00  0.00    -0.200 OA
ATOM     26  O18 ZIN A   1      18.124   8.543  16.224  0.00  0.00    -0.200 OA
BRANCH  24  27
ATOM     27  N19 ZIN A   1      16.846   6.994  17.658  0.00  0.00    -0.303 N 
ATOM     28  C26 ZIN A   1      16.762   7.813  18.877  0.00  0.00     0.165 C 
ATOM     29  C25 ZIN A   1      16.545   6.890  20.074  0.00  0.00     0.293 C 
ATOM     30  N22 ZIN A   1      15.382   6.028  19.824  0.00  0.00     0.091 N 
ATOM     31  C21 ZIN A   1      15.609   5.152  18.667  0.00  0.00     0.293 C 
ATOM     32  C20 ZIN A   1      15.785   6.007  17.408  0.00  0.00     0.165 C 
BRANCH  30  33
ATOM     33  C23 ZIN A   1      15.039   5.246  21.018  0.00  0.00     0.268 C 
ATOM     34  C24 ZIN A   1      15.910   3.990  21.074  0.00  0.00     0.037 C 
ENDBRANCH  30  33
ENDBRANCH  24  27
ENDBRANCH   3  24
TORSDOF 8
ENDMDL
