MODEL 1
REMARK VINA RESULT:      -0.2      0.000      0.000
REMARK  12 active torsions:
REMARK  status: ('A' for Active; 'I' for Inactive)
REMARK    1  A    between atoms: C2_2  and  C3_3 
REMARK    2  A    between atoms: C15_15  and  O16_16 
REMARK    3  A    between atoms: C18_18  and  C19_19 
REMARK    4  A    between atoms: C19_19  and  C20_20 
REMARK    5  A    between atoms: C20_20  and  O22_22 
REMARK    6  A    between atoms: C31_30  and  O32_31 
REMARK    7  A    between atoms: C31_30  and  C33_32 
REMARK    8  A    between atoms: C52_50  and  O53_51 
REMARK    9  A    between atoms: C52_50  and  C54_52 
REMARK   10  A    between atoms: C54_52  and  O56_54 
REMARK   11  A    between atoms: C58_56  and  O60_57 
REMARK   12  A    between atoms: O60_57  and  C61_58 
ROOT
ATOM      1  C3  ZIN A   1      15.308   6.453  18.954  0.00  0.00     0.037 C 
ATOM      2  C4  ZIN A   1      15.373   5.888  20.349  0.00  0.00    -0.015 C 
ATOM      3  C5  ZIN A   1      16.240   6.289  21.232  0.00  0.00    -0.003 C 
ATOM      4  C6  ZIN A   1      17.261   7.362  20.957  0.00  0.00     0.262 C 
ATOM      5  N7  ZIN A   1      16.802   8.181  19.836  0.00  0.00    -0.061 N 
ATOM      6  H8  ZIN A   1      15.971   8.698  20.084  0.00  0.00     0.280 HD
ATOM      7  C9  ZIN A   1      17.860   9.090  19.339  0.00  0.00     0.237 C 
ATOM      8  C10 ZIN A   1      17.452   9.381  17.873  0.00  0.00     0.046 C 
ATOM      9  C11 ZIN A   1      16.544   8.189  17.474  0.00  0.00     0.040 C 
ATOM     10  C12 ZIN A   1      17.077   7.529  16.238  0.00  0.00    -0.024 A 
ATOM     11  C13 ZIN A   1      16.304   7.976  15.156  0.00  0.00     0.020 A 
ATOM     12  C14 ZIN A   1      16.568   7.520  13.864  0.00  0.00     0.061 A 
ATOM     13  C15 ZIN A   1      17.618   6.622  13.707  0.00  0.00     0.077 A 
ATOM     14  C18 ZIN A   1      18.375   6.192  14.784  0.00  0.00     0.000 A 
ATOM     15  C47 ZIN A   1      18.119   6.639  16.074  0.00  0.00     0.021 A 
ATOM     16  N48 ZIN A   1      15.331   8.875  15.574  0.00  0.00    -0.278 NA
ATOM     17  C49 ZIN A   1      14.055   8.628  14.889  0.00  0.00     0.117 C 
ATOM     18  C50 ZIN A   1      15.183   8.729  17.046  0.00  0.00     0.125 C 
ATOM     19  C52 ZIN A   1      14.014   7.815  17.342  0.00  0.00     0.190 C 
ATOM     20  C58 ZIN A   1      14.064   7.327  18.803  0.00  0.00     0.192 C 
ATOM     21  C64 ZIN A   1      16.554   7.264  18.699  0.00  0.00     0.218 C 
ENDROOT
BRANCH  14  22
ATOM     22  C19 ZIN A   1      19.503   5.219  14.552  0.00  0.00     0.121 C 
ATOM     23  C39 ZIN A   1      19.226   4.304  13.377  0.00  0.00     0.040 A 
ATOM     24  C38 ZIN A   1      18.091   3.747  12.908  0.00  0.00    -0.020 A 
ATOM     25  N40 ZIN A   1      20.281   3.891  12.569  0.00  0.00    -0.357 N 
ATOM     26  C37 ZIN A   1      16.663   3.787  13.418  0.00  0.00     0.069 C 
ATOM     27  C46 ZIN A   1      18.437   3.024  11.683  0.00  0.00    -0.001 A 
ATOM     28  C36 ZIN A   1      16.291   2.359  13.971  0.00  0.00     0.239 C 
ATOM     29  N28 ZIN A   1      17.545   1.913  14.586  0.00  0.00    -0.068 N 
ATOM     30  C27 ZIN A   1      17.819   2.980  15.606  0.00  0.00     0.239 C 
ATOM     31  H29 ZIN A   1      18.277   1.883  13.886  0.00  0.00     0.280 HD
ATOM     32  C30 ZIN A   1      17.634   0.698  15.375  0.00  0.00     0.272 C 
ATOM     33  C25 ZIN A   1      19.374   2.957  15.446  0.00  0.00     0.016 C 
ATOM     34  C24 ZIN A   1      19.789   4.369  15.841  0.00  0.00     0.037 C 
ATOM     35  C35 ZIN A   1      19.758   1.800  16.362  0.00  0.00     0.045 C 
ATOM     36  C31 ZIN A   1      19.084   0.514  15.857  0.00  0.00     0.082 C 
ATOM     37  C41 ZIN A   1      19.832   3.157  11.519  0.00  0.00     0.043 A 
ATOM     38  C45 ZIN A   1      17.655   2.309  10.772  0.00  0.00     0.014 A 
ATOM     39  C42 ZIN A   1      20.476   2.584  10.424  0.00  0.00     0.030 A 
ATOM     40  C43 ZIN A   1      19.682   1.884   9.530  0.00  0.00     0.002 A 
ATOM     41  C44 ZIN A   1      18.314   1.750   9.703  0.00  0.00     0.001 A 
ATOM     42 4H10 ZIN A   1      21.219   4.072  12.733  0.00  0.00     0.166 HD
BRANCH  36  43
ATOM     43  O32 ZIN A   1      19.857  -0.013  14.774  0.00  0.00    -0.388 OA
ATOM     44  H92 ZIN A   1      19.613  -0.912  14.516  0.00  0.00     0.210 HD
ENDBRANCH  36  43
BRANCH  36  45
ATOM     45  C33 ZIN A   1      19.086  -0.515  16.993  0.00  0.00     0.035 C 
ATOM     46  C34 ZIN A   1      17.954  -1.521  16.773  0.00  0.00     0.008 C 
ENDBRANCH  36  45
BRANCH  22  47
ATOM     47  C20 ZIN A   1      20.746   6.047  14.252  0.00  0.00     0.278 C 
ATOM     48  O21 ZIN A   1      21.049   6.290  13.108  0.00  0.00    -0.264 OA
BRANCH  47  49
ATOM     49  O22 ZIN A   1      21.503   6.508  15.260  0.00  0.00    -0.325 OA
ATOM     50  C23 ZIN A   1      22.873   6.030  15.327  0.00  0.00     0.213 C 
ENDBRANCH  47  49
ENDBRANCH  22  47
ENDBRANCH  14  22
BRANCH  13  51
ATOM     51  O16 ZIN A   1      17.908   6.152  12.466  0.00  0.00    -0.355 OA
ATOM     52  C17 ZIN A   1      16.914   6.335  11.455  0.00  0.00     0.210 C 
ENDBRANCH  13  51
BRANCH  19  53
ATOM     53  O53 ZIN A   1      12.796   8.537  17.147  0.00  0.00    -0.376 OA
ATOM     54 3H11 ZIN A   1      12.345   8.330  16.317  0.00  0.00     0.211 HD
ENDBRANCH  19  53
BRANCH  19  55
ATOM     55  C54 ZIN A   1      14.051   6.646  16.393  0.00  0.00     0.297 C 
ATOM     56  O55 ZIN A   1      15.109   6.151  16.083  0.00  0.00    -0.262 OA
BRANCH  55  57
ATOM     57  O56 ZIN A   1      12.908   6.153  15.889  0.00  0.00    -0.324 OA
ATOM     58  C57 ZIN A   1      12.797   6.088  14.443  0.00  0.00     0.213 C 
ENDBRANCH  55  57
ENDBRANCH  19  55
BRANCH   1  59
ATOM     59  C2  ZIN A   1      15.241   5.303  17.948  0.00  0.00     0.014 C 
ATOM     60  C1  ZIN A   1      16.352   4.295  18.250  0.00  0.00     0.006 C 
ENDBRANCH   1  59
BRANCH  20  61
ATOM     61  O60 ZIN A   1      14.094   8.470  19.698  0.00  0.00    -0.311 OA
BRANCH  61  62
ATOM     62  C61 ZIN A   1      13.130   8.540  20.630  0.00  0.00     0.255 C 
ATOM     63  C62 ZIN A   1      12.502   7.276  21.160  0.00  0.00     0.126 C 
ATOM     64  O63 ZIN A   1      12.766   9.614  21.043  0.00  0.00    -0.266 OA
ENDBRANCH  61  62
ENDBRANCH  20  61
TORSDOF 12
ENDMDL
MODEL 2
REMARK VINA RESULT:       0.8      7.309     12.389
REMARK  12 active torsions:
REMARK  status: ('A' for Active; 'I' for Inactive)
REMARK    1  A    between atoms: C2_2  and  C3_3 
REMARK    2  A    between atoms: C15_15  and  O16_16 
REMARK    3  A    between atoms: C18_18  and  C19_19 
REMARK    4  A    between atoms: C19_19  and  C20_20 
REMARK    5  A    between atoms: C20_20  and  O22_22 
REMARK    6  A    between atoms: C31_30  and  O32_31 
REMARK    7  A    between atoms: C31_30  and  C33_32 
REMARK    8  A    between atoms: C52_50  and  O53_51 
REMARK    9  A    between atoms: C52_50  and  C54_52 
REMARK   10  A    between atoms: C54_52  and  O56_54 
REMARK   11  A    between atoms: C58_56  and  O60_57 
REMARK   12  A    between atoms: O60_57  and  C61_58 
ROOT
ATOM      1  C3  ZIN A   1      19.810   0.272   9.045  0.00  0.00     0.037 C 
ATOM      2  C4  ZIN A   1      20.684   1.050   8.096  0.00  0.00    -0.015 C 
ATOM      3  C5  ZIN A   1      20.286   1.418   6.914  0.00  0.00    -0.003 C 
ATOM      4  C6  ZIN A   1      18.913   1.114   6.373  0.00  0.00     0.262 C 
ATOM      5  N7  ZIN A   1      18.008   0.851   7.491  0.00  0.00    -0.061 N 
ATOM      6  H8  ZIN A   1      17.869   1.683   8.046  0.00  0.00     0.280 HD
ATOM      7  C9  ZIN A   1      16.712   0.295   7.042  0.00  0.00     0.237 C 
ATOM      8  C10 ZIN A   1      16.176  -0.469   8.279  0.00  0.00     0.046 C 
ATOM      9  C11 ZIN A   1      17.438  -0.775   9.127  0.00  0.00     0.040 C 
ATOM     10  C12 ZIN A   1      17.530  -2.247   9.394  0.00  0.00    -0.024 A 
ATOM     11  C13 ZIN A   1      17.074  -2.468  10.702  0.00  0.00     0.020 A 
ATOM     12  C14 ZIN A   1      17.052  -3.757  11.234  0.00  0.00     0.061 A 
ATOM     13  C15 ZIN A   1      17.493  -4.792  10.416  0.00  0.00     0.077 A 
ATOM     14  C18 ZIN A   1      17.937  -4.560   9.125  0.00  0.00     0.000 A 
ATOM     15  C47 ZIN A   1      17.965  -3.280   8.587  0.00  0.00     0.021 A 
ATOM     16  N48 ZIN A   1      16.679  -1.279  11.301  0.00  0.00    -0.278 NA
ATOM     17  C49 ZIN A   1      17.120  -1.221  12.701  0.00  0.00     0.117 C 
ATOM     18  C50 ZIN A   1      17.260  -0.160  10.512  0.00  0.00     0.125 C 
ATOM     19  C52 ZIN A   1      18.542   0.302  11.172  0.00  0.00     0.190 C 
ATOM     20  C58 ZIN A   1      19.368   1.169  10.201  0.00  0.00     0.192 C 
ATOM     21  C64 ZIN A   1      18.609  -0.242   8.291  0.00  0.00     0.218 C 
ENDROOT
BRANCH  14  22
ATOM     22  C19 ZIN A   1      18.401  -5.722   8.284  0.00  0.00     0.121 C 
ATOM     23  C39 ZIN A   1      17.888  -5.629   6.861  0.00  0.00     0.040 A 
ATOM     24  C38 ZIN A   1      16.731  -5.174   6.342  0.00  0.00    -0.020 A 
ATOM     25  N40 ZIN A   1      18.686  -6.085   5.817  0.00  0.00    -0.357 N 
ATOM     26  C37 ZIN A   1      15.476  -4.628   6.998  0.00  0.00     0.069 C 
ATOM     27  C46 ZIN A   1      16.846  -5.258   4.885  0.00  0.00    -0.001 A 
ATOM     28  C36 ZIN A   1      14.318  -5.681   6.812  0.00  0.00     0.239 C 
ATOM     29  N28 ZIN A   1      15.021  -6.961   6.940  0.00  0.00    -0.068 N 
ATOM     30  C27 ZIN A   1      15.638  -6.872   8.306  0.00  0.00     0.239 C 
ATOM     31  H29 ZIN A   1      15.734  -7.033   6.224  0.00  0.00     0.280 HD
ATOM     32  C30 ZIN A   1      14.318  -8.230   6.999  0.00  0.00     0.272 C 
ATOM     33  C25 ZIN A   1      16.947  -7.646   7.940  0.00  0.00     0.016 C 
ATOM     34  C24 ZIN A   1      17.970  -7.089   8.923  0.00  0.00     0.037 C 
ATOM     35  C35 ZIN A   1      16.498  -9.094   8.094  0.00  0.00     0.045 C 
ATOM     36  C31 ZIN A   1      15.345  -9.370   7.116  0.00  0.00     0.082 C 
ATOM     37  C41 ZIN A   1      18.105  -5.836   4.615  0.00  0.00     0.043 A 
ATOM     38  C45 ZIN A   1      15.974  -4.886   3.858  0.00  0.00     0.014 A 
ATOM     39  C42 ZIN A   1      18.525  -6.041   3.302  0.00  0.00     0.030 A 
ATOM     40  C43 ZIN A   1      17.648  -5.660   2.300  0.00  0.00     0.002 A 
ATOM     41  C44 ZIN A   1      16.410  -5.102   2.573  0.00  0.00     0.001 A 
ATOM     42 4H10 ZIN A   1      19.534  -6.545   5.915  0.00  0.00     0.166 HD
BRANCH  36  43
ATOM     43  O32 ZIN A   1      15.895  -9.619   5.818  0.00  0.00    -0.388 OA
ATOM     44  H92 ZIN A   1      16.507  -8.936   5.512  0.00  0.00     0.210 HD
ENDBRANCH  36  43
BRANCH  36  45
ATOM     45  C33 ZIN A   1      14.609 -10.634   7.575  0.00  0.00     0.035 C 
ATOM     46  C34 ZIN A   1      13.201 -10.263   8.045  0.00  0.00     0.008 C 
ENDBRANCH  36  45
BRANCH  22  47
ATOM     47  C20 ZIN A   1      19.924  -5.673   8.265  0.00  0.00     0.278 C 
ATOM     48  O21 ZIN A   1      20.559  -6.322   9.061  0.00  0.00    -0.264 OA
BRANCH  47  49
ATOM     49  O22 ZIN A   1      20.558  -4.910   7.362  0.00  0.00    -0.325 OA
ATOM     50  C23 ZIN A   1      21.985  -5.130   7.199  0.00  0.00     0.213 C 
ENDBRANCH  47  49
ENDBRANCH  22  47
ENDBRANCH  14  22
BRANCH  13  51
ATOM     51  O16 ZIN A   1      17.489  -6.063  10.895  0.00  0.00    -0.355 OA
ATOM     52  C17 ZIN A   1      17.594  -6.222  12.312  0.00  0.00     0.210 C 
ENDBRANCH  13  51
BRANCH  19  53
ATOM     53  O53 ZIN A   1      18.218   1.090  12.319  0.00  0.00    -0.376 OA
ATOM     54 3H11 ZIN A   1      17.773   0.597  13.021  0.00  0.00     0.211 HD
ENDBRANCH  19  53
BRANCH  19  55
ATOM     55  C54 ZIN A   1      19.333  -0.903  11.609  0.00  0.00     0.297 C 
ATOM     56  O55 ZIN A   1      19.825  -1.636  10.783  0.00  0.00    -0.262 OA
BRANCH  55  57
ATOM     57  O56 ZIN A   1      19.492  -1.164  12.916  0.00  0.00    -0.324 OA
ATOM     58  C57 ZIN A   1      20.304  -2.316  13.265  0.00  0.00     0.213 C 
ENDBRANCH  55  57
ENDBRANCH  19  55
BRANCH   1  59
ATOM     59  C2  ZIN A   1      20.601  -0.913   9.601  0.00  0.00     0.014 C 
ATOM     60  C1  ZIN A   1      21.887  -0.406  10.256  0.00  0.00     0.006 C 
ENDBRANCH   1  59
BRANCH  20  61
ATOM     61  O60 ZIN A   1      18.565   2.288   9.741  0.00  0.00    -0.311 OA
BRANCH  61  62
ATOM     62  C61 ZIN A   1      18.604   3.409  10.477  0.00  0.00     0.255 C 
ATOM     63  C62 ZIN A   1      17.493   4.422  10.367  0.00  0.00     0.126 C 
ATOM     64  O63 ZIN A   1      19.529   3.607  11.229  0.00  0.00    -0.266 OA
ENDBRANCH  61  62
ENDBRANCH  20  61
TORSDOF 12
ENDMDL
MODEL 3
REMARK VINA RESULT:       1.6      5.744     12.350
REMARK  12 active torsions:
REMARK  status: ('A' for Active; 'I' for Inactive)
REMARK    1  A    between atoms: C2_2  and  C3_3 
REMARK    2  A    between atoms: C15_15  and  O16_16 
REMARK    3  A    between atoms: C18_18  and  C19_19 
REMARK    4  A    between atoms: C19_19  and  C20_20 
REMARK    5  A    between atoms: C20_20  and  O22_22 
REMARK    6  A    between atoms: C31_30  and  O32_31 
REMARK    7  A    between atoms: C31_30  and  C33_32 
REMARK    8  A    between atoms: C52_50  and  O53_51 
REMARK    9  A    between atoms: C52_50  and  C54_52 
REMARK   10  A    between atoms: C54_52  and  O56_54 
REMARK   11  A    between atoms: C58_56  and  O60_57 
REMARK   12  A    between atoms: O60_57  and  C61_58 
ROOT
ATOM      1  C3  ZIN A   1      19.345  -4.953   7.439  0.00  0.00     0.037 C 
ATOM      2  C4  ZIN A   1      19.931  -6.313   7.714  0.00  0.00    -0.015 C 
ATOM      3  C5  ZIN A   1      19.477  -7.101   8.644  0.00  0.00    -0.003 C 
ATOM      4  C6  ZIN A   1      18.317  -6.742   9.535  0.00  0.00     0.262 C 
ATOM      5  N7  ZIN A   1      17.516  -5.708   8.882  0.00  0.00    -0.061 N 
ATOM      6  H8  ZIN A   1      17.076  -6.066   8.048  0.00  0.00     0.280 HD
ATOM      7  C9  ZIN A   1      16.512  -5.119   9.797  0.00  0.00     0.237 C 
ATOM      8  C10 ZIN A   1      16.226  -3.720   9.197  0.00  0.00     0.046 C 
ATOM      9  C11 ZIN A   1      17.481  -3.393   8.347  0.00  0.00     0.040 C 
ATOM     10  C12 ZIN A   1      18.067  -2.084   8.781  0.00  0.00    -0.024 A 
ATOM     11  C13 ZIN A   1      17.665  -1.113   7.853  0.00  0.00     0.020 A 
ATOM     12  C14 ZIN A   1      18.070   0.214   7.998  0.00  0.00     0.061 A 
ATOM     13  C15 ZIN A   1      18.874   0.519   9.091  0.00  0.00     0.077 A 
ATOM     14  C18 ZIN A   1      19.261  -0.449  10.003  0.00  0.00     0.000 A 
ATOM     15  C47 ZIN A   1      18.864  -1.773   9.865  0.00  0.00     0.021 A 
ATOM     16  N48 ZIN A   1      16.859  -1.668   6.867  0.00  0.00    -0.278 NA
ATOM     17  C49 ZIN A   1      17.198  -1.129   5.543  0.00  0.00     0.117 C 
ATOM     18  C50 ZIN A   1      17.048  -3.142   6.906  0.00  0.00     0.125 C 
ATOM     19  C52 ZIN A   1      18.063  -3.544   5.857  0.00  0.00     0.190 C 
ATOM     20  C58 ZIN A   1      18.575  -4.974   6.119  0.00  0.00     0.192 C 
ATOM     21  C64 ZIN A   1      18.427  -4.580   8.577  0.00  0.00     0.218 C 
ENDROOT
BRANCH  14  22
ATOM     22  C19 ZIN A   1      20.131  -0.058  11.170  0.00  0.00     0.121 C 
ATOM     23  C39 ZIN A   1      19.415  -0.240  12.493  0.00  0.00     0.040 A 
ATOM     24  C38 ZIN A   1      18.128  -0.077  12.859  0.00  0.00    -0.020 A 
ATOM     25  N40 ZIN A   1      20.139  -0.642  13.611  0.00  0.00    -0.357 N 
ATOM     26  C37 ZIN A   1      16.914   0.407  12.087  0.00  0.00     0.069 C 
ATOM     27  C46 ZIN A   1      18.018  -0.490  14.258  0.00  0.00    -0.001 A 
ATOM     28  C36 ZIN A   1      16.507   1.827  12.637  0.00  0.00     0.239 C 
ATOM     29  N28 ZIN A   1      17.804   2.447  12.924  0.00  0.00    -0.068 N 
ATOM     30  C27 ZIN A   1      18.496   2.413  11.592  0.00  0.00     0.239 C 
ATOM     31  H29 ZIN A   1      18.305   1.891  13.608  0.00  0.00     0.280 HD
ATOM     32  C30 ZIN A   1      17.930   3.842  13.305  0.00  0.00     0.272 C 
ATOM     33  C25 ZIN A   1      19.928   2.157  12.164  0.00  0.00     0.016 C 
ATOM     34  C24 ZIN A   1      20.632   1.422  11.029  0.00  0.00     0.037 C 
ATOM     35  C35 ZIN A   1      20.378   3.572  12.508  0.00  0.00     0.045 C 
ATOM     36  C31 ZIN A   1      19.414   4.166  13.548  0.00  0.00     0.082 C 
ATOM     37  C41 ZIN A   1      19.319  -0.842  14.676  0.00  0.00     0.043 A 
ATOM     38  C45 ZIN A   1      16.924  -0.570  15.123  0.00  0.00     0.014 A 
ATOM     39  C42 ZIN A   1      19.551  -1.297  15.973  0.00  0.00     0.030 A 
ATOM     40  C43 ZIN A   1      18.451  -1.374  16.812  0.00  0.00     0.002 A 
ATOM     41  C44 ZIN A   1      17.178  -1.018  16.397  0.00  0.00     0.001 A 
ATOM     42 4H10 ZIN A   1      21.102  -0.744  13.651  0.00  0.00     0.166 HD
BRANCH  36  43
ATOM     43  O32 ZIN A   1      19.779   3.675  14.843  0.00  0.00    -0.388 OA
ATOM     44  H92 ZIN A   1      19.059   3.234  15.313  0.00  0.00     0.210 HD
ENDBRANCH  36  43
BRANCH  36  45
ATOM     45  C33 ZIN A   1      19.580   5.690  13.550  0.00  0.00     0.035 C 
ATOM     46  C34 ZIN A   1      19.959   6.161  14.956  0.00  0.00     0.008 C 
ENDBRANCH  36  45
BRANCH  22  47
ATOM     47  C20 ZIN A   1      21.350  -0.972  11.137  0.00  0.00     0.278 C 
ATOM     48  O21 ZIN A   1      22.304  -0.682  10.455  0.00  0.00    -0.264 OA
BRANCH  47  49
ATOM     49  O22 ZIN A   1      21.363  -2.097  11.868  0.00  0.00    -0.325 OA
ATOM     50  C23 ZIN A   1      20.758  -3.277  11.271  0.00  0.00     0.213 C 
ENDBRANCH  47  49
ENDBRANCH  22  47
ENDBRANCH  14  22
BRANCH  13  51
ATOM     51  O16 ZIN A   1      19.292   1.800   9.269  0.00  0.00    -0.355 OA
ATOM     52  C17 ZIN A   1      18.831   2.769   8.326  0.00  0.00     0.210 C 
ENDBRANCH  13  51
BRANCH  19  53
ATOM     53  O53 ZIN A   1      17.442  -3.514   4.571  0.00  0.00    -0.376 OA
ATOM     54 3H11 ZIN A   1      17.243  -4.388   4.210  0.00  0.00     0.211 HD
ENDBRANCH  19  53
BRANCH  19  55
ATOM     55  C54 ZIN A   1      19.205  -2.562   5.876  0.00  0.00     0.297 C 
ATOM     56  O55 ZIN A   1      19.741  -2.278   6.921  0.00  0.00    -0.262 OA
BRANCH  55  57
ATOM     57  O56 ZIN A   1      19.628  -2.001   4.732  0.00  0.00    -0.324 OA
ATOM     58  C57 ZIN A   1      19.712  -0.552   4.699  0.00  0.00     0.213 C 
ENDBRANCH  55  57
ENDBRANCH  19  55
BRANCH   1  59
ATOM     59  C2  ZIN A   1      20.475  -3.927   7.347  0.00  0.00     0.014 C 
ATOM     60  C1  ZIN A   1      21.821  -4.653   7.307  0.00  0.00     0.006 C 
ENDBRANCH   1  59
BRANCH  20  61
ATOM     61  O60 ZIN A   1      17.453  -5.894   6.163  0.00  0.00    -0.311 OA
BRANCH  61  62
ATOM     62  C61 ZIN A   1      17.428  -6.868   5.240  0.00  0.00     0.255 C 
ATOM     63  C62 ZIN A   1      17.067  -8.276   5.640  0.00  0.00     0.126 C 
ATOM     64  O63 ZIN A   1      17.693  -6.617   4.089  0.00  0.00    -0.266 OA
ENDBRANCH  61  62
ENDBRANCH  20  61
TORSDOF 12
ENDMDL
MODEL 4
REMARK VINA RESULT:       2.0      4.978      9.167
REMARK  12 active torsions:
REMARK  status: ('A' for Active; 'I' for Inactive)
REMARK    1  A    between atoms: C2_2  and  C3_3 
REMARK    2  A    between atoms: C15_15  and  O16_16 
REMARK    3  A    between atoms: C18_18  and  C19_19 
REMARK    4  A    between atoms: C19_19  and  C20_20 
REMARK    5  A    between atoms: C20_20  and  O22_22 
REMARK    6  A    between atoms: C31_30  and  O32_31 
REMARK    7  A    between atoms: C31_30  and  C33_32 
REMARK    8  A    between atoms: C52_50  and  O53_51 
REMARK    9  A    between atoms: C52_50  and  C54_52 
REMARK   10  A    between atoms: C54_52  and  O56_54 
REMARK   11  A    between atoms: C58_56  and  O60_57 
REMARK   12  A    between atoms: O60_57  and  C61_58 
ROOT
ATOM      1  C3  ZIN A   1      17.665   0.880  13.426  0.00  0.00     0.037 C 
ATOM      2  C4  ZIN A   1      17.170   0.082  14.604  0.00  0.00    -0.015 C 
ATOM      3  C5  ZIN A   1      17.904  -0.802  15.214  0.00  0.00    -0.003 C 
ATOM      4  C6  ZIN A   1      19.322  -1.114  14.814  0.00  0.00     0.262 C 
ATOM      5  N7  ZIN A   1      19.866   0.016  14.064  0.00  0.00    -0.061 N 
ATOM      6  H8  ZIN A   1      19.956   0.831  14.653  0.00  0.00     0.280 HD
ATOM      7  C9  ZIN A   1      21.157  -0.311  13.417  0.00  0.00     0.237 C 
ATOM      8  C10 ZIN A   1      21.255   0.687  12.237  0.00  0.00     0.046 C 
ATOM      9  C11 ZIN A   1      19.788   1.103  11.952  0.00  0.00     0.040 C 
ATOM     10  C12 ZIN A   1      19.451   0.843  10.515  0.00  0.00    -0.024 A 
ATOM     11  C13 ZIN A   1      19.520   2.069   9.837  0.00  0.00     0.020 A 
ATOM     12  C14 ZIN A   1      19.247   2.137   8.471  0.00  0.00     0.061 A 
ATOM     13  C15 ZIN A   1      18.911   0.950   7.828  0.00  0.00     0.077 A 
ATOM     14  C18 ZIN A   1      18.850  -0.255   8.509  0.00  0.00     0.000 A 
ATOM     15  C47 ZIN A   1      19.119  -0.332   9.870  0.00  0.00     0.021 A 
ATOM     16  N48 ZIN A   1      19.888   3.095  10.697  0.00  0.00    -0.278 NA
ATOM     17  C49 ZIN A   1      19.108   4.312  10.431  0.00  0.00     0.117 C 
ATOM     18  C50 ZIN A   1      19.672   2.618  12.089  0.00  0.00     0.125 C 
ATOM     19  C52 ZIN A   1      18.329   3.112  12.583  0.00  0.00     0.190 C 
ATOM     20  C58 ZIN A   1      17.896   2.332  13.841  0.00  0.00     0.192 C 
ATOM     21  C64 ZIN A   1      18.949   0.266  12.927  0.00  0.00     0.218 C 
ENDROOT
BRANCH  14  22
ATOM     22  C19 ZIN A   1      18.484  -1.510   7.759  0.00  0.00     0.121 C 
ATOM     23  C39 ZIN A   1      17.895  -2.563   8.675  0.00  0.00     0.040 A 
ATOM     24  C38 ZIN A   1      18.154  -2.902   9.953  0.00  0.00    -0.020 A 
ATOM     25  N40 ZIN A   1      16.893  -3.401   8.196  0.00  0.00    -0.357 N 
ATOM     26  C37 ZIN A   1      19.181  -2.386  10.945  0.00  0.00     0.069 C 
ATOM     27  C46 ZIN A   1      17.198  -3.944  10.329  0.00  0.00    -0.001 A 
ATOM     28  C36 ZIN A   1      20.260  -3.510  11.177  0.00  0.00     0.239 C 
ATOM     29  N28 ZIN A   1      20.391  -4.113   9.847  0.00  0.00    -0.068 N 
ATOM     30  C27 ZIN A   1      20.801  -2.950   8.989  0.00  0.00     0.239 C 
ATOM     31  H29 ZIN A   1      19.496  -4.484   9.550  0.00  0.00     0.280 HD
ATOM     32  C30 ZIN A   1      21.408  -5.101   9.538  0.00  0.00     0.272 C 
ATOM     33  C25 ZIN A   1      20.014  -3.405   7.717  0.00  0.00     0.016 C 
ATOM     34  C24 ZIN A   1      19.725  -2.094   6.996  0.00  0.00     0.037 C 
ATOM     35  C35 ZIN A   1      20.995  -4.385   7.085  0.00  0.00     0.045 C 
ATOM     36  C31 ZIN A   1      21.260  -5.536   8.070  0.00  0.00     0.082 C 
ATOM     37  C41 ZIN A   1      16.425  -4.212   9.179  0.00  0.00     0.043 A 
ATOM     38  C45 ZIN A   1      16.983  -4.622  11.532  0.00  0.00     0.014 A 
ATOM     39  C42 ZIN A   1      15.404  -5.161   9.215  0.00  0.00     0.030 A 
ATOM     40  C43 ZIN A   1      15.204  -5.816  10.419  0.00  0.00     0.002 A 
ATOM     41  C44 ZIN A   1      15.974  -5.554  11.541  0.00  0.00     0.001 A 
ATOM     42 4H10 ZIN A   1      16.577  -3.434   7.280  0.00  0.00     0.166 HD
BRANCH  36  43
ATOM     43  O32 ZIN A   1      20.180  -6.472   7.981  0.00  0.00    -0.388 OA
ATOM     44  H92 ZIN A   1      20.163  -6.976   7.157  0.00  0.00     0.210 HD
ENDBRANCH  36  43
BRANCH  36  45
ATOM     45  C33 ZIN A   1      22.549  -6.251   7.648  0.00  0.00     0.035 C 
ATOM     46  C34 ZIN A   1      23.629  -5.213   7.333  0.00  0.00     0.008 C 
ENDBRANCH  36  45
BRANCH  22  47
ATOM     47  C20 ZIN A   1      17.440  -1.115   6.722  0.00  0.00     0.278 C 
ATOM     48  O21 ZIN A   1      16.388  -0.638   7.075  0.00  0.00    -0.264 OA
BRANCH  47  49
ATOM     49  O22 ZIN A   1      17.690  -1.297   5.416  0.00  0.00    -0.325 OA
ATOM     50  C23 ZIN A   1      16.899  -2.303   4.728  0.00  0.00     0.213 C 
ENDBRANCH  47  49
ENDBRANCH  22  47
ENDBRANCH  14  22
BRANCH  13  51
ATOM     51  O16 ZIN A   1      18.636   0.972   6.498  0.00  0.00    -0.355 OA
ATOM     52  C17 ZIN A   1      19.696   1.364   5.623  0.00  0.00     0.210 C 
ENDBRANCH  13  51
BRANCH  19  53
ATOM     53  O53 ZIN A   1      18.436   4.496  12.922  0.00  0.00    -0.376 OA
ATOM     54 3H11 ZIN A   1      18.456   4.666  13.874  0.00  0.00     0.211 HD
ENDBRANCH  19  53
BRANCH  19  55
ATOM     55  C54 ZIN A   1      17.311   2.950  11.485  0.00  0.00     0.297 C 
ATOM     56  O55 ZIN A   1      17.038   1.849  11.070  0.00  0.00    -0.262 OA
BRANCH  55  57
ATOM     57  O56 ZIN A   1      16.707   4.031  10.965  0.00  0.00    -0.324 OA
ATOM     58  C57 ZIN A   1      16.106   4.965  11.901  0.00  0.00     0.213 C 
ENDBRANCH  55  57
ENDBRANCH  19  55
BRANCH   1  59
ATOM     59  C2  ZIN A   1      16.618   0.834  12.312  0.00  0.00     0.014 C 
ATOM     60  C1  ZIN A   1      16.332  -0.621  11.939  0.00  0.00     0.006 C 
ENDBRANCH   1  59
BRANCH  20  61
ATOM     61  O60 ZIN A   1      18.921   2.446  14.863  0.00  0.00    -0.311 OA
BRANCH  61  62
ATOM     62  C61 ZIN A   1      18.582   3.079  15.997  0.00  0.00     0.255 C 
ATOM     63  C62 ZIN A   1      18.784   2.399  17.328  0.00  0.00     0.126 C 
ATOM     64  O63 ZIN A   1      18.117   4.193  15.952  0.00  0.00    -0.266 OA
ENDBRANCH  61  62
ENDBRANCH  20  61
TORSDOF 12
ENDMDL
MODEL 5
REMARK VINA RESULT:       2.2      4.302     10.305
REMARK  12 active torsions:
REMARK  status: ('A' for Active; 'I' for Inactive)
REMARK    1  A    between atoms: C2_2  and  C3_3 
REMARK    2  A    between atoms: C15_15  and  O16_16 
REMARK    3  A    between atoms: C18_18  and  C19_19 
REMARK    4  A    between atoms: C19_19  and  C20_20 
REMARK    5  A    between atoms: C20_20  and  O22_22 
REMARK    6  A    between atoms: C31_30  and  O32_31 
REMARK    7  A    between atoms: C31_30  and  C33_32 
REMARK    8  A    between atoms: C52_50  and  O53_51 
REMARK    9  A    between atoms: C52_50  and  C54_52 
REMARK   10  A    between atoms: C54_52  and  O56_54 
REMARK   11  A    between atoms: C58_56  and  O60_57 
REMARK   12  A    between atoms: O60_57  and  C61_58 
ROOT
ATOM      1  C3  ZIN A   1      17.604  -0.980   9.383  0.00  0.00     0.037 C 
ATOM      2  C4  ZIN A   1      16.932  -0.281   8.230  0.00  0.00    -0.015 C 
ATOM      3  C5  ZIN A   1      17.504   0.673   7.555  0.00  0.00    -0.003 C 
ATOM      4  C6  ZIN A   1      18.894   1.173   7.849  0.00  0.00     0.262 C 
ATOM      5  N7  ZIN A   1      19.628   0.140   8.578  0.00  0.00    -0.061 N 
ATOM      6  H8  ZIN A   1      19.781  -0.671   7.997  0.00  0.00     0.280 HD
ATOM      7  C9  ZIN A   1      20.906   0.645   9.127  0.00  0.00     0.237 C 
ATOM      8  C10 ZIN A   1      21.211  -0.303  10.314  0.00  0.00     0.046 C 
ATOM      9  C11 ZIN A   1      19.833  -0.895  10.707  0.00  0.00     0.040 C 
ATOM     10  C12 ZIN A   1      19.563  -0.644  12.160  0.00  0.00    -0.024 A 
ATOM     11  C13 ZIN A   1      19.835  -1.834  12.851  0.00  0.00     0.020 A 
ATOM     12  C14 ZIN A   1      19.665  -1.902  14.234  0.00  0.00     0.061 A 
ATOM     13  C15 ZIN A   1      19.224  -0.751  14.880  0.00  0.00     0.077 A 
ATOM     14  C18 ZIN A   1      18.963   0.418  14.185  0.00  0.00     0.000 A 
ATOM     15  C47 ZIN A   1      19.127   0.495  12.808  0.00  0.00     0.021 A 
ATOM     16  N48 ZIN A   1      20.272  -2.827  11.984  0.00  0.00    -0.278 NA
ATOM     17  C49 ZIN A   1      19.675  -4.125  12.324  0.00  0.00     0.117 C 
ATOM     18  C50 ZIN A   1      19.904  -2.416  10.604  0.00  0.00     0.125 C 
ATOM     19  C52 ZIN A   1      18.605  -3.088  10.213  0.00  0.00     0.190 C 
ATOM     20  C58 ZIN A   1      17.991  -2.402   8.976  0.00  0.00     0.192 C 
ATOM     21  C64 ZIN A   1      18.829  -0.196   9.781  0.00  0.00     0.218 C 
ENDROOT
BRANCH  14  22
ATOM     22  C19 ZIN A   1      18.490   1.635  14.939  0.00  0.00     0.121 C 
ATOM     23  C39 ZIN A   1      17.942   2.697  14.008  0.00  0.00     0.040 A 
ATOM     24  C38 ZIN A   1      18.295   3.087  12.767  0.00  0.00    -0.020 A 
ATOM     25  N40 ZIN A   1      16.874   3.485  14.425  0.00  0.00    -0.357 N 
ATOM     26  C37 ZIN A   1      19.420   2.638  11.851  0.00  0.00     0.069 C 
ATOM     27  C46 ZIN A   1      17.337   4.109  12.343  0.00  0.00    -0.001 A 
ATOM     28  C36 ZIN A   1      20.473   3.805  11.747  0.00  0.00     0.239 C 
ATOM     29  N28 ZIN A   1      20.470   4.367  13.100  0.00  0.00    -0.068 N 
ATOM     30  C27 ZIN A   1      20.849   3.191  13.954  0.00  0.00     0.239 C 
ATOM     31  H29 ZIN A   1      19.540   4.698  13.331  0.00  0.00     0.280 HD
ATOM     32  C30 ZIN A   1      21.421   5.378  13.524  0.00  0.00     0.272 C 
ATOM     33  C25 ZIN A   1      19.941   3.578  15.168  0.00  0.00     0.016 C 
ATOM     34  C24 ZIN A   1      19.641   2.234  15.822  0.00  0.00     0.037 C 
ATOM     35  C35 ZIN A   1      20.830   4.569  15.910  0.00  0.00     0.045 C 
ATOM     36  C31 ZIN A   1      21.135   5.760  14.987  0.00  0.00     0.082 C 
ATOM     37  C41 ZIN A   1      16.461   4.312  13.430  0.00  0.00     0.043 A 
ATOM     38  C45 ZIN A   1      17.199   4.818  11.147  0.00  0.00     0.014 A 
ATOM     39  C42 ZIN A   1      15.413   5.226  13.336  0.00  0.00     0.030 A 
ATOM     40  C43 ZIN A   1      15.292   5.914  12.141  0.00  0.00     0.002 A 
ATOM     41  C44 ZIN A   1      16.162   5.716  11.081  0.00  0.00     0.001 A 
ATOM     42 4H10 ZIN A   1      16.481   3.477  15.311  0.00  0.00     0.166 HD
BRANCH  36  43
ATOM     43  O32 ZIN A   1      20.018   6.655  15.011  0.00  0.00    -0.388 OA
ATOM     44  H92 ZIN A   1      19.499   6.660  14.196  0.00  0.00     0.210 HD
ENDBRANCH  36  43
BRANCH  36  45
ATOM     45  C33 ZIN A   1      22.357   6.503  15.538  0.00  0.00     0.035 C 
ATOM     46  C34 ZIN A   1      23.559   5.556  15.571  0.00  0.00     0.008 C 
ENDBRANCH  36  45
BRANCH  22  47
ATOM     47  C20 ZIN A   1      17.377   1.171  15.871  0.00  0.00     0.278 C 
ATOM     48  O21 ZIN A   1      16.555   0.377  15.482  0.00  0.00    -0.264 OA
BRANCH  47  49
ATOM     49  O22 ZIN A   1      17.312   1.646  17.124  0.00  0.00    -0.325 OA
ATOM     50  C23 ZIN A   1      17.216   0.668  18.195  0.00  0.00     0.213 C 
ENDBRANCH  47  49
ENDBRANCH  22  47
ENDBRANCH  14  22
BRANCH  13  51
ATOM     51  O16 ZIN A   1      19.045  -0.775  16.226  0.00  0.00    -0.355 OA
ATOM     52  C17 ZIN A   1      19.475  -1.949  16.917  0.00  0.00     0.210 C 
ENDBRANCH  13  51
BRANCH  19  53
ATOM     53  O53 ZIN A   1      18.866  -4.455   9.889  0.00  0.00    -0.376 OA
ATOM     54 3H11 ZIN A   1      18.910  -5.039  10.659  0.00  0.00     0.211 HD
ENDBRANCH  19  53
BRANCH  19  55
ATOM     55  C54 ZIN A   1      17.651  -3.030  11.377  0.00  0.00     0.297 C 
ATOM     56  O55 ZIN A   1      17.324  -1.962  11.838  0.00  0.00    -0.262 OA
BRANCH  55  57
ATOM     57  O56 ZIN A   1      17.164  -4.165  11.904  0.00  0.00    -0.324 OA
ATOM     58  C57 ZIN A   1      16.229  -4.922  11.091  0.00  0.00     0.213 C 
ENDBRANCH  55  57
ENDBRANCH  19  55
BRANCH   1  59
ATOM     59  C2  ZIN A   1      16.638  -1.041  10.567  0.00  0.00     0.014 C 
ATOM     60  C1  ZIN A   1      16.303   0.380  11.025  0.00  0.00     0.006 C 
ENDBRANCH   1  59
BRANCH  20  61
ATOM     61  O60 ZIN A   1      18.951  -2.410   7.887  0.00  0.00    -0.311 OA
BRANCH  61  62
ATOM     62  C61 ZIN A   1      18.631  -3.127   6.798  0.00  0.00     0.255 C 
ATOM     63  C62 ZIN A   1      18.985  -2.613   5.426  0.00  0.00     0.126 C 
ATOM     64  O63 ZIN A   1      18.061  -4.185   6.918  0.00  0.00    -0.266 OA
ENDBRANCH  61  62
ENDBRANCH  20  61
TORSDOF 12
ENDMDL
MODEL 6
REMARK VINA RESULT:       2.3      3.023      6.103
REMARK  12 active torsions:
REMARK  status: ('A' for Active; 'I' for Inactive)
REMARK    1  A    between atoms: C2_2  and  C3_3 
REMARK    2  A    between atoms: C15_15  and  O16_16 
REMARK    3  A    between atoms: C18_18  and  C19_19 
REMARK    4  A    between atoms: C19_19  and  C20_20 
REMARK    5  A    between atoms: C20_20  and  O22_22 
REMARK    6  A    between atoms: C31_30  and  O32_31 
REMARK    7  A    between atoms: C31_30  and  C33_32 
REMARK    8  A    between atoms: C52_50  and  O53_51 
REMARK    9  A    between atoms: C52_50  and  C54_52 
REMARK   10  A    between atoms: C54_52  and  O56_54 
REMARK   11  A    between atoms: C58_56  and  O60_57 
REMARK   12  A    between atoms: O60_57  and  C61_58 
ROOT
ATOM      1  C3  ZIN A   1      16.934   5.182  16.565  0.00  0.00     0.037 C 
ATOM      2  C4  ZIN A   1      15.959   5.078  17.708  0.00  0.00    -0.015 C 
ATOM      3  C5  ZIN A   1      16.101   4.225  18.680  0.00  0.00    -0.003 C 
ATOM      4  C6  ZIN A   1      17.254   3.260  18.769  0.00  0.00     0.262 C 
ATOM      5  N7  ZIN A   1      18.364   3.768  17.964  0.00  0.00    -0.061 N 
ATOM      6  H8  ZIN A   1      18.733   4.621  18.356  0.00  0.00     0.280 HD
ATOM      7  C9  ZIN A   1      19.435   2.761  17.790  0.00  0.00     0.237 C 
ATOM      8  C10 ZIN A   1      20.157   3.194  16.489  0.00  0.00     0.046 C 
ATOM      9  C11 ZIN A   1      19.110   4.045  15.725  0.00  0.00     0.040 C 
ATOM     10  C12 ZIN A   1      18.906   3.491  14.347  0.00  0.00    -0.024 A 
ATOM     11  C13 ZIN A   1      19.634   4.293  13.457  0.00  0.00     0.020 A 
ATOM     12  C14 ZIN A   1      19.627   4.018  12.090  0.00  0.00     0.061 A 
ATOM     13  C15 ZIN A   1      18.878   2.926  11.663  0.00  0.00     0.077 A 
ATOM     14  C18 ZIN A   1      18.167   2.139  12.554  0.00  0.00     0.000 A 
ATOM     15  C47 ZIN A   1      18.166   2.407  13.917  0.00  0.00     0.021 A 
ATOM     16  N48 ZIN A   1      20.305   5.306  14.132  0.00  0.00    -0.278 NA
ATOM     17  C49 ZIN A   1      20.226   6.574  13.394  0.00  0.00     0.117 C 
ATOM     18  C50 ZIN A   1      19.691   5.435  15.479  0.00  0.00     0.125 C 
ATOM     19  C52 ZIN A   1      18.673   6.555  15.459  0.00  0.00     0.190 C 
ATOM     20  C58 ZIN A   1      17.749   6.469  16.690  0.00  0.00     0.192 C 
ATOM     21  C64 ZIN A   1      17.845   3.979  16.592  0.00  0.00     0.218 C 
ENDROOT
BRANCH  14  22
ATOM     22  C19 ZIN A   1      17.375   0.967  12.034  0.00  0.00     0.121 C 
ATOM     23  C39 ZIN A   1      18.227  -0.280  11.913  0.00  0.00     0.040 A 
ATOM     24  C38 ZIN A   1      19.519  -0.469  11.580  0.00  0.00    -0.020 A 
ATOM     25  N40 ZIN A   1      17.656  -1.524  12.167  0.00  0.00    -0.357 N 
ATOM     26  C37 ZIN A   1      20.600   0.504  11.143  0.00  0.00     0.069 C 
ATOM     27  C46 ZIN A   1      19.802  -1.897  11.724  0.00  0.00    -0.001 A 
ATOM     28  C36 ZIN A   1      20.909   0.252   9.618  0.00  0.00     0.239 C 
ATOM     29  N28 ZIN A   1      19.589  -0.066   9.067  0.00  0.00    -0.068 N 
ATOM     30  C27 ZIN A   1      18.781   1.156   9.398  0.00  0.00     0.239 C 
ATOM     31  H29 ZIN A   1      19.213  -0.886   9.531  0.00  0.00     0.280 HD
ATOM     32  C30 ZIN A   1      19.357  -0.215   7.642  0.00  0.00     0.272 C 
ATOM     33  C25 ZIN A   1      17.443   0.394   9.667  0.00  0.00     0.016 C 
ATOM     34  C24 ZIN A   1      16.714   1.302  10.650  0.00  0.00     0.037 C 
ATOM     35  C35 ZIN A   1      16.886   0.249   8.256  0.00  0.00     0.045 C 
ATOM     36  C31 ZIN A   1      17.877  -0.562   7.405  0.00  0.00     0.082 C 
ATOM     37  C41 ZIN A   1      18.588  -2.510  12.102  0.00  0.00     0.043 A 
ATOM     38  C45 ZIN A   1      20.975  -2.637  11.555  0.00  0.00     0.014 A 
ATOM     39  C42 ZIN A   1      18.527  -3.883  12.334  0.00  0.00     0.030 A 
ATOM     40  C43 ZIN A   1      19.703  -4.596  12.166  0.00  0.00     0.002 A 
ATOM     41  C44 ZIN A   1      20.889  -3.989  11.785  0.00  0.00     0.001 A 
ATOM     42 4H10 ZIN A   1      16.716  -1.687  12.341  0.00  0.00     0.166 HD
BRANCH  36  43
ATOM     43  O32 ZIN A   1      17.688  -1.954   7.684  0.00  0.00    -0.388 OA
ATOM     44  H92 ZIN A   1      18.172  -2.269   8.459  0.00  0.00     0.210 HD
ENDBRANCH  36  43
BRANCH  36  45
ATOM     45  C33 ZIN A   1      17.558  -0.323   5.925  0.00  0.00     0.035 C 
ATOM     46  C34 ZIN A   1      18.807   0.201   5.212  0.00  0.00     0.008 C 
ENDBRANCH  36  45
BRANCH  22  47
ATOM     47  C20 ZIN A   1      16.258   0.708  13.037  0.00  0.00     0.278 C 
ATOM     48  O21 ZIN A   1      15.221   0.208  12.672  0.00  0.00    -0.264 OA
BRANCH  47  49
ATOM     49  O22 ZIN A   1      16.427   1.036  14.327  0.00  0.00    -0.325 OA
ATOM     50  C23 ZIN A   1      16.997   0.021  15.196  0.00  0.00     0.213 C 
ENDBRANCH  47  49
ENDBRANCH  22  47
ENDBRANCH  14  22
BRANCH  13  51
ATOM     51  O16 ZIN A   1      18.843   2.623  10.340  0.00  0.00    -0.355 OA
ATOM     52  C17 ZIN A   1      18.543   3.690   9.438  0.00  0.00     0.210 C 
ENDBRANCH  13  51
BRANCH  19  53
ATOM     53  O53 ZIN A   1      19.358   7.809  15.494  0.00  0.00    -0.376 OA
ATOM     54 3H11 ZIN A   1      19.008   8.465  14.877  0.00  0.00     0.211 HD
ENDBRANCH  19  53
BRANCH  19  55
ATOM     55  C54 ZIN A   1      17.870   6.468  14.188  0.00  0.00     0.297 C 
ATOM     56  O55 ZIN A   1      17.477   5.395  13.793  0.00  0.00    -0.262 OA
BRANCH  55  57
ATOM     57  O56 ZIN A   1      17.591   7.581  13.492  0.00  0.00    -0.324 OA
ATOM     58  C57 ZIN A   1      16.806   8.601  14.164  0.00  0.00     0.213 C 
ENDBRANCH  55  57
ENDBRANCH  19  55
BRANCH   1  59
ATOM     59  C2  ZIN A   1      16.162   5.200  15.245  0.00  0.00     0.014 C 
ATOM     60  C1  ZIN A   1      14.822   5.909  15.447  0.00  0.00     0.006 C 
ENDBRANCH   1  59
BRANCH  20  61
ATOM     61  O60 ZIN A   1      18.547   6.488  17.903  0.00  0.00    -0.311 OA
BRANCH  61  62
ATOM     62  C61 ZIN A   1      18.135   7.298  18.890  0.00  0.00     0.255 C 
ATOM     63  C62 ZIN A   1      18.129   6.806  20.315  0.00  0.00     0.126 C 
ATOM     64  O63 ZIN A   1      17.770   8.421  18.638  0.00  0.00    -0.266 OA
ENDBRANCH  61  62
ENDBRANCH  20  61
TORSDOF 12
ENDMDL
