MODEL 1
REMARK VINA RESULT:      -8.6      0.000      0.000
REMARK  12 active torsions:
REMARK  status: ('A' for Active; 'I' for Inactive)
REMARK    1  A    between atoms: C2_2  and  O4_4 
REMARK    2  A    between atoms: O4_4  and  C5_5 
REMARK    3  A    between atoms: C5_5  and  C7_7 
REMARK    4  A    between atoms: C7_7  and  N10_9 
REMARK    5  A    between atoms: N10_9  and  P11_10 
REMARK    6  A    between atoms: P11_10  and  O13_12 
REMARK    7  A    between atoms: P11_10  and  O34_30 
REMARK    8  A    between atoms: O13_12  and  C14_13 
REMARK    9  A    between atoms: C14_13  and  C15_14 
REMARK   10  A    between atoms: C18_16  and  N20_17 
REMARK   11  A    between atoms: C31_28  and  O33_29 
REMARK   12  A    between atoms: O34_30  and  C35_31 
ROOT
ATOM      1  O13 ZIN A   1      18.009   0.177  11.679  0.00  0.00    -0.299 OA
ENDROOT
BRANCH   1   2
ATOM      2  P11 ZIN A   1      18.785   1.150  12.699  0.00  0.00     0.413 P 
ATOM      3  O12 ZIN A   1      20.026   0.490  13.163  0.00  0.00    -0.239 OA
BRANCH   2   4
ATOM      4  N10 ZIN A   1      19.174   2.589  11.916  0.00  0.00    -0.213 NA
ATOM      5  H51 ZIN A   1      18.768   2.618  10.993  0.00  0.00     0.134 HD
BRANCH   4   6
ATOM      6  C7  ZIN A   1      18.758   3.750  12.713  0.00  0.00     0.162 C 
ATOM      7  C9  ZIN A   1      19.862   4.810  12.685  0.00  0.00     0.037 C 
BRANCH   6   8
ATOM      8  C5  ZIN A   1      17.492   4.329  12.134  0.00  0.00     0.277 C 
ATOM      9  O6  ZIN A   1      16.908   3.744  11.252  0.00  0.00    -0.263 OA
BRANCH   8  10
ATOM     10  O4  ZIN A   1      17.012   5.493  12.599  0.00  0.00    -0.316 OA
BRANCH  10  11
ATOM     11  C2  ZIN A   1      16.663   5.547  14.008  0.00  0.00     0.123 C 
ATOM     12  C1  ZIN A   1      17.459   6.663  14.688  0.00  0.00     0.040 C 
ATOM     13  C3  ZIN A   1      15.166   5.825  14.153  0.00  0.00     0.040 C 
ENDBRANCH  10  11
ENDBRANCH   8  10
ENDBRANCH   6   8
ENDBRANCH   4   6
ENDBRANCH   2   4
BRANCH   2  14
ATOM     14  O34 ZIN A   1      17.840   1.467  13.965  0.00  0.00    -0.260 OA
BRANCH  14  15
ATOM     15  C35 ZIN A   1      18.169   0.773  15.086  0.00  0.00     0.080 A 
ATOM     16  C40 ZIN A   1      17.867  -0.578  15.181  0.00  0.00     0.037 A 
ATOM     17  C39 ZIN A   1      18.206  -1.282  16.319  0.00  0.00     0.003 A 
ATOM     18  C38 ZIN A   1      18.837  -0.640  17.369  0.00  0.00     0.000 A 
ATOM     19  C37 ZIN A   1      19.134   0.708  17.279  0.00  0.00     0.003 A 
ATOM     20  C36 ZIN A   1      18.801   1.416  16.141  0.00  0.00     0.037 A 
ENDBRANCH  14  15
ENDBRANCH   2  14
ENDBRANCH   1   2
BRANCH   1  21
ATOM     21  C14 ZIN A   1      18.659  -0.868  10.953  0.00  0.00     0.214 C 
BRANCH  21  22
ATOM     22  C15 ZIN A   1      19.176  -0.319   9.622  0.00  0.00     0.180 C 
ATOM     23  C31 ZIN A   1      18.123   0.608   8.977  0.00  0.00     0.193 C 
ATOM     24  C28 ZIN A   1      18.241   0.312   7.463  0.00  0.00     0.172 C 
ATOM     25  C18 ZIN A   1      19.354  -0.756   7.375  0.00  0.00     0.274 C 
ATOM     26  C29 ZIN A   1      16.922  -0.240   6.919  0.00  0.00     0.059 C 
ATOM     27  F30 ZIN A   1      18.613   1.466   6.765  0.00  0.00    -0.236 F 
ATOM     28  O17 ZIN A   1      19.358  -1.392   8.672  0.00  0.00    -0.353 OA
BRANCH  23  29
ATOM     29  O33 ZIN A   1      18.425   1.980   9.243  0.00  0.00    -0.389 OA
ATOM     30  H60 ZIN A   1      19.141   2.108   9.881  0.00  0.00     0.210 HD
ENDBRANCH  23  29
BRANCH  25  31
ATOM     31  N20 ZIN A   1      19.043  -1.734   6.330  0.00  0.00    -0.279 N 
ATOM     32  C26 ZIN A   1      19.360  -1.465   5.050  0.00  0.00     0.331 A 
ATOM     33  N25 ZIN A   1      19.090  -2.347   4.069  0.00  0.00    -0.275 N 
ATOM     34  O27 ZIN A   1      19.907  -0.414   4.777  0.00  0.00    -0.246 OA
ATOM     35  C23 ZIN A   1      18.484  -3.517   4.357  0.00  0.00     0.250 A 
ATOM     36  H56 ZIN A   1      19.330  -2.139   3.154  0.00  0.00     0.173 HD
ATOM     37  C22 ZIN A   1      18.141  -3.811   5.698  0.00  0.00     0.092 A 
ATOM     38  O24 ZIN A   1      18.235  -4.313   3.470  0.00  0.00    -0.268 OA
ATOM     39  C21 ZIN A   1      18.427  -2.910   6.663  0.00  0.00     0.104 A 
ENDBRANCH  25  31
ENDBRANCH  21  22
ENDBRANCH   1  21
TORSDOF 12
ENDMDL
MODEL 2
REMARK VINA RESULT:      -8.6      2.291      4.295
REMARK  12 active torsions:
REMARK  status: ('A' for Active; 'I' for Inactive)
REMARK    1  A    between atoms: C2_2  and  O4_4 
REMARK    2  A    between atoms: O4_4  and  C5_5 
REMARK    3  A    between atoms: C5_5  and  C7_7 
REMARK    4  A    between atoms: C7_7  and  N10_9 
REMARK    5  A    between atoms: N10_9  and  P11_10 
REMARK    6  A    between atoms: P11_10  and  O13_12 
REMARK    7  A    between atoms: P11_10  and  O34_30 
REMARK    8  A    between atoms: O13_12  and  C14_13 
REMARK    9  A    between atoms: C14_13  and  C15_14 
REMARK   10  A    between atoms: C18_16  and  N20_17 
REMARK   11  A    between atoms: C31_28  and  O33_29 
REMARK   12  A    between atoms: O34_30  and  C35_31 
ROOT
ATOM      1  O13 ZIN A   1      19.996  -1.275  11.121  0.00  0.00    -0.299 OA
ENDROOT
BRANCH   1   2
ATOM      2  P11 ZIN A   1      19.552  -2.313  12.269  0.00  0.00     0.413 P 
ATOM      3  O12 ZIN A   1      20.314  -3.573  12.116  0.00  0.00    -0.239 OA
BRANCH   2   4
ATOM      4  N10 ZIN A   1      19.868  -1.646  13.782  0.00  0.00    -0.213 NA
ATOM      5  H51 ZIN A   1      20.501  -0.865  13.707  0.00  0.00     0.134 HD
BRANCH   4   6
ATOM      6  C7  ZIN A   1      18.623  -1.254  14.454  0.00  0.00     0.162 C 
ATOM      7  C9  ZIN A   1      18.720  -1.588  15.945  0.00  0.00     0.037 C 
BRANCH   6   8
ATOM      8  C5  ZIN A   1      18.406   0.228  14.285  0.00  0.00     0.277 C 
ATOM      9  O6  ZIN A   1      17.486   0.632  13.613  0.00  0.00    -0.263 OA
BRANCH   8  10
ATOM     10  O4  ZIN A   1      19.234   1.100  14.882  0.00  0.00    -0.316 OA
BRANCH  10  11
ATOM     11  C2  ZIN A   1      18.631   2.086  15.761  0.00  0.00     0.123 C 
ATOM     12  C1  ZIN A   1      19.211   1.937  17.169  0.00  0.00     0.040 C 
ATOM     13  C3  ZIN A   1      18.928   3.491  15.233  0.00  0.00     0.040 C 
ENDBRANCH  10  11
ENDBRANCH   8  10
ENDBRANCH   6   8
ENDBRANCH   4   6
ENDBRANCH   2   4
BRANCH   2  14
ATOM     14  O34 ZIN A   1      17.976  -2.619  12.135  0.00  0.00    -0.260 OA
BRANCH  14  15
ATOM     15  C35 ZIN A   1      17.690  -3.752  11.442  0.00  0.00     0.080 A 
ATOM     16  C40 ZIN A   1      17.605  -3.717  10.058  0.00  0.00     0.037 A 
ATOM     17  C39 ZIN A   1      17.320  -4.871   9.356  0.00  0.00     0.003 A 
ATOM     18  C38 ZIN A   1      17.109  -6.059  10.031  0.00  0.00     0.000 A 
ATOM     19  C37 ZIN A   1      17.188  -6.096  11.411  0.00  0.00     0.003 A 
ATOM     20  C36 ZIN A   1      17.478  -4.945  12.118  0.00  0.00     0.037 A 
ENDBRANCH  14  15
ENDBRANCH   2  14
ENDBRANCH   1   2
BRANCH   1  21
ATOM     21  C14 ZIN A   1      19.137  -0.246  10.626  0.00  0.00     0.214 C 
BRANCH  21  22
ATOM     22  C15 ZIN A   1      19.541   0.112   9.195  0.00  0.00     0.180 C 
ATOM     23  C31 ZIN A   1      18.452   0.981   8.530  0.00  0.00     0.193 C 
ATOM     24  C28 ZIN A   1      18.426   0.491   7.062  0.00  0.00     0.172 C 
ATOM     25  C18 ZIN A   1      19.505  -0.614   7.017  0.00  0.00     0.274 C 
ATOM     26  C29 ZIN A   1      17.052  -0.086   6.713  0.00  0.00     0.059 C 
ATOM     27  F30 ZIN A   1      18.755   1.534   6.190  0.00  0.00    -0.236 F 
ATOM     28  O17 ZIN A   1      19.615  -1.078   8.380  0.00  0.00    -0.353 OA
BRANCH  23  29
ATOM     29  O33 ZIN A   1      18.803   2.366   8.588  0.00  0.00    -0.389 OA
ATOM     30  H60 ZIN A   1      19.747   2.526   8.725  0.00  0.00     0.210 HD
ENDBRANCH  23  29
BRANCH  25  31
ATOM     31  N20 ZIN A   1      19.081  -1.707   6.139  0.00  0.00    -0.279 N 
ATOM     32  C26 ZIN A   1      19.285  -1.613   4.812  0.00  0.00     0.331 A 
ATOM     33  N25 ZIN A   1      18.909  -2.605   3.982  0.00  0.00    -0.275 N 
ATOM     34  O27 ZIN A   1      19.823  -0.622   4.357  0.00  0.00    -0.246 OA
ATOM     35  C23 ZIN A   1      18.311  -3.709   4.471  0.00  0.00     0.250 A 
ATOM     36  H56 ZIN A   1      19.067  -2.522   3.029  0.00  0.00     0.173 HD
ATOM     37  C22 ZIN A   1      18.087  -3.820   5.864  0.00  0.00     0.092 A 
ATOM     38  O24 ZIN A   1      17.967  -4.605   3.720  0.00  0.00    -0.268 OA
ATOM     39  C21 ZIN A   1      18.477  -2.812   6.675  0.00  0.00     0.104 A 
ENDBRANCH  25  31
ENDBRANCH  21  22
ENDBRANCH   1  21
TORSDOF 12
ENDMDL
MODEL 3
REMARK VINA RESULT:      -8.6      2.838      5.327
REMARK  12 active torsions:
REMARK  status: ('A' for Active; 'I' for Inactive)
REMARK    1  A    between atoms: C2_2  and  O4_4 
REMARK    2  A    between atoms: O4_4  and  C5_5 
REMARK    3  A    between atoms: C5_5  and  C7_7 
REMARK    4  A    between atoms: C7_7  and  N10_9 
REMARK    5  A    between atoms: N10_9  and  P11_10 
REMARK    6  A    between atoms: P11_10  and  O13_12 
REMARK    7  A    between atoms: P11_10  and  O34_30 
REMARK    8  A    between atoms: O13_12  and  C14_13 
REMARK    9  A    between atoms: C14_13  and  C15_14 
REMARK   10  A    between atoms: C18_16  and  N20_17 
REMARK   11  A    between atoms: C31_28  and  O33_29 
REMARK   12  A    between atoms: O34_30  and  C35_31 
ROOT
ATOM      1  O13 ZIN A   1      18.205  -0.411  10.553  0.00  0.00    -0.299 OA
ENDROOT
BRANCH   1   2
ATOM      2  P11 ZIN A   1      17.541  -0.554  12.012  0.00  0.00     0.413 P 
ATOM      3  O12 ZIN A   1      16.214   0.102  12.017  0.00  0.00    -0.239 OA
BRANCH   2   4
ATOM      4  N10 ZIN A   1      17.363  -2.185  12.390  0.00  0.00    -0.213 NA
ATOM      5  H51 ZIN A   1      16.388  -2.431  12.474  0.00  0.00     0.134 HD
BRANCH   4   6
ATOM      6  C7  ZIN A   1      18.038  -3.031  11.398  0.00  0.00     0.162 C 
ATOM      7  C9  ZIN A   1      19.469  -3.318  11.860  0.00  0.00     0.037 C 
BRANCH   6   8
ATOM      8  C5  ZIN A   1      17.288  -4.331  11.254  0.00  0.00     0.277 C 
ATOM      9  O6  ZIN A   1      16.933  -4.936  12.238  0.00  0.00    -0.263 OA
BRANCH   8  10
ATOM     10  O4  ZIN A   1      17.014  -4.816  10.032  0.00  0.00    -0.316 OA
BRANCH  10  11
ATOM     11  C2  ZIN A   1      17.511  -6.145   9.724  0.00  0.00     0.123 C 
ATOM     12  C1  ZIN A   1      16.633  -6.779   8.642  0.00  0.00     0.040 C 
ATOM     13  C3  ZIN A   1      18.952  -6.047   9.219  0.00  0.00     0.040 C 
ENDBRANCH  10  11
ENDBRANCH   8  10
ENDBRANCH   6   8
ENDBRANCH   4   6
ENDBRANCH   2   4
BRANCH   2  14
ATOM     14  O34 ZIN A   1      18.491   0.150  13.106  0.00  0.00    -0.260 OA
BRANCH  14  15
ATOM     15  C35 ZIN A   1      18.286  -0.285  14.377  0.00  0.00     0.080 A 
ATOM     16  C40 ZIN A   1      17.262   0.256  15.140  0.00  0.00     0.037 A 
ATOM     17  C39 ZIN A   1      17.053  -0.192  16.429  0.00  0.00     0.003 A 
ATOM     18  C38 ZIN A   1      17.869  -1.171  16.964  0.00  0.00     0.000 A 
ATOM     19  C37 ZIN A   1      18.895  -1.707  16.208  0.00  0.00     0.003 A 
ATOM     20  C36 ZIN A   1      19.106  -1.267  14.916  0.00  0.00     0.037 A 
ENDBRANCH  14  15
ENDBRANCH   2  14
ENDBRANCH   1   2
BRANCH   1  21
ATOM     21  C14 ZIN A   1      19.528   0.085  10.344  0.00  0.00     0.214 C 
BRANCH  21  22
ATOM     22  C15 ZIN A   1      19.784   0.245   8.844  0.00  0.00     0.180 C 
ATOM     23  C31 ZIN A   1      18.624   1.019   8.181  0.00  0.00     0.193 C 
ATOM     24  C28 ZIN A   1      18.457   0.334   6.803  0.00  0.00     0.172 C 
ATOM     25  C18 ZIN A   1      19.538  -0.770   6.800  0.00  0.00     0.274 C 
ATOM     26  C29 ZIN A   1      17.061  -0.280   6.675  0.00  0.00     0.059 C 
ATOM     27  F30 ZIN A   1      18.686   1.248   5.769  0.00  0.00    -0.236 F 
ATOM     28  O17 ZIN A   1      19.789  -1.045   8.195  0.00  0.00    -0.353 OA
BRANCH  23  29
ATOM     29  O33 ZIN A   1      18.964   2.398   8.015  0.00  0.00    -0.389 OA
ATOM     30  H60 ZIN A   1      18.750   2.950   8.780  0.00  0.00     0.210 HD
ENDBRANCH  23  29
BRANCH  25  31
ATOM     31  N20 ZIN A   1      19.040  -1.971   6.125  0.00  0.00    -0.279 N 
ATOM     32  C26 ZIN A   1      19.157  -2.082   4.789  0.00  0.00     0.331 A 
ATOM     33  N25 ZIN A   1      18.713  -3.176   4.143  0.00  0.00    -0.275 N 
ATOM     34  O27 ZIN A   1      19.681  -1.184   4.157  0.00  0.00    -0.246 OA
ATOM     35  C23 ZIN A   1      18.130  -4.179   4.829  0.00  0.00     0.250 A 
ATOM     36  H56 ZIN A   1      18.810  -3.241   3.181  0.00  0.00     0.173 HD
ATOM     37  C22 ZIN A   1      17.996  -4.075   6.235  0.00  0.00     0.092 A 
ATOM     38  O24 ZIN A   1      17.724  -5.168   4.246  0.00  0.00    -0.268 OA
ATOM     39  C21 ZIN A   1      18.455  -2.967   6.858  0.00  0.00     0.104 A 
ENDBRANCH  25  31
ENDBRANCH  21  22
ENDBRANCH   1  21
TORSDOF 12
ENDMDL
MODEL 4
REMARK VINA RESULT:      -8.4      1.463      3.856
REMARK  12 active torsions:
REMARK  status: ('A' for Active; 'I' for Inactive)
REMARK    1  A    between atoms: C2_2  and  O4_4 
REMARK    2  A    between atoms: O4_4  and  C5_5 
REMARK    3  A    between atoms: C5_5  and  C7_7 
REMARK    4  A    between atoms: C7_7  and  N10_9 
REMARK    5  A    between atoms: N10_9  and  P11_10 
REMARK    6  A    between atoms: P11_10  and  O13_12 
REMARK    7  A    between atoms: P11_10  and  O34_30 
REMARK    8  A    between atoms: O13_12  and  C14_13 
REMARK    9  A    between atoms: C14_13  and  C15_14 
REMARK   10  A    between atoms: C18_16  and  N20_17 
REMARK   11  A    between atoms: C31_28  and  O33_29 
REMARK   12  A    between atoms: O34_30  and  C35_31 
ROOT
ATOM      1  O13 ZIN A   1      19.832   0.073  11.657  0.00  0.00    -0.299 OA
ENDROOT
BRANCH   1   2
ATOM      2  P11 ZIN A   1      19.121   1.239  12.508  0.00  0.00     0.413 P 
ATOM      3  O12 ZIN A   1      17.653   1.049  12.475  0.00  0.00    -0.239 OA
BRANCH   2   4
ATOM      4  N10 ZIN A   1      19.659   1.180  14.102  0.00  0.00    -0.213 NA
ATOM      5  H51 ZIN A   1      19.727   2.106  14.495  0.00  0.00     0.134 HD
BRANCH   4   6
ATOM      6  C7  ZIN A   1      18.789   0.323  14.919  0.00  0.00     0.162 C 
ATOM      7  C9  ZIN A   1      19.240  -1.134  14.788  0.00  0.00     0.037 C 
BRANCH   6   8
ATOM      8  C5  ZIN A   1      18.879   0.748  16.362  0.00  0.00     0.277 C 
ATOM      9  O6  ZIN A   1      18.237   0.165  17.204  0.00  0.00    -0.263 OA
BRANCH   8  10
ATOM     10  O4  ZIN A   1      19.673   1.772  16.712  0.00  0.00    -0.316 OA
BRANCH  10  11
ATOM     11  C2  ZIN A   1      19.020   3.014  17.087  0.00  0.00     0.123 C 
ATOM     12  C1  ZIN A   1      18.935   3.104  18.613  0.00  0.00     0.040 C 
ATOM     13  C3  ZIN A   1      19.826   4.197  16.550  0.00  0.00     0.040 C 
ENDBRANCH  10  11
ENDBRANCH   8  10
ENDBRANCH   6   8
ENDBRANCH   4   6
ENDBRANCH   2   4
BRANCH   2  14
ATOM     14  O34 ZIN A   1      19.490   2.672  11.870  0.00  0.00    -0.260 OA
BRANCH  14  15
ATOM     15  C35 ZIN A   1      18.521   3.612  12.027  0.00  0.00     0.080 A 
ATOM     16  C40 ZIN A   1      17.692   3.939  10.965  0.00  0.00     0.037 A 
ATOM     17  C39 ZIN A   1      16.705   4.891  11.128  0.00  0.00     0.003 A 
ATOM     18  C38 ZIN A   1      16.550   5.527  12.346  0.00  0.00     0.000 A 
ATOM     19  C37 ZIN A   1      17.380   5.208  13.405  0.00  0.00     0.003 A 
ATOM     20  C36 ZIN A   1      18.365   4.252  13.249  0.00  0.00     0.037 A 
ENDBRANCH  14  15
ENDBRANCH   2  14
ENDBRANCH   1   2
BRANCH   1  21
ATOM     21  C14 ZIN A   1      19.138  -0.720  10.691  0.00  0.00     0.214 C 
BRANCH  21  22
ATOM     22  C15 ZIN A   1      19.610  -0.341   9.286  0.00  0.00     0.180 C 
ATOM     23  C31 ZIN A   1      18.616   0.646   8.634  0.00  0.00     0.193 C 
ATOM     24  C28 ZIN A   1      18.587   0.220   7.147  0.00  0.00     0.172 C 
ATOM     25  C18 ZIN A   1      19.568  -0.972   7.079  0.00  0.00     0.274 C 
ATOM     26  C29 ZIN A   1      17.179  -0.221   6.742  0.00  0.00     0.059 C 
ATOM     27  F30 ZIN A   1      19.027   1.264   6.327  0.00  0.00    -0.236 F 
ATOM     28  O17 ZIN A   1      19.603  -1.499   8.424  0.00  0.00    -0.353 OA
BRANCH  23  29
ATOM     29  O33 ZIN A   1      19.083   1.992   8.759  0.00  0.00    -0.389 OA
ATOM     30  H60 ZIN A   1      19.954   2.068   9.173  0.00  0.00     0.210 HD
ENDBRANCH  23  29
BRANCH  25  31
ATOM     31  N20 ZIN A   1      19.076  -1.988   6.146  0.00  0.00    -0.279 N 
ATOM     32  C26 ZIN A   1      19.265  -1.826   4.824  0.00  0.00     0.331 A 
ATOM     33  N25 ZIN A   1      18.827  -2.746   3.944  0.00  0.00    -0.275 N 
ATOM     34  O27 ZIN A   1      19.848  -0.839   4.419  0.00  0.00    -0.246 OA
ATOM     35  C23 ZIN A   1      18.178  -3.845   4.378  0.00  0.00     0.250 A 
ATOM     36  H56 ZIN A   1      18.976  -2.616   2.995  0.00  0.00     0.173 HD
ATOM     37  C22 ZIN A   1      17.968  -4.027   5.765  0.00  0.00     0.092 A 
ATOM     38  O24 ZIN A   1      17.778  -4.676   3.582  0.00  0.00    -0.268 OA
ATOM     39  C21 ZIN A   1      18.422  -3.090   6.627  0.00  0.00     0.104 A 
ENDBRANCH  25  31
ENDBRANCH  21  22
ENDBRANCH   1  21
TORSDOF 12
ENDMDL
MODEL 5
REMARK VINA RESULT:      -8.3      2.946      5.409
REMARK  12 active torsions:
REMARK  status: ('A' for Active; 'I' for Inactive)
REMARK    1  A    between atoms: C2_2  and  O4_4 
REMARK    2  A    between atoms: O4_4  and  C5_5 
REMARK    3  A    between atoms: C5_5  and  C7_7 
REMARK    4  A    between atoms: C7_7  and  N10_9 
REMARK    5  A    between atoms: N10_9  and  P11_10 
REMARK    6  A    between atoms: P11_10  and  O13_12 
REMARK    7  A    between atoms: P11_10  and  O34_30 
REMARK    8  A    between atoms: O13_12  and  C14_13 
REMARK    9  A    between atoms: C14_13  and  C15_14 
REMARK   10  A    between atoms: C18_16  and  N20_17 
REMARK   11  A    between atoms: C31_28  and  O33_29 
REMARK   12  A    between atoms: O34_30  and  C35_31 
ROOT
ATOM      1  O13 ZIN A   1      17.579  -1.431  12.992  0.00  0.00    -0.299 OA
ENDROOT
BRANCH   1   2
ATOM      2  P11 ZIN A   1      17.664   0.112  12.540  0.00  0.00     0.413 P 
ATOM      3  O12 ZIN A   1      16.646   0.378  11.499  0.00  0.00    -0.239 OA
BRANCH   2   4
ATOM      4  N10 ZIN A   1      17.379   1.103  13.870  0.00  0.00    -0.213 NA
ATOM      5  H51 ZIN A   1      17.169   0.555  14.690  0.00  0.00     0.134 HD
BRANCH   4   6
ATOM      6  C7  ZIN A   1      18.517   2.000  14.112  0.00  0.00     0.162 C 
ATOM      7  C9  ZIN A   1      18.046   3.454  14.034  0.00  0.00     0.037 C 
BRANCH   6   8
ATOM      8  C5  ZIN A   1      19.087   1.729  15.480  0.00  0.00     0.277 C 
ATOM      9  O6  ZIN A   1      19.530   2.639  16.141  0.00  0.00    -0.263 OA
BRANCH   8  10
ATOM     10  O4  ZIN A   1      19.102   0.478  15.966  0.00  0.00    -0.316 OA
BRANCH  10  11
ATOM     11  C2  ZIN A   1      18.269   0.211  17.126  0.00  0.00     0.123 C 
ATOM     12  C1  ZIN A   1      17.302  -0.931  16.806  0.00  0.00     0.040 C 
ATOM     13  C3  ZIN A   1      19.154  -0.186  18.309  0.00  0.00     0.040 C 
ENDBRANCH  10  11
ENDBRANCH   8  10
ENDBRANCH   6   8
ENDBRANCH   4   6
ENDBRANCH   2   4
BRANCH   2  14
ATOM     14  O34 ZIN A   1      19.130   0.418  11.947  0.00  0.00    -0.260 OA
BRANCH  14  15
ATOM     15  C35 ZIN A   1      19.126   0.847  10.658  0.00  0.00     0.080 A 
ATOM     16  C40 ZIN A   1      19.376  -0.047   9.627  0.00  0.00     0.037 A 
ATOM     17  C39 ZIN A   1      19.366   0.391   8.318  0.00  0.00     0.003 A 
ATOM     18  C38 ZIN A   1      19.118   1.721   8.033  0.00  0.00     0.000 A 
ATOM     19  C37 ZIN A   1      18.874   2.615   9.059  0.00  0.00     0.003 A 
ATOM     20  C36 ZIN A   1      18.878   2.182  10.370  0.00  0.00     0.037 A 
ENDBRANCH  14  15
ENDBRANCH   2  14
ENDBRANCH   1   2
BRANCH   1  21
ATOM     21  C14 ZIN A   1      18.432  -2.446  12.460  0.00  0.00     0.214 C 
BRANCH  21  22
ATOM     22  C15 ZIN A   1      17.600  -3.434  11.639  0.00  0.00     0.180 C 
ATOM     23  C31 ZIN A   1      18.256  -4.832  11.655  0.00  0.00     0.193 C 
ATOM     24  C28 ZIN A   1      18.010  -5.376  10.228  0.00  0.00     0.172 C 
ATOM     25  C18 ZIN A   1      17.233  -4.242   9.522  0.00  0.00     0.274 C 
ATOM     26  C29 ZIN A   1      19.339  -5.639   9.516  0.00  0.00     0.059 C 
ATOM     27  F30 ZIN A   1      17.240  -6.544  10.273  0.00  0.00    -0.236 F 
ATOM     28  O17 ZIN A   1      17.587  -3.045  10.248  0.00  0.00    -0.353 OA
BRANCH  23  29
ATOM     29  O33 ZIN A   1      17.631  -5.674  12.626  0.00  0.00    -0.389 OA
ATOM     30  H60 ZIN A   1      17.764  -6.619  12.471  0.00  0.00     0.210 HD
ENDBRANCH  23  29
BRANCH  25  31
ATOM     31  N20 ZIN A   1      17.649  -4.131   8.122  0.00  0.00    -0.279 N 
ATOM     32  C26 ZIN A   1      17.091  -4.932   7.196  0.00  0.00     0.331 A 
ATOM     33  N25 ZIN A   1      17.451  -4.849   5.901  0.00  0.00    -0.275 N 
ATOM     34  O27 ZIN A   1      16.244  -5.738   7.532  0.00  0.00    -0.246 OA
ATOM     35  C23 ZIN A   1      18.389  -3.961   5.513  0.00  0.00     0.250 A 
ATOM     36  H56 ZIN A   1      17.036  -5.431   5.247  0.00  0.00     0.173 HD
ATOM     37  C22 ZIN A   1      18.987  -3.115   6.478  0.00  0.00     0.092 A 
ATOM     38  O24 ZIN A   1      18.718  -3.888   4.343  0.00  0.00    -0.268 OA
ATOM     39  C21 ZIN A   1      18.604  -3.217   7.769  0.00  0.00     0.104 A 
ENDBRANCH  25  31
ENDBRANCH  21  22
ENDBRANCH   1  21
TORSDOF 12
ENDMDL
MODEL 6
REMARK VINA RESULT:      -8.2      2.745      8.706
REMARK  12 active torsions:
REMARK  status: ('A' for Active; 'I' for Inactive)
REMARK    1  A    between atoms: C2_2  and  O4_4 
REMARK    2  A    between atoms: O4_4  and  C5_5 
REMARK    3  A    between atoms: C5_5  and  C7_7 
REMARK    4  A    between atoms: C7_7  and  N10_9 
REMARK    5  A    between atoms: N10_9  and  P11_10 
REMARK    6  A    between atoms: P11_10  and  O13_12 
REMARK    7  A    between atoms: P11_10  and  O34_30 
REMARK    8  A    between atoms: O13_12  and  C14_13 
REMARK    9  A    between atoms: C14_13  and  C15_14 
REMARK   10  A    between atoms: C18_16  and  N20_17 
REMARK   11  A    between atoms: C31_28  and  O33_29 
REMARK   12  A    between atoms: O34_30  and  C35_31 
ROOT
ATOM      1  O13 ZIN A   1      17.128   2.256  11.607  0.00  0.00    -0.299 OA
ENDROOT
BRANCH   1   2
ATOM      2  P11 ZIN A   1      17.303   0.669  11.405  0.00  0.00     0.413 P 
ATOM      3  O12 ZIN A   1      16.119  -0.031  11.951  0.00  0.00    -0.239 OA
BRANCH   2   4
ATOM      4  N10 ZIN A   1      17.450   0.326   9.763  0.00  0.00    -0.213 NA
ATOM      5  H51 ZIN A   1      17.221   1.133   9.204  0.00  0.00     0.134 HD
BRANCH   4   6
ATOM      6  C7  ZIN A   1      18.796  -0.170   9.448  0.00  0.00     0.162 C 
ATOM      7  C9  ZIN A   1      18.738  -1.678   9.194  0.00  0.00     0.037 C 
BRANCH   6   8
ATOM      8  C5  ZIN A   1      19.312   0.527   8.216  0.00  0.00     0.277 C 
ATOM      9  O6  ZIN A   1      19.695   1.671   8.283  0.00  0.00    -0.263 OA
BRANCH   8  10
ATOM     10  O4  ZIN A   1      19.348  -0.124   7.042  0.00  0.00    -0.316 OA
BRANCH  10  11
ATOM     11  C2  ZIN A   1      18.538   0.415   5.964  0.00  0.00     0.123 C 
ATOM     12  C1  ZIN A   1      19.092  -0.067   4.621  0.00  0.00     0.040 C 
ATOM     13  C3  ZIN A   1      17.094  -0.064   6.122  0.00  0.00     0.040 C 
ENDBRANCH  10  11
ENDBRANCH   8  10
ENDBRANCH   6   8
ENDBRANCH   4   6
ENDBRANCH   2   4
BRANCH   2  14
ATOM     14  O34 ZIN A   1      18.625   0.171  12.178  0.00  0.00    -0.260 OA
BRANCH  14  15
ATOM     15  C35 ZIN A   1      18.412  -0.166  13.477  0.00  0.00     0.080 A 
ATOM     16  C40 ZIN A   1      18.872  -1.380  13.964  0.00  0.00     0.037 A 
ATOM     17  C39 ZIN A   1      18.658  -1.718  15.286  0.00  0.00     0.003 A 
ATOM     18  C38 ZIN A   1      17.977  -0.853  16.121  0.00  0.00     0.000 A 
ATOM     19  C37 ZIN A   1      17.512   0.356  15.636  0.00  0.00     0.003 A 
ATOM     20  C36 ZIN A   1      17.728   0.702  14.317  0.00  0.00     0.037 A 
ENDBRANCH  14  15
ENDBRANCH   2  14
ENDBRANCH   1   2
BRANCH   1  21
ATOM     21  C14 ZIN A   1      17.621   3.220  10.674  0.00  0.00     0.214 C 
BRANCH  21  22
ATOM     22  C15 ZIN A   1      18.309   4.358  11.431  0.00  0.00     0.180 C 
ATOM     23  C31 ZIN A   1      19.213   3.792  12.548  0.00  0.00     0.193 C 
ATOM     24  C28 ZIN A   1      19.049   4.800  13.710  0.00  0.00     0.172 C 
ATOM     25  C18 ZIN A   1      18.066   5.856  13.155  0.00  0.00     0.274 C 
ATOM     26  C29 ZIN A   1      18.456   4.110  14.940  0.00  0.00     0.059 C 
ATOM     27  F30 ZIN A   1      20.277   5.391  14.025  0.00  0.00    -0.236 F 
ATOM     28  O17 ZIN A   1      17.330   5.167  12.120  0.00  0.00    -0.353 OA
BRANCH  23  29
ATOM     29  O33 ZIN A   1      20.576   3.741  12.119  0.00  0.00    -0.389 OA
ATOM     30  H60 ZIN A   1      21.196   4.165  12.729  0.00  0.00     0.210 HD
ENDBRANCH  23  29
BRANCH  25  31
ATOM     31  N20 ZIN A   1      17.158   6.313  14.208  0.00  0.00    -0.279 N 
ATOM     32  C26 ZIN A   1      17.551   7.286  15.052  0.00  0.00     0.331 A 
ATOM     33  N25 ZIN A   1      16.735   7.728  16.026  0.00  0.00    -0.275 N 
ATOM     34  O27 ZIN A   1      18.656   7.776  14.926  0.00  0.00    -0.246 OA
ATOM     35  C23 ZIN A   1      15.507   7.194  16.178  0.00  0.00     0.250 A 
ATOM     36  H56 ZIN A   1      17.032   8.433  16.622  0.00  0.00     0.173 HD
ATOM     37  C22 ZIN A   1      15.081   6.168  15.301  0.00  0.00     0.092 A 
ATOM     38  O24 ZIN A   1      14.769   7.591  17.063  0.00  0.00    -0.268 OA
ATOM     39  C21 ZIN A   1      15.919   5.745  14.329  0.00  0.00     0.104 A 
ENDBRANCH  25  31
ENDBRANCH  21  22
ENDBRANCH   1  21
TORSDOF 12
ENDMDL
MODEL 7
REMARK VINA RESULT:      -8.2      2.718      8.906
REMARK  12 active torsions:
REMARK  status: ('A' for Active; 'I' for Inactive)
REMARK    1  A    between atoms: C2_2  and  O4_4 
REMARK    2  A    between atoms: O4_4  and  C5_5 
REMARK    3  A    between atoms: C5_5  and  C7_7 
REMARK    4  A    between atoms: C7_7  and  N10_9 
REMARK    5  A    between atoms: N10_9  and  P11_10 
REMARK    6  A    between atoms: P11_10  and  O13_12 
REMARK    7  A    between atoms: P11_10  and  O34_30 
REMARK    8  A    between atoms: O13_12  and  C14_13 
REMARK    9  A    between atoms: C14_13  and  C15_14 
REMARK   10  A    between atoms: C18_16  and  N20_17 
REMARK   11  A    between atoms: C31_28  and  O33_29 
REMARK   12  A    between atoms: O34_30  and  C35_31 
ROOT
ATOM      1  O13 ZIN A   1      19.543  -1.127  10.022  0.00  0.00    -0.299 OA
ENDROOT
BRANCH   1   2
ATOM      2  P11 ZIN A   1      18.442  -0.978   8.857  0.00  0.00     0.413 P 
ATOM      3  O12 ZIN A   1      17.449   0.050   9.245  0.00  0.00    -0.239 OA
BRANCH   2   4
ATOM      4  N10 ZIN A   1      19.198  -0.515   7.425  0.00  0.00    -0.213 NA
ATOM      5  H51 ZIN A   1      20.135  -0.885   7.376  0.00  0.00     0.134 HD
BRANCH   4   6
ATOM      6  C7  ZIN A   1      18.407  -0.925   6.258  0.00  0.00     0.162 C 
ATOM      7  C9  ZIN A   1      17.648   0.285   5.706  0.00  0.00     0.037 C 
BRANCH   6   8
ATOM      8  C5  ZIN A   1      19.326  -1.467   5.194  0.00  0.00     0.277 C 
ATOM      9  O6  ZIN A   1      20.031  -0.715   4.562  0.00  0.00    -0.263 OA
BRANCH   8  10
ATOM     10  O4  ZIN A   1      19.364  -2.787   4.949  0.00  0.00    -0.316 OA
BRANCH  10  11
ATOM     11  C2  ZIN A   1      18.143  -3.536   5.184  0.00  0.00     0.123 C 
ATOM     12  C1  ZIN A   1      17.391  -3.712   3.863  0.00  0.00     0.040 C 
ATOM     13  C3  ZIN A   1      18.490  -4.910   5.761  0.00  0.00     0.040 C 
ENDBRANCH  10  11
ENDBRANCH   8  10
ENDBRANCH   6   8
ENDBRANCH   4   6
ENDBRANCH   2   4
BRANCH   2  14
ATOM     14  O34 ZIN A   1      17.696  -2.389   8.638  0.00  0.00    -0.260 OA
BRANCH  14  15
ATOM     15  C35 ZIN A   1      17.994  -3.323   9.579  0.00  0.00     0.080 A 
ATOM     16  C40 ZIN A   1      18.992  -4.256   9.339  0.00  0.00     0.037 A 
ATOM     17  C39 ZIN A   1      19.298  -5.201  10.299  0.00  0.00     0.003 A 
ATOM     18  C38 ZIN A   1      18.602  -5.225  11.494  0.00  0.00     0.000 A 
ATOM     19  C37 ZIN A   1      17.603  -4.300  11.733  0.00  0.00     0.003 A 
ATOM     20  C36 ZIN A   1      17.297  -3.349  10.779  0.00  0.00     0.037 A 
ENDBRANCH  14  15
ENDBRANCH   2  14
ENDBRANCH   1   2
BRANCH   1  21
ATOM     21  C14 ZIN A   1      20.441  -0.076  10.383  0.00  0.00     0.214 C 
BRANCH  21  22
ATOM     22  C15 ZIN A   1      20.459   0.078  11.905  0.00  0.00     0.180 C 
ATOM     23  C31 ZIN A   1      19.374  -0.812  12.549  0.00  0.00     0.193 C 
ATOM     24  C28 ZIN A   1      18.842   0.039  13.727  0.00  0.00     0.172 C 
ATOM     25  C18 ZIN A   1      19.673   1.340  13.654  0.00  0.00     0.274 C 
ATOM     26  C29 ZIN A   1      17.354   0.342  13.542  0.00  0.00     0.059 C 
ATOM     27  F30 ZIN A   1      19.061  -0.615  14.944  0.00  0.00    -0.236 F 
ATOM     28  O17 ZIN A   1      20.103   1.427  12.279  0.00  0.00    -0.353 OA
BRANCH  23  29
ATOM     29  O33 ZIN A   1      19.940  -2.033  13.031  0.00  0.00    -0.389 OA
ATOM     30  H60 ZIN A   1      19.432  -2.449  13.740  0.00  0.00     0.210 HD
ENDBRANCH  23  29
BRANCH  25  31
ATOM     31  N20 ZIN A   1      18.844   2.496  14.003  0.00  0.00    -0.279 N 
ATOM     32  C26 ZIN A   1      18.699   2.848  15.294  0.00  0.00     0.331 A 
ATOM     33  N25 ZIN A   1      17.946   3.908  15.643  0.00  0.00    -0.275 N 
ATOM     34  O27 ZIN A   1      19.263   2.202  16.157  0.00  0.00    -0.246 OA
ATOM     35  C23 ZIN A   1      17.315   4.633  14.698  0.00  0.00     0.250 A 
ATOM     36  H56 ZIN A   1      17.857   4.149  16.577  0.00  0.00     0.173 HD
ATOM     37  C22 ZIN A   1      17.455   4.272  13.336  0.00  0.00     0.092 A 
ATOM     38  O24 ZIN A   1      16.631   5.590  15.013  0.00  0.00    -0.268 OA
ATOM     39  C21 ZIN A   1      18.219   3.206  13.014  0.00  0.00     0.104 A 
ENDBRANCH  25  31
ENDBRANCH  21  22
ENDBRANCH   1  21
TORSDOF 12
ENDMDL
MODEL 8
REMARK VINA RESULT:      -8.1      2.280      2.889
REMARK  12 active torsions:
REMARK  status: ('A' for Active; 'I' for Inactive)
REMARK    1  A    between atoms: C2_2  and  O4_4 
REMARK    2  A    between atoms: O4_4  and  C5_5 
REMARK    3  A    between atoms: C5_5  and  C7_7 
REMARK    4  A    between atoms: C7_7  and  N10_9 
REMARK    5  A    between atoms: N10_9  and  P11_10 
REMARK    6  A    between atoms: P11_10  and  O13_12 
REMARK    7  A    between atoms: P11_10  and  O34_30 
REMARK    8  A    between atoms: O13_12  and  C14_13 
REMARK    9  A    between atoms: C14_13  and  C15_14 
REMARK   10  A    between atoms: C18_16  and  N20_17 
REMARK   11  A    between atoms: C31_28  and  O33_29 
REMARK   12  A    between atoms: O34_30  and  C35_31 
ROOT
ATOM      1  O13 ZIN A   1      20.062   1.569  12.212  0.00  0.00    -0.299 OA
ENDROOT
BRANCH   1   2
ATOM      2  P11 ZIN A   1      18.779   1.668  13.179  0.00  0.00     0.413 P 
ATOM      3  O12 ZIN A   1      19.196   2.183  14.502  0.00  0.00    -0.239 OA
BRANCH   2   4
ATOM      4  N10 ZIN A   1      17.645   2.713  12.502  0.00  0.00    -0.213 NA
ATOM      5  H51 ZIN A   1      17.061   3.122  13.215  0.00  0.00     0.134 HD
BRANCH   4   6
ATOM      6  C7  ZIN A   1      18.302   3.753  11.700  0.00  0.00     0.162 C 
ATOM      7  C9  ZIN A   1      17.291   4.359  10.724  0.00  0.00     0.037 C 
BRANCH   6   8
ATOM      8  C5  ZIN A   1      18.830   4.832  12.610  0.00  0.00     0.277 C 
ATOM      9  O6  ZIN A   1      20.013   5.075  12.636  0.00  0.00    -0.263 OA
BRANCH   8  10
ATOM     10  O4  ZIN A   1      17.985   5.524  13.391  0.00  0.00    -0.316 OA
BRANCH  10  11
ATOM     11  C2  ZIN A   1      18.451   5.870  14.722  0.00  0.00     0.123 C 
ATOM     12  C1  ZIN A   1      18.253   7.369  14.956  0.00  0.00     0.040 C 
ATOM     13  C3  ZIN A   1      17.654   5.081  15.763  0.00  0.00     0.040 C 
ENDBRANCH  10  11
ENDBRANCH   8  10
ENDBRANCH   6   8
ENDBRANCH   4   6
ENDBRANCH   2   4
BRANCH   2  14
ATOM     14  O34 ZIN A   1      18.124   0.207  13.354  0.00  0.00    -0.260 OA
BRANCH  14  15
ATOM     15  C35 ZIN A   1      18.103  -0.238  14.638  0.00  0.00     0.080 A 
ATOM     16  C40 ZIN A   1      17.119   0.201  15.511  0.00  0.00     0.037 A 
ATOM     17  C39 ZIN A   1      17.097  -0.257  16.813  0.00  0.00     0.003 A 
ATOM     18  C38 ZIN A   1      18.061  -1.146  17.251  0.00  0.00     0.000 A 
ATOM     19  C37 ZIN A   1      19.048  -1.581  16.385  0.00  0.00     0.003 A 
ATOM     20  C36 ZIN A   1      19.071  -1.130  15.080  0.00  0.00     0.037 A 
ENDBRANCH  14  15
ENDBRANCH   2  14
ENDBRANCH   1   2
BRANCH   1  21
ATOM     21  C14 ZIN A   1      20.794   0.359  12.012  0.00  0.00     0.214 C 
BRANCH  21  22
ATOM     22  C15 ZIN A   1      20.562  -0.148  10.587  0.00  0.00     0.180 C 
ATOM     23  C31 ZIN A   1      19.469   0.691   9.889  0.00  0.00     0.193 C 
ATOM     24  C28 ZIN A   1      18.690  -0.341   9.040  0.00  0.00     0.172 C 
ATOM     25  C18 ZIN A   1      19.408  -1.680   9.324  0.00  0.00     0.274 C 
ATOM     26  C29 ZIN A   1      17.228  -0.411   9.486  0.00  0.00     0.059 C 
ATOM     27  F30 ZIN A   1      18.772  -0.021   7.680  0.00  0.00    -0.236 F 
ATOM     28  O17 ZIN A   1      20.039  -1.494  10.610  0.00  0.00    -0.353 OA
BRANCH  23  29
ATOM     29  O33 ZIN A   1      20.055   1.689   9.050  0.00  0.00    -0.389 OA
ATOM     30  H60 ZIN A   1      21.019   1.643   8.998  0.00  0.00     0.210 HD
ENDBRANCH  23  29
BRANCH  25  31
ATOM     31  N20 ZIN A   1      18.440  -2.777   9.385  0.00  0.00    -0.279 N 
ATOM     32  C26 ZIN A   1      18.063  -3.396   8.251  0.00  0.00     0.331 A 
ATOM     33  N25 ZIN A   1      17.178  -4.411   8.278  0.00  0.00    -0.275 N 
ATOM     34  O27 ZIN A   1      18.535  -3.040   7.189  0.00  0.00    -0.246 OA
ATOM     35  C23 ZIN A   1      16.646  -4.817   9.448  0.00  0.00     0.250 A 
ATOM     36  H56 ZIN A   1      16.921  -4.849   7.453  0.00  0.00     0.173 HD
ATOM     37  C22 ZIN A   1      17.031  -4.172  10.648  0.00  0.00     0.092 A 
ATOM     38  O24 ZIN A   1      15.843  -5.732   9.473  0.00  0.00    -0.268 OA
ATOM     39  C21 ZIN A   1      17.924  -3.159  10.593  0.00  0.00     0.104 A 
ENDBRANCH  25  31
ENDBRANCH  21  22
ENDBRANCH   1  21
TORSDOF 12
ENDMDL
MODEL 9
REMARK VINA RESULT:      -8.0      2.942      3.768
REMARK  12 active torsions:
REMARK  status: ('A' for Active; 'I' for Inactive)
REMARK    1  A    between atoms: C2_2  and  O4_4 
REMARK    2  A    between atoms: O4_4  and  C5_5 
REMARK    3  A    between atoms: C5_5  and  C7_7 
REMARK    4  A    between atoms: C7_7  and  N10_9 
REMARK    5  A    between atoms: N10_9  and  P11_10 
REMARK    6  A    between atoms: P11_10  and  O13_12 
REMARK    7  A    between atoms: P11_10  and  O34_30 
REMARK    8  A    between atoms: O13_12  and  C14_13 
REMARK    9  A    between atoms: C14_13  and  C15_14 
REMARK   10  A    between atoms: C18_16  and  N20_17 
REMARK   11  A    between atoms: C31_28  and  O33_29 
REMARK   12  A    between atoms: O34_30  and  C35_31 
ROOT
ATOM      1  O13 ZIN A   1      19.638  -0.976  11.186  0.00  0.00    -0.299 OA
ENDROOT
BRANCH   1   2
ATOM      2  P11 ZIN A   1      19.111  -0.079  12.414  0.00  0.00     0.413 P 
ATOM      3  O12 ZIN A   1      20.259   0.322  13.259  0.00  0.00    -0.239 OA
BRANCH   2   4
ATOM      4  N10 ZIN A   1      18.347   1.297  11.817  0.00  0.00    -0.213 NA
ATOM      5  H51 ZIN A   1      17.731   1.696  12.509  0.00  0.00     0.134 HD
BRANCH   4   6
ATOM      6  C7  ZIN A   1      19.330   2.285  11.353  0.00  0.00     0.162 C 
ATOM      7  C9  ZIN A   1      19.150   2.516   9.850  0.00  0.00     0.037 C 
BRANCH   6   8
ATOM      8  C5  ZIN A   1      19.122   3.584  12.088  0.00  0.00     0.277 C 
ATOM      9  O6  ZIN A   1      20.046   4.349  12.236  0.00  0.00    -0.263 OA
BRANCH   8  10
ATOM     10  O4  ZIN A   1      17.910   3.892  12.577  0.00  0.00    -0.316 OA
BRANCH  10  11
ATOM     11  C2  ZIN A   1      17.348   5.173  12.187  0.00  0.00     0.123 C 
ATOM     12  C1  ZIN A   1      16.674   5.037  10.820  0.00  0.00     0.040 C 
ATOM     13  C3  ZIN A   1      16.314   5.614  13.225  0.00  0.00     0.040 C 
ENDBRANCH  10  11
ENDBRANCH   8  10
ENDBRANCH   6   8
ENDBRANCH   4   6
ENDBRANCH   2   4
BRANCH   2  14
ATOM     14  O34 ZIN A   1      18.068  -0.933  13.295  0.00  0.00    -0.260 OA
BRANCH  14  15
ATOM     15  C35 ZIN A   1      18.205  -0.758  14.636  0.00  0.00     0.080 A 
ATOM     16  C40 ZIN A   1      18.975  -1.641  15.377  0.00  0.00     0.037 A 
ATOM     17  C39 ZIN A   1      19.117  -1.457  16.739  0.00  0.00     0.003 A 
ATOM     18  C38 ZIN A   1      18.483  -0.401  17.365  0.00  0.00     0.000 A 
ATOM     19  C37 ZIN A   1      17.709   0.478  16.629  0.00  0.00     0.003 A 
ATOM     20  C36 ZIN A   1      17.569   0.302  15.267  0.00  0.00     0.037 A 
ENDBRANCH  14  15
ENDBRANCH   2  14
ENDBRANCH   1   2
BRANCH   1  21
ATOM     21  C14 ZIN A   1      18.877  -1.190   9.995  0.00  0.00     0.214 C 
BRANCH  21  22
ATOM     22  C15 ZIN A   1      18.053  -2.471  10.138  0.00  0.00     0.180 C 
ATOM     23  C31 ZIN A   1      18.882  -3.567  10.843  0.00  0.00     0.193 C 
ATOM     24  C28 ZIN A   1      18.464  -4.872  10.125  0.00  0.00     0.172 C 
ATOM     25  C18 ZIN A   1      17.431  -4.408   9.075  0.00  0.00     0.274 C 
ATOM     26  C29 ZIN A   1      19.671  -5.520   9.442  0.00  0.00     0.059 C 
ATOM     27  F30 ZIN A   1      17.878  -5.764  11.030  0.00  0.00    -0.236 F 
ATOM     28  O17 ZIN A   1      17.744  -3.018   8.838  0.00  0.00    -0.353 OA
BRANCH  23  29
ATOM     29  O33 ZIN A   1      18.555  -3.634  12.233  0.00  0.00    -0.389 OA
ATOM     30  H60 ZIN A   1      18.547  -2.775  12.677  0.00  0.00     0.210 HD
ENDBRANCH  23  29
BRANCH  25  31
ATOM     31  N20 ZIN A   1      17.575  -5.181   7.839  0.00  0.00    -0.279 N 
ATOM     32  C26 ZIN A   1      16.943  -6.362   7.713  0.00  0.00     0.331 A 
ATOM     33  N25 ZIN A   1      17.055  -7.091   6.587  0.00  0.00    -0.275 N 
ATOM     34  O27 ZIN A   1      16.254  -6.773   8.628  0.00  0.00    -0.246 OA
ATOM     35  C23 ZIN A   1      17.815  -6.649   5.565  0.00  0.00     0.250 A 
ATOM     36  H56 ZIN A   1      16.589  -7.938   6.512  0.00  0.00     0.173 HD
ATOM     37  C22 ZIN A   1      18.489  -5.411   5.685  0.00  0.00     0.092 A 
ATOM     38  O24 ZIN A   1      17.920  -7.310   4.547  0.00  0.00    -0.268 OA
ATOM     39  C21 ZIN A   1      18.356  -4.697   6.825  0.00  0.00     0.104 A 
ENDBRANCH  25  31
ENDBRANCH  21  22
ENDBRANCH   1  21
TORSDOF 12
ENDMDL
