MODEL 1
REMARK VINA RESULT:      -8.8      0.000      0.000
REMARK  10 active torsions:
REMARK  status: ('A' for Active; 'I' for Inactive)
REMARK    1  A    between atoms: C2_2  and  C3_3 
REMARK    2  A    between atoms: N5_5  and  C6_6 
REMARK    3  A    between atoms: C6_6  and  C7_7 
REMARK    4  A    between atoms: C7_7  and  C8_8 
REMARK    5  A    between atoms: C8_8  and  N9_9 
REMARK    6  A    between atoms: N12_12  and  C13_13 
REMARK    7  A    between atoms: N24_24  and  C25_25 
REMARK    8  A    between atoms: C25_25  and  C26_26 
REMARK    9  A    between atoms: C26_26  and  O27_27 
REMARK   10  A    between atoms: O27_27  and  C28_28 
ROOT
ATOM      1  C3  ZIN A   1      18.264   0.192  15.129  0.00  0.00     0.130 A 
ATOM      2  N4  ZIN A   1      18.137   1.478  15.080  0.00  0.00    -0.154 NA
ATOM      3  N5  ZIN A   1      18.970   1.960  14.060  0.00  0.00    -0.218 N 
ATOM      4  C22 ZIN A   1      19.591   0.894  13.513  0.00  0.00     0.346 A 
ATOM      5  O23 ZIN A   1      20.393   0.920  12.596  0.00  0.00    -0.245 OA
ATOM      6  N24 ZIN A   1      19.165  -0.202  14.172  0.00  0.00    -0.282 N 
ENDROOT
BRANCH   3   7
ATOM      7  C6  ZIN A   1      19.134   3.360  13.662  0.00  0.00     0.158 C 
BRANCH   7   8
ATOM      8  C7  ZIN A   1      19.082   3.467  12.137  0.00  0.00     0.052 C 
BRANCH   8   9
ATOM      9  C8  ZIN A   1      17.671   3.127  11.650  0.00  0.00     0.274 C 
BRANCH   9  10
ATOM     10  N9  ZIN A   1      17.755   2.425  10.362  0.00  0.00     0.090 N 
ATOM     11  C21 ZIN A   1      19.079   2.606   9.749  0.00  0.00     0.287 C 
ATOM     12  C20 ZIN A   1      19.100   1.928   8.377  0.00  0.00     0.126 C 
ATOM     13  N12 ZIN A   1      18.785   0.502   8.533  0.00  0.00    -0.280 NA
ATOM     14  C11 ZIN A   1      17.462   0.320   9.147  0.00  0.00     0.126 C 
ATOM     15  C10 ZIN A   1      17.442   0.998  10.519  0.00  0.00     0.287 C 
BRANCH  13  16
ATOM     16  C13 ZIN A   1      18.866  -0.166   7.309  0.00  0.00     0.012 A 
ATOM     17  C19 ZIN A   1      19.190  -1.515   7.272  0.00  0.00     0.047 A 
ATOM     18  C17 ZIN A   1      19.263  -2.174   6.059  0.00  0.00     0.035 A 
ATOM     19  C16 ZIN A   1      19.025  -1.486   4.881  0.00  0.00     0.024 A 
ATOM     20 Cl18 ZIN A   1      19.660  -3.864   6.011  0.00  0.00    -0.084 Cl
ATOM     21  C15 ZIN A   1      18.708  -0.141   4.915  0.00  0.00     0.003 A 
ATOM     22  C14 ZIN A   1      18.627   0.521   6.125  0.00  0.00     0.024 A 
ENDBRANCH  13  16
ENDBRANCH   9  10
ENDBRANCH   8   9
ENDBRANCH   7   8
ENDBRANCH   3   7
BRANCH   1  23
ATOM     23  C2  ZIN A   1      17.544  -0.724  16.086  0.00  0.00     0.076 C 
ATOM     24  C1  ZIN A   1      18.024  -0.449  17.513  0.00  0.00     0.013 C 
ENDBRANCH   1  23
BRANCH   6  25
ATOM     25  C25 ZIN A   1      19.586  -1.580  13.905  0.00  0.00     0.162 C 
BRANCH  25  26
ATOM     26  C26 ZIN A   1      18.933  -2.072  12.612  0.00  0.00     0.196 C 
BRANCH  26  27
ATOM     27  O27 ZIN A   1      19.673  -3.180  12.096  0.00  0.00    -0.350 OA
BRANCH  27  28
ATOM     28  C28 ZIN A   1      18.975  -4.123  11.411  0.00  0.00     0.068 A 
ATOM     29  C33 ZIN A   1      19.531  -4.722  10.290  0.00  0.00     0.037 A 
ATOM     30  C32 ZIN A   1      18.822  -5.686   9.600  0.00  0.00     0.003 A 
ATOM     31  C31 ZIN A   1      17.555  -6.046  10.019  0.00  0.00     0.000 A 
ATOM     32  C30 ZIN A   1      16.996  -5.447  11.133  0.00  0.00     0.003 A 
ATOM     33  C29 ZIN A   1      17.703  -4.488  11.830  0.00  0.00     0.037 A 
ENDBRANCH  27  28
ENDBRANCH  26  27
ENDBRANCH  25  26
ENDBRANCH   6  25
TORSDOF 10
ENDMDL
MODEL 2
REMARK VINA RESULT:      -8.7      1.666      2.388
REMARK  10 active torsions:
REMARK  status: ('A' for Active; 'I' for Inactive)
REMARK    1  A    between atoms: C2_2  and  C3_3 
REMARK    2  A    between atoms: N5_5  and  C6_6 
REMARK    3  A    between atoms: C6_6  and  C7_7 
REMARK    4  A    between atoms: C7_7  and  C8_8 
REMARK    5  A    between atoms: C8_8  and  N9_9 
REMARK    6  A    between atoms: N12_12  and  C13_13 
REMARK    7  A    between atoms: N24_24  and  C25_25 
REMARK    8  A    between atoms: C25_25  and  C26_26 
REMARK    9  A    between atoms: C26_26  and  O27_27 
REMARK   10  A    between atoms: O27_27  and  C28_28 
ROOT
ATOM      1  C3  ZIN A   1      18.903   0.861  16.678  0.00  0.00     0.130 A 
ATOM      2  N4  ZIN A   1      18.909   2.154  16.677  0.00  0.00    -0.154 NA
ATOM      3  N5  ZIN A   1      18.322   2.592  15.482  0.00  0.00    -0.218 N 
ATOM      4  C22 ZIN A   1      17.970   1.494  14.782  0.00  0.00     0.346 A 
ATOM      5  O23 ZIN A   1      17.431   1.477  13.690  0.00  0.00    -0.245 OA
ATOM      6  N24 ZIN A   1      18.331   0.419  15.511  0.00  0.00    -0.282 N 
ENDROOT
BRANCH   3   7
ATOM      7  C6  ZIN A   1      18.125   3.985  15.070  0.00  0.00     0.158 C 
BRANCH   7   8
ATOM      8  C7  ZIN A   1      19.256   4.403  14.129  0.00  0.00     0.052 C 
BRANCH   8   9
ATOM      9  C8  ZIN A   1      18.669   4.816  12.778  0.00  0.00     0.274 C 
BRANCH   9  10
ATOM     10  N9  ZIN A   1      18.602   3.643  11.895  0.00  0.00     0.090 N 
ATOM     11  C21 ZIN A   1      18.133   4.020  10.554  0.00  0.00     0.287 C 
ATOM     12  C20 ZIN A   1      18.001   2.764   9.690  0.00  0.00     0.126 C 
ATOM     13  N12 ZIN A   1      19.300   2.083   9.619  0.00  0.00    -0.280 NA
ATOM     14  C11 ZIN A   1      19.770   1.706  10.960  0.00  0.00     0.126 C 
ATOM     15  C10 ZIN A   1      19.902   2.963  11.823  0.00  0.00     0.287 C 
BRANCH  13  16
ATOM     16  C13 ZIN A   1      19.236   0.969   8.779  0.00  0.00     0.012 A 
ATOM     17  C19 ZIN A   1      19.086   1.137   7.409  0.00  0.00     0.047 A 
ATOM     18  C17 ZIN A   1      19.028   0.032   6.580  0.00  0.00     0.035 A 
ATOM     19  C16 ZIN A   1      19.107  -1.241   7.117  0.00  0.00     0.024 A 
ATOM     20 Cl18 ZIN A   1      18.849   0.242   4.866  0.00  0.00    -0.084 Cl
ATOM     21  C15 ZIN A   1      19.251  -1.412   8.481  0.00  0.00     0.003 A 
ATOM     22  C14 ZIN A   1      19.316  -0.311   9.314  0.00  0.00     0.024 A 
ENDBRANCH  13  16
ENDBRANCH   9  10
ENDBRANCH   8   9
ENDBRANCH   7   8
ENDBRANCH   3   7
BRANCH   1  23
ATOM     23  C2  ZIN A   1      19.442  -0.018  17.778  0.00  0.00     0.076 C 
ATOM     24  C1  ZIN A   1      18.498   0.036  18.982  0.00  0.00     0.013 C 
ENDBRANCH   1  23
BRANCH   6  25
ATOM     25  C25 ZIN A   1      18.138  -0.982  15.127  0.00  0.00     0.162 C 
BRANCH  25  26
ATOM     26  C26 ZIN A   1      19.292  -1.430  14.230  0.00  0.00     0.196 C 
BRANCH  26  27
ATOM     27  O27 ZIN A   1      18.912  -1.292  12.859  0.00  0.00    -0.350 OA
BRANCH  27  28
ATOM     28  C28 ZIN A   1      18.848  -2.430  12.119  0.00  0.00     0.068 A 
ATOM     29  C33 ZIN A   1      20.001  -3.155  11.859  0.00  0.00     0.037 A 
ATOM     30  C32 ZIN A   1      19.932  -4.316  11.112  0.00  0.00     0.003 A 
ATOM     31  C31 ZIN A   1      18.717  -4.746  10.613  0.00  0.00     0.000 A 
ATOM     32  C30 ZIN A   1      17.567  -4.022  10.865  0.00  0.00     0.003 A 
ATOM     33  C29 ZIN A   1      17.629  -2.865  11.617  0.00  0.00     0.037 A 
ENDBRANCH  27  28
ENDBRANCH  26  27
ENDBRANCH  25  26
ENDBRANCH   6  25
TORSDOF 10
ENDMDL
MODEL 3
REMARK VINA RESULT:      -8.6      3.442      8.540
REMARK  10 active torsions:
REMARK  status: ('A' for Active; 'I' for Inactive)
REMARK    1  A    between atoms: C2_2  and  C3_3 
REMARK    2  A    between atoms: N5_5  and  C6_6 
REMARK    3  A    between atoms: C6_6  and  C7_7 
REMARK    4  A    between atoms: C7_7  and  C8_8 
REMARK    5  A    between atoms: C8_8  and  N9_9 
REMARK    6  A    between atoms: N12_12  and  C13_13 
REMARK    7  A    between atoms: N24_24  and  C25_25 
REMARK    8  A    between atoms: C25_25  and  C26_26 
REMARK    9  A    between atoms: C26_26  and  O27_27 
REMARK   10  A    between atoms: O27_27  and  C28_28 
ROOT
ATOM      1  C3  ZIN A   1      17.479  -3.741   4.628  0.00  0.00     0.130 A 
ATOM      2  N4  ZIN A   1      17.233  -4.909   5.126  0.00  0.00    -0.154 NA
ATOM      3  N5  ZIN A   1      18.203  -5.180   6.101  0.00  0.00    -0.218 N 
ATOM      4  C22 ZIN A   1      19.030  -4.115   6.151  0.00  0.00     0.346 A 
ATOM      5  O23 ZIN A   1      19.996  -3.986   6.882  0.00  0.00    -0.245 OA
ATOM      6  N24 ZIN A   1      18.593  -3.223   5.240  0.00  0.00    -0.282 N 
ENDROOT
BRANCH   3   7
ATOM      7  C6  ZIN A   1      18.300  -6.395   6.915  0.00  0.00     0.158 C 
BRANCH   7   8
ATOM      8  C7  ZIN A   1      17.199  -6.388   7.977  0.00  0.00     0.052 C 
BRANCH   8   9
ATOM      9  C8  ZIN A   1      17.833  -6.420   9.369  0.00  0.00     0.274 C 
BRANCH   9  10
ATOM     10  N9  ZIN A   1      18.100  -5.047   9.818  0.00  0.00     0.090 N 
ATOM     11  C21 ZIN A   1      17.172  -4.653  10.887  0.00  0.00     0.287 C 
ATOM     12  C20 ZIN A   1      17.430  -3.194  11.271  0.00  0.00     0.126 C 
ATOM     13  N12 ZIN A   1      18.825  -3.044  11.707  0.00  0.00    -0.280 NA
ATOM     14  C11 ZIN A   1      19.754  -3.439  10.637  0.00  0.00     0.126 C 
ATOM     15  C10 ZIN A   1      19.496  -4.897  10.254  0.00  0.00     0.287 C 
BRANCH  13  16
ATOM     16  C13 ZIN A   1      19.079  -1.739  12.134  0.00  0.00     0.012 A 
ATOM     17  C19 ZIN A   1      18.264  -1.149  13.091  0.00  0.00     0.047 A 
ATOM     18  C17 ZIN A   1      18.521   0.141  13.516  0.00  0.00     0.035 A 
ATOM     19  C16 ZIN A   1      19.582   0.849  12.978  0.00  0.00     0.024 A 
ATOM     20 Cl18 ZIN A   1      17.509   0.877  14.720  0.00  0.00    -0.084 Cl
ATOM     21  C15 ZIN A   1      20.390   0.267  12.020  0.00  0.00     0.003 A 
ATOM     22  C14 ZIN A   1      20.143  -1.025  11.596  0.00  0.00     0.024 A 
ENDBRANCH  13  16
ENDBRANCH   9  10
ENDBRANCH   8   9
ENDBRANCH   7   8
ENDBRANCH   3   7
BRANCH   1  23
ATOM     23  C2  ZIN A   1      16.676  -3.062   3.547  0.00  0.00     0.076 C 
ATOM     24  C1  ZIN A   1      16.011  -4.121   2.665  0.00  0.00     0.013 C 
ENDBRANCH   1  23
BRANCH   6  25
ATOM     25  C25 ZIN A   1      19.199  -1.919   4.958  0.00  0.00     0.162 C 
BRANCH  25  26
ATOM     26  C26 ZIN A   1      18.559  -0.854   5.850  0.00  0.00     0.196 C 
BRANCH  26  27
ATOM     27  O27 ZIN A   1      19.181  -0.874   7.136  0.00  0.00    -0.350 OA
BRANCH  27  28
ATOM     28  C28 ZIN A   1      18.776   0.064   8.032  0.00  0.00     0.068 A 
ATOM     29  C33 ZIN A   1      19.349   1.328   8.021  0.00  0.00     0.037 A 
ATOM     30  C32 ZIN A   1      18.930   2.282   8.928  0.00  0.00     0.003 A 
ATOM     31  C31 ZIN A   1      17.952   1.975   9.854  0.00  0.00     0.000 A 
ATOM     32  C30 ZIN A   1      17.384   0.714   9.872  0.00  0.00     0.003 A 
ATOM     33  C29 ZIN A   1      17.793  -0.241   8.962  0.00  0.00     0.037 A 
ENDBRANCH  27  28
ENDBRANCH  26  27
ENDBRANCH  25  26
ENDBRANCH   6  25
TORSDOF 10
ENDMDL
MODEL 4
REMARK VINA RESULT:      -8.5      3.026      7.388
REMARK  10 active torsions:
REMARK  status: ('A' for Active; 'I' for Inactive)
REMARK    1  A    between atoms: C2_2  and  C3_3 
REMARK    2  A    between atoms: N5_5  and  C6_6 
REMARK    3  A    between atoms: C6_6  and  C7_7 
REMARK    4  A    between atoms: C7_7  and  C8_8 
REMARK    5  A    between atoms: C8_8  and  N9_9 
REMARK    6  A    between atoms: N12_12  and  C13_13 
REMARK    7  A    between atoms: N24_24  and  C25_25 
REMARK    8  A    between atoms: C25_25  and  C26_26 
REMARK    9  A    between atoms: C26_26  and  O27_27 
REMARK   10  A    between atoms: O27_27  and  C28_28 
ROOT
ATOM      1  C3  ZIN A   1      18.567  -2.366   5.637  0.00  0.00     0.130 A 
ATOM      2  N4  ZIN A   1      17.962  -1.264   5.942  0.00  0.00    -0.154 NA
ATOM      3  N5  ZIN A   1      18.244  -0.968   7.282  0.00  0.00    -0.218 N 
ATOM      4  C22 ZIN A   1      19.044  -1.948   7.750  0.00  0.00     0.346 A 
ATOM      5  O23 ZIN A   1      19.498  -2.032   8.877  0.00  0.00    -0.245 OA
ATOM      6  N24 ZIN A   1      19.244  -2.820   6.742  0.00  0.00    -0.282 N 
ENDROOT
BRANCH   3   7
ATOM      7  C6  ZIN A   1      17.761   0.193   8.035  0.00  0.00     0.158 C 
BRANCH   7   8
ATOM      8  C7  ZIN A   1      18.908   1.184   8.239  0.00  0.00     0.052 C 
BRANCH   8   9
ATOM      9  C8  ZIN A   1      18.527   2.189   9.327  0.00  0.00     0.274 C 
BRANCH   9  10
ATOM     10  N9  ZIN A   1      18.459   1.503  10.625  0.00  0.00     0.090 N 
ATOM     11  C21 ZIN A   1      19.790   1.050  11.051  0.00  0.00     0.287 C 
ATOM     12  C20 ZIN A   1      19.666   0.273  12.364  0.00  0.00     0.126 C 
ATOM     13  N12 ZIN A   1      19.055   1.135  13.384  0.00  0.00    -0.280 NA
ATOM     14  C11 ZIN A   1      17.723   1.589  12.958  0.00  0.00     0.126 C 
ATOM     15  C10 ZIN A   1      17.848   2.366  11.646  0.00  0.00     0.287 C 
BRANCH  13  16
ATOM     16  C13 ZIN A   1      18.990   0.483  14.618  0.00  0.00     0.012 A 
ATOM     17  C19 ZIN A   1      19.098   1.210  15.796  0.00  0.00     0.047 A 
ATOM     18  C17 ZIN A   1      19.029   0.563  17.015  0.00  0.00     0.035 A 
ATOM     19  C16 ZIN A   1      18.864  -0.811  17.061  0.00  0.00     0.024 A 
ATOM     20 Cl18 ZIN A   1      19.155   1.471  18.489  0.00  0.00    -0.084 Cl
ATOM     21  C15 ZIN A   1      18.762  -1.538  15.890  0.00  0.00     0.003 A 
ATOM     22  C14 ZIN A   1      18.825  -0.895  14.669  0.00  0.00     0.024 A 
ENDBRANCH  13  16
ENDBRANCH   9  10
ENDBRANCH   8   9
ENDBRANCH   7   8
ENDBRANCH   3   7
BRANCH   1  23
ATOM     23  C2  ZIN A   1      18.529  -3.045   4.292  0.00  0.00     0.076 C 
ATOM     24  C1  ZIN A   1      17.076  -3.180   3.830  0.00  0.00     0.013 C 
ENDBRANCH   1  23
BRANCH   6  25
ATOM     25  C25 ZIN A   1      20.054  -4.040   6.810  0.00  0.00     0.162 C 
BRANCH  25  26
ATOM     26  C26 ZIN A   1      19.135  -5.259   6.899  0.00  0.00     0.196 C 
BRANCH  26  27
ATOM     27  O27 ZIN A   1      19.515  -6.062   8.017  0.00  0.00    -0.350 OA
BRANCH  27  28
ATOM     28  C28 ZIN A   1      18.992  -5.726   9.225  0.00  0.00     0.068 A 
ATOM     29  C33 ZIN A   1      17.710  -6.132   9.565  0.00  0.00     0.037 A 
ATOM     30  C32 ZIN A   1      17.183  -5.794  10.797  0.00  0.00     0.003 A 
ATOM     31  C31 ZIN A   1      17.928  -5.042  11.686  0.00  0.00     0.000 A 
ATOM     32  C30 ZIN A   1      19.204  -4.631  11.348  0.00  0.00     0.003 A 
ATOM     33  C29 ZIN A   1      19.738  -4.972  10.120  0.00  0.00     0.037 A 
ENDBRANCH  27  28
ENDBRANCH  26  27
ENDBRANCH  25  26
ENDBRANCH   6  25
TORSDOF 10
ENDMDL
MODEL 5
REMARK VINA RESULT:      -8.4      2.054      5.491
REMARK  10 active torsions:
REMARK  status: ('A' for Active; 'I' for Inactive)
REMARK    1  A    between atoms: C2_2  and  C3_3 
REMARK    2  A    between atoms: N5_5  and  C6_6 
REMARK    3  A    between atoms: C6_6  and  C7_7 
REMARK    4  A    between atoms: C7_7  and  C8_8 
REMARK    5  A    between atoms: C8_8  and  N9_9 
REMARK    6  A    between atoms: N12_12  and  C13_13 
REMARK    7  A    between atoms: N24_24  and  C25_25 
REMARK    8  A    between atoms: C25_25  and  C26_26 
REMARK    9  A    between atoms: C26_26  and  O27_27 
REMARK   10  A    between atoms: O27_27  and  C28_28 
ROOT
ATOM      1  C3  ZIN A   1      18.278   3.179  10.974  0.00  0.00     0.130 A 
ATOM      2  N4  ZIN A   1      18.291   2.921  12.241  0.00  0.00    -0.154 NA
ATOM      3  N5  ZIN A   1      19.080   1.780  12.445  0.00  0.00    -0.218 N 
ATOM      4  C22 ZIN A   1      19.529   1.381  11.237  0.00  0.00     0.346 A 
ATOM      5  O23 ZIN A   1      20.246   0.421  11.015  0.00  0.00    -0.245 OA
ATOM      6  N24 ZIN A   1      19.033   2.236  10.321  0.00  0.00    -0.282 N 
ENDROOT
BRANCH   3   7
ATOM      7  C6  ZIN A   1      19.365   1.140  13.733  0.00  0.00     0.158 C 
BRANCH   7   8
ATOM      8  C7  ZIN A   1      18.496  -0.110  13.884  0.00  0.00     0.052 C 
BRANCH   8   9
ATOM      9  C8  ZIN A   1      19.394  -1.342  14.015  0.00  0.00     0.274 C 
BRANCH   9  10
ATOM     10  N9  ZIN A   1      18.942  -2.379  13.077  0.00  0.00     0.090 N 
ATOM     11  C21 ZIN A   1      17.875  -1.869  12.205  0.00  0.00     0.287 C 
ATOM     12  C20 ZIN A   1      17.377  -2.998  11.299  0.00  0.00     0.126 C 
ATOM     13  N12 ZIN A   1      18.499  -3.516  10.505  0.00  0.00    -0.280 NA
ATOM     14  C11 ZIN A   1      19.567  -4.025  11.377  0.00  0.00     0.126 C 
ATOM     15  C10 ZIN A   1      20.064  -2.896  12.283  0.00  0.00     0.287 C 
BRANCH  13  16
ATOM     16  C13 ZIN A   1      18.069  -4.501   9.613  0.00  0.00     0.012 A 
ATOM     17  C19 ZIN A   1      16.712  -4.710   9.409  0.00  0.00     0.047 A 
ATOM     18  C17 ZIN A   1      16.289  -5.682   8.521  0.00  0.00     0.035 A 
ATOM     19  C16 ZIN A   1      17.218  -6.454   7.846  0.00  0.00     0.024 A 
ATOM     20 Cl18 ZIN A   1      14.592  -5.939   8.258  0.00  0.00    -0.084 Cl
ATOM     21  C15 ZIN A   1      18.570  -6.252   8.051  0.00  0.00     0.003 A 
ATOM     22  C14 ZIN A   1      18.998  -5.278   8.933  0.00  0.00     0.024 A 
ENDBRANCH  13  16
ENDBRANCH   9  10
ENDBRANCH   8   9
ENDBRANCH   7   8
ENDBRANCH   3   7
BRANCH   1  23
ATOM     23  C2  ZIN A   1      17.547   4.323  10.320  0.00  0.00     0.076 C 
ATOM     24  C1  ZIN A   1      16.648   5.009  11.351  0.00  0.00     0.013 C 
ENDBRANCH   1  23
BRANCH   6  25
ATOM     25  C25 ZIN A   1      19.268   2.176   8.876  0.00  0.00     0.162 C 
BRANCH  25  26
ATOM     26  C26 ZIN A   1      18.482   1.008   8.279  0.00  0.00     0.196 C 
BRANCH  26  27
ATOM     27  O27 ZIN A   1      19.379  -0.061   7.970  0.00  0.00    -0.350 OA
BRANCH  27  28
ATOM     28  C28 ZIN A   1      19.154  -0.742   6.816  0.00  0.00     0.068 A 
ATOM     29  C33 ZIN A   1      19.154  -2.129   6.816  0.00  0.00     0.037 A 
ATOM     30  C32 ZIN A   1      18.918  -2.819   5.642  0.00  0.00     0.003 A 
ATOM     31  C31 ZIN A   1      18.694  -2.127   4.466  0.00  0.00     0.000 A 
ATOM     32  C30 ZIN A   1      18.699  -0.745   4.462  0.00  0.00     0.003 A 
ATOM     33  C29 ZIN A   1      18.928  -0.051   5.634  0.00  0.00     0.037 A 
ENDBRANCH  27  28
ENDBRANCH  26  27
ENDBRANCH  25  26
ENDBRANCH   6  25
TORSDOF 10
ENDMDL
MODEL 6
REMARK VINA RESULT:      -8.4      3.358      7.446
REMARK  10 active torsions:
REMARK  status: ('A' for Active; 'I' for Inactive)
REMARK    1  A    between atoms: C2_2  and  C3_3 
REMARK    2  A    between atoms: N5_5  and  C6_6 
REMARK    3  A    between atoms: C6_6  and  C7_7 
REMARK    4  A    between atoms: C7_7  and  C8_8 
REMARK    5  A    between atoms: C8_8  and  N9_9 
REMARK    6  A    between atoms: N12_12  and  C13_13 
REMARK    7  A    between atoms: N24_24  and  C25_25 
REMARK    8  A    between atoms: C25_25  and  C26_26 
REMARK    9  A    between atoms: C26_26  and  O27_27 
REMARK   10  A    between atoms: O27_27  and  C28_28 
ROOT
ATOM      1  C3  ZIN A   1      18.115  -2.478  10.970  0.00  0.00     0.130 A 
ATOM      2  N4  ZIN A   1      18.135  -1.994   9.771  0.00  0.00    -0.154 NA
ATOM      3  N5  ZIN A   1      19.096  -0.975   9.728  0.00  0.00    -0.218 N 
ATOM      4  C22 ZIN A   1      19.640  -0.884  10.960  0.00  0.00     0.346 A 
ATOM      5  O23 ZIN A   1      20.513  -0.109  11.308  0.00  0.00    -0.245 OA
ATOM      6  N24 ZIN A   1      19.035  -1.806  11.736  0.00  0.00    -0.282 N 
ENDROOT
BRANCH   3   7
ATOM      7  C6  ZIN A   1      19.447  -0.160   8.562  0.00  0.00     0.158 C 
BRANCH   7   8
ATOM      8  C7  ZIN A   1      18.507   1.044   8.480  0.00  0.00     0.052 C 
BRANCH   8   9
ATOM      9  C8  ZIN A   1      19.245   2.301   8.947  0.00  0.00     0.274 C 
BRANCH   9  10
ATOM     10  N9  ZIN A   1      18.653   2.776  10.205  0.00  0.00     0.090 N 
ATOM     11  C21 ZIN A   1      19.691   3.015  11.217  0.00  0.00     0.287 C 
ATOM     12  C20 ZIN A   1      19.030   3.432  12.533  0.00  0.00     0.126 C 
ATOM     13  N12 ZIN A   1      18.226   4.641  12.313  0.00  0.00    -0.280 NA
ATOM     14  C11 ZIN A   1      17.188   4.403  11.300  0.00  0.00     0.126 C 
ATOM     15  C10 ZIN A   1      17.849   3.987   9.984  0.00  0.00     0.287 C 
BRANCH  13  16
ATOM     16  C13 ZIN A   1      17.664   5.094  13.509  0.00  0.00     0.012 A 
ATOM     17  C19 ZIN A   1      16.314   5.411  13.567  0.00  0.00     0.047 A 
ATOM     18  C17 ZIN A   1      15.759   5.854  14.754  0.00  0.00     0.035 A 
ATOM     19  C16 ZIN A   1      16.553   5.992  15.879  0.00  0.00     0.024 A 
ATOM     20 Cl18 ZIN A   1      14.069   6.243  14.830  0.00  0.00    -0.084 Cl
ATOM     21  C15 ZIN A   1      17.899   5.682  15.823  0.00  0.00     0.003 A 
ATOM     22  C14 ZIN A   1      18.457   5.234  14.641  0.00  0.00     0.024 A 
ENDBRANCH  13  16
ENDBRANCH   9  10
ENDBRANCH   8   9
ENDBRANCH   7   8
ENDBRANCH   3   7
BRANCH   1  23
ATOM     23  C2  ZIN A   1      17.222  -3.594  11.450  0.00  0.00     0.076 C 
ATOM     24  C1  ZIN A   1      17.961  -4.928  11.328  0.00  0.00     0.013 C 
ENDBRANCH   1  23
BRANCH   6  25
ATOM     25  C25 ZIN A   1      19.317  -2.054  13.152  0.00  0.00     0.162 C 
BRANCH  25  26
ATOM     26  C26 ZIN A   1      18.594  -1.013  14.007  0.00  0.00     0.196 C 
BRANCH  26  27
ATOM     27  O27 ZIN A   1      18.805  -1.302  15.391  0.00  0.00    -0.350 OA
BRANCH  27  28
ATOM     28  C28 ZIN A   1      18.910  -0.242  16.234  0.00  0.00     0.068 A 
ATOM     29  C33 ZIN A   1      18.925  -0.445  17.607  0.00  0.00     0.037 A 
ATOM     30  C32 ZIN A   1      19.039   0.634  18.462  0.00  0.00     0.003 A 
ATOM     31  C31 ZIN A   1      19.124   1.916  17.952  0.00  0.00     0.000 A 
ATOM     32  C30 ZIN A   1      19.103   2.122  16.585  0.00  0.00     0.003 A 
ATOM     33  C29 ZIN A   1      18.997   1.046  15.725  0.00  0.00     0.037 A 
ENDBRANCH  27  28
ENDBRANCH  26  27
ENDBRANCH  25  26
ENDBRANCH   6  25
TORSDOF 10
ENDMDL
MODEL 7
REMARK VINA RESULT:      -8.3      3.315      7.586
REMARK  10 active torsions:
REMARK  status: ('A' for Active; 'I' for Inactive)
REMARK    1  A    between atoms: C2_2  and  C3_3 
REMARK    2  A    between atoms: N5_5  and  C6_6 
REMARK    3  A    between atoms: C6_6  and  C7_7 
REMARK    4  A    between atoms: C7_7  and  C8_8 
REMARK    5  A    between atoms: C8_8  and  N9_9 
REMARK    6  A    between atoms: N12_12  and  C13_13 
REMARK    7  A    between atoms: N24_24  and  C25_25 
REMARK    8  A    between atoms: C25_25  and  C26_26 
REMARK    9  A    between atoms: C26_26  and  O27_27 
REMARK   10  A    between atoms: O27_27  and  C28_28 
ROOT
ATOM      1  C3  ZIN A   1      17.377  -3.429   4.460  0.00  0.00     0.130 A 
ATOM      2  N4  ZIN A   1      17.495  -2.144   4.376  0.00  0.00    -0.154 NA
ATOM      3  N5  ZIN A   1      18.561  -1.749   5.196  0.00  0.00    -0.218 N 
ATOM      4  C22 ZIN A   1      19.062  -2.865   5.767  0.00  0.00     0.346 A 
ATOM      5  O23 ZIN A   1      19.999  -2.919   6.544  0.00  0.00    -0.245 OA
ATOM      6  N24 ZIN A   1      18.332  -3.907   5.322  0.00  0.00    -0.282 N 
ENDROOT
BRANCH   3   7
ATOM      7  C6  ZIN A   1      19.042  -0.380   5.397  0.00  0.00     0.158 C 
BRANCH   7   8
ATOM      8  C7  ZIN A   1      18.363   0.224   6.628  0.00  0.00     0.052 C 
BRANCH   8   9
ATOM      9  C8  ZIN A   1      19.246   1.333   7.205  0.00  0.00     0.274 C 
BRANCH   9  10
ATOM     10  N9  ZIN A   1      19.384   1.144   8.655  0.00  0.00     0.090 N 
ATOM     11  C21 ZIN A   1      18.159   1.553   9.358  0.00  0.00     0.287 C 
ATOM     12  C20 ZIN A   1      18.370   1.416  10.868  0.00  0.00     0.126 C 
ATOM     13  N12 ZIN A   1      18.717   0.025  11.187  0.00  0.00    -0.280 NA
ATOM     14  C11 ZIN A   1      19.941  -0.385  10.484  0.00  0.00     0.126 C 
ATOM     15  C10 ZIN A   1      19.729  -0.248   8.974  0.00  0.00     0.287 C 
BRANCH  13  16
ATOM     16  C13 ZIN A   1      18.847  -0.155  12.565  0.00  0.00     0.012 A 
ATOM     17  C19 ZIN A   1      18.975   0.945  13.402  0.00  0.00     0.047 A 
ATOM     18  C17 ZIN A   1      19.098   0.764  14.767  0.00  0.00     0.035 A 
ATOM     19  C16 ZIN A   1      19.107  -0.514  15.298  0.00  0.00     0.024 A 
ATOM     20 Cl18 ZIN A   1      19.249   2.140  15.815  0.00  0.00    -0.084 Cl
ATOM     21  C15 ZIN A   1      18.986  -1.612  14.467  0.00  0.00     0.003 A 
ATOM     22  C14 ZIN A   1      18.856  -1.437  13.102  0.00  0.00     0.024 A 
ENDBRANCH  13  16
ENDBRANCH   9  10
ENDBRANCH   8   9
ENDBRANCH   7   8
ENDBRANCH   3   7
BRANCH   1  23
ATOM     23  C2  ZIN A   1      16.351  -4.264   3.737  0.00  0.00     0.076 C 
ATOM     24  C1  ZIN A   1      16.330  -3.876   2.257  0.00  0.00     0.013 C 
ENDBRANCH   1  23
BRANCH   6  25
ATOM     25  C25 ZIN A   1      18.531  -5.312   5.688  0.00  0.00     0.162 C 
BRANCH  25  26
ATOM     26  C26 ZIN A   1      17.608  -5.671   6.854  0.00  0.00     0.196 C 
BRANCH  26  27
ATOM     27  O27 ZIN A   1      18.352  -6.375   7.851  0.00  0.00    -0.350 OA
BRANCH  27  28
ATOM     28  C28 ZIN A   1      18.419  -5.810   9.085  0.00  0.00     0.068 A 
ATOM     29  C33 ZIN A   1      19.510  -5.028   9.433  0.00  0.00     0.037 A 
ATOM     30  C32 ZIN A   1      19.572  -4.449  10.686  0.00  0.00     0.003 A 
ATOM     31  C31 ZIN A   1      18.553  -4.659  11.597  0.00  0.00     0.000 A 
ATOM     32  C30 ZIN A   1      17.467  -5.443  11.255  0.00  0.00     0.003 A 
ATOM     33  C29 ZIN A   1      17.397  -6.018  10.001  0.00  0.00     0.037 A 
ENDBRANCH  27  28
ENDBRANCH  26  27
ENDBRANCH  25  26
ENDBRANCH   6  25
TORSDOF 10
ENDMDL
MODEL 8
REMARK VINA RESULT:      -8.2      3.574      7.514
REMARK  10 active torsions:
REMARK  status: ('A' for Active; 'I' for Inactive)
REMARK    1  A    between atoms: C2_2  and  C3_3 
REMARK    2  A    between atoms: N5_5  and  C6_6 
REMARK    3  A    between atoms: C6_6  and  C7_7 
REMARK    4  A    between atoms: C7_7  and  C8_8 
REMARK    5  A    between atoms: C8_8  and  N9_9 
REMARK    6  A    between atoms: N12_12  and  C13_13 
REMARK    7  A    between atoms: N24_24  and  C25_25 
REMARK    8  A    between atoms: C25_25  and  C26_26 
REMARK    9  A    between atoms: C26_26  and  O27_27 
REMARK   10  A    between atoms: O27_27  and  C28_28 
ROOT
ATOM      1  C3  ZIN A   1      17.190  -6.402   8.346  0.00  0.00     0.130 A 
ATOM      2  N4  ZIN A   1      16.968  -6.250   9.611  0.00  0.00    -0.154 NA
ATOM      3  N5  ZIN A   1      18.013  -5.486  10.148  0.00  0.00    -0.218 N 
ATOM      4  C22 ZIN A   1      18.860  -5.197   9.138  0.00  0.00     0.346 A 
ATOM      5  O23 ZIN A   1      19.887  -4.548   9.221  0.00  0.00    -0.245 OA
ATOM      6  N24 ZIN A   1      18.362  -5.765   8.021  0.00  0.00    -0.282 N 
ENDROOT
BRANCH   3   7
ATOM      7  C6  ZIN A   1      18.159  -5.076  11.547  0.00  0.00     0.158 C 
BRANCH   7   8
ATOM      8  C7  ZIN A   1      17.695  -3.627  11.706  0.00  0.00     0.052 C 
BRANCH   8   9
ATOM      9  C8  ZIN A   1      18.885  -2.751  12.104  0.00  0.00     0.274 C 
BRANCH   9  10
ATOM     10  N9  ZIN A   1      18.654  -1.375  11.645  0.00  0.00     0.090 N 
ATOM     11  C21 ZIN A   1      17.299  -0.925  11.992  0.00  0.00     0.287 C 
ATOM     12  C20 ZIN A   1      17.070   0.480  11.429  0.00  0.00     0.126 C 
ATOM     13  N12 ZIN A   1      18.081   1.394  11.976  0.00  0.00    -0.280 NA
ATOM     14  C11 ZIN A   1      19.437   0.944  11.630  0.00  0.00     0.126 C 
ATOM     15  C10 ZIN A   1      19.665  -0.460  12.194  0.00  0.00     0.287 C 
BRANCH  13  16
ATOM     16  C13 ZIN A   1      17.861   2.703  11.541  0.00  0.00     0.012 A 
ATOM     17  C19 ZIN A   1      17.397   3.663  12.429  0.00  0.00     0.047 A 
ATOM     18  C17 ZIN A   1      17.185   4.959  11.996  0.00  0.00     0.035 A 
ATOM     19  C16 ZIN A   1      17.424   5.295  10.674  0.00  0.00     0.024 A 
ATOM     20 Cl18 ZIN A   1      16.613   6.164  13.108  0.00  0.00    -0.084 Cl
ATOM     21  C15 ZIN A   1      17.881   4.339   9.787  0.00  0.00     0.003 A 
ATOM     22  C14 ZIN A   1      18.100   3.044  10.215  0.00  0.00     0.024 A 
ENDBRANCH  13  16
ENDBRANCH   9  10
ENDBRANCH   8   9
ENDBRANCH   7   8
ENDBRANCH   3   7
BRANCH   1  23
ATOM     23  C2  ZIN A   1      16.310  -7.162   7.386  0.00  0.00     0.076 C 
ATOM     24  C1  ZIN A   1      14.843  -6.835   7.672  0.00  0.00     0.013 C 
ENDBRANCH   1  23
BRANCH   6  25
ATOM     25  C25 ZIN A   1      18.964  -5.704   6.686  0.00  0.00     0.162 C 
BRANCH  25  26
ATOM     26  C26 ZIN A   1      18.522  -4.419   5.985  0.00  0.00     0.196 C 
BRANCH  26  27
ATOM     27  O27 ZIN A   1      19.626  -3.515   5.906  0.00  0.00    -0.350 OA
BRANCH  27  28
ATOM     28  C28 ZIN A   1      19.343  -2.188   5.965  0.00  0.00     0.068 A 
ATOM     29  C33 ZIN A   1      19.087  -1.585   7.188  0.00  0.00     0.037 A 
ATOM     30  C32 ZIN A   1      18.807  -0.234   7.245  0.00  0.00     0.003 A 
ATOM     31  C31 ZIN A   1      18.768   0.515   6.084  0.00  0.00     0.000 A 
ATOM     32  C30 ZIN A   1      19.017  -0.083   4.863  0.00  0.00     0.003 A 
ATOM     33  C29 ZIN A   1      19.305  -1.433   4.801  0.00  0.00     0.037 A 
ENDBRANCH  27  28
ENDBRANCH  26  27
ENDBRANCH  25  26
ENDBRANCH   6  25
TORSDOF 10
ENDMDL
MODEL 9
REMARK VINA RESULT:      -8.1      3.428      7.415
REMARK  10 active torsions:
REMARK  status: ('A' for Active; 'I' for Inactive)
REMARK    1  A    between atoms: C2_2  and  C3_3 
REMARK    2  A    between atoms: N5_5  and  C6_6 
REMARK    3  A    between atoms: C6_6  and  C7_7 
REMARK    4  A    between atoms: C7_7  and  C8_8 
REMARK    5  A    between atoms: C8_8  and  N9_9 
REMARK    6  A    between atoms: N12_12  and  C13_13 
REMARK    7  A    between atoms: N24_24  and  C25_25 
REMARK    8  A    between atoms: C25_25  and  C26_26 
REMARK    9  A    between atoms: C26_26  and  O27_27 
REMARK   10  A    between atoms: O27_27  and  C28_28 
ROOT
ATOM      1  C3  ZIN A   1      16.466  -6.316   5.907  0.00  0.00     0.130 A 
ATOM      2  N4  ZIN A   1      16.504  -5.510   4.897  0.00  0.00    -0.154 NA
ATOM      3  N5  ZIN A   1      17.707  -4.793   4.956  0.00  0.00    -0.218 N 
ATOM      4  C22 ZIN A   1      18.373  -5.216   6.051  0.00  0.00     0.346 A 
ATOM      5  O23 ZIN A   1      19.461  -4.820   6.431  0.00  0.00    -0.245 OA
ATOM      6  N24 ZIN A   1      17.611  -6.154   6.648  0.00  0.00    -0.282 N 
ENDROOT
BRANCH   3   7
ATOM      7  C6  ZIN A   1      18.157  -3.772   4.006  0.00  0.00     0.158 C 
BRANCH   7   8
ATOM      8  C7  ZIN A   1      17.891  -2.381   4.586  0.00  0.00     0.052 C 
BRANCH   8   9
ATOM      9  C8  ZIN A   1      19.208  -1.608   4.681  0.00  0.00     0.274 C 
BRANCH   9  10
ATOM     10  N9  ZIN A   1      19.251  -0.870   5.951  0.00  0.00     0.090 N 
ATOM     11  C21 ZIN A   1      18.773   0.509   5.775  0.00  0.00     0.287 C 
ATOM     12  C20 ZIN A   1      18.908   1.265   7.099  0.00  0.00     0.126 C 
ATOM     13  N12 ZIN A   1      18.135   0.571   8.137  0.00  0.00    -0.280 NA
ATOM     14  C11 ZIN A   1      18.612  -0.808   8.313  0.00  0.00     0.126 C 
ATOM     15  C10 ZIN A   1      18.477  -1.564   6.990  0.00  0.00     0.287 C 
BRANCH  13  16
ATOM     16  C13 ZIN A   1      18.175   1.273   9.344  0.00  0.00     0.012 A 
ATOM     17  C19 ZIN A   1      17.750   0.665  10.518  0.00  0.00     0.047 A 
ATOM     18  C17 ZIN A   1      17.797   1.360  11.712  0.00  0.00     0.035 A 
ATOM     19  C16 ZIN A   1      18.255   2.666  11.735  0.00  0.00     0.024 A 
ATOM     20 Cl18 ZIN A   1      17.274   0.598  13.181  0.00  0.00    -0.084 Cl
ATOM     21  C15 ZIN A   1      18.673   3.276  10.568  0.00  0.00     0.003 A 
ATOM     22  C14 ZIN A   1      18.635   2.584   9.372  0.00  0.00     0.024 A 
ENDBRANCH  13  16
ENDBRANCH   9  10
ENDBRANCH   8   9
ENDBRANCH   7   8
ENDBRANCH   3   7
BRANCH   1  23
ATOM     23  C2  ZIN A   1      15.345  -7.273   6.224  0.00  0.00     0.076 C 
ATOM     24  C1  ZIN A   1      14.021  -6.507   6.278  0.00  0.00     0.013 C 
ENDBRANCH   1  23
BRANCH   6  25
ATOM     25  C25 ZIN A   1      17.950  -6.882   7.873  0.00  0.00     0.162 C 
BRANCH  25  26
ATOM     26  C26 ZIN A   1      17.551  -6.048   9.091  0.00  0.00     0.196 C 
BRANCH  26  27
ATOM     27  O27 ZIN A   1      18.682  -5.886   9.949  0.00  0.00    -0.350 OA
BRANCH  27  28
ATOM     28  C28 ZIN A   1      18.739  -4.747  10.687  0.00  0.00     0.068 A 
ATOM     29  C33 ZIN A   1      19.965  -4.258  11.116  0.00  0.00     0.037 A 
ATOM     30  C32 ZIN A   1      20.021  -3.095  11.859  0.00  0.00     0.003 A 
ATOM     31  C31 ZIN A   1      18.856  -2.426  12.187  0.00  0.00     0.000 A 
ATOM     32  C30 ZIN A   1      17.633  -2.914  11.767  0.00  0.00     0.003 A 
ATOM     33  C29 ZIN A   1      17.572  -4.072  11.017  0.00  0.00     0.037 A 
ENDBRANCH  27  28
ENDBRANCH  26  27
ENDBRANCH  25  26
ENDBRANCH   6  25
TORSDOF 10
ENDMDL
