MODEL 1
REMARK VINA RESULT:      -5.5      0.000      0.000
REMARK  2 active torsions:
REMARK  status: ('A' for Active; 'I' for Inactive)
REMARK    1  A    between atoms: C5_5  and  C6_6 
REMARK    2  A    between atoms: C9_9  and  O10_10 
ROOT
ATOM      1  C1  ZIN A   1      18.718  -0.542   7.283  0.00  0.00     0.048 C 
ATOM      2  C2  ZIN A   1      18.485   0.500   8.346  0.00  0.00    -0.059 A 
ATOM      3  C3  ZIN A   1      19.071   1.747   8.232  0.00  0.00     0.007 A 
ATOM      4  C4  ZIN A   1      18.859   2.705   9.206  0.00  0.00     0.011 A 
ATOM      5  C5  ZIN A   1      18.059   2.420  10.295  0.00  0.00    -0.022 A 
ATOM      6  C9  ZIN A   1      17.470   1.170  10.413  0.00  0.00     0.072 A 
ATOM      7  C11 ZIN A   1      17.680   0.212   9.432  0.00  0.00     0.043 A 
ENDROOT
BRANCH   5   8
ATOM      8  C6  ZIN A   1      17.829   3.466  11.356  0.00  0.00     0.013 C 
ATOM      9  C7  ZIN A   1      19.175   3.959  11.887  0.00  0.00     0.015 C 
ATOM     10  C8  ZIN A   1      17.056   4.641  10.752  0.00  0.00     0.015 C 
ENDBRANCH   5   8
BRANCH   6  11
ATOM     11  O10 ZIN A   1      16.683   0.886  11.483  0.00  0.00    -0.360 OA
ATOM     12  H24 ZIN A   1      16.799  -0.010  11.830  0.00  0.00     0.217 HD
ENDBRANCH   6  11
TORSDOF 2
ENDMDL
MODEL 2
REMARK VINA RESULT:      -5.3      3.541      4.735
REMARK  2 active torsions:
REMARK  status: ('A' for Active; 'I' for Inactive)
REMARK    1  A    between atoms: C5_5  and  C6_6 
REMARK    2  A    between atoms: C9_9  and  O10_10 
ROOT
ATOM      1  C1  ZIN A   1      18.427  -1.263  15.414  0.00  0.00     0.048 C 
ATOM      2  C2  ZIN A   1      18.804  -0.213  14.400  0.00  0.00    -0.059 A 
ATOM      3  C3  ZIN A   1      17.930   0.820  14.119  0.00  0.00     0.007 A 
ATOM      4  C4  ZIN A   1      18.272   1.785  13.188  0.00  0.00     0.011 A 
ATOM      5  C5  ZIN A   1      19.489   1.718  12.539  0.00  0.00    -0.022 A 
ATOM      6  C9  ZIN A   1      20.368   0.682  12.819  0.00  0.00     0.072 A 
ATOM      7  C11 ZIN A   1      20.025  -0.281  13.756  0.00  0.00     0.043 A 
ENDROOT
BRANCH   5   8
ATOM      8  C6  ZIN A   1      19.861   2.770  11.526  0.00  0.00     0.013 C 
ATOM      9  C7  ZIN A   1      18.971   2.627  10.290  0.00  0.00     0.015 C 
ATOM     10  C8  ZIN A   1      19.665   4.159  12.138  0.00  0.00     0.015 C 
ENDBRANCH   5   8
BRANCH   6  11
ATOM     11  O10 ZIN A   1      21.566   0.614  12.181  0.00  0.00    -0.360 OA
ATOM     12  H24 ZIN A   1      22.308   0.951  12.702  0.00  0.00     0.217 HD
ENDBRANCH   6  11
TORSDOF 2
ENDMDL
MODEL 3
REMARK VINA RESULT:      -5.1      3.277      4.722
REMARK  2 active torsions:
REMARK  status: ('A' for Active; 'I' for Inactive)
REMARK    1  A    between atoms: C5_5  and  C6_6 
REMARK    2  A    between atoms: C9_9  and  O10_10 
ROOT
ATOM      1  C1  ZIN A   1      18.125   3.625  10.401  0.00  0.00     0.048 C 
ATOM      2  C2  ZIN A   1      18.508   2.382  11.163  0.00  0.00    -0.059 A 
ATOM      3  C3  ZIN A   1      17.526   1.556  11.674  0.00  0.00     0.007 A 
ATOM      4  C4  ZIN A   1      17.874   0.414  12.374  0.00  0.00     0.011 A 
ATOM      5  C5  ZIN A   1      19.205   0.097  12.562  0.00  0.00    -0.022 A 
ATOM      6  C9  ZIN A   1      20.193   0.925  12.049  0.00  0.00     0.072 A 
ATOM      7  C11 ZIN A   1      19.841   2.066  11.344  0.00  0.00     0.043 A 
ENDROOT
BRANCH   5   8
ATOM      8  C6  ZIN A   1      19.583  -1.147  13.324  0.00  0.00     0.013 C 
ATOM      9  C7  ZIN A   1      19.007  -1.074  14.739  0.00  0.00     0.015 C 
ATOM     10  C8  ZIN A   1      19.018  -2.375  12.607  0.00  0.00     0.015 C 
ENDBRANCH   5   8
BRANCH   6  11
ATOM     11  O10 ZIN A   1      21.503   0.615  12.233  0.00  0.00    -0.360 OA
ATOM     12  H24 ZIN A   1      22.106   1.359  12.096  0.00  0.00     0.217 HD
ENDBRANCH   6  11
TORSDOF 2
ENDMDL
MODEL 4
REMARK VINA RESULT:      -5.1      2.519      3.684
REMARK  2 active torsions:
REMARK  status: ('A' for Active; 'I' for Inactive)
REMARK    1  A    between atoms: C5_5  and  C6_6 
REMARK    2  A    between atoms: C9_9  and  O10_10 
ROOT
ATOM      1  C1  ZIN A   1      17.656  -3.046  11.900  0.00  0.00     0.048 C 
ATOM      2  C2  ZIN A   1      18.101  -1.775  11.222  0.00  0.00    -0.059 A 
ATOM      3  C3  ZIN A   1      17.183  -0.777  10.956  0.00  0.00     0.007 A 
ATOM      4  C4  ZIN A   1      17.588   0.390  10.333  0.00  0.00     0.011 A 
ATOM      5  C5  ZIN A   1      18.911   0.561   9.977  0.00  0.00    -0.022 A 
ATOM      6  C9  ZIN A   1      19.835  -0.440  10.243  0.00  0.00     0.072 A 
ATOM      7  C11 ZIN A   1      19.427  -1.607  10.872  0.00  0.00     0.043 A 
ENDROOT
BRANCH   5   8
ATOM      8  C6  ZIN A   1      19.351   1.833   9.299  0.00  0.00     0.013 C 
ATOM      9  C7  ZIN A   1      19.149   1.703   7.789  0.00  0.00     0.015 C 
ATOM     10  C8  ZIN A   1      18.521   3.004   9.827  0.00  0.00     0.015 C 
ENDBRANCH   5   8
BRANCH   6  11
ATOM     11  O10 ZIN A   1      21.137  -0.274   9.894  0.00  0.00    -0.360 OA
ATOM     12  H24 ZIN A   1      21.263   0.150   9.034  0.00  0.00     0.217 HD
ENDBRANCH   6  11
TORSDOF 2
ENDMDL
MODEL 5
REMARK VINA RESULT:      -5.1      3.326      4.712
REMARK  2 active torsions:
REMARK  status: ('A' for Active; 'I' for Inactive)
REMARK    1  A    between atoms: C5_5  and  C6_6 
REMARK    2  A    between atoms: C9_9  and  O10_10 
ROOT
ATOM      1  C1  ZIN A   1      18.215  -0.791  15.367  0.00  0.00     0.048 C 
ATOM      2  C2  ZIN A   1      18.589  -0.237  14.016  0.00  0.00    -0.059 A 
ATOM      3  C3  ZIN A   1      17.602   0.085  13.104  0.00  0.00     0.007 A 
ATOM      4  C4  ZIN A   1      17.942   0.593  11.863  0.00  0.00     0.011 A 
ATOM      5  C5  ZIN A   1      19.270   0.782  11.534  0.00  0.00    -0.022 A 
ATOM      6  C9  ZIN A   1      20.263   0.459  12.447  0.00  0.00     0.072 A 
ATOM      7  C11 ZIN A   1      19.919  -0.045  13.693  0.00  0.00     0.043 A 
ENDROOT
BRANCH   5   8
ATOM      8  C6  ZIN A   1      19.640   1.336  10.182  0.00  0.00     0.013 C 
ATOM      9  C7  ZIN A   1      19.548   0.226   9.133  0.00  0.00     0.015 C 
ATOM     10  C8  ZIN A   1      18.677   2.466   9.814  0.00  0.00     0.015 C 
ENDBRANCH   5   8
BRANCH   6  11
ATOM     11  O10 ZIN A   1      21.570   0.644  12.125  0.00  0.00    -0.360 OA
ATOM     12  H24 ZIN A   1      21.771   1.527  11.787  0.00  0.00     0.217 HD
ENDBRANCH   6  11
TORSDOF 2
ENDMDL
MODEL 6
REMARK VINA RESULT:      -5.0      3.390      4.813
REMARK  2 active torsions:
REMARK  status: ('A' for Active; 'I' for Inactive)
REMARK    1  A    between atoms: C5_5  and  C6_6 
REMARK    2  A    between atoms: C9_9  and  O10_10 
ROOT
ATOM      1  C1  ZIN A   1      18.448   0.905   7.291  0.00  0.00     0.048 C 
ATOM      2  C2  ZIN A   1      18.786   0.018   8.462  0.00  0.00    -0.059 A 
ATOM      3  C3  ZIN A   1      17.882  -0.936   8.888  0.00  0.00     0.007 A 
ATOM      4  C4  ZIN A   1      18.188  -1.752   9.963  0.00  0.00     0.011 A 
ATOM      5  C5  ZIN A   1      19.400  -1.616  10.611  0.00  0.00    -0.022 A 
ATOM      6  C9  ZIN A   1      20.310  -0.658  10.185  0.00  0.00     0.072 A 
ATOM      7  C11 ZIN A   1      20.002   0.155   9.104  0.00  0.00     0.043 A 
ENDROOT
BRANCH   5   8
ATOM      8  C6  ZIN A   1      19.734  -2.505  11.781  0.00  0.00     0.013 C 
ATOM      9  C7  ZIN A   1      18.690  -2.313  12.882  0.00  0.00     0.015 C 
ATOM     10  C8  ZIN A   1      19.732  -3.966  11.326  0.00  0.00     0.015 C 
ENDBRANCH   5   8
BRANCH   6  11
ATOM     11  O10 ZIN A   1      21.502  -0.522  10.821  0.00  0.00    -0.360 OA
ATOM     12  H24 ZIN A   1      22.244  -0.330  10.229  0.00  0.00     0.217 HD
ENDBRANCH   6  11
TORSDOF 2
ENDMDL
MODEL 7
REMARK VINA RESULT:      -5.0      2.281      3.144
REMARK  2 active torsions:
REMARK  status: ('A' for Active; 'I' for Inactive)
REMARK    1  A    between atoms: C5_5  and  C6_6 
REMARK    2  A    between atoms: C9_9  and  O10_10 
ROOT
ATOM      1  C1  ZIN A   1      18.531   0.744   5.810  0.00  0.00     0.048 C 
ATOM      2  C2  ZIN A   1      18.436   0.710   7.314  0.00  0.00    -0.059 A 
ATOM      3  C3  ZIN A   1      17.605  -0.204   7.933  0.00  0.00     0.007 A 
ATOM      4  C4  ZIN A   1      17.515  -0.238   9.313  0.00  0.00     0.011 A 
ATOM      5  C5  ZIN A   1      18.257   0.641  10.076  0.00  0.00    -0.022 A 
ATOM      6  C9  ZIN A   1      19.093   1.560   9.457  0.00  0.00     0.072 A 
ATOM      7  C11 ZIN A   1      19.185   1.588   8.074  0.00  0.00     0.043 A 
ENDROOT
BRANCH   5   8
ATOM      8  C6  ZIN A   1      18.159   0.604  11.579  0.00  0.00     0.013 C 
ATOM      9  C7  ZIN A   1      16.767   0.119  11.988  0.00  0.00     0.015 C 
ATOM     10  C8  ZIN A   1      19.216  -0.353  12.135  0.00  0.00     0.015 C 
ENDBRANCH   5   8
BRANCH   6  11
ATOM     11  O10 ZIN A   1      19.824   2.427  10.206  0.00  0.00    -0.360 OA
ATOM     12  H24 ZIN A   1      19.404   3.289  10.332  0.00  0.00     0.217 HD
ENDBRANCH   6  11
TORSDOF 2
ENDMDL
MODEL 8
REMARK VINA RESULT:      -4.9      1.921      2.829
REMARK  2 active torsions:
REMARK  status: ('A' for Active; 'I' for Inactive)
REMARK    1  A    between atoms: C5_5  and  C6_6 
REMARK    2  A    between atoms: C9_9  and  O10_10 
ROOT
ATOM      1  C1  ZIN A   1      18.894   2.018   8.330  0.00  0.00     0.048 C 
ATOM      2  C2  ZIN A   1      18.820   2.626   9.707  0.00  0.00    -0.059 A 
ATOM      3  C3  ZIN A   1      18.129   3.807   9.904  0.00  0.00     0.007 A 
ATOM      4  C4  ZIN A   1      18.060   4.368  11.166  0.00  0.00     0.011 A 
ATOM      5  C5  ZIN A   1      18.680   3.749  12.234  0.00  0.00    -0.022 A 
ATOM      6  C9  ZIN A   1      19.374   2.564  12.039  0.00  0.00     0.072 A 
ATOM      7  C11 ZIN A   1      19.438   2.000  10.773  0.00  0.00     0.043 A 
ENDROOT
BRANCH   5   8
ATOM      8  C6  ZIN A   1      18.603   4.361  13.609  0.00  0.00     0.013 C 
ATOM      9  C7  ZIN A   1      19.700   5.417  13.759  0.00  0.00     0.015 C 
ATOM     10  C8  ZIN A   1      17.234   5.017  13.798  0.00  0.00     0.015 C 
ENDBRANCH   5   8
BRANCH   6  11
ATOM     11  O10 ZIN A   1      19.986   1.953  13.087  0.00  0.00    -0.360 OA
ATOM     12  H24 ZIN A   1      20.130   1.005  12.960  0.00  0.00     0.217 HD
ENDBRANCH   6  11
TORSDOF 2
ENDMDL
MODEL 9
REMARK VINA RESULT:      -4.9      2.710      3.546
REMARK  2 active torsions:
REMARK  status: ('A' for Active; 'I' for Inactive)
REMARK    1  A    between atoms: C5_5  and  C6_6 
REMARK    2  A    between atoms: C9_9  and  O10_10 
ROOT
ATOM      1  C1  ZIN A   1      19.202   2.082   8.768  0.00  0.00     0.048 C 
ATOM      2  C2  ZIN A   1      18.836   1.422  10.072  0.00  0.00    -0.059 A 
ATOM      3  C3  ZIN A   1      19.791   1.271  11.061  0.00  0.00     0.007 A 
ATOM      4  C4  ZIN A   1      19.459   0.666  12.259  0.00  0.00     0.011 A 
ATOM      5  C5  ZIN A   1      18.171   0.213  12.472  0.00  0.00    -0.022 A 
ATOM      6  C9  ZIN A   1      17.211   0.363  11.482  0.00  0.00     0.072 A 
ATOM      7  C11 ZIN A   1      17.546   0.975  10.283  0.00  0.00     0.043 A 
ENDROOT
BRANCH   5   8
ATOM      8  C6  ZIN A   1      17.810  -0.446  13.779  0.00  0.00     0.013 C 
ATOM      9  C7  ZIN A   1      18.952  -1.364  14.221  0.00  0.00     0.015 C 
ATOM     10  C8  ZIN A   1      17.578   0.628  14.843  0.00  0.00     0.015 C 
ENDBRANCH   5   8
BRANCH   6  11
ATOM     11  O10 ZIN A   1      15.945  -0.082  11.688  0.00  0.00    -0.360 OA
ATOM     12  H24 ZIN A   1      15.616  -0.670  10.994  0.00  0.00     0.217 HD
ENDBRANCH   6  11
TORSDOF 2
ENDMDL
