MODEL 1
REMARK VINA RESULT:      -6.6      0.000      0.000
REMARK  4 active torsions:
REMARK  status: ('A' for Active; 'I' for Inactive)
REMARK    1  A    between atoms: N6_6  and  C7_7 
REMARK    2  A    between atoms: C10_9  and  O12_10 
REMARK    3  A    between atoms: C13_11  and  C15_12 
REMARK    4  A    between atoms: C15_12  and  O16_13 
ROOT
ATOM      1  O1  ZIN A   1      19.532  -1.993   4.296  0.00  0.00    -0.265 OA
ATOM      2  C2  ZIN A   1      19.370  -1.387   5.341  0.00  0.00     0.289 A 
ATOM      3  N3  ZIN A   1      19.180  -0.052   5.330  0.00  0.00    -0.273 N 
ATOM      4  C4  ZIN A   1      19.002   0.618   6.484  0.00  0.00     0.331 A 
ATOM      5  O5  ZIN A   1      18.832   1.821   6.457  0.00  0.00    -0.246 OA
ATOM      6  N6  ZIN A   1      19.010  -0.025   7.666  0.00  0.00    -0.279 N 
ATOM      7  C18 ZIN A   1      19.200  -1.383   7.721  0.00  0.00     0.146 A 
ATOM      8  C19 ZIN A   1      19.376  -2.078   6.577  0.00  0.00     0.199 A 
ATOM      9  F20 ZIN A   1      19.564  -3.416   6.613  0.00  0.00    -0.199 F 
ATOM     10  H21 ZIN A   1      19.172   0.428   4.487  0.00  0.00     0.173 HD
ENDROOT
BRANCH   6  11
ATOM     11  C7  ZIN A   1      18.814   0.731   8.905  0.00  0.00     0.235 C 
ATOM     12  O17 ZIN A   1      19.908   0.495   9.817  0.00  0.00    -0.356 OA
ATOM     13  C13 ZIN A   1      19.397   0.847  11.122  0.00  0.00     0.176 C 
ATOM     14  C10 ZIN A   1      17.951   0.302  11.142  0.00  0.00     0.153 C 
ATOM     15  C9  ZIN A   1      17.559   0.225   9.650  0.00  0.00     0.088 C 
BRANCH  13  16
ATOM     16  C15 ZIN A   1      20.231   0.185  12.220  0.00  0.00     0.198 C 
BRANCH  16  17
ATOM     17  O16 ZIN A   1      21.594   0.594  12.095  0.00  0.00    -0.398 OA
ATOM     18  H27 ZIN A   1      22.151   0.344  12.845  0.00  0.00     0.209 HD
ENDBRANCH  16  17
ENDBRANCH  13  16
BRANCH  14  19
ATOM     19  O12 ZIN A   1      17.086   1.199  11.842  0.00  0.00    -0.393 OA
ATOM     20  H24 ZIN A   1      16.887   0.926  12.749  0.00  0.00     0.210 HD
ENDBRANCH  14  19
ENDBRANCH   6  11
TORSDOF 4
ENDMDL
MODEL 2
REMARK VINA RESULT:      -6.4      5.610      8.586
REMARK  4 active torsions:
REMARK  status: ('A' for Active; 'I' for Inactive)
REMARK    1  A    between atoms: N6_6  and  C7_7 
REMARK    2  A    between atoms: C10_9  and  O12_10 
REMARK    3  A    between atoms: C13_11  and  C15_12 
REMARK    4  A    between atoms: C15_12  and  O16_13 
ROOT
ATOM      1  O1  ZIN A   1      19.566   2.260  18.850  0.00  0.00    -0.265 OA
ATOM      2  C2  ZIN A   1      19.388   1.610  17.835  0.00  0.00     0.289 A 
ATOM      3  N3  ZIN A   1      19.313   0.264  17.895  0.00  0.00    -0.273 N 
ATOM      4  C4  ZIN A   1      19.116  -0.455  16.774  0.00  0.00     0.331 A 
ATOM      5  O5  ZIN A   1      19.051  -1.666  16.844  0.00  0.00    -0.246 OA
ATOM      6  N6  ZIN A   1      18.992   0.148  15.578  0.00  0.00    -0.279 N 
ATOM      7  C18 ZIN A   1      19.062   1.515  15.474  0.00  0.00     0.146 A 
ATOM      8  C19 ZIN A   1      19.253   2.259  16.583  0.00  0.00     0.199 A 
ATOM      9  F20 ZIN A   1      19.324   3.606  16.500  0.00  0.00    -0.199 F 
ATOM     10  H21 ZIN A   1      19.401  -0.187  18.748  0.00  0.00     0.173 HD
ENDROOT
BRANCH   6  11
ATOM     11  C7  ZIN A   1      18.778  -0.661  14.375  0.00  0.00     0.235 C 
ATOM     12  O17 ZIN A   1      19.871  -0.481  13.448  0.00  0.00    -0.356 OA
ATOM     13  C13 ZIN A   1      19.348  -0.886  12.163  0.00  0.00     0.176 C 
ATOM     14  C10 ZIN A   1      17.909  -0.324  12.125  0.00  0.00     0.153 C 
ATOM     15  C9  ZIN A   1      17.526  -0.173  13.614  0.00  0.00     0.088 C 
BRANCH  13  16
ATOM     16  C15 ZIN A   1      20.184  -0.286  11.031  0.00  0.00     0.198 C 
BRANCH  16  17
ATOM     17  O16 ZIN A   1      21.530  -0.109  11.476  0.00  0.00    -0.398 OA
ATOM     18  H27 ZIN A   1      21.886  -0.864  11.965  0.00  0.00     0.209 HD
ENDBRANCH  16  17
ENDBRANCH  13  16
BRANCH  14  19
ATOM     19  O12 ZIN A   1      17.028  -1.240  11.471  0.00  0.00    -0.393 OA
ATOM     20  H24 ZIN A   1      17.418  -1.678  10.701  0.00  0.00     0.210 HD
ENDBRANCH  14  19
ENDBRANCH   6  11
TORSDOF 4
ENDMDL
MODEL 3
REMARK VINA RESULT:      -6.3      3.529      6.211
REMARK  4 active torsions:
REMARK  status: ('A' for Active; 'I' for Inactive)
REMARK    1  A    between atoms: N6_6  and  C7_7 
REMARK    2  A    between atoms: C10_9  and  O12_10 
REMARK    3  A    between atoms: C13_11  and  C15_12 
REMARK    4  A    between atoms: C15_12  and  O16_13 
ROOT
ATOM      1  O1  ZIN A   1      18.998   4.871  12.849  0.00  0.00    -0.265 OA
ATOM      2  C2  ZIN A   1      19.007   3.951  12.050  0.00  0.00     0.289 A 
ATOM      3  N3  ZIN A   1      19.680   2.816  12.329  0.00  0.00    -0.273 N 
ATOM      4  C4  ZIN A   1      19.690   1.799  11.448  0.00  0.00     0.331 A 
ATOM      5  O5  ZIN A   1      20.301   0.783  11.714  0.00  0.00    -0.246 OA
ATOM      6  N6  ZIN A   1      19.035   1.892  10.276  0.00  0.00    -0.279 N 
ATOM      7  C18 ZIN A   1      18.338   3.029   9.954  0.00  0.00     0.146 A 
ATOM      8  C19 ZIN A   1      18.308   4.061  10.823  0.00  0.00     0.199 A 
ATOM      9  F20 ZIN A   1      17.626   5.189  10.522  0.00  0.00    -0.199 F 
ATOM     10  H21 ZIN A   1      20.158   2.732  13.169  0.00  0.00     0.173 HD
ENDROOT
BRANCH   6  11
ATOM     11  C7  ZIN A   1      19.065   0.768   9.337  0.00  0.00     0.235 C 
ATOM     12  O17 ZIN A   1      19.507   1.212   8.036  0.00  0.00    -0.356 OA
ATOM     13  C13 ZIN A   1      19.034   0.207   7.111  0.00  0.00     0.176 C 
ATOM     14  C10 ZIN A   1      17.617  -0.156   7.609  0.00  0.00     0.153 C 
ATOM     15  C9  ZIN A   1      17.638   0.222   9.107  0.00  0.00     0.088 C 
BRANCH  13  16
ATOM     16  C15 ZIN A   1      18.971   0.772   5.691  0.00  0.00     0.198 C 
BRANCH  16  17
ATOM     17  O16 ZIN A   1      19.865   0.043   4.848  0.00  0.00    -0.398 OA
ATOM     18  H27 ZIN A   1      20.680   0.518   4.634  0.00  0.00     0.209 HD
ENDBRANCH  16  17
ENDBRANCH  13  16
BRANCH  14  19
ATOM     19  O12 ZIN A   1      17.370  -1.554   7.448  0.00  0.00    -0.393 OA
ATOM     20  H24 ZIN A   1      17.507  -2.073   8.253  0.00  0.00     0.210 HD
ENDBRANCH  14  19
ENDBRANCH   6  11
TORSDOF 4
ENDMDL
MODEL 4
REMARK VINA RESULT:      -6.3      4.488      6.083
REMARK  4 active torsions:
REMARK  status: ('A' for Active; 'I' for Inactive)
REMARK    1  A    between atoms: N6_6  and  C7_7 
REMARK    2  A    between atoms: C10_9  and  O12_10 
REMARK    3  A    between atoms: C13_11  and  C15_12 
REMARK    4  A    between atoms: C15_12  and  O16_13 
ROOT
ATOM      1  O1  ZIN A   1      18.833   2.799   9.434  0.00  0.00    -0.265 OA
ATOM      2  C2  ZIN A   1      18.595   2.294  10.517  0.00  0.00     0.289 A 
ATOM      3  N3  ZIN A   1      17.539   1.468  10.664  0.00  0.00    -0.273 N 
ATOM      4  C4  ZIN A   1      17.275   0.911  11.861  0.00  0.00     0.331 A 
ATOM      5  O5  ZIN A   1      16.320   0.168  11.977  0.00  0.00    -0.246 OA
ATOM      6  N6  ZIN A   1      18.052   1.164  12.929  0.00  0.00    -0.279 N 
ATOM      7  C18 ZIN A   1      19.136   1.998  12.822  0.00  0.00     0.146 A 
ATOM      8  C19 ZIN A   1      19.426   2.566  11.632  0.00  0.00     0.199 A 
ATOM      9  F20 ZIN A   1      20.490   3.390  11.508  0.00  0.00    -0.199 F 
ATOM     10  H21 ZIN A   1      16.968   1.275   9.905  0.00  0.00     0.173 HD
ENDROOT
BRANCH   6  11
ATOM     11  C7  ZIN A   1      17.740   0.542  14.218  0.00  0.00     0.235 C 
ATOM     12  O17 ZIN A   1      18.174   1.390  15.304  0.00  0.00    -0.356 OA
ATOM     13  C13 ZIN A   1      18.287   0.514  16.448  0.00  0.00     0.176 C 
ATOM     14  C10 ZIN A   1      18.909  -0.786  15.892  0.00  0.00     0.153 C 
ATOM     15  C9  ZIN A   1      18.540  -0.768  14.392  0.00  0.00     0.088 C 
BRANCH  13  16
ATOM     16  C15 ZIN A   1      19.201   1.131  17.507  0.00  0.00     0.198 C 
BRANCH  16  17
ATOM     17  O16 ZIN A   1      19.769   0.094  18.308  0.00  0.00    -0.398 OA
ATOM     18  H27 ZIN A   1      20.540   0.371  18.823  0.00  0.00     0.209 HD
ENDBRANCH  16  17
ENDBRANCH  13  16
BRANCH  14  19
ATOM     19  O12 ZIN A   1      18.340  -1.930  16.533  0.00  0.00    -0.393 OA
ATOM     20  H24 ZIN A   1      18.977  -2.634  16.719  0.00  0.00     0.210 HD
ENDBRANCH  14  19
ENDBRANCH   6  11
TORSDOF 4
ENDMDL
MODEL 5
REMARK VINA RESULT:      -6.2      1.838      2.143
REMARK  4 active torsions:
REMARK  status: ('A' for Active; 'I' for Inactive)
REMARK    1  A    between atoms: N6_6  and  C7_7 
REMARK    2  A    between atoms: C10_9  and  O12_10 
REMARK    3  A    between atoms: C13_11  and  C15_12 
REMARK    4  A    between atoms: C15_12  and  O16_13 
ROOT
ATOM      1  O1  ZIN A   1      18.382  -4.235   3.533  0.00  0.00    -0.265 OA
ATOM      2  C2  ZIN A   1      18.536  -3.373   4.380  0.00  0.00     0.289 A 
ATOM      3  N3  ZIN A   1      19.031  -2.165   4.039  0.00  0.00    -0.273 N 
ATOM      4  C4  ZIN A   1      19.200  -1.213   4.975  0.00  0.00     0.331 A 
ATOM      5  O5  ZIN A   1      19.647  -0.129   4.653  0.00  0.00    -0.246 OA
ATOM      6  N6  ZIN A   1      18.884  -1.443   6.263  0.00  0.00    -0.279 N 
ATOM      7  C18 ZIN A   1      18.378  -2.658   6.651  0.00  0.00     0.146 A 
ATOM      8  C19 ZIN A   1      18.193  -3.628   5.731  0.00  0.00     0.199 A 
ATOM      9  F20 ZIN A   1      17.695  -4.830   6.095  0.00  0.00    -0.199 F 
ATOM     10  H21 ZIN A   1      19.265  -1.982   3.117  0.00  0.00     0.173 HD
ENDROOT
BRANCH   6  11
ATOM     11  C7  ZIN A   1      19.080  -0.387   7.259  0.00  0.00     0.235 C 
ATOM     12  O17 ZIN A   1      19.939  -0.852   8.323  0.00  0.00    -0.356 OA
ATOM     13  C13 ZIN A   1      19.667   0.023   9.440  0.00  0.00     0.176 C 
ATOM     14  C10 ZIN A   1      18.136   0.232   9.417  0.00  0.00     0.153 C 
ATOM     15  C9  ZIN A   1      17.741  -0.043   7.949  0.00  0.00     0.088 C 
BRANCH  13  16
ATOM     16  C15 ZIN A   1      20.095  -0.634  10.753  0.00  0.00     0.198 C 
BRANCH  16  17
ATOM     17  O16 ZIN A   1      21.518  -0.582  10.869  0.00  0.00    -0.398 OA
ATOM     18  H27 ZIN A   1      21.933  -1.443  11.022  0.00  0.00     0.209 HD
ENDBRANCH  16  17
ENDBRANCH  13  16
BRANCH  14  19
ATOM     19  O12 ZIN A   1      17.806   1.574   9.781  0.00  0.00    -0.393 OA
ATOM     20  H24 ZIN A   1      18.347   1.931  10.500  0.00  0.00     0.210 HD
ENDBRANCH  14  19
ENDBRANCH   6  11
TORSDOF 4
ENDMDL
MODEL 6
REMARK VINA RESULT:      -6.2      2.123      2.929
REMARK  4 active torsions:
REMARK  status: ('A' for Active; 'I' for Inactive)
REMARK    1  A    between atoms: N6_6  and  C7_7 
REMARK    2  A    between atoms: C10_9  and  O12_10 
REMARK    3  A    between atoms: C13_11  and  C15_12 
REMARK    4  A    between atoms: C15_12  and  O16_13 
ROOT
ATOM      1  O1  ZIN A   1      17.921  -1.094   5.177  0.00  0.00    -0.265 OA
ATOM      2  C2  ZIN A   1      18.126  -0.811   6.344  0.00  0.00     0.289 A 
ATOM      3  N3  ZIN A   1      17.732  -1.648   7.326  0.00  0.00    -0.273 N 
ATOM      4  C4  ZIN A   1      17.958  -1.336   8.615  0.00  0.00     0.331 A 
ATOM      5  O5  ZIN A   1      17.597  -2.101   9.489  0.00  0.00    -0.246 OA
ATOM      6  N6  ZIN A   1      18.576  -0.189   8.952  0.00  0.00    -0.279 N 
ATOM      7  C18 ZIN A   1      18.993   0.690   7.984  0.00  0.00     0.146 A 
ATOM      8  C19 ZIN A   1      18.783   0.398   6.683  0.00  0.00     0.199 A 
ATOM      9  F20 ZIN A   1      19.187   1.251   5.717  0.00  0.00    -0.199 F 
ATOM     10  H21 ZIN A   1      17.285  -2.479   7.101  0.00  0.00     0.173 HD
ENDROOT
BRANCH   6  11
ATOM     11  C7  ZIN A   1      18.808   0.123  10.364  0.00  0.00     0.235 C 
ATOM     12  O17 ZIN A   1      18.679   1.543  10.593  0.00  0.00    -0.356 OA
ATOM     13  C13 ZIN A   1      19.391   1.796  11.825  0.00  0.00     0.176 C 
ATOM     14  C10 ZIN A   1      20.657   0.913  11.740  0.00  0.00     0.153 C 
ATOM     15  C9  ZIN A   1      20.264  -0.212  10.757  0.00  0.00     0.088 C 
BRANCH  13  16
ATOM     16  C15 ZIN A   1      19.777   3.272  11.928  0.00  0.00     0.198 C 
BRANCH  16  17
ATOM     17  O16 ZIN A   1      21.188   3.409  11.748  0.00  0.00    -0.398 OA
ATOM     18  H27 ZIN A   1      21.514   4.312  11.865  0.00  0.00     0.209 HD
ENDBRANCH  16  17
ENDBRANCH  13  16
BRANCH  14  19
ATOM     19  O12 ZIN A   1      20.978   0.370  13.022  0.00  0.00    -0.393 OA
ATOM     20  H24 ZIN A   1      21.395   1.002  13.624  0.00  0.00     0.210 HD
ENDBRANCH  14  19
ENDBRANCH   6  11
TORSDOF 4
ENDMDL
MODEL 7
REMARK VINA RESULT:      -6.1      2.195      3.189
REMARK  4 active torsions:
REMARK  status: ('A' for Active; 'I' for Inactive)
REMARK    1  A    between atoms: N6_6  and  C7_7 
REMARK    2  A    between atoms: C10_9  and  O12_10 
REMARK    3  A    between atoms: C13_11  and  C15_12 
REMARK    4  A    between atoms: C15_12  and  O16_13 
ROOT
ATOM      1  O1  ZIN A   1      19.300  -0.033   4.397  0.00  0.00    -0.265 OA
ATOM      2  C2  ZIN A   1      19.222  -0.362   5.567  0.00  0.00     0.289 A 
ATOM      3  N3  ZIN A   1      19.377  -1.654   5.921  0.00  0.00    -0.273 N 
ATOM      4  C4  ZIN A   1      19.291  -2.018   7.214  0.00  0.00     0.331 A 
ATOM      5  O5  ZIN A   1      19.433  -3.187   7.518  0.00  0.00    -0.246 OA
ATOM      6  N6  ZIN A   1      19.049  -1.109   8.176  0.00  0.00    -0.279 N 
ATOM      7  C18 ZIN A   1      18.886   0.216   7.858  0.00  0.00     0.146 A 
ATOM      8  C19 ZIN A   1      18.973   0.609   6.569  0.00  0.00     0.199 A 
ATOM      9  F20 ZIN A   1      18.816   1.909   6.238  0.00  0.00    -0.199 F 
ATOM     10  H21 ZIN A   1      19.551  -2.323   5.242  0.00  0.00     0.173 HD
ENDROOT
BRANCH   6  11
ATOM     11  C7  ZIN A   1      18.961  -1.536   9.574  0.00  0.00     0.235 C 
ATOM     12  O17 ZIN A   1      17.744  -1.042  10.175  0.00  0.00    -0.356 OA
ATOM     13  C13 ZIN A   1      17.984  -1.072  11.599  0.00  0.00     0.176 C 
ATOM     14  C10 ZIN A   1      19.442  -0.588  11.766  0.00  0.00     0.153 C 
ATOM     15  C9  ZIN A   1      20.100  -0.900  10.403  0.00  0.00     0.088 C 
BRANCH  13  16
ATOM     16  C15 ZIN A   1      17.024  -0.129  12.325  0.00  0.00     0.198 C 
BRANCH  16  17
ATOM     17  O16 ZIN A   1      15.887   0.123  11.496  0.00  0.00    -0.398 OA
ATOM     18  H27 ZIN A   1      15.084   0.347  11.987  0.00  0.00     0.209 HD
ENDBRANCH  16  17
ENDBRANCH  13  16
BRANCH  14  19
ATOM     19  O12 ZIN A   1      20.095  -1.308  12.814  0.00  0.00    -0.393 OA
ATOM     20  H24 ZIN A   1      20.895  -0.879  13.147  0.00  0.00     0.210 HD
ENDBRANCH  14  19
ENDBRANCH   6  11
TORSDOF 4
ENDMDL
MODEL 8
REMARK VINA RESULT:      -6.1      4.249      6.915
REMARK  4 active torsions:
REMARK  status: ('A' for Active; 'I' for Inactive)
REMARK    1  A    between atoms: N6_6  and  C7_7 
REMARK    2  A    between atoms: C10_9  and  O12_10 
REMARK    3  A    between atoms: C13_11  and  C15_12 
REMARK    4  A    between atoms: C15_12  and  O16_13 
ROOT
ATOM      1  O1  ZIN A   1      18.912   1.053  16.018  0.00  0.00    -0.265 OA
ATOM      2  C2  ZIN A   1      19.148   0.442  14.992  0.00  0.00     0.289 A 
ATOM      3  N3  ZIN A   1      19.975   0.965  14.064  0.00  0.00    -0.273 N 
ATOM      4  C4  ZIN A   1      20.235   0.289  12.929  0.00  0.00     0.331 A 
ATOM      5  O5  ZIN A   1      20.983   0.774  12.102  0.00  0.00    -0.246 OA
ATOM      6  N6  ZIN A   1      19.680  -0.914  12.696  0.00  0.00    -0.279 N 
ATOM      7  C18 ZIN A   1      18.834  -1.482  13.615  0.00  0.00     0.146 A 
ATOM      8  C19 ZIN A   1      18.560  -0.827  14.763  0.00  0.00     0.199 A 
ATOM      9  F20 ZIN A   1      17.729  -1.371  15.680  0.00  0.00    -0.199 F 
ATOM     10  H21 ZIN A   1      20.383   1.831  14.214  0.00  0.00     0.173 HD
ENDROOT
BRANCH   6  11
ATOM     11  C7  ZIN A   1      19.983  -1.625  11.452  0.00  0.00     0.235 C 
ATOM     12  O17 ZIN A   1      19.040  -1.259  10.421  0.00  0.00    -0.356 OA
ATOM     13  C13 ZIN A   1      19.099  -2.331   9.454  0.00  0.00     0.176 C 
ATOM     14  C10 ZIN A   1      19.197  -3.622  10.298  0.00  0.00     0.153 C 
ATOM     15  C9  ZIN A   1      19.792  -3.147  11.642  0.00  0.00     0.088 C 
BRANCH  13  16
ATOM     16  C15 ZIN A   1      17.833  -2.350   8.597  0.00  0.00     0.198 C 
BRANCH  16  17
ATOM     17  O16 ZIN A   1      17.381  -3.697   8.445  0.00  0.00    -0.398 OA
ATOM     18  H27 ZIN A   1      17.547  -4.072   7.568  0.00  0.00     0.209 HD
ENDBRANCH  16  17
ENDBRANCH  13  16
BRANCH  14  19
ATOM     19  O12 ZIN A   1      20.067  -4.567   9.671  0.00  0.00    -0.393 OA
ATOM     20  H24 ZIN A   1      20.723  -4.953  10.268  0.00  0.00     0.210 HD
ENDBRANCH  14  19
ENDBRANCH   6  11
TORSDOF 4
ENDMDL
MODEL 9
REMARK VINA RESULT:      -6.0      4.817      7.428
REMARK  4 active torsions:
REMARK  status: ('A' for Active; 'I' for Inactive)
REMARK    1  A    between atoms: N6_6  and  C7_7 
REMARK    2  A    between atoms: C10_9  and  O12_10 
REMARK    3  A    between atoms: C13_11  and  C15_12 
REMARK    4  A    between atoms: C15_12  and  O16_13 
ROOT
ATOM      1  O1  ZIN A   1      17.820   0.777  17.667  0.00  0.00    -0.265 OA
ATOM      2  C2  ZIN A   1      18.030   0.567  16.486  0.00  0.00     0.289 A 
ATOM      3  N3  ZIN A   1      17.686   1.486  15.560  0.00  0.00    -0.273 N 
ATOM      4  C4  ZIN A   1      17.917   1.255  14.255  0.00  0.00     0.331 A 
ATOM      5  O5  ZIN A   1      17.602   2.093  13.433  0.00  0.00    -0.246 OA
ATOM      6  N6  ZIN A   1      18.492   0.109  13.846  0.00  0.00    -0.279 N 
ATOM      7  C18 ZIN A   1      18.858  -0.852  14.755  0.00  0.00     0.146 A 
ATOM      8  C19 ZIN A   1      18.641  -0.642  16.071  0.00  0.00     0.199 A 
ATOM      9  F20 ZIN A   1      18.995  -1.577  16.980  0.00  0.00    -0.199 F 
ATOM     10  H21 ZIN A   1      17.270   2.317  15.837  0.00  0.00     0.173 HD
ENDROOT
BRANCH   6  11
ATOM     11  C7  ZIN A   1      18.731  -0.115  12.418  0.00  0.00     0.235 C 
ATOM     12  O17 ZIN A   1      18.551  -1.510  12.091  0.00  0.00    -0.356 OA
ATOM     13  C13 ZIN A   1      19.270  -1.705  10.852  0.00  0.00     0.176 C 
ATOM     14  C10 ZIN A   1      20.567  -0.880  11.012  0.00  0.00     0.153 C 
ATOM     15  C9  ZIN A   1      20.205   0.190  12.066  0.00  0.00     0.088 C 
BRANCH  13  16
ATOM     16  C15 ZIN A   1      19.600  -3.184  10.651  0.00  0.00     0.198 C 
BRANCH  16  17
ATOM     17  O16 ZIN A   1      20.816  -3.498  11.332  0.00  0.00    -0.398 OA
ATOM     18  H27 ZIN A   1      20.978  -2.957  12.118  0.00  0.00     0.209 HD
ENDBRANCH  16  17
ENDBRANCH  13  16
BRANCH  14  19
ATOM     19  O12 ZIN A   1      20.927  -0.263   9.774  0.00  0.00    -0.393 OA
ATOM     20  H24 ZIN A   1      20.686  -0.780   8.993  0.00  0.00     0.210 HD
ENDBRANCH  14  19
ENDBRANCH   6  11
TORSDOF 4
ENDMDL
