MODEL 1
REMARK VINA RESULT:      -5.7      0.000      0.000
REMARK  11 active torsions:
REMARK  status: ('A' for Active; 'I' for Inactive)
REMARK    1  A    between atoms: C2_2  and  C3_3 
REMARK    2  A    between atoms: C3_3  and  O4_4 
REMARK    3  A    between atoms: O4_4  and  C5_5 
REMARK    4  A    between atoms: C8_8  and  C9_9 
REMARK    5  A    between atoms: C9_9  and  O11_11 
REMARK    6  A    between atoms: O11_11  and  C12_12 
REMARK    7  A    between atoms: C12_12  and  C13_13 
REMARK    8  A    between atoms: C13_13  and  N14_14 
REMARK    9  A    between atoms: N14_14  and  C15_15 
REMARK   10  A    between atoms: N14_14  and  C17_17 
REMARK   11  A    between atoms: C20_20  and  N21_21 
ROOT
ATOM      1  C5  ZIN A   1      19.107  -0.322  12.828  0.00  0.00     0.095 A 
ATOM      2  C6  ZIN A   1      17.865  -0.791  12.425  0.00  0.00     0.040 A 
ATOM      3  C7  ZIN A   1      17.569  -0.907  11.083  0.00  0.00     0.020 A 
ATOM      4  C8  ZIN A   1      18.522  -0.551  10.125  0.00  0.00     0.041 A 
ATOM      5  C19 ZIN A   1      19.774  -0.078  10.529  0.00  0.00     0.049 A 
ATOM      6  C20 ZIN A   1      20.062   0.040  11.876  0.00  0.00     0.060 A 
ENDROOT
BRANCH   4   7
ATOM      7  C9  ZIN A   1      18.207  -0.674   8.689  0.00  0.00     0.293 C 
ATOM      8  O10 ZIN A   1      18.231   0.309   7.975  0.00  0.00    -0.259 OA
BRANCH   7   9
ATOM      9  O11 ZIN A   1      17.892  -1.878   8.170  0.00  0.00    -0.316 OA
BRANCH   9  10
ATOM     10  C12 ZIN A   1      18.979  -2.824   7.994  0.00  0.00     0.209 C 
BRANCH  10  11
ATOM     11  C13 ZIN A   1      18.506  -4.222   8.399  0.00  0.00     0.299 C 
BRANCH  11  12
ATOM     12  N14 ZIN A   1      18.499  -4.332   9.864  0.00  0.00     0.089 N 
BRANCH  12  13
ATOM     13  C15 ZIN A   1      17.511  -5.323  10.312  0.00  0.00     0.268 C 
ATOM     14  C16 ZIN A   1      16.652  -4.719  11.424  0.00  0.00     0.037 C 
ENDBRANCH  12  13
BRANCH  12  15
ATOM     15  C17 ZIN A   1      19.838  -4.655  10.373  0.00  0.00     0.268 C 
ATOM     16  C18 ZIN A   1      20.174  -3.732  11.546  0.00  0.00     0.037 C 
ENDBRANCH  12  15
ENDBRANCH  11  12
ENDBRANCH  10  11
ENDBRANCH   9  10
ENDBRANCH   7   9
ENDBRANCH   4   7
BRANCH   6  17
ATOM     17  N21 ZIN A   1      21.315   0.515  12.285  0.00  0.00    -0.397 N 
ATOM     18  H46 ZIN A   1      22.110  -0.014  12.121  0.00  0.00     0.156 HD
ATOM     19  H47 ZIN A   1      21.386   1.372  12.733  0.00  0.00     0.156 HD
ENDBRANCH   6  17
BRANCH   1  20
ATOM     20  O4  ZIN A   1      19.393  -0.211  14.151  0.00  0.00    -0.349 OA
BRANCH  20  21
ATOM     21  C3  ZIN A   1      19.562  -1.426  14.883  0.00  0.00     0.175 C 
BRANCH  21  22
ATOM     22  C2  ZIN A   1      18.998  -1.254  16.294  0.00  0.00     0.022 C 
ATOM     23  C1  ZIN A   1      17.558  -0.742  16.209  0.00  0.00     0.007 C 
ENDBRANCH  21  22
ENDBRANCH  20  21
ENDBRANCH   1  20
TORSDOF 11
ENDMDL
MODEL 2
REMARK VINA RESULT:      -5.6      2.617      4.439
REMARK  11 active torsions:
REMARK  status: ('A' for Active; 'I' for Inactive)
REMARK    1  A    between atoms: C2_2  and  C3_3 
REMARK    2  A    between atoms: C3_3  and  O4_4 
REMARK    3  A    between atoms: O4_4  and  C5_5 
REMARK    4  A    between atoms: C8_8  and  C9_9 
REMARK    5  A    between atoms: C9_9  and  O11_11 
REMARK    6  A    between atoms: O11_11  and  C12_12 
REMARK    7  A    between atoms: C12_12  and  C13_13 
REMARK    8  A    between atoms: C13_13  and  N14_14 
REMARK    9  A    between atoms: N14_14  and  C15_15 
REMARK   10  A    between atoms: N14_14  and  C17_17 
REMARK   11  A    between atoms: C20_20  and  N21_21 
ROOT
ATOM      1  C5  ZIN A   1      19.060   0.917  12.705  0.00  0.00     0.095 A 
ATOM      2  C6  ZIN A   1      17.754   0.450  12.674  0.00  0.00     0.040 A 
ATOM      3  C7  ZIN A   1      17.468  -0.775  12.110  0.00  0.00     0.020 A 
ATOM      4  C8  ZIN A   1      18.495  -1.550  11.566  0.00  0.00     0.041 A 
ATOM      5  C19 ZIN A   1      19.812  -1.082  11.596  0.00  0.00     0.049 A 
ATOM      6  C20 ZIN A   1      20.091   0.150  12.158  0.00  0.00     0.060 A 
ENDROOT
BRANCH   4   7
ATOM      7  C9  ZIN A   1      18.191  -2.862  10.963  0.00  0.00     0.293 C 
ATOM      8  O10 ZIN A   1      17.545  -3.681  11.586  0.00  0.00    -0.259 OA
BRANCH   7   9
ATOM      9  O11 ZIN A   1      18.630  -3.150   9.722  0.00  0.00    -0.316 OA
BRANCH   9  10
ATOM     10  C12 ZIN A   1      18.062  -2.384   8.627  0.00  0.00     0.209 C 
BRANCH  10  11
ATOM     11  C13 ZIN A   1      19.124  -1.438   8.064  0.00  0.00     0.299 C 
BRANCH  11  12
ATOM     12  N14 ZIN A   1      18.566  -0.696   6.926  0.00  0.00     0.089 N 
BRANCH  12  13
ATOM     13  C15 ZIN A   1      18.775   0.750   7.086  0.00  0.00     0.268 C 
ATOM     14  C16 ZIN A   1      19.320   1.034   8.487  0.00  0.00     0.037 C 
ENDBRANCH  12  13
BRANCH  12  15
ATOM     15  C17 ZIN A   1      19.133  -1.173   5.658  0.00  0.00     0.268 C 
ATOM     16  C18 ZIN A   1      19.288   0.005   4.693  0.00  0.00     0.037 C 
ENDBRANCH  12  15
ENDBRANCH  11  12
ENDBRANCH  10  11
ENDBRANCH   9  10
ENDBRANCH   7   9
ENDBRANCH   4   7
BRANCH   6  17
ATOM     17  N21 ZIN A   1      21.408   0.624  12.189  0.00  0.00    -0.397 N 
ATOM     18  H46 ZIN A   1      22.140   0.011  12.359  0.00  0.00     0.156 HD
ATOM     19  H47 ZIN A   1      21.589   1.565  12.040  0.00  0.00     0.156 HD
ENDBRANCH   6  17
BRANCH   1  20
ATOM     20  O4  ZIN A   1      19.335   2.124  13.262  0.00  0.00    -0.349 OA
BRANCH  20  21
ATOM     21  C3  ZIN A   1      18.503   3.221  12.878  0.00  0.00     0.175 C 
BRANCH  21  22
ATOM     22  C2  ZIN A   1      19.029   3.828  11.576  0.00  0.00     0.022 C 
ATOM     23  C1  ZIN A   1      17.910   3.845  10.533  0.00  0.00     0.007 C 
ENDBRANCH  21  22
ENDBRANCH  20  21
ENDBRANCH   1  20
TORSDOF 11
ENDMDL
MODEL 3
REMARK VINA RESULT:      -5.6      2.771      6.647
REMARK  11 active torsions:
REMARK  status: ('A' for Active; 'I' for Inactive)
REMARK    1  A    between atoms: C2_2  and  C3_3 
REMARK    2  A    between atoms: C3_3  and  O4_4 
REMARK    3  A    between atoms: O4_4  and  C5_5 
REMARK    4  A    between atoms: C8_8  and  C9_9 
REMARK    5  A    between atoms: C9_9  and  O11_11 
REMARK    6  A    between atoms: O11_11  and  C12_12 
REMARK    7  A    between atoms: C12_12  and  C13_13 
REMARK    8  A    between atoms: C13_13  and  N14_14 
REMARK    9  A    between atoms: N14_14  and  C15_15 
REMARK   10  A    between atoms: N14_14  and  C17_17 
REMARK   11  A    between atoms: C20_20  and  N21_21 
ROOT
ATOM      1  C5  ZIN A   1      19.204   0.372   7.901  0.00  0.00     0.095 A 
ATOM      2  C6  ZIN A   1      18.946   1.735   7.916  0.00  0.00     0.040 A 
ATOM      3  C7  ZIN A   1      18.958   2.430   9.107  0.00  0.00     0.020 A 
ATOM      4  C8  ZIN A   1      19.232   1.762  10.303  0.00  0.00     0.041 A 
ATOM      5  C19 ZIN A   1      19.493   0.388  10.290  0.00  0.00     0.049 A 
ATOM      6  C20 ZIN A   1      19.473  -0.304   9.093  0.00  0.00     0.060 A 
ENDROOT
BRANCH   4   7
ATOM      7  C9  ZIN A   1      19.246   2.504  11.578  0.00  0.00     0.293 C 
ATOM      8  O10 ZIN A   1      20.058   3.391  11.755  0.00  0.00    -0.259 OA
BRANCH   7   9
ATOM      9  O11 ZIN A   1      18.360   2.198  12.546  0.00  0.00    -0.316 OA
BRANCH   9  10
ATOM     10  C12 ZIN A   1      18.879   2.062  13.895  0.00  0.00     0.209 C 
BRANCH  10  11
ATOM     11  C13 ZIN A   1      19.605   0.722  14.028  0.00  0.00     0.299 C 
BRANCH  11  12
ATOM     12  N14 ZIN A   1      19.167   0.046  15.256  0.00  0.00     0.089 N 
BRANCH  12  13
ATOM     13  C15 ZIN A   1      18.051   0.767  15.884  0.00  0.00     0.268 C 
ATOM     14  C16 ZIN A   1      17.153  -0.228  16.624  0.00  0.00     0.037 C 
ENDBRANCH  12  13
BRANCH  12  15
ATOM     15  C17 ZIN A   1      18.806  -1.352  14.987  0.00  0.00     0.268 C 
ATOM     16  C18 ZIN A   1      18.912  -1.627  13.486  0.00  0.00     0.037 C 
ENDBRANCH  12  15
ENDBRANCH  11  12
ENDBRANCH  10  11
ENDBRANCH   9  10
ENDBRANCH   7   9
ENDBRANCH   4   7
BRANCH   6  17
ATOM     17  N21 ZIN A   1      19.732  -1.679   9.075  0.00  0.00    -0.397 N 
ATOM     18  H46 ZIN A   1      20.478  -2.025   8.561  0.00  0.00     0.156 HD
ATOM     19  H47 ZIN A   1      19.165  -2.287   9.577  0.00  0.00     0.156 HD
ENDBRANCH   6  17
BRANCH   1  20
ATOM     20  O4  ZIN A   1      19.191  -0.307   6.725  0.00  0.00    -0.349 OA
BRANCH  20  21
ATOM     21  C3  ZIN A   1      19.178   0.471   5.527  0.00  0.00     0.175 C 
BRANCH  21  22
ATOM     22  C2  ZIN A   1      18.716  -0.401   4.358  0.00  0.00     0.022 C 
ATOM     23  C1  ZIN A   1      17.577  -1.312   4.820  0.00  0.00     0.007 C 
ENDBRANCH  21  22
ENDBRANCH  20  21
ENDBRANCH   1  20
TORSDOF 11
ENDMDL
MODEL 4
REMARK VINA RESULT:      -5.6      2.558      5.594
REMARK  11 active torsions:
REMARK  status: ('A' for Active; 'I' for Inactive)
REMARK    1  A    between atoms: C2_2  and  C3_3 
REMARK    2  A    between atoms: C3_3  and  O4_4 
REMARK    3  A    between atoms: O4_4  and  C5_5 
REMARK    4  A    between atoms: C8_8  and  C9_9 
REMARK    5  A    between atoms: C9_9  and  O11_11 
REMARK    6  A    between atoms: O11_11  and  C12_12 
REMARK    7  A    between atoms: C12_12  and  C13_13 
REMARK    8  A    between atoms: C13_13  and  N14_14 
REMARK    9  A    between atoms: N14_14  and  C15_15 
REMARK   10  A    between atoms: N14_14  and  C17_17 
REMARK   11  A    between atoms: C20_20  and  N21_21 
ROOT
ATOM      1  C5  ZIN A   1      18.881  -1.174  10.729  0.00  0.00     0.095 A 
ATOM      2  C6  ZIN A   1      17.561  -0.868  11.027  0.00  0.00     0.040 A 
ATOM      3  C7  ZIN A   1      17.208   0.420  11.369  0.00  0.00     0.020 A 
ATOM      4  C8  ZIN A   1      18.181   1.422  11.417  0.00  0.00     0.041 A 
ATOM      5  C19 ZIN A   1      19.512   1.116  11.116  0.00  0.00     0.049 A 
ATOM      6  C20 ZIN A   1      19.860  -0.179  10.779  0.00  0.00     0.060 A 
ENDROOT
BRANCH   4   7
ATOM      7  C9  ZIN A   1      17.804   2.801  11.782  0.00  0.00     0.293 C 
ATOM      8  O10 ZIN A   1      16.934   3.378  11.160  0.00  0.00    -0.259 OA
BRANCH   7   9
ATOM      9  O11 ZIN A   1      18.426   3.420  12.805  0.00  0.00    -0.316 OA
BRANCH   9  10
ATOM     10  C12 ZIN A   1      17.898   3.183  14.137  0.00  0.00     0.209 C 
BRANCH  10  11
ATOM     11  C13 ZIN A   1      18.916   2.383  14.952  0.00  0.00     0.299 C 
BRANCH  11  12
ATOM     12  N14 ZIN A   1      18.434   1.006  15.121  0.00  0.00     0.089 N 
BRANCH  12  13
ATOM     13  C15 ZIN A   1      19.409   0.039  14.597  0.00  0.00     0.268 C 
ATOM     14  C16 ZIN A   1      18.752  -1.340  14.491  0.00  0.00     0.037 C 
ENDBRANCH  12  13
BRANCH  12  15
ATOM     15  C17 ZIN A   1      18.121   0.727  16.529  0.00  0.00     0.268 C 
ATOM     16  C18 ZIN A   1      19.145   1.423  17.427  0.00  0.00     0.037 C 
ENDBRANCH  12  15
ENDBRANCH  11  12
ENDBRANCH  10  11
ENDBRANCH   9  10
ENDBRANCH   7   9
ENDBRANCH   4   7
BRANCH   6  17
ATOM     17  N21 ZIN A   1      21.192  -0.490  10.479  0.00  0.00    -0.397 N 
ATOM     18  H46 ZIN A   1      21.912  -0.018  10.923  0.00  0.00     0.156 HD
ATOM     19  H47 ZIN A   1      21.393  -1.179   9.826  0.00  0.00     0.156 HD
ENDBRANCH   6  17
BRANCH   1  20
ATOM     20  O4  ZIN A   1      19.223  -2.444  10.392  0.00  0.00    -0.349 OA
BRANCH  20  21
ATOM     21  C3  ZIN A   1      18.208  -3.443  10.515  0.00  0.00     0.175 C 
BRANCH  21  22
ATOM     22  C2  ZIN A   1      18.671  -4.521  11.496  0.00  0.00     0.022 C 
ATOM     23  C1  ZIN A   1      17.454  -5.285  12.025  0.00  0.00     0.007 C 
ENDBRANCH  21  22
ENDBRANCH  20  21
ENDBRANCH   1  20
TORSDOF 11
ENDMDL
MODEL 5
REMARK VINA RESULT:      -5.5      2.174      3.789
REMARK  11 active torsions:
REMARK  status: ('A' for Active; 'I' for Inactive)
REMARK    1  A    between atoms: C2_2  and  C3_3 
REMARK    2  A    between atoms: C3_3  and  O4_4 
REMARK    3  A    between atoms: O4_4  and  C5_5 
REMARK    4  A    between atoms: C8_8  and  C9_9 
REMARK    5  A    between atoms: C9_9  and  O11_11 
REMARK    6  A    between atoms: O11_11  and  C12_12 
REMARK    7  A    between atoms: C12_12  and  C13_13 
REMARK    8  A    between atoms: C13_13  and  N14_14 
REMARK    9  A    between atoms: N14_14  and  C15_15 
REMARK   10  A    between atoms: N14_14  and  C17_17 
REMARK   11  A    between atoms: C20_20  and  N21_21 
ROOT
ATOM      1  C5  ZIN A   1      18.682  -0.006  12.871  0.00  0.00     0.095 A 
ATOM      2  C6  ZIN A   1      17.521  -0.700  12.561  0.00  0.00     0.040 A 
ATOM      3  C7  ZIN A   1      17.555  -1.736  11.652  0.00  0.00     0.020 A 
ATOM      4  C8  ZIN A   1      18.760  -2.089  11.039  0.00  0.00     0.041 A 
ATOM      5  C19 ZIN A   1      19.931  -1.391  11.350  0.00  0.00     0.049 A 
ATOM      6  C20 ZIN A   1      19.889  -0.350  12.259  0.00  0.00     0.060 A 
ENDROOT
BRANCH   4   7
ATOM      7  C9  ZIN A   1      18.797  -3.198  10.067  0.00  0.00     0.293 C 
ATOM      8  O10 ZIN A   1      18.548  -4.331  10.428  0.00  0.00    -0.259 OA
BRANCH   7   9
ATOM      9  O11 ZIN A   1      19.109  -2.953   8.778  0.00  0.00    -0.316 OA
BRANCH   9  10
ATOM     10  C12 ZIN A   1      18.271  -2.004   8.067  0.00  0.00     0.209 C 
BRANCH  10  11
ATOM     11  C13 ZIN A   1      19.153  -1.082   7.222  0.00  0.00     0.299 C 
BRANCH  11  12
ATOM     12  N14 ZIN A   1      18.732   0.311   7.416  0.00  0.00     0.089 N 
BRANCH  12  13
ATOM     13  C15 ZIN A   1      19.420   0.914   8.566  0.00  0.00     0.268 C 
ATOM     14  C16 ZIN A   1      18.398   1.617   9.461  0.00  0.00     0.037 C 
ENDBRANCH  12  13
BRANCH  12  15
ATOM     15  C17 ZIN A   1      18.952   1.102   6.198  0.00  0.00     0.268 C 
ATOM     16  C18 ZIN A   1      19.214   0.162   5.020  0.00  0.00     0.037 C 
ENDBRANCH  12  15
ENDBRANCH  11  12
ENDBRANCH  10  11
ENDBRANCH   9  10
ENDBRANCH   7   9
ENDBRANCH   4   7
BRANCH   6  17
ATOM     17  N21 ZIN A   1      21.059   0.354  12.572  0.00  0.00    -0.397 N 
ATOM     18  H46 ZIN A   1      21.925  -0.037  12.382  0.00  0.00     0.156 HD
ATOM     19  H47 ZIN A   1      21.002   1.232  12.980  0.00  0.00     0.156 HD
ENDBRANCH   6  17
BRANCH   1  20
ATOM     20  O4  ZIN A   1      18.643   1.013  13.768  0.00  0.00    -0.349 OA
BRANCH  20  21
ATOM     21  C3  ZIN A   1      17.980   0.761  15.008  0.00  0.00     0.175 C 
BRANCH  21  22
ATOM     22  C2  ZIN A   1      18.836  -0.178  15.861  0.00  0.00     0.022 C 
ATOM     23  C1  ZIN A   1      17.963  -1.311  16.405  0.00  0.00     0.007 C 
ENDBRANCH  21  22
ENDBRANCH  20  21
ENDBRANCH   1  20
TORSDOF 11
ENDMDL
MODEL 6
REMARK VINA RESULT:      -5.5      2.750      6.524
REMARK  11 active torsions:
REMARK  status: ('A' for Active; 'I' for Inactive)
REMARK    1  A    between atoms: C2_2  and  C3_3 
REMARK    2  A    between atoms: C3_3  and  O4_4 
REMARK    3  A    between atoms: O4_4  and  C5_5 
REMARK    4  A    between atoms: C8_8  and  C9_9 
REMARK    5  A    between atoms: C9_9  and  O11_11 
REMARK    6  A    between atoms: O11_11  and  C12_12 
REMARK    7  A    between atoms: C12_12  and  C13_13 
REMARK    8  A    between atoms: C13_13  and  N14_14 
REMARK    9  A    between atoms: N14_14  and  C15_15 
REMARK   10  A    between atoms: N14_14  and  C17_17 
REMARK   11  A    between atoms: C20_20  and  N21_21 
ROOT
ATOM      1  C5  ZIN A   1      18.758   0.301   7.813  0.00  0.00     0.095 A 
ATOM      2  C6  ZIN A   1      19.341   1.553   7.951  0.00  0.00     0.040 A 
ATOM      3  C7  ZIN A   1      19.070   2.325   9.060  0.00  0.00     0.020 A 
ATOM      4  C8  ZIN A   1      18.208   1.848  10.051  0.00  0.00     0.041 A 
ATOM      5  C19 ZIN A   1      17.620   0.586   9.914  0.00  0.00     0.049 A 
ATOM      6  C20 ZIN A   1      17.891  -0.180   8.797  0.00  0.00     0.060 A 
ENDROOT
BRANCH   4   7
ATOM      7  C9  ZIN A   1      17.918   2.673  11.239  0.00  0.00     0.293 C 
ATOM      8  O10 ZIN A   1      16.847   3.239  11.339  0.00  0.00    -0.259 OA
BRANCH   7   9
ATOM      9  O11 ZIN A   1      18.842   2.800  12.212  0.00  0.00    -0.316 OA
BRANCH   9  10
ATOM     10  C12 ZIN A   1      19.257   1.584  12.888  0.00  0.00     0.209 C 
BRANCH  10  11
ATOM     11  C13 ZIN A   1      18.191   1.180  13.908  0.00  0.00     0.299 C 
BRANCH  11  12
ATOM     12  N14 ZIN A   1      18.015  -0.278  13.882  0.00  0.00     0.089 N 
BRANCH  12  13
ATOM     13  C15 ZIN A   1      18.898  -0.897  12.884  0.00  0.00     0.268 C 
ATOM     14  C16 ZIN A   1      18.413  -2.317  12.586  0.00  0.00     0.037 C 
ENDBRANCH  12  13
BRANCH  12  15
ATOM     15  C17 ZIN A   1      18.237  -0.858  15.213  0.00  0.00     0.268 C 
ATOM     16  C18 ZIN A   1      17.334  -0.158  16.232  0.00  0.00     0.037 C 
ENDBRANCH  12  15
ENDBRANCH  11  12
ENDBRANCH  10  11
ENDBRANCH   9  10
ENDBRANCH   7   9
ENDBRANCH   4   7
BRANCH   6  17
ATOM     17  N21 ZIN A   1      17.304  -1.444   8.655  0.00  0.00    -0.397 N 
ATOM     18  H46 ZIN A   1      17.842  -2.243   8.762  0.00  0.00     0.156 HD
ATOM     19  H47 ZIN A   1      16.359  -1.519   8.449  0.00  0.00     0.156 HD
ENDBRANCH   6  17
BRANCH   1  20
ATOM     20  O4  ZIN A   1      19.028  -0.456   6.718  0.00  0.00    -0.349 OA
BRANCH  20  21
ATOM     21  C3  ZIN A   1      19.040   0.213   5.455  0.00  0.00     0.175 C 
BRANCH  21  22
ATOM     22  C2  ZIN A   1      18.849  -0.812   4.335  0.00  0.00     0.022 C 
ATOM     23  C1  ZIN A   1      17.476  -1.472   4.477  0.00  0.00     0.007 C 
ENDBRANCH  21  22
ENDBRANCH  20  21
ENDBRANCH   1  20
TORSDOF 11
ENDMDL
MODEL 7
REMARK VINA RESULT:      -5.5      2.142      3.860
REMARK  11 active torsions:
REMARK  status: ('A' for Active; 'I' for Inactive)
REMARK    1  A    between atoms: C2_2  and  C3_3 
REMARK    2  A    between atoms: C3_3  and  O4_4 
REMARK    3  A    between atoms: O4_4  and  C5_5 
REMARK    4  A    between atoms: C8_8  and  C9_9 
REMARK    5  A    between atoms: C9_9  and  O11_11 
REMARK    6  A    between atoms: O11_11  and  C12_12 
REMARK    7  A    between atoms: C12_12  and  C13_13 
REMARK    8  A    between atoms: C13_13  and  N14_14 
REMARK    9  A    between atoms: N14_14  and  C15_15 
REMARK   10  A    between atoms: N14_14  and  C17_17 
REMARK   11  A    between atoms: C20_20  and  N21_21 
ROOT
ATOM      1  C5  ZIN A   1      19.655  -0.769  13.156  0.00  0.00     0.095 A 
ATOM      2  C6  ZIN A   1      18.696  -1.762  13.019  0.00  0.00     0.040 A 
ATOM      3  C7  ZIN A   1      18.505  -2.379  11.800  0.00  0.00     0.020 A 
ATOM      4  C8  ZIN A   1      19.279  -2.004  10.699  0.00  0.00     0.041 A 
ATOM      5  C19 ZIN A   1      20.246  -1.003  10.835  0.00  0.00     0.049 A 
ATOM      6  C20 ZIN A   1      20.428  -0.385  12.058  0.00  0.00     0.060 A 
ENDROOT
BRANCH   4   7
ATOM      7  C9  ZIN A   1      19.076  -2.663   9.395  0.00  0.00     0.293 C 
ATOM      8  O10 ZIN A   1      19.123  -3.875   9.313  0.00  0.00    -0.259 OA
BRANCH   7   9
ATOM      9  O11 ZIN A   1      18.841  -1.921   8.295  0.00  0.00    -0.316 OA
BRANCH   9  10
ATOM     10  C12 ZIN A   1      17.510  -1.357   8.153  0.00  0.00     0.209 C 
BRANCH  10  11
ATOM     11  C13 ZIN A   1      17.600   0.170   8.169  0.00  0.00     0.299 C 
BRANCH  11  12
ATOM     12  N14 ZIN A   1      18.839   0.595   7.503  0.00  0.00     0.089 N 
BRANCH  12  13
ATOM     13  C15 ZIN A   1      18.577   1.005   6.117  0.00  0.00     0.268 C 
ATOM     14  C16 ZIN A   1      19.409   0.144   5.164  0.00  0.00     0.037 C 
ENDBRANCH  12  13
BRANCH  12  15
ATOM     15  C17 ZIN A   1      19.498   1.670   8.255  0.00  0.00     0.268 C 
ATOM     16  C18 ZIN A   1      18.646   2.040   9.470  0.00  0.00     0.037 C 
ENDBRANCH  12  15
ENDBRANCH  11  12
ENDBRANCH  10  11
ENDBRANCH   9  10
ENDBRANCH   7   9
ENDBRANCH   4   7
BRANCH   6  17
ATOM     17  N21 ZIN A   1      21.395   0.618  12.199  0.00  0.00    -0.397 N 
ATOM     18  H46 ZIN A   1      21.217   1.387  12.762  0.00  0.00     0.156 HD
ATOM     19  H47 ZIN A   1      22.242   0.545  11.731  0.00  0.00     0.156 HD
ENDBRANCH   6  17
BRANCH   1  20
ATOM     20  O4  ZIN A   1      19.839  -0.165  14.358  0.00  0.00    -0.349 OA
BRANCH  20  21
ATOM     21  C3  ZIN A   1      18.724  -0.149  15.253  0.00  0.00     0.175 C 
BRANCH  21  22
ATOM     22  C2  ZIN A   1      19.057  -0.974  16.497  0.00  0.00     0.022 C 
ATOM     23  C1  ZIN A   1      18.993  -0.078  17.735  0.00  0.00     0.007 C 
ENDBRANCH  21  22
ENDBRANCH  20  21
ENDBRANCH   1  20
TORSDOF 11
ENDMDL
MODEL 8
REMARK VINA RESULT:      -5.5      2.581      6.580
REMARK  11 active torsions:
REMARK  status: ('A' for Active; 'I' for Inactive)
REMARK    1  A    between atoms: C2_2  and  C3_3 
REMARK    2  A    between atoms: C3_3  and  O4_4 
REMARK    3  A    between atoms: O4_4  and  C5_5 
REMARK    4  A    between atoms: C8_8  and  C9_9 
REMARK    5  A    between atoms: C9_9  and  O11_11 
REMARK    6  A    between atoms: O11_11  and  C12_12 
REMARK    7  A    between atoms: C12_12  and  C13_13 
REMARK    8  A    between atoms: C13_13  and  N14_14 
REMARK    9  A    between atoms: N14_14  and  C15_15 
REMARK   10  A    between atoms: N14_14  and  C17_17 
REMARK   11  A    between atoms: C20_20  and  N21_21 
ROOT
ATOM      1  C5  ZIN A   1      18.566  -1.868  10.735  0.00  0.00     0.095 A 
ATOM      2  C6  ZIN A   1      17.387  -1.215  11.064  0.00  0.00     0.040 A 
ATOM      3  C7  ZIN A   1      17.186  -0.752  12.347  0.00  0.00     0.020 A 
ATOM      4  C8  ZIN A   1      18.171  -0.939  13.320  0.00  0.00     0.041 A 
ATOM      5  C19 ZIN A   1      19.360  -1.597  12.990  0.00  0.00     0.049 A 
ATOM      6  C20 ZIN A   1      19.553  -2.064  11.704  0.00  0.00     0.060 A 
ENDROOT
BRANCH   4   7
ATOM      7  C9  ZIN A   1      17.958  -0.443  14.693  0.00  0.00     0.293 C 
ATOM      8  O10 ZIN A   1      18.108  -1.191  15.639  0.00  0.00    -0.259 OA
BRANCH   7   9
ATOM      9  O11 ZIN A   1      17.595   0.839  14.897  0.00  0.00    -0.316 OA
BRANCH   9  10
ATOM     10  C12 ZIN A   1      18.621   1.850  14.710  0.00  0.00     0.209 C 
BRANCH  10  11
ATOM     11  C13 ZIN A   1      18.163   2.848  13.645  0.00  0.00     0.299 C 
BRANCH  11  12
ATOM     12  N14 ZIN A   1      19.266   3.109  12.711  0.00  0.00     0.089 N 
BRANCH  12  13
ATOM     13  C15 ZIN A   1      19.131   2.294  11.496  0.00  0.00     0.268 C 
ATOM     14  C16 ZIN A   1      17.781   2.582  10.835  0.00  0.00     0.037 C 
ENDBRANCH  12  13
BRANCH  12  15
ATOM     15  C17 ZIN A   1      19.348   4.538  12.381  0.00  0.00     0.268 C 
ATOM     16  C18 ZIN A   1      19.807   5.321  13.612  0.00  0.00     0.037 C 
ENDBRANCH  12  15
ENDBRANCH  11  12
ENDBRANCH  10  11
ENDBRANCH   9  10
ENDBRANCH   7   9
ENDBRANCH   4   7
BRANCH   6  17
ATOM     17  N21 ZIN A   1      20.741  -2.725  11.369  0.00  0.00    -0.397 N 
ATOM     18  H46 ZIN A   1      20.711  -3.543  10.850  0.00  0.00     0.156 HD
ATOM     19  H47 ZIN A   1      21.595  -2.364  11.657  0.00  0.00     0.156 HD
ENDBRANCH   6  17
BRANCH   1  20
ATOM     20  O4  ZIN A   1      18.759  -2.323   9.470  0.00  0.00    -0.349 OA
BRANCH  20  21
ATOM     21  C3  ZIN A   1      18.417  -1.435   8.403  0.00  0.00     0.175 C 
BRANCH  21  22
ATOM     22  C2  ZIN A   1      19.472  -0.332   8.300  0.00  0.00     0.022 C 
ATOM     23  C1  ZIN A   1      18.837   0.926   7.703  0.00  0.00     0.007 C 
ENDBRANCH  21  22
ENDBRANCH  20  21
ENDBRANCH   1  20
TORSDOF 11
ENDMDL
MODEL 9
REMARK VINA RESULT:      -5.4      1.456      2.183
REMARK  11 active torsions:
REMARK  status: ('A' for Active; 'I' for Inactive)
REMARK    1  A    between atoms: C2_2  and  C3_3 
REMARK    2  A    between atoms: C3_3  and  O4_4 
REMARK    3  A    between atoms: O4_4  and  C5_5 
REMARK    4  A    between atoms: C8_8  and  C9_9 
REMARK    5  A    between atoms: C9_9  and  O11_11 
REMARK    6  A    between atoms: O11_11  and  C12_12 
REMARK    7  A    between atoms: C12_12  and  C13_13 
REMARK    8  A    between atoms: C13_13  and  N14_14 
REMARK    9  A    between atoms: N14_14  and  C15_15 
REMARK   10  A    between atoms: N14_14  and  C17_17 
REMARK   11  A    between atoms: C20_20  and  N21_21 
ROOT
ATOM      1  C5  ZIN A   1      19.372   0.672  11.105  0.00  0.00     0.095 A 
ATOM      2  C6  ZIN A   1      18.119   0.907  10.556  0.00  0.00     0.040 A 
ATOM      3  C7  ZIN A   1      17.749   0.287   9.381  0.00  0.00     0.020 A 
ATOM      4  C8  ZIN A   1      18.636  -0.581   8.740  0.00  0.00     0.041 A 
ATOM      5  C19 ZIN A   1      19.899  -0.819   9.291  0.00  0.00     0.049 A 
ATOM      6  C20 ZIN A   1      20.266  -0.191  10.466  0.00  0.00     0.060 A 
ENDROOT
BRANCH   4   7
ATOM      7  C9  ZIN A   1      18.241  -1.245   7.483  0.00  0.00     0.293 C 
ATOM      8  O10 ZIN A   1      17.604  -0.634   6.647  0.00  0.00    -0.259 OA
BRANCH   7   9
ATOM      9  O11 ZIN A   1      18.586  -2.529   7.262  0.00  0.00    -0.316 OA
BRANCH   9  10
ATOM     10  C12 ZIN A   1      17.999  -3.528   8.138  0.00  0.00     0.209 C 
BRANCH  10  11
ATOM     11  C13 ZIN A   1      19.112  -4.354   8.784  0.00  0.00     0.299 C 
BRANCH  11  12
ATOM     12  N14 ZIN A   1      18.654  -4.864  10.083  0.00  0.00     0.089 N 
BRANCH  12  13
ATOM     13  C15 ZIN A   1      18.866  -3.869  11.144  0.00  0.00     0.268 C 
ATOM     14  C16 ZIN A   1      20.348  -3.836  11.523  0.00  0.00     0.037 C 
ENDBRANCH  12  13
BRANCH  12  15
ATOM     15  C17 ZIN A   1      17.245  -5.274  10.020  0.00  0.00     0.268 C 
ATOM     16  C18 ZIN A   1      16.545  -4.897  11.327  0.00  0.00     0.037 C 
ENDBRANCH  12  15
ENDBRANCH  11  12
ENDBRANCH  10  11
ENDBRANCH   9  10
ENDBRANCH   7   9
ENDBRANCH   4   7
BRANCH   6  17
ATOM     17  N21 ZIN A   1      21.530  -0.426  11.021  0.00  0.00    -0.397 N 
ATOM     18  H46 ZIN A   1      21.990  -1.260  10.842  0.00  0.00     0.156 HD
ATOM     19  H47 ZIN A   1      21.945   0.246  11.585  0.00  0.00     0.156 HD
ENDBRANCH   6  17
BRANCH   1  20
ATOM     20  O4  ZIN A   1      19.731   1.284  12.262  0.00  0.00    -0.349 OA
BRANCH  20  21
ATOM     21  C3  ZIN A   1      18.926   1.019  13.413  0.00  0.00     0.175 C 
BRANCH  21  22
ATOM     22  C2  ZIN A   1      19.547  -0.126  14.216  0.00  0.00     0.022 C 
ATOM     23  C1  ZIN A   1      18.699  -1.387  14.042  0.00  0.00     0.007 C 
ENDBRANCH  21  22
ENDBRANCH  20  21
ENDBRANCH   1  20
TORSDOF 11
ENDMDL
