MODEL 1
REMARK VINA RESULT:      -6.4      0.000      0.000
REMARK  7 active torsions:
REMARK  status: ('A' for Active; 'I' for Inactive)
REMARK    1  A    between atoms: C2_2  and  C4_4 
REMARK    2  A    between atoms: C8_8  and  C9_9 
REMARK    3  A    between atoms: C12_12  and  O13_13 
REMARK    4  A    between atoms: O13_13  and  C14_14 
REMARK    5  A    between atoms: C14_14  and  O15_15 
REMARK    6  A    between atoms: O15_15  and  P16_16 
REMARK    7  A    between atoms: P16_16  and  O19_19 
ROOT
ATOM      1  C4  ZIN A   1      18.177  -2.230  10.648  0.00  0.00    -0.021 A 
ATOM      2  C5  ZIN A   1      17.472  -1.497  11.583  0.00  0.00     0.010 A 
ATOM      3  C6  ZIN A   1      17.100  -0.194  11.304  0.00  0.00     0.001 A 
ATOM      4  C7  ZIN A   1      17.431   0.376  10.089  0.00  0.00     0.010 A 
ATOM      5  C8  ZIN A   1      18.136  -0.352   9.152  0.00  0.00    -0.021 A 
ATOM      6  C12 ZIN A   1      18.516  -1.658   9.430  0.00  0.00     0.085 A 
ENDROOT
BRANCH   6   7
ATOM      7  O13 ZIN A   1      19.208  -2.376   8.509  0.00  0.00    -0.325 OA
BRANCH   7   8
ATOM      8  C14 ZIN A   1      18.447  -3.038   7.496  0.00  0.00     0.358 C 
BRANCH   8   9
ATOM      9  O15 ZIN A   1      18.539  -4.452   7.679  0.00  0.00    -0.264 OA
BRANCH   9  10
ATOM     10  P16 ZIN A   1      19.863  -5.298   7.325  0.00  0.00     0.407 P 
ATOM     11  O17 ZIN A   1      20.363  -6.025   8.592  0.00  0.00    -0.624 OA
ATOM     12  O18 ZIN A   1      19.532  -6.337   6.230  0.00  0.00    -0.624 OA
BRANCH  10  13
ATOM     13  O19 ZIN A   1      21.008  -4.301   6.790  0.00  0.00    -0.300 OA
ATOM     14  H39 ZIN A   1      21.624  -4.709   6.166  0.00  0.00     0.223 HD
ENDBRANCH  10  13
ENDBRANCH   9  10
ENDBRANCH   8   9
ENDBRANCH   7   8
ENDBRANCH   6   7
BRANCH   1  15
ATOM     15  C2  ZIN A   1      18.584  -3.649  10.953  0.00  0.00     0.013 C 
ATOM     16  C1  ZIN A   1      19.918  -3.648  11.701  0.00  0.00     0.015 C 
ATOM     17  C3  ZIN A   1      17.512  -4.311  11.822  0.00  0.00     0.015 C 
ENDBRANCH   1  15
BRANCH   5  18
ATOM     18  C9  ZIN A   1      18.497   0.271   7.828  0.00  0.00     0.013 C 
ATOM     19  C10 ZIN A   1      17.272   0.265   6.911  0.00  0.00     0.015 C 
ATOM     20  C11 ZIN A   1      18.960   1.711   8.051  0.00  0.00     0.015 C 
ENDBRANCH   5  18
TORSDOF 7
ENDMDL
MODEL 2
REMARK VINA RESULT:      -6.4      0.163      3.767
REMARK  7 active torsions:
REMARK  status: ('A' for Active; 'I' for Inactive)
REMARK    1  A    between atoms: C2_2  and  C4_4 
REMARK    2  A    between atoms: C8_8  and  C9_9 
REMARK    3  A    between atoms: C12_12  and  O13_13 
REMARK    4  A    between atoms: O13_13  and  C14_14 
REMARK    5  A    between atoms: C14_14  and  O15_15 
REMARK    6  A    between atoms: O15_15  and  P16_16 
REMARK    7  A    between atoms: P16_16  and  O19_19 
ROOT
ATOM      1  C4  ZIN A   1      18.151  -0.259   9.006  0.00  0.00    -0.021 A 
ATOM      2  C5  ZIN A   1      17.421   0.495   9.904  0.00  0.00     0.010 A 
ATOM      3  C6  ZIN A   1      17.042  -0.049  11.118  0.00  0.00     0.001 A 
ATOM      4  C7  ZIN A   1      17.392  -1.348  11.435  0.00  0.00     0.010 A 
ATOM      5  C8  ZIN A   1      18.122  -2.106  10.541  0.00  0.00    -0.021 A 
ATOM      6  C12 ZIN A   1      18.499  -1.565   9.320  0.00  0.00     0.085 A 
ENDROOT
BRANCH   6   7
ATOM      7  O13 ZIN A   1      19.217  -2.309   8.439  0.00  0.00    -0.325 OA
BRANCH   7   8
ATOM      8  C14 ZIN A   1      18.482  -3.031   7.448  0.00  0.00     0.358 C 
BRANCH   8   9
ATOM      9  O15 ZIN A   1      18.570  -4.431   7.718  0.00  0.00    -0.264 OA
BRANCH   9  10
ATOM     10  P16 ZIN A   1      19.868  -5.314   7.357  0.00  0.00     0.407 P 
ATOM     11  O17 ZIN A   1      20.341  -6.072   8.617  0.00  0.00    -0.624 OA
ATOM     12  O18 ZIN A   1      19.508  -6.329   6.250  0.00  0.00    -0.624 OA
BRANCH  10  13
ATOM     13  O19 ZIN A   1      21.046  -4.348   6.839  0.00  0.00    -0.300 OA
ATOM     14  H39 ZIN A   1      21.934  -4.655   7.065  0.00  0.00     0.223 HD
ENDBRANCH  10  13
ENDBRANCH   9  10
ENDBRANCH   8   9
ENDBRANCH   7   8
ENDBRANCH   6   7
BRANCH   1  15
ATOM     15  C2  ZIN A   1      18.563   0.334   7.683  0.00  0.00     0.013 C 
ATOM     16  C1  ZIN A   1      17.363   0.346   6.734  0.00  0.00     0.015 C 
ATOM     17  C3  ZIN A   1      19.058   1.766   7.899  0.00  0.00     0.015 C 
ENDBRANCH   1  15
BRANCH   5  18
ATOM     18  C9  ZIN A   1      18.503  -3.523  10.887  0.00  0.00     0.013 C 
ATOM     19  C10 ZIN A   1      19.774  -3.514  11.740  0.00  0.00     0.015 C 
ATOM     20  C11 ZIN A   1      17.367  -4.179  11.672  0.00  0.00     0.015 C 
ENDBRANCH   5  18
TORSDOF 7
ENDMDL
MODEL 3
REMARK VINA RESULT:      -6.3      1.569      3.990
REMARK  7 active torsions:
REMARK  status: ('A' for Active; 'I' for Inactive)
REMARK    1  A    between atoms: C2_2  and  C4_4 
REMARK    2  A    between atoms: C8_8  and  C9_9 
REMARK    3  A    between atoms: C12_12  and  O13_13 
REMARK    4  A    between atoms: O13_13  and  C14_14 
REMARK    5  A    between atoms: C14_14  and  O15_15 
REMARK    6  A    between atoms: O15_15  and  P16_16 
REMARK    7  A    between atoms: P16_16  and  O19_19 
ROOT
ATOM      1  C4  ZIN A   1      18.963  -0.061   7.102  0.00  0.00    -0.021 A 
ATOM      2  C5  ZIN A   1      18.808   1.310   7.170  0.00  0.00     0.010 A 
ATOM      3  C6  ZIN A   1      18.972   1.966   8.377  0.00  0.00     0.001 A 
ATOM      4  C7  ZIN A   1      19.291   1.252   9.517  0.00  0.00     0.010 A 
ATOM      5  C8  ZIN A   1      19.446  -0.119   9.454  0.00  0.00    -0.021 A 
ATOM      6  C12 ZIN A   1      19.278  -0.781   8.246  0.00  0.00     0.085 A 
ENDROOT
BRANCH   6   7
ATOM      7  O13 ZIN A   1      19.431  -2.129   8.182  0.00  0.00    -0.325 OA
BRANCH   7   8
ATOM      8  C14 ZIN A   1      18.249  -2.923   8.305  0.00  0.00     0.358 C 
BRANCH   8   9
ATOM      9  O15 ZIN A   1      18.357  -4.070   7.460  0.00  0.00    -0.264 OA
BRANCH   9  10
ATOM     10  P16 ZIN A   1      19.693  -4.965   7.361  0.00  0.00     0.407 P 
ATOM     11  O17 ZIN A   1      20.113  -5.419   8.775  0.00  0.00    -0.624 OA
ATOM     12  O18 ZIN A   1      19.418  -6.204   6.481  0.00  0.00    -0.624 OA
BRANCH  10  13
ATOM     13  O19 ZIN A   1      20.874  -4.091   6.704  0.00  0.00    -0.300 OA
ATOM     14  H39 ZIN A   1      21.131  -4.382   5.818  0.00  0.00     0.223 HD
ENDBRANCH  10  13
ENDBRANCH   9  10
ENDBRANCH   8   9
ENDBRANCH   7   8
ENDBRANCH   6   7
BRANCH   1  15
ATOM     15  C2  ZIN A   1      18.784  -0.776   5.788  0.00  0.00     0.013 C 
ATOM     16  C1  ZIN A   1      17.293  -0.868   5.456  0.00  0.00     0.015 C 
ATOM     17  C3  ZIN A   1      19.506  -0.001   4.683  0.00  0.00     0.015 C 
ENDBRANCH   1  15
BRANCH   5  18
ATOM     18  C9  ZIN A   1      19.794  -0.896  10.697  0.00  0.00     0.013 C 
ATOM     19  C10 ZIN A   1      20.765  -0.080  11.553  0.00  0.00     0.015 C 
ATOM     20  C11 ZIN A   1      18.521  -1.176  11.497  0.00  0.00     0.015 C 
ENDBRANCH   5  18
TORSDOF 7
ENDMDL
MODEL 4
REMARK VINA RESULT:      -6.3      1.661      2.598
REMARK  7 active torsions:
REMARK  status: ('A' for Active; 'I' for Inactive)
REMARK    1  A    between atoms: C2_2  and  C4_4 
REMARK    2  A    between atoms: C8_8  and  C9_9 
REMARK    3  A    between atoms: C12_12  and  O13_13 
REMARK    4  A    between atoms: O13_13  and  C14_14 
REMARK    5  A    between atoms: C14_14  and  O15_15 
REMARK    6  A    between atoms: O15_15  and  P16_16 
REMARK    7  A    between atoms: P16_16  and  O19_19 
ROOT
ATOM      1  C4  ZIN A   1      19.505   0.062   9.580  0.00  0.00    -0.021 A 
ATOM      2  C5  ZIN A   1      19.325   1.428   9.674  0.00  0.00     0.010 A 
ATOM      3  C6  ZIN A   1      18.964   2.158   8.556  0.00  0.00     0.001 A 
ATOM      4  C7  ZIN A   1      18.783   1.521   7.342  0.00  0.00     0.010 A 
ATOM      5  C8  ZIN A   1      18.962   0.156   7.243  0.00  0.00    -0.021 A 
ATOM      6  C12 ZIN A   1      19.330  -0.579   8.362  0.00  0.00     0.085 A 
ENDROOT
BRANCH   6   7
ATOM      7  O13 ZIN A   1      19.506  -1.922   8.267  0.00  0.00    -0.325 OA
BRANCH   7   8
ATOM      8  C14 ZIN A   1      18.334  -2.737   8.333  0.00  0.00     0.358 C 
BRANCH   8   9
ATOM      9  O15 ZIN A   1      18.691  -4.103   8.110  0.00  0.00    -0.264 OA
BRANCH   9  10
ATOM     10  P16 ZIN A   1      19.424  -4.609   6.769  0.00  0.00     0.407 P 
ATOM     11  O17 ZIN A   1      19.392  -6.153   6.717  0.00  0.00    -0.624 OA
ATOM     12  O18 ZIN A   1      18.693  -4.036   5.534  0.00  0.00    -0.624 OA
BRANCH  10  13
ATOM     13  O19 ZIN A   1      20.952  -4.104   6.770  0.00  0.00    -0.300 OA
ATOM     14  H39 ZIN A   1      21.133  -3.398   6.134  0.00  0.00     0.223 HD
ENDBRANCH  10  13
ENDBRANCH   9  10
ENDBRANCH   8   9
ENDBRANCH   7   8
ENDBRANCH   6   7
BRANCH   1  15
ATOM     15  C2  ZIN A   1      19.900  -0.733  10.799  0.00  0.00     0.013 C 
ATOM     16  C1  ZIN A   1      20.762   0.136  11.717  0.00  0.00     0.015 C 
ATOM     17  C3  ZIN A   1      18.640  -1.174  11.549  0.00  0.00     0.015 C 
ENDBRANCH   1  15
BRANCH   5  18
ATOM     18  C9  ZIN A   1      18.765  -0.537   5.919  0.00  0.00     0.013 C 
ATOM     19  C10 ZIN A   1      17.271  -0.594   5.592  0.00  0.00     0.015 C 
ATOM     20  C11 ZIN A   1      19.498   0.238   4.824  0.00  0.00     0.015 C 
ENDBRANCH   5  18
TORSDOF 7
ENDMDL
MODEL 5
REMARK VINA RESULT:      -6.1      6.474      8.817
REMARK  7 active torsions:
REMARK  status: ('A' for Active; 'I' for Inactive)
REMARK    1  A    between atoms: C2_2  and  C4_4 
REMARK    2  A    between atoms: C8_8  and  C9_9 
REMARK    3  A    between atoms: C12_12  and  O13_13 
REMARK    4  A    between atoms: O13_13  and  C14_14 
REMARK    5  A    between atoms: C14_14  and  O15_15 
REMARK    6  A    between atoms: O15_15  and  P16_16 
REMARK    7  A    between atoms: P16_16  and  O19_19 
ROOT
ATOM      1  C4  ZIN A   1      18.072   1.765  11.454  0.00  0.00    -0.021 A 
ATOM      2  C5  ZIN A   1      17.292   0.830  10.802  0.00  0.00     0.010 A 
ATOM      3  C6  ZIN A   1      16.942  -0.346  11.440  0.00  0.00     0.001 A 
ATOM      4  C7  ZIN A   1      17.370  -0.587  12.733  0.00  0.00     0.010 A 
ATOM      5  C8  ZIN A   1      18.150   0.345  13.389  0.00  0.00    -0.021 A 
ATOM      6  C12 ZIN A   1      18.508   1.523  12.749  0.00  0.00     0.085 A 
ENDROOT
BRANCH   6   7
ATOM      7  O13 ZIN A   1      19.274   2.441  13.393  0.00  0.00    -0.325 OA
BRANCH   7   8
ATOM      8  C14 ZIN A   1      18.594   3.390  14.218  0.00  0.00     0.358 C 
BRANCH   8   9
ATOM      9  O15 ZIN A   1      19.356   4.597  14.282  0.00  0.00    -0.264 OA
BRANCH   9  10
ATOM     10  P16 ZIN A   1      19.779   5.295  15.671  0.00  0.00     0.407 P 
ATOM     11  O17 ZIN A   1      19.442   6.801  15.614  0.00  0.00    -0.624 OA
ATOM     12  O18 ZIN A   1      19.003   4.637  16.834  0.00  0.00    -0.624 OA
BRANCH  10  13
ATOM     13  O19 ZIN A   1      21.360   5.107  15.906  0.00  0.00    -0.300 OA
ATOM     14  H39 ZIN A   1      21.681   4.213  15.722  0.00  0.00     0.223 HD
ENDBRANCH  10  13
ENDBRANCH   9  10
ENDBRANCH   8   9
ENDBRANCH   7   8
ENDBRANCH   6   7
BRANCH   1  15
ATOM     15  C2  ZIN A   1      18.455   3.046  10.758  0.00  0.00     0.013 C 
ATOM     16  C1  ZIN A   1      18.796   2.749   9.296  0.00  0.00     0.015 C 
ATOM     17  C3  ZIN A   1      17.283   4.029  10.818  0.00  0.00     0.015 C 
ENDBRANCH   1  15
BRANCH   5  18
ATOM     18  C9  ZIN A   1      18.616   0.081  14.797  0.00  0.00     0.013 C 
ATOM     19  C10 ZIN A   1      17.417   0.118  15.747  0.00  0.00     0.015 C 
ATOM     20  C11 ZIN A   1      19.278  -1.296  14.866  0.00  0.00     0.015 C 
ENDBRANCH   5  18
TORSDOF 7
ENDMDL
MODEL 6
REMARK VINA RESULT:      -6.1      1.926      4.420
REMARK  7 active torsions:
REMARK  status: ('A' for Active; 'I' for Inactive)
REMARK    1  A    between atoms: C2_2  and  C4_4 
REMARK    2  A    between atoms: C8_8  and  C9_9 
REMARK    3  A    between atoms: C12_12  and  O13_13 
REMARK    4  A    between atoms: O13_13  and  C14_14 
REMARK    5  A    between atoms: C14_14  and  O15_15 
REMARK    6  A    between atoms: O15_15  and  P16_16 
REMARK    7  A    between atoms: P16_16  and  O19_19 
ROOT
ATOM      1  C4  ZIN A   1      18.332  -0.272   9.316  0.00  0.00    -0.021 A 
ATOM      2  C5  ZIN A   1      17.649   0.375  10.328  0.00  0.00     0.010 A 
ATOM      3  C6  ZIN A   1      17.183  -0.340  11.416  0.00  0.00     0.001 A 
ATOM      4  C7  ZIN A   1      17.400  -1.703  11.495  0.00  0.00     0.010 A 
ATOM      5  C8  ZIN A   1      18.082  -2.354  10.486  0.00  0.00    -0.021 A 
ATOM      6  C12 ZIN A   1      18.546  -1.641   9.390  0.00  0.00     0.085 A 
ENDROOT
BRANCH   6   7
ATOM      7  O13 ZIN A   1      19.218  -2.280   8.397  0.00  0.00    -0.325 OA
BRANCH   7   8
ATOM      8  C14 ZIN A   1      18.432  -2.884   7.367  0.00  0.00     0.358 C 
BRANCH   8   9
ATOM      9  O15 ZIN A   1      19.231  -3.044   6.192  0.00  0.00    -0.264 OA
BRANCH   9  10
ATOM     10  P16 ZIN A   1      18.828  -2.414   4.766  0.00  0.00     0.407 P 
ATOM     11  O17 ZIN A   1      17.396  -1.841   4.842  0.00  0.00    -0.624 OA
ATOM     12  O18 ZIN A   1      19.818  -1.283   4.405  0.00  0.00    -0.624 OA
BRANCH  10  13
ATOM     13  O19 ZIN A   1      18.888  -3.560   3.638  0.00  0.00    -0.300 OA
ATOM     14  H39 ZIN A   1      18.026  -3.938   3.415  0.00  0.00     0.223 HD
ENDBRANCH  10  13
ENDBRANCH   9  10
ENDBRANCH   8   9
ENDBRANCH   7   8
ENDBRANCH   6   7
BRANCH   1  15
ATOM     15  C2  ZIN A   1      18.839   0.507   8.130  0.00  0.00     0.013 C 
ATOM     16  C1  ZIN A   1      17.731   0.615   7.080  0.00  0.00     0.015 C 
ATOM     17  C3  ZIN A   1      19.253   1.910   8.581  0.00  0.00     0.015 C 
ENDBRANCH   1  15
BRANCH   5  18
ATOM     18  C9  ZIN A   1      18.318  -3.841  10.572  0.00  0.00     0.013 C 
ATOM     19  C10 ZIN A   1      19.560  -4.111  11.424  0.00  0.00     0.015 C 
ATOM     20  C11 ZIN A   1      17.103  -4.513  11.214  0.00  0.00     0.015 C 
ENDBRANCH   5  18
TORSDOF 7
ENDMDL
MODEL 7
REMARK VINA RESULT:      -6.1      1.880      2.335
REMARK  7 active torsions:
REMARK  status: ('A' for Active; 'I' for Inactive)
REMARK    1  A    between atoms: C2_2  and  C4_4 
REMARK    2  A    between atoms: C8_8  and  C9_9 
REMARK    3  A    between atoms: C12_12  and  O13_13 
REMARK    4  A    between atoms: O13_13  and  C14_14 
REMARK    5  A    between atoms: C14_14  and  O15_15 
REMARK    6  A    between atoms: O15_15  and  P16_16 
REMARK    7  A    between atoms: P16_16  and  O19_19 
ROOT
ATOM      1  C4  ZIN A   1      18.208  -2.684  10.327  0.00  0.00    -0.021 A 
ATOM      2  C5  ZIN A   1      17.542  -2.024  11.341  0.00  0.00     0.010 A 
ATOM      3  C6  ZIN A   1      17.156  -0.707  11.172  0.00  0.00     0.001 A 
ATOM      4  C7  ZIN A   1      17.434  -0.049   9.989  0.00  0.00     0.010 A 
ATOM      5  C8  ZIN A   1      18.099  -0.705   8.972  0.00  0.00    -0.021 A 
ATOM      6  C12 ZIN A   1      18.494  -2.025   9.140  0.00  0.00     0.085 A 
ENDROOT
BRANCH   6   7
ATOM      7  O13 ZIN A   1      19.148  -2.672   8.142  0.00  0.00    -0.325 OA
BRANCH   7   8
ATOM      8  C14 ZIN A   1      18.346  -3.377   7.191  0.00  0.00     0.358 C 
BRANCH   8   9
ATOM      9  O15 ZIN A   1      19.084  -3.547   5.979  0.00  0.00    -0.264 OA
BRANCH   9  10
ATOM     10  P16 ZIN A   1      18.659  -2.855   4.588  0.00  0.00     0.407 P 
ATOM     11  O17 ZIN A   1      17.223  -2.300   4.709  0.00  0.00    -0.624 OA
ATOM     12  O18 ZIN A   1      19.634  -1.700   4.269  0.00  0.00    -0.624 OA
BRANCH  10  13
ATOM     13  O19 ZIN A   1      18.715  -3.947   3.407  0.00  0.00    -0.300 OA
ATOM     14  H39 ZIN A   1      19.297  -3.703   2.674  0.00  0.00     0.223 HD
ENDBRANCH  10  13
ENDBRANCH   9  10
ENDBRANCH   8   9
ENDBRANCH   7   8
ENDBRANCH   6   7
BRANCH   1  15
ATOM     15  C2  ZIN A   1      18.631  -4.119  10.512  0.00  0.00     0.013 C 
ATOM     16  C1  ZIN A   1      19.893  -4.172  11.376  0.00  0.00     0.015 C 
ATOM     17  C3  ZIN A   1      17.507  -4.897  11.201  0.00  0.00     0.015 C 
ENDBRANCH   1  15
BRANCH   5  18
ATOM     18  C9  ZIN A   1      18.402   0.013   7.682  0.00  0.00     0.013 C 
ATOM     19  C10 ZIN A   1      17.120   0.142   6.857  0.00  0.00     0.015 C 
ATOM     20  C11 ZIN A   1      18.952   1.406   7.991  0.00  0.00     0.015 C 
ENDBRANCH   5  18
TORSDOF 7
ENDMDL
MODEL 8
REMARK VINA RESULT:      -6.1      2.119      2.805
REMARK  7 active torsions:
REMARK  status: ('A' for Active; 'I' for Inactive)
REMARK    1  A    between atoms: C2_2  and  C4_4 
REMARK    2  A    between atoms: C8_8  and  C9_9 
REMARK    3  A    between atoms: C12_12  and  O13_13 
REMARK    4  A    between atoms: O13_13  and  C14_14 
REMARK    5  A    between atoms: C14_14  and  O15_15 
REMARK    6  A    between atoms: O15_15  and  P16_16 
REMARK    7  A    between atoms: P16_16  and  O19_19 
ROOT
ATOM      1  C4  ZIN A   1      18.349  -2.325  11.203  0.00  0.00    -0.021 A 
ATOM      2  C5  ZIN A   1      18.601  -2.069  12.537  0.00  0.00     0.010 A 
ATOM      3  C6  ZIN A   1      18.706  -0.764  12.983  0.00  0.00     0.001 A 
ATOM      4  C7  ZIN A   1      18.559   0.286  12.095  0.00  0.00     0.010 A 
ATOM      5  C8  ZIN A   1      18.308   0.034  10.761  0.00  0.00    -0.021 A 
ATOM      6  C12 ZIN A   1      18.207  -1.274  10.309  0.00  0.00     0.085 A 
ENDROOT
BRANCH   6   7
ATOM      7  O13 ZIN A   1      17.960  -1.524   8.997  0.00  0.00    -0.325 OA
BRANCH   7   8
ATOM      8  C14 ZIN A   1      19.073  -1.912   8.189  0.00  0.00     0.358 C 
BRANCH   8   9
ATOM      9  O15 ZIN A   1      19.070  -1.153   6.978  0.00  0.00    -0.264 OA
BRANCH   9  10
ATOM     10  P16 ZIN A   1      19.029  -1.832   5.518  0.00  0.00     0.407 P 
ATOM     11  O17 ZIN A   1      19.818  -0.955   4.521  0.00  0.00    -0.624 OA
ATOM     12  O18 ZIN A   1      19.666  -3.238   5.586  0.00  0.00    -0.624 OA
BRANCH  10  13
ATOM     13  O19 ZIN A   1      17.501  -1.958   5.029  0.00  0.00    -0.300 OA
ATOM     14  H39 ZIN A   1      17.385  -2.501   4.237  0.00  0.00     0.223 HD
ENDBRANCH  10  13
ENDBRANCH   9  10
ENDBRANCH   8   9
ENDBRANCH   7   8
ENDBRANCH   6   7
BRANCH   1  15
ATOM     15  C2  ZIN A   1      18.236  -3.748  10.717  0.00  0.00     0.013 C 
ATOM     16  C1  ZIN A   1      19.536  -4.495  11.019  0.00  0.00     0.015 C 
ATOM     17  C3  ZIN A   1      17.072  -4.439  11.431  0.00  0.00     0.015 C 
ENDBRANCH   1  15
BRANCH   5  18
ATOM     18  C9  ZIN A   1      18.149   1.180   9.794  0.00  0.00     0.013 C 
ATOM     19  C10 ZIN A   1      17.587   2.396  10.533  0.00  0.00     0.015 C 
ATOM     20  C11 ZIN A   1      19.510   1.533   9.193  0.00  0.00     0.015 C 
ENDBRANCH   5  18
TORSDOF 7
ENDMDL
MODEL 9
REMARK VINA RESULT:      -6.0      5.889      7.686
REMARK  7 active torsions:
REMARK  status: ('A' for Active; 'I' for Inactive)
REMARK    1  A    between atoms: C2_2  and  C4_4 
REMARK    2  A    between atoms: C8_8  and  C9_9 
REMARK    3  A    between atoms: C12_12  and  O13_13 
REMARK    4  A    between atoms: O13_13  and  C14_14 
REMARK    5  A    between atoms: C14_14  and  O15_15 
REMARK    6  A    between atoms: O15_15  and  P16_16 
REMARK    7  A    between atoms: P16_16  and  O19_19 
ROOT
ATOM      1  C4  ZIN A   1      18.451   4.237  12.790  0.00  0.00    -0.021 A 
ATOM      2  C5  ZIN A   1      17.575   5.156  12.244  0.00  0.00     0.010 A 
ATOM      3  C6  ZIN A   1      17.095   4.976  10.959  0.00  0.00     0.001 A 
ATOM      4  C7  ZIN A   1      17.490   3.876  10.219  0.00  0.00     0.010 A 
ATOM      5  C8  ZIN A   1      18.365   2.956  10.761  0.00  0.00    -0.021 A 
ATOM      6  C12 ZIN A   1      18.853   3.136  12.047  0.00  0.00     0.085 A 
ENDROOT
BRANCH   6   7
ATOM      7  O13 ZIN A   1      19.713   2.232  12.582  0.00  0.00    -0.325 OA
BRANCH   7   8
ATOM      8  C14 ZIN A   1      19.141   1.069  13.185  0.00  0.00     0.358 C 
BRANCH   8   9
ATOM      9  O15 ZIN A   1      19.703   0.883  14.486  0.00  0.00    -0.264 OA
BRANCH   9  10
ATOM     10  P16 ZIN A   1      18.817   0.887  15.832  0.00  0.00     0.407 P 
ATOM     11  O17 ZIN A   1      18.934  -0.487  16.528  0.00  0.00    -0.624 OA
ATOM     12  O18 ZIN A   1      19.331   1.991  16.782  0.00  0.00    -0.624 OA
BRANCH  10  13
ATOM     13  O19 ZIN A   1      17.278   1.171  15.459  0.00  0.00    -0.300 OA
ATOM     14  H39 ZIN A   1      16.660   0.516  15.814  0.00  0.00     0.223 HD
ENDBRANCH  10  13
ENDBRANCH   9  10
ENDBRANCH   8   9
ENDBRANCH   7   8
ENDBRANCH   6   7
BRANCH   1  15
ATOM     15  C2  ZIN A   1      18.975   4.435  14.189  0.00  0.00     0.013 C 
ATOM     16  C1  ZIN A   1      19.967   5.599  14.203  0.00  0.00     0.015 C 
ATOM     17  C3  ZIN A   1      17.809   4.747  15.130  0.00  0.00     0.015 C 
ENDBRANCH   1  15
BRANCH   5  18
ATOM     18  C9  ZIN A   1      18.795   1.758   9.953  0.00  0.00     0.013 C 
ATOM     19  C10 ZIN A   1      17.646   0.749   9.887  0.00  0.00     0.015 C 
ATOM     20  C11 ZIN A   1      19.165   2.203   8.538  0.00  0.00     0.015 C 
ENDBRANCH   5  18
TORSDOF 7
ENDMDL
