MODEL 1
REMARK VINA RESULT:      -8.6      0.000      0.000
REMARK  2 active torsions:
REMARK  status: ('A' for Active; 'I' for Inactive)
REMARK    1  A    between atoms: C7_6  and  N8_7 
REMARK    2  A    between atoms: C22_21  and  C23_22 
ROOT
ATOM      1  C1  ZIN A   1      18.169  -2.086  11.341  0.00  0.00     0.035 C 
ATOM      2  C2  ZIN A   1      19.501  -1.546  10.819  0.00  0.00     0.110 C 
ATOM      3  C4  ZIN A   1      20.116  -0.607  11.860  0.00  0.00     0.201 C 
ATOM      4  O5  ZIN A   1      19.275   0.545  11.994  0.00  0.00    -0.345 OA
ATOM      5  C6  ZIN A   1      19.019   1.228  10.844  0.00  0.00     0.121 A 
ATOM      6  C7  ZIN A   1      18.752   2.589  10.887  0.00  0.00     0.086 A 
ATOM      7  C15 ZIN A   1      18.493   3.297   9.712  0.00  0.00     0.141 A 
ATOM      8  F16 ZIN A   1      18.232   4.622   9.767  0.00  0.00    -0.204 F 
ATOM      9  C17 ZIN A   1      18.504   2.655   8.506  0.00  0.00     0.062 A 
ATOM     10  C18 ZIN A   1      18.770   1.284   8.446  0.00  0.00     0.048 A 
ATOM     11  C19 ZIN A   1      19.025   0.557   9.623  0.00  0.00     0.085 A 
ATOM     12  N20 ZIN A   1      19.274  -0.804   9.569  0.00  0.00    -0.346 N 
ATOM     13  C21 ZIN A   1      19.313  -1.474   8.407  0.00  0.00     0.114 A 
ATOM     14  C22 ZIN A   1      19.086  -0.867   7.189  0.00  0.00     0.107 A 
ATOM     15  C26 ZIN A   1      18.792   0.575   7.155  0.00  0.00     0.203 A 
ATOM     16  O27 ZIN A   1      18.576   1.157   6.107  0.00  0.00    -0.286 OA
ENDROOT
BRANCH   6  17
ATOM     17  N8  ZIN A   1      18.742   3.255  12.114  0.00  0.00    -0.275 NA
ATOM     18  C14 ZIN A   1      19.760   4.313  12.147  0.00  0.00     0.126 C 
ATOM     19  C13 ZIN A   1      19.772   4.965  13.532  0.00  0.00     0.286 C 
ATOM     20  N11 ZIN A   1      18.439   5.511  13.824  0.00  0.00     0.086 N 
ATOM     21  C10 ZIN A   1      17.420   4.453  13.791  0.00  0.00     0.286 C 
ATOM     22  C12 ZIN A   1      18.428   6.212  15.115  0.00  0.00     0.310 C 
ATOM     23  C9  ZIN A   1      17.410   3.802  12.406  0.00  0.00     0.126 C 
ENDBRANCH   6  17
BRANCH  14  24
ATOM     24  C23 ZIN A   1      19.138  -1.646   5.948  0.00  0.00     0.214 C 
ATOM     25  O24 ZIN A   1      19.915  -1.329   5.058  0.00  0.00    -0.644 OA
ATOM     26  O25 ZIN A   1      18.402  -2.614   5.802  0.00  0.00    -0.644 OA
ENDBRANCH  14  24
TORSDOF 2
ENDMDL
MODEL 2
REMARK VINA RESULT:      -8.6      3.484      7.900
REMARK  2 active torsions:
REMARK  status: ('A' for Active; 'I' for Inactive)
REMARK    1  A    between atoms: C7_6  and  N8_7 
REMARK    2  A    between atoms: C22_21  and  C23_22 
ROOT
ATOM      1  C1  ZIN A   1      17.489   4.239  13.557  0.00  0.00     0.035 C 
ATOM      2  C2  ZIN A   1      18.900   3.684  13.764  0.00  0.00     0.110 C 
ATOM      3  C4  ZIN A   1      19.551   3.422  12.403  0.00  0.00     0.201 C 
ATOM      4  O5  ZIN A   1      18.831   2.372  11.744  0.00  0.00    -0.345 OA
ATOM      5  C6  ZIN A   1      18.717   1.206  12.439  0.00  0.00     0.121 A 
ATOM      6  C7  ZIN A   1      18.595   0.001  11.762  0.00  0.00     0.086 A 
ATOM      7  C15 ZIN A   1      18.483  -1.199  12.468  0.00  0.00     0.141 A 
ATOM      8  F16 ZIN A   1      18.361  -2.365  11.797  0.00  0.00    -0.204 F 
ATOM      9  C17 ZIN A   1      18.494  -1.197  13.834  0.00  0.00     0.062 A 
ATOM     10  C18 ZIN A   1      18.615   0.010  14.530  0.00  0.00     0.048 A 
ATOM     11  C19 ZIN A   1      18.722   1.226  13.833  0.00  0.00     0.085 A 
ATOM     12  N20 ZIN A   1      18.826   2.424  14.519  0.00  0.00    -0.346 N 
ATOM     13  C21 ZIN A   1      18.861   2.475  15.859  0.00  0.00     0.114 A 
ATOM     14  C22 ZIN A   1      18.772   1.348  16.650  0.00  0.00     0.107 A 
ATOM     15  C26 ZIN A   1      18.636   0.032  16.003  0.00  0.00     0.203 A 
ATOM     16  O27 ZIN A   1      18.544  -0.992  16.656  0.00  0.00    -0.286 OA
ENDROOT
BRANCH   6  17
ATOM     17  N8  ZIN A   1      18.585  -0.012  10.366  0.00  0.00    -0.275 NA
ATOM     18  C14 ZIN A   1      19.534  -1.004   9.843  0.00  0.00     0.126 C 
ATOM     19  C13 ZIN A   1      19.552  -0.932   8.313  0.00  0.00     0.286 C 
ATOM     20  N11 ZIN A   1      18.198  -1.180   7.798  0.00  0.00     0.086 N 
ATOM     21  C10 ZIN A   1      17.248  -0.188   8.322  0.00  0.00     0.286 C 
ATOM     22  C12 ZIN A   1      18.187  -1.194   6.330  0.00  0.00     0.310 C 
ATOM     23  C9  ZIN A   1      17.231  -0.260   9.852  0.00  0.00     0.126 C 
ENDBRANCH   6  17
BRANCH  14  24
ATOM     24  C23 ZIN A   1      18.811   1.459  18.111  0.00  0.00     0.214 C 
ATOM     25  O24 ZIN A   1      19.887   1.497  18.694  0.00  0.00    -0.644 OA
ATOM     26  O25 ZIN A   1      17.768   1.513  18.749  0.00  0.00    -0.644 OA
ENDBRANCH  14  24
TORSDOF 2
ENDMDL
MODEL 3
REMARK VINA RESULT:      -8.3      2.486      2.796
REMARK  2 active torsions:
REMARK  status: ('A' for Active; 'I' for Inactive)
REMARK    1  A    between atoms: C7_6  and  N8_7 
REMARK    2  A    between atoms: C22_21  and  C23_22 
ROOT
ATOM      1  C1  ZIN A   1      17.299  -4.269   9.411  0.00  0.00     0.035 C 
ATOM      2  C2  ZIN A   1      18.720  -3.754   9.172  0.00  0.00     0.110 C 
ATOM      3  C4  ZIN A   1      19.398  -3.482  10.517  0.00  0.00     0.201 C 
ATOM      4  O5  ZIN A   1      18.715  -2.401  11.166  0.00  0.00    -0.345 OA
ATOM      5  C6  ZIN A   1      18.619  -1.247  10.449  0.00  0.00     0.121 A 
ATOM      6  C7  ZIN A   1      18.538  -0.026  11.104  0.00  0.00     0.086 A 
ATOM      7  C15 ZIN A   1      18.445   1.162  10.377  0.00  0.00     0.141 A 
ATOM      8  F16 ZIN A   1      18.364   2.344  11.026  0.00  0.00    -0.204 F 
ATOM      9  C17 ZIN A   1      18.435   1.133   9.010  0.00  0.00     0.062 A 
ATOM     10  C18 ZIN A   1      18.515  -0.089   8.337  0.00  0.00     0.048 A 
ATOM     11  C19 ZIN A   1      18.602  -1.294   9.057  0.00  0.00     0.085 A 
ATOM     12  N20 ZIN A   1      18.666  -2.508   8.393  0.00  0.00    -0.346 N 
ATOM     13  C21 ZIN A   1      18.678  -2.586   7.053  0.00  0.00     0.114 A 
ATOM     14  C22 ZIN A   1      18.605  -1.472   6.242  0.00  0.00     0.107 A 
ATOM     15  C26 ZIN A   1      18.512  -0.141   6.865  0.00  0.00     0.203 A 
ATOM     16  O27 ZIN A   1      18.436   0.873   6.193  0.00  0.00    -0.286 OA
ENDROOT
BRANCH   6  17
ATOM     17  N8  ZIN A   1      18.551   0.014  12.499  0.00  0.00    -0.275 NA
ATOM     18  C14 ZIN A   1      19.737   0.727  12.995  0.00  0.00     0.126 C 
ATOM     19  C13 ZIN A   1      19.755   0.680  14.525  0.00  0.00     0.286 C 
ATOM     20  N11 ZIN A   1      18.523   1.289  15.045  0.00  0.00     0.086 N 
ATOM     21  C10 ZIN A   1      17.336   0.577  14.550  0.00  0.00     0.286 C 
ATOM     22  C12 ZIN A   1      18.535   1.332  16.513  0.00  0.00     0.310 C 
ATOM     23  C9  ZIN A   1      17.319   0.623  13.020  0.00  0.00     0.126 C 
ENDBRANCH   6  17
BRANCH  14  24
ATOM     24  C23 ZIN A   1      18.618  -1.612   4.783  0.00  0.00     0.214 C 
ATOM     25  O24 ZIN A   1      19.682  -1.617   4.178  0.00  0.00    -0.644 OA
ATOM     26  O25 ZIN A   1      17.565  -1.724   4.169  0.00  0.00    -0.644 OA
ENDBRANCH  14  24
TORSDOF 2
ENDMDL
MODEL 4
REMARK VINA RESULT:      -8.3      3.127      6.707
REMARK  2 active torsions:
REMARK  status: ('A' for Active; 'I' for Inactive)
REMARK    1  A    between atoms: C7_6  and  N8_7 
REMARK    2  A    between atoms: C22_21  and  C23_22 
ROOT
ATOM      1  C1  ZIN A   1      19.993  -3.029  11.692  0.00  0.00     0.035 C 
ATOM      2  C2  ZIN A   1      18.489  -2.827  11.890  0.00  0.00     0.110 C 
ATOM      3  C4  ZIN A   1      17.804  -2.716  10.525  0.00  0.00     0.201 C 
ATOM      4  O5  ZIN A   1      18.258  -1.520   9.879  0.00  0.00    -0.345 OA
ATOM      5  C6  ZIN A   1      18.088  -0.366  10.582  0.00  0.00     0.121 A 
ATOM      6  C7  ZIN A   1      17.925   0.839   9.913  0.00  0.00     0.086 A 
ATOM      7  C15 ZIN A   1      17.745   2.025  10.626  0.00  0.00     0.141 A 
ATOM      8  F16 ZIN A   1      17.590   3.193   9.963  0.00  0.00    -0.204 F 
ATOM      9  C17 ZIN A   1      17.725   2.010  11.993  0.00  0.00     0.062 A 
ATOM     10  C18 ZIN A   1      17.888   0.805  12.680  0.00  0.00     0.048 A 
ATOM     11  C19 ZIN A   1      18.079  -0.397  11.975  0.00  0.00     0.085 A 
ATOM     12  N20 ZIN A   1      18.257  -1.591  12.653  0.00  0.00    -0.346 N 
ATOM     13  C21 ZIN A   1      18.226  -1.659  13.993  0.00  0.00     0.114 A 
ATOM     14  C22 ZIN A   1      18.040  -0.548  14.791  0.00  0.00     0.107 A 
ATOM     15  C26 ZIN A   1      17.864   0.767  14.152  0.00  0.00     0.203 A 
ATOM     16  O27 ZIN A   1      17.705   1.779  14.812  0.00  0.00    -0.286 OA
ENDROOT
BRANCH   6  17
ATOM     17  N8  ZIN A   1      17.941   0.864   8.517  0.00  0.00    -0.275 NA
ATOM     18  C14 ZIN A   1      19.319   0.850   8.006  0.00  0.00     0.126 C 
ATOM     19  C13 ZIN A   1      19.296   0.959   6.479  0.00  0.00     0.286 C 
ATOM     20  N11 ZIN A   1      18.520  -0.158   5.923  0.00  0.00     0.086 N 
ATOM     21  C10 ZIN A   1      17.142  -0.145   6.434  0.00  0.00     0.286 C 
ATOM     22  C12 ZIN A   1      18.537  -0.132   4.455  0.00  0.00     0.310 C 
ATOM     23  C9  ZIN A   1      17.166  -0.253   7.961  0.00  0.00     0.126 C 
ENDBRANCH   6  17
BRANCH  14  24
ATOM     24  C23 ZIN A   1      18.018  -0.677  16.251  0.00  0.00     0.214 C 
ATOM     25  O24 ZIN A   1      16.950  -0.685  16.849  0.00  0.00    -0.644 OA
ATOM     26  O25 ZIN A   1      19.068  -0.776  16.873  0.00  0.00    -0.644 OA
ENDBRANCH  14  24
TORSDOF 2
ENDMDL
MODEL 5
REMARK VINA RESULT:      -8.0      3.521      8.083
REMARK  2 active torsions:
REMARK  status: ('A' for Active; 'I' for Inactive)
REMARK    1  A    between atoms: C7_6  and  N8_7 
REMARK    2  A    between atoms: C22_21  and  C23_22 
ROOT
ATOM      1  C1  ZIN A   1      17.394   4.009  11.062  0.00  0.00     0.035 C 
ATOM      2  C2  ZIN A   1      18.858   3.881  11.488  0.00  0.00     0.110 C 
ATOM      3  C4  ZIN A   1      19.498   2.693  10.765  0.00  0.00     0.201 C 
ATOM      4  O5  ZIN A   1      18.872   1.487  11.220  0.00  0.00    -0.345 OA
ATOM      5  C6  ZIN A   1      18.892   1.280  12.566  0.00  0.00     0.121 A 
ATOM      6  C7  ZIN A   1      18.875  -0.011  13.072  0.00  0.00     0.086 A 
ATOM      7  C15 ZIN A   1      18.901  -0.232  14.450  0.00  0.00     0.141 A 
ATOM      8  F16 ZIN A   1      18.881  -1.494  14.931  0.00  0.00    -0.204 F 
ATOM      9  C17 ZIN A   1      18.945   0.826  15.315  0.00  0.00     0.062 A 
ATOM     10  C18 ZIN A   1      18.961   2.133  14.820  0.00  0.00     0.048 A 
ATOM     11  C19 ZIN A   1      18.928   2.369  13.434  0.00  0.00     0.085 A 
ATOM     12  N20 ZIN A   1      18.929   3.663  12.941  0.00  0.00    -0.346 N 
ATOM     13  C21 ZIN A   1      18.990   4.733  13.749  0.00  0.00     0.114 A 
ATOM     14  C22 ZIN A   1      19.034   4.625  15.124  0.00  0.00     0.107 A 
ATOM     15  C26 ZIN A   1      19.015   3.285  15.735  0.00  0.00     0.203 A 
ATOM     16  O27 ZIN A   1      19.042   3.137  16.944  0.00  0.00    -0.286 OA
ENDROOT
BRANCH   6  17
ATOM     17  N8  ZIN A   1      18.833  -1.098  12.197  0.00  0.00    -0.275 NA
ATOM     18  C14 ZIN A   1      19.820  -2.119  12.577  0.00  0.00     0.126 C 
ATOM     19  C13 ZIN A   1      19.798  -3.254  11.550  0.00  0.00     0.286 C 
ATOM     20  N11 ZIN A   1      18.447  -3.829  11.489  0.00  0.00     0.086 N 
ATOM     21  C10 ZIN A   1      17.460  -2.809  11.109  0.00  0.00     0.286 C 
ATOM     22  C12 ZIN A   1      18.402  -4.973  10.569  0.00  0.00     0.310 C 
ATOM     23  C9  ZIN A   1      17.483  -1.674  12.136  0.00  0.00     0.126 C 
ENDBRANCH   6  17
BRANCH  14  24
ATOM     24  C23 ZIN A   1      19.097   5.826  15.963  0.00  0.00     0.214 C 
ATOM     25  O24 ZIN A   1      18.066   6.323  16.400  0.00  0.00    -0.644 OA
ATOM     26  O25 ZIN A   1      20.180   6.332  16.226  0.00  0.00    -0.644 OA
ENDBRANCH  14  24
TORSDOF 2
ENDMDL
MODEL 6
REMARK VINA RESULT:      -7.9      2.772      4.200
REMARK  2 active torsions:
REMARK  status: ('A' for Active; 'I' for Inactive)
REMARK    1  A    between atoms: C7_6  and  N8_7 
REMARK    2  A    between atoms: C22_21  and  C23_22 
ROOT
ATOM      1  C1  ZIN A   1      19.154  -0.677   6.867  0.00  0.00     0.035 C 
ATOM      2  C2  ZIN A   1      17.978  -1.248   7.664  0.00  0.00     0.110 C 
ATOM      3  C4  ZIN A   1      17.213  -0.104   8.336  0.00  0.00     0.201 C 
ATOM      4  O5  ZIN A   1      18.065   0.506   9.314  0.00  0.00    -0.345 OA
ATOM      5  C6  ZIN A   1      18.576  -0.332  10.259  0.00  0.00     0.121 A 
ATOM      6  C7  ZIN A   1      18.893   0.152  11.520  0.00  0.00     0.086 A 
ATOM      7  C15 ZIN A   1      19.413  -0.701  12.495  0.00  0.00     0.141 A 
ATOM      8  F16 ZIN A   1      19.720  -0.217  13.719  0.00  0.00    -0.204 F 
ATOM      9  C17 ZIN A   1      19.612  -2.024  12.216  0.00  0.00     0.062 A 
ATOM     10  C18 ZIN A   1      19.299  -2.526  10.950  0.00  0.00     0.048 A 
ATOM     11  C19 ZIN A   1      18.782  -1.676   9.956  0.00  0.00     0.085 A 
ATOM     12  N20 ZIN A   1      18.484  -2.167   8.695  0.00  0.00    -0.346 N 
ATOM     13  C21 ZIN A   1      18.645  -3.461   8.380  0.00  0.00     0.114 A 
ATOM     14  C22 ZIN A   1      19.138  -4.390   9.274  0.00  0.00     0.107 A 
ATOM     15  C26 ZIN A   1      19.501  -3.949  10.631  0.00  0.00     0.203 A 
ATOM     16  O27 ZIN A   1      19.949  -4.728  11.455  0.00  0.00    -0.286 OA
ENDROOT
BRANCH   6  17
ATOM     17  N8  ZIN A   1      18.690   1.502  11.816  0.00  0.00    -0.275 NA
ATOM     18  C14 ZIN A   1      18.023   1.661  13.115  0.00  0.00     0.126 C 
ATOM     19  C13 ZIN A   1      17.747   3.146  13.366  0.00  0.00     0.286 C 
ATOM     20  N11 ZIN A   1      19.015   3.888  13.334  0.00  0.00     0.086 N 
ATOM     21  C10 ZIN A   1      19.683   3.729  12.035  0.00  0.00     0.286 C 
ATOM     22  C12 ZIN A   1      18.802   5.308  13.646  0.00  0.00     0.310 C 
ATOM     23  C9  ZIN A   1      19.958   2.244  11.785  0.00  0.00     0.126 C 
ENDBRANCH   6  17
BRANCH  14  24
ATOM     24  C23 ZIN A   1      19.298  -5.792   8.878  0.00  0.00     0.214 C 
ATOM     25  O24 ZIN A   1      20.387  -6.200   8.495  0.00  0.00    -0.644 OA
ATOM     26  O25 ZIN A   1      18.342  -6.555   8.929  0.00  0.00    -0.644 OA
ENDBRANCH  14  24
TORSDOF 2
ENDMDL
MODEL 7
REMARK VINA RESULT:      -7.9      2.591      6.987
REMARK  2 active torsions:
REMARK  status: ('A' for Active; 'I' for Inactive)
REMARK    1  A    between atoms: C7_6  and  N8_7 
REMARK    2  A    between atoms: C22_21  and  C23_22 
ROOT
ATOM      1  C1  ZIN A   1      19.077  -1.251  13.460  0.00  0.00     0.035 C 
ATOM      2  C2  ZIN A   1      17.777  -0.502  13.160  0.00  0.00     0.110 C 
ATOM      3  C4  ZIN A   1      17.057  -1.177  11.989  0.00  0.00     0.201 C 
ATOM      4  O5  ZIN A   1      17.855  -1.025  10.809  0.00  0.00    -0.345 OA
ATOM      5  C6  ZIN A   1      18.185   0.255  10.478  0.00  0.00     0.121 A 
ATOM      6  C7  ZIN A   1      18.413   0.595   9.153  0.00  0.00     0.086 A 
ATOM      7  C15 ZIN A   1      18.747   1.905   8.806  0.00  0.00     0.141 A 
ATOM      8  F16 ZIN A   1      18.969   2.223   7.511  0.00  0.00    -0.204 F 
ATOM      9  C17 ZIN A   1      18.849   2.868   9.770  0.00  0.00     0.062 A 
ATOM     10  C18 ZIN A   1      18.623   2.540  11.110  0.00  0.00     0.048 A 
ATOM     11  C19 ZIN A   1      18.294   1.223  11.475  0.00  0.00     0.085 A 
ATOM     12  N20 ZIN A   1      18.085   0.892  12.803  0.00  0.00    -0.346 N 
ATOM     13  C21 ZIN A   1      18.155   1.805  13.784  0.00  0.00     0.114 A 
ATOM     14  C22 ZIN A   1      18.463   3.129  13.547  0.00  0.00     0.107 A 
ATOM     15  C26 ZIN A   1      18.723   3.564  12.164  0.00  0.00     0.203 A 
ATOM     16  O27 ZIN A   1      19.008   4.720  11.903  0.00  0.00    -0.286 OA
ENDROOT
BRANCH   6  17
ATOM     17  N8  ZIN A   1      18.308  -0.381   8.159  0.00  0.00    -0.275 NA
ATOM     18  C14 ZIN A   1      17.930   0.218   6.872  0.00  0.00     0.126 C 
ATOM     19  C13 ZIN A   1      17.747  -0.889   5.831  0.00  0.00     0.286 C 
ATOM     20  N11 ZIN A   1      18.998  -1.651   5.706  0.00  0.00     0.086 N 
ATOM     21  C10 ZIN A   1      19.377  -2.250   6.993  0.00  0.00     0.286 C 
ATOM     22  C12 ZIN A   1      18.888  -2.677   4.661  0.00  0.00     0.310 C 
ATOM     23  C9  ZIN A   1      19.559  -1.142   8.034  0.00  0.00     0.126 C 
ENDBRANCH   6  17
BRANCH  14  24
ATOM     24  C23 ZIN A   1      18.531   4.087  14.654  0.00  0.00     0.214 C 
ATOM     25  O24 ZIN A   1      19.570   4.215  15.291  0.00  0.00    -0.644 OA
ATOM     26  O25 ZIN A   1      17.550   4.759  14.944  0.00  0.00    -0.644 OA
ENDBRANCH  14  24
TORSDOF 2
ENDMDL
MODEL 8
REMARK VINA RESULT:      -7.8      3.719      8.026
REMARK  2 active torsions:
REMARK  status: ('A' for Active; 'I' for Inactive)
REMARK    1  A    between atoms: C7_6  and  N8_7 
REMARK    2  A    between atoms: C22_21  and  C23_22 
ROOT
ATOM      1  C1  ZIN A   1      17.535   0.266   6.257  0.00  0.00     0.035 C 
ATOM      2  C2  ZIN A   1      18.857  -0.107   6.932  0.00  0.00     0.110 C 
ATOM      3  C4  ZIN A   1      19.223  -1.550   6.576  0.00  0.00     0.201 C 
ATOM      4  O5  ZIN A   1      18.249  -2.428   7.155  0.00  0.00    -0.345 OA
ATOM      5  C6  ZIN A   1      18.070  -2.310   8.500  0.00  0.00     0.121 A 
ATOM      6  C7  ZIN A   1      17.650  -3.403   9.245  0.00  0.00     0.086 A 
ATOM      7  C15 ZIN A   1      17.471  -3.291  10.625  0.00  0.00     0.141 A 
ATOM      8  F16 ZIN A   1      17.059  -4.362  11.339  0.00  0.00    -0.204 F 
ATOM      9  C17 ZIN A   1      17.709  -2.103  11.256  0.00  0.00     0.062 A 
ATOM     10  C18 ZIN A   1      18.132  -0.993  10.519  0.00  0.00     0.048 A 
ATOM     11  C19 ZIN A   1      18.310  -1.089   9.127  0.00  0.00     0.085 A 
ATOM     12  N20 ZIN A   1      18.713   0.013   8.391  0.00  0.00    -0.346 N 
ATOM     13  C21 ZIN A   1      18.977   1.195   8.968  0.00  0.00     0.114 A 
ATOM     14  C22 ZIN A   1      18.845   1.408  10.326  0.00  0.00     0.107 A 
ATOM     15  C26 ZIN A   1      18.399   0.295  11.181  0.00  0.00     0.203 A 
ATOM     16  O27 ZIN A   1      18.259   0.433  12.383  0.00  0.00    -0.286 OA
ENDROOT
BRANCH   6  17
ATOM     17  N8  ZIN A   1      17.407  -4.622   8.610  0.00  0.00    -0.275 NA
ATOM     18  C14 ZIN A   1      18.452  -5.603   8.936  0.00  0.00     0.126 C 
ATOM     19  C13 ZIN A   1      18.193  -6.897   8.160  0.00  0.00     0.286 C 
ATOM     20  N11 ZIN A   1      16.862  -7.415   8.507  0.00  0.00     0.086 N 
ATOM     21  C10 ZIN A   1      15.817  -6.434   8.182  0.00  0.00     0.286 C 
ATOM     22  C12 ZIN A   1      16.606  -8.698   7.840  0.00  0.00     0.310 C 
ATOM     23  C9  ZIN A   1      16.077  -5.140   8.957  0.00  0.00     0.126 C 
ENDBRANCH   6  17
BRANCH  14  24
ATOM     24  C23 ZIN A   1      19.144   2.720  10.905  0.00  0.00     0.214 C 
ATOM     25  O24 ZIN A   1      20.189   2.896  11.518  0.00  0.00    -0.644 OA
ATOM     26  O25 ZIN A   1      18.347   3.641  10.778  0.00  0.00    -0.644 OA
ENDBRANCH  14  24
TORSDOF 2
ENDMDL
MODEL 9
REMARK VINA RESULT:      -7.8      4.307      8.707
REMARK  2 active torsions:
REMARK  status: ('A' for Active; 'I' for Inactive)
REMARK    1  A    between atoms: C7_6  and  N8_7 
REMARK    2  A    between atoms: C22_21  and  C23_22 
ROOT
ATOM      1  C1  ZIN A   1      17.825  -0.266   7.286  0.00  0.00     0.035 C 
ATOM      2  C2  ZIN A   1      19.099  -1.006   7.699  0.00  0.00     0.110 C 
ATOM      3  C4  ZIN A   1      19.167  -2.351   6.972  0.00  0.00     0.201 C 
ATOM      4  O5  ZIN A   1      18.091  -3.178   7.433  0.00  0.00    -0.345 OA
ATOM      5  C6  ZIN A   1      18.032  -3.377   8.779  0.00  0.00     0.121 A 
ATOM      6  C7  ZIN A   1      17.471  -4.540   9.287  0.00  0.00     0.086 A 
ATOM      7  C15 ZIN A   1      17.412  -4.754  10.665  0.00  0.00     0.141 A 
ATOM      8  F16 ZIN A   1      16.861  -5.890  11.148  0.00  0.00    -0.204 F 
ATOM      9  C17 ZIN A   1      17.910  -3.819  11.529  0.00  0.00     0.062 A 
ATOM     10  C18 ZIN A   1      18.477  -2.642  11.032  0.00  0.00     0.048 A 
ATOM     11  C19 ZIN A   1      18.536  -2.410   9.646  0.00  0.00     0.085 A 
ATOM     12  N20 ZIN A   1      19.083  -1.238   9.152  0.00  0.00    -0.346 N 
ATOM     13  C21 ZIN A   1      19.600  -0.298   9.958  0.00  0.00     0.114 A 
ATOM     14  C22 ZIN A   1      19.605  -0.418  11.333  0.00  0.00     0.107 A 
ATOM     15  C26 ZIN A   1      19.023  -1.624  11.946  0.00  0.00     0.203 A 
ATOM     16  O27 ZIN A   1      18.995  -1.774  13.155  0.00  0.00    -0.286 OA
ENDROOT
BRANCH   6  17
ATOM     17  N8  ZIN A   1      16.963  -5.503   8.413  0.00  0.00    -0.275 NA
ATOM     18  C14 ZIN A   1      17.736  -6.750   8.497  0.00  0.00     0.126 C 
ATOM     19  C13 ZIN A   1      17.200  -7.751   7.470  0.00  0.00     0.286 C 
ATOM     20  N11 ZIN A   1      15.775  -8.000   7.732  0.00  0.00     0.086 N 
ATOM     21  C10 ZIN A   1      15.001  -6.753   7.648  0.00  0.00     0.286 C 
ATOM     22  C12 ZIN A   1      15.240  -9.013   6.813  0.00  0.00     0.310 C 
ATOM     23  C9  ZIN A   1      15.539  -5.753   8.675  0.00  0.00     0.126 C 
ENDBRANCH   6  17
BRANCH  14  24
ATOM     24  C23 ZIN A   1      20.180   0.639  12.170  0.00  0.00     0.214 C 
ATOM     25  O24 ZIN A   1      21.392   0.699  12.335  0.00  0.00    -0.644 OA
ATOM     26  O25 ZIN A   1      19.449   1.463  12.704  0.00  0.00    -0.644 OA
ENDBRANCH  14  24
TORSDOF 2
ENDMDL
