MODEL 1
REMARK VINA RESULT:     -10.2      0.000      0.000
REMARK  7 active torsions:
REMARK  status: ('A' for Active; 'I' for Inactive)
REMARK    1  A    between atoms: C9_9  and  C10_10 
REMARK    2  A    between atoms: C10_10  and  C11_11 
REMARK    3  A    between atoms: C11_11  and  C12_12 
REMARK    4  A    between atoms: C12_12  and  C13_13 
REMARK    5  A    between atoms: C13_13  and  N14_14 
REMARK    6  A    between atoms: N18_18  and  C19_19 
REMARK    7  A    between atoms: C24_24  and  C25_25 
REMARK       I    between atoms: C25_25  and  N26_26 
ROOT
ATOM      1  N1  <0> d   1      19.280  -1.680  12.693  0.00  0.00    -0.191 NA
ATOM      2  C2  <0> d   1      19.067  -1.283  13.736  0.00  0.00     0.099 C 
ATOM      3  C3  <0> d   1      18.799  -0.784  15.051  0.00  0.00     0.045 A 
ATOM      4  C4  <0> d   1      18.229  -1.624  16.017  0.00  0.00     0.025 A 
ATOM      5  C5  <0> d   1      17.967  -1.163  17.273  0.00  0.00     0.032 A 
ATOM      6  C6  <0> d   1      18.265   0.155  17.612  0.00  0.00     0.043 A 
ATOM      7  N7  <0> d   1      18.118   0.886  18.767  0.00  0.00    -0.365 N 
ATOM      8  C8  <0> d   1      18.575   2.162  18.574  0.00  0.00     0.096 A 
ATOM      9  C9  <0> d   1      19.023   2.302  17.317  0.00  0.00    -0.030 A 
ATOM     10  C33 <0> d   1      18.838   1.010  16.651  0.00  0.00    -0.000 A 
ATOM     11  C34 <0> d   1      19.110   0.535  15.371  0.00  0.00     0.037 A 
ATOM     12  H37 <0> d   1      17.746   0.548  19.597  0.00  0.00     0.165 HD
ENDROOT
BRANCH   9  13
ATOM     13  C10 <0> d   1      19.605   3.551  16.707  0.00  0.00     0.041 C 
BRANCH  13  14
ATOM     14  C11 <0> d   1      18.475   4.512  16.334  0.00  0.00     0.006 C 
BRANCH  14  15
ATOM     15  C12 <0> d   1      18.005   4.218  14.908  0.00  0.00     0.028 C 
BRANCH  15  16
ATOM     16  C13 <0> d   1      18.243   5.448  14.030  0.00  0.00     0.235 C 
BRANCH  16  17
ATOM     17  N14 <0> d   1      18.608   5.019  12.674  0.00  0.00    -0.068 N 
ATOM     18  H15 <0> d   1      19.176   5.730  12.238  0.00  0.00     0.280 HD
ATOM     19  C32 <0> d   1      19.370   3.765  12.748  0.00  0.00     0.254 C 
ATOM     20  C31 <0> d   1      19.852   3.378  11.346  0.00  0.00     0.150 C 
ATOM     21  N18 <0> d   1      18.686   3.325  10.451  0.00  0.00    -0.378 N 
ATOM     22  C17 <0> d   1      17.772   4.478  10.436  0.00  0.00     0.150 C 
ATOM     23  C16 <0> d   1      17.390   4.814  11.880  0.00  0.00     0.254 C 
BRANCH  21  24
ATOM     24  C19 <0> d   1      18.453   2.211   9.638  0.00  0.00     0.031 A 
ATOM     25  C30 <0> d   1      18.945   2.184   8.346  0.00  0.00     0.043 A 
ATOM     26  C29 <0> d   1      18.711   1.066   7.543  0.00  0.00     0.003 A 
ATOM     27  C22 <0> d   1      17.970  -0.021   8.043  0.00  0.00     0.086 A 
ATOM     28  C28 <0> d   1      19.073   0.702   6.173  0.00  0.00     0.057 A 
ATOM     29  C21 <0> d   1      17.478   0.028   9.342  0.00  0.00     0.040 A 
ATOM     30  O23 <0> d   1      17.896  -0.947   7.066  0.00  0.00    -0.304 OA
ATOM     31  C20 <0> d   1      17.718   1.134  10.129  0.00  0.00     0.032 A 
ATOM     32  C24 <0> d   1      18.543  -0.530   5.958  0.00  0.00     0.144 A 
BRANCH  32  33
ATOM     33  C25 <0> d   1      18.658  -1.293   4.707  0.00  0.00     0.273 C 
ATOM     34  N26 <0> d   1      17.552  -1.617   4.011  0.00  0.00    -0.364 N 
ATOM     35  H53 <0> d   1      16.678  -1.346   4.335  0.00  0.00     0.159 HD
ATOM     36  H54 <0> d   1      17.627  -2.121   3.185  0.00  0.00     0.159 HD
ATOM     37  O27 <0> d   1      19.754  -1.633   4.301  0.00  0.00    -0.266 OA
ENDBRANCH  32  33
ENDBRANCH  21  24
ENDBRANCH  16  17
ENDBRANCH  15  16
ENDBRANCH  14  15
ENDBRANCH  13  14
ENDBRANCH   9  13
TORSDOF 7
ENDMDL
MODEL 2
REMARK VINA RESULT:      -9.4      3.623     10.097
REMARK  7 active torsions:
REMARK  status: ('A' for Active; 'I' for Inactive)
REMARK    1  A    between atoms: C9_9  and  C10_10 
REMARK    2  A    between atoms: C10_10  and  C11_11 
REMARK    3  A    between atoms: C11_11  and  C12_12 
REMARK    4  A    between atoms: C12_12  and  C13_13 
REMARK    5  A    between atoms: C13_13  and  N14_14 
REMARK    6  A    between atoms: N18_18  and  C19_19 
REMARK    7  A    between atoms: C24_24  and  C25_25 
REMARK       I    between atoms: C25_25  and  N26_26 
ROOT
ATOM      1  N1  <0> d   1      19.128   1.088  10.069  0.00  0.00    -0.191 NA
ATOM      2  C2  <0> d   1      19.081   0.663   9.017  0.00  0.00     0.099 C 
ATOM      3  C3  <0> d   1      19.022   0.127   7.690  0.00  0.00     0.045 A 
ATOM      4  C4  <0> d   1      19.011   0.990   6.586  0.00  0.00     0.025 A 
ATOM      5  C5  <0> d   1      18.955   0.495   5.316  0.00  0.00     0.032 A 
ATOM      6  C6  <0> d   1      18.908  -0.880   5.101  0.00  0.00     0.043 A 
ATOM      7  N7  <0> d   1      18.847  -1.655   3.967  0.00  0.00    -0.365 N 
ATOM      8  C8  <0> d   1      18.820  -2.980   4.306  0.00  0.00     0.096 A 
ATOM      9  C9  <0> d   1      18.860  -3.111   5.641  0.00  0.00    -0.030 A 
ATOM     10  C33 <0> d   1      18.918  -1.758   6.202  0.00  0.00    -0.000 A 
ATOM     11  C34 <0> d   1      18.982  -1.252   7.497  0.00  0.00     0.037 A 
ATOM     12  H37 <0> d   1      18.826  -1.312   3.060  0.00  0.00     0.165 HD
ENDROOT
BRANCH   9  13
ATOM     13  C10 <0> d   1      18.848  -4.404   6.416  0.00  0.00     0.041 C 
BRANCH  13  14
ATOM     14  C11 <0> d   1      20.265  -4.722   6.899  0.00  0.00     0.006 C 
BRANCH  14  15
ATOM     15  C12 <0> d   1      20.192  -5.512   8.207  0.00  0.00     0.028 C 
BRANCH  15  16
ATOM     16  C13 <0> d   1      18.735  -5.610   8.664  0.00  0.00     0.235 C 
BRANCH  16  17
ATOM     17  N14 <0> d   1      18.620  -5.116  10.042  0.00  0.00    -0.068 N 
ATOM     18  H15 <0> d   1      18.692  -5.891  10.684  0.00  0.00     0.280 HD
ATOM     19  C32 <0> d   1      19.702  -4.160  10.310  0.00  0.00     0.254 C 
ATOM     20  C31 <0> d   1      19.653  -3.734  11.781  0.00  0.00     0.150 C 
ATOM     21  N18 <0> d   1      18.306  -3.219  12.071  0.00  0.00    -0.378 N 
ATOM     22  C17 <0> d   1      17.151  -4.044  11.683  0.00  0.00     0.150 C 
ATOM     23  C16 <0> d   1      17.319  -4.457  10.218  0.00  0.00     0.254 C 
BRANCH  21  24
ATOM     24  C19 <0> d   1      18.128  -1.981  12.698  0.00  0.00     0.031 A 
ATOM     25  C30 <0> d   1      18.787  -1.706  13.882  0.00  0.00     0.043 A 
ATOM     26  C29 <0> d   1      18.606  -0.465  14.498  0.00  0.00     0.003 A 
ATOM     27  C22 <0> d   1      17.750   0.492  13.922  0.00  0.00     0.086 A 
ATOM     28  C28 <0> d   1      19.130   0.152  15.716  0.00  0.00     0.057 A 
ATOM     29  C21 <0> d   1      17.092   0.193  12.735  0.00  0.00     0.040 A 
ATOM     30  O23 <0> d   1      17.761   1.580  14.720  0.00  0.00    -0.304 OA
ATOM     31  C20 <0> d   1      17.280  -1.031  12.132  0.00  0.00     0.032 A 
ATOM     32  C24 <0> d   1      18.572   1.389  15.781  0.00  0.00     0.144 A 
BRANCH  32  33
ATOM     33  C25 <0> d   1      18.815   2.371  16.847  0.00  0.00     0.273 C 
ATOM     34  N26 <0> d   1      18.130   3.531  16.864  0.00  0.00    -0.364 N 
ATOM     35  H53 <0> d   1      17.476   3.719  16.172  0.00  0.00     0.159 HD
ATOM     36  H54 <0> d   1      18.290   4.180  17.568  0.00  0.00     0.159 HD
ATOM     37  O27 <0> d   1      19.635   2.136  17.715  0.00  0.00    -0.266 OA
ENDBRANCH  32  33
ENDBRANCH  21  24
ENDBRANCH  16  17
ENDBRANCH  15  16
ENDBRANCH  14  15
ENDBRANCH  13  14
ENDBRANCH   9  13
TORSDOF 7
ENDMDL
MODEL 3
REMARK VINA RESULT:      -9.4      1.149      1.694
REMARK  7 active torsions:
REMARK  status: ('A' for Active; 'I' for Inactive)
REMARK    1  A    between atoms: C9_9  and  C10_10 
REMARK    2  A    between atoms: C10_10  and  C11_11 
REMARK    3  A    between atoms: C11_11  and  C12_12 
REMARK    4  A    between atoms: C12_12  and  C13_13 
REMARK    5  A    between atoms: C13_13  and  N14_14 
REMARK    6  A    between atoms: N18_18  and  C19_19 
REMARK    7  A    between atoms: C24_24  and  C25_25 
REMARK       I    between atoms: C25_25  and  N26_26 
ROOT
ATOM      1  N1  <0> d   1      19.450  -1.715  12.954  0.00  0.00    -0.191 NA
ATOM      2  C2  <0> d   1      19.152  -1.254  13.949  0.00  0.00     0.099 C 
ATOM      3  C3  <0> d   1      18.775  -0.673  15.203  0.00  0.00     0.045 A 
ATOM      4  C4  <0> d   1      17.993  -1.404  16.107  0.00  0.00     0.025 A 
ATOM      5  C5  <0> d   1      17.626  -0.864  17.304  0.00  0.00     0.032 A 
ATOM      6  C6  <0> d   1      18.026   0.426  17.644  0.00  0.00     0.043 A 
ATOM      7  N7  <0> d   1      17.816   1.217  18.749  0.00  0.00    -0.365 N 
ATOM      8  C8  <0> d   1      18.437   2.425  18.583  0.00  0.00     0.096 A 
ATOM      9  C9  <0> d   1      19.056   2.463  17.394  0.00  0.00    -0.030 A 
ATOM     10  C33 <0> d   1      18.812   1.171  16.744  0.00  0.00    -0.000 A 
ATOM     11  C34 <0> d   1      19.191   0.617  15.525  0.00  0.00     0.037 A 
ATOM     12  H37 <0> d   1      17.304   0.957  19.530  0.00  0.00     0.165 HD
ENDROOT
BRANCH   9  13
ATOM     13  C10 <0> d   1      19.851   3.613  16.832  0.00  0.00     0.041 C 
BRANCH  13  14
ATOM     14  C11 <0> d   1      18.906   4.597  16.140  0.00  0.00     0.006 C 
BRANCH  14  15
ATOM     15  C12 <0> d   1      19.439   4.917  14.741  0.00  0.00     0.028 C 
BRANCH  15  16
ATOM     16  C13 <0> d   1      18.315   5.518  13.894  0.00  0.00     0.235 C 
BRANCH  16  17
ATOM     17  N14 <0> d   1      17.746   4.478  13.027  0.00  0.00    -0.068 N 
ATOM     18  H15 <0> d   1      16.801   4.278  13.318  0.00  0.00     0.280 HD
ATOM     19  C32 <0> d   1      17.737   4.953  11.637  0.00  0.00     0.254 C 
ATOM     20  C31 <0> d   1      17.037   3.918  10.750  0.00  0.00     0.150 C 
ATOM     21  N18 <0> d   1      17.700   2.618  10.940  0.00  0.00    -0.378 N 
ATOM     22  C17 <0> d   1      17.901   2.138  12.317  0.00  0.00     0.150 C 
ATOM     23  C16 <0> d   1      18.557   3.258  13.130  0.00  0.00     0.254 C 
BRANCH  21  24
ATOM     24  C19 <0> d   1      18.126   1.860   9.845  0.00  0.00     0.031 A 
ATOM     25  C30 <0> d   1      17.806   0.517   9.769  0.00  0.00     0.043 A 
ATOM     26  C29 <0> d   1      18.231  -0.231   8.668  0.00  0.00     0.003 A 
ATOM     27  C22 <0> d   1      18.990   0.377   7.651  0.00  0.00     0.086 A 
ATOM     28  C28 <0> d   1      18.078  -1.629   8.267  0.00  0.00     0.057 A 
ATOM     29  C21 <0> d   1      19.306   1.727   7.749  0.00  0.00     0.040 A 
ATOM     30  O23 <0> d   1      19.264  -0.568   6.728  0.00  0.00    -0.304 OA
ATOM     31  C20 <0> d   1      18.878   2.458   8.836  0.00  0.00     0.032 A 
ATOM     32  C24 <0> d   1      18.730  -1.755   7.083  0.00  0.00     0.144 A 
BRANCH  32  33
ATOM     33  C25 <0> d   1      18.838  -2.997   6.304  0.00  0.00     0.273 C 
ATOM     34  N26 <0> d   1      17.725  -3.647   5.914  0.00  0.00    -0.364 N 
ATOM     35  H53 <0> d   1      16.851  -3.295   6.147  0.00  0.00     0.159 HD
ATOM     36  H54 <0> d   1      17.796  -4.468   5.401  0.00  0.00     0.159 HD
ATOM     37  O27 <0> d   1      19.934  -3.438   6.013  0.00  0.00    -0.266 OA
ENDBRANCH  32  33
ENDBRANCH  21  24
ENDBRANCH  16  17
ENDBRANCH  15  16
ENDBRANCH  14  15
ENDBRANCH  13  14
ENDBRANCH   9  13
TORSDOF 7
ENDMDL
MODEL 4
REMARK VINA RESULT:      -9.3      1.520      3.823
REMARK  7 active torsions:
REMARK  status: ('A' for Active; 'I' for Inactive)
REMARK    1  A    between atoms: C9_9  and  C10_10 
REMARK    2  A    between atoms: C10_10  and  C11_11 
REMARK    3  A    between atoms: C11_11  and  C12_12 
REMARK    4  A    between atoms: C12_12  and  C13_13 
REMARK    5  A    between atoms: C13_13  and  N14_14 
REMARK    6  A    between atoms: N18_18  and  C19_19 
REMARK    7  A    between atoms: C24_24  and  C25_25 
REMARK       I    between atoms: C25_25  and  N26_26 
ROOT
ATOM      1  N1  <0> d   1      19.665   4.513  12.247  0.00  0.00    -0.191 NA
ATOM      2  C2  <0> d   1      19.383   4.544  13.347  0.00  0.00     0.099 C 
ATOM      3  C3  <0> d   1      19.026   4.585  14.733  0.00  0.00     0.045 A 
ATOM      4  C4  <0> d   1      18.490   5.756  15.285  0.00  0.00     0.025 A 
ATOM      5  C5  <0> d   1      18.146   5.810  16.603  0.00  0.00     0.032 A 
ATOM      6  C6  <0> d   1      18.325   4.697  17.421  0.00  0.00     0.043 A 
ATOM      7  N7  <0> d   1      18.079   4.457  18.752  0.00  0.00    -0.365 N 
ATOM      8  C8  <0> d   1      18.437   3.175  19.070  0.00  0.00     0.096 A 
ATOM      9  C9  <0> d   1      18.918   2.551  17.984  0.00  0.00    -0.030 A 
ATOM     10  C33 <0> d   1      18.862   3.513  16.879  0.00  0.00    -0.000 A 
ATOM     11  C34 <0> d   1      19.207   3.458  15.531  0.00  0.00     0.037 A 
ATOM     12  H37 <0> d   1      17.707   5.101  19.375  0.00  0.00     0.165 HD
ENDROOT
BRANCH   9  13
ATOM     13  C10 <0> d   1      19.419   1.132  17.912  0.00  0.00     0.041 C 
BRANCH  13  14
ATOM     14  C11 <0> d   1      18.242   0.167  18.067  0.00  0.00     0.006 C 
BRANCH  14  15
ATOM     15  C12 <0> d   1      17.452   0.113  16.757  0.00  0.00     0.028 C 
BRANCH  15  16
ATOM     16  C13 <0> d   1      18.259  -0.651  15.706  0.00  0.00     0.235 C 
BRANCH  16  17
ATOM     17  N14 <0> d   1      18.576   0.245  14.586  0.00  0.00    -0.068 N 
ATOM     18  H15 <0> d   1      18.848   1.148  14.945  0.00  0.00     0.280 HD
ATOM     19  C32 <0> d   1      19.684  -0.323  13.807  0.00  0.00     0.254 C 
ATOM     20  C31 <0> d   1      20.094   0.665  12.710  0.00  0.00     0.150 C 
ATOM     21  N18 <0> d   1      18.902   0.997  11.914  0.00  0.00    -0.378 N 
ATOM     22  C17 <0> d   1      17.687   1.419  12.629  0.00  0.00     0.150 C 
ATOM     23  C16 <0> d   1      17.393   0.396  13.731  0.00  0.00     0.254 C 
BRANCH  21  24
ATOM     24  C19 <0> d   1      18.922   0.914  10.517  0.00  0.00     0.031 A 
ATOM     25  C30 <0> d   1      18.759  -0.310   9.895  0.00  0.00     0.043 A 
ATOM     26  C29 <0> d   1      18.776  -0.381   8.501  0.00  0.00     0.003 A 
ATOM     27  C22 <0> d   1      18.968   0.784   7.735  0.00  0.00     0.086 A 
ATOM     28  C28 <0> d   1      18.635  -1.471   7.535  0.00  0.00     0.057 A 
ATOM     29  C21 <0> d   1      19.136   2.004   8.380  0.00  0.00     0.040 A 
ATOM     30  O23 <0> d   1      18.944   0.426   6.436  0.00  0.00    -0.304 OA
ATOM     31  C20 <0> d   1      19.113   2.066   9.756  0.00  0.00     0.032 A 
ATOM     32  C24 <0> d   1      18.748  -0.903   6.307  0.00  0.00     0.144 A 
BRANCH  32  33
ATOM     33  C25 <0> d   1      18.670  -1.627   5.030  0.00  0.00     0.273 C 
ATOM     34  N26 <0> d   1      17.480  -2.066   4.576  0.00  0.00    -0.364 N 
ATOM     35  H53 <0> d   1      16.674  -1.904   5.093  0.00  0.00     0.159 HD
ATOM     36  H54 <0> d   1      17.428  -2.544   3.733  0.00  0.00     0.159 HD
ATOM     37  O27 <0> d   1      19.680  -1.829   4.383  0.00  0.00    -0.266 OA
ENDBRANCH  32  33
ENDBRANCH  21  24
ENDBRANCH  16  17
ENDBRANCH  15  16
ENDBRANCH  14  15
ENDBRANCH  13  14
ENDBRANCH   9  13
TORSDOF 7
ENDMDL
MODEL 5
REMARK VINA RESULT:      -9.1      4.104      8.829
REMARK  7 active torsions:
REMARK  status: ('A' for Active; 'I' for Inactive)
REMARK    1  A    between atoms: C9_9  and  C10_10 
REMARK    2  A    between atoms: C10_10  and  C11_11 
REMARK    3  A    between atoms: C11_11  and  C12_12 
REMARK    4  A    between atoms: C12_12  and  C13_13 
REMARK    5  A    between atoms: C13_13  and  N14_14 
REMARK    6  A    between atoms: N18_18  and  C19_19 
REMARK    7  A    between atoms: C24_24  and  C25_25 
REMARK       I    between atoms: C25_25  and  N26_26 
ROOT
ATOM      1  N1  <0> d   1      14.121   6.721  15.194  0.00  0.00    -0.191 NA
ATOM      2  C2  <0> d   1      15.158   6.390  14.868  0.00  0.00     0.099 C 
ATOM      3  C3  <0> d   1      16.465   5.974  14.458  0.00  0.00     0.045 A 
ATOM      4  C4  <0> d   1      17.586   6.331  15.221  0.00  0.00     0.025 A 
ATOM      5  C5  <0> d   1      18.837   5.942  14.843  0.00  0.00     0.032 A 
ATOM      6  C6  <0> d   1      19.017   5.184  13.689  0.00  0.00     0.043 A 
ATOM      7  N7  <0> d   1      20.128   4.659  13.071  0.00  0.00    -0.365 N 
ATOM      8  C8  <0> d   1      19.757   3.981  11.942  0.00  0.00     0.096 A 
ATOM      9  C9  <0> d   1      18.425   4.039  11.789  0.00  0.00    -0.030 A 
ATOM     10  C33 <0> d   1      17.900   4.819  12.913  0.00  0.00    -0.000 A 
ATOM     11  C34 <0> d   1      16.622   5.211  13.304  0.00  0.00     0.037 A 
ATOM     12  H37 <0> d   1      21.039   4.756  13.388  0.00  0.00     0.165 HD
ENDROOT
BRANCH   9  13
ATOM     13  C10 <0> d   1      17.622   3.420  10.674  0.00  0.00     0.041 C 
BRANCH  13  14
ATOM     14  C11 <0> d   1      18.571   2.837   9.625  0.00  0.00     0.006 C 
BRANCH  14  15
ATOM     15  C12 <0> d   1      18.300   1.339   9.469  0.00  0.00     0.028 C 
BRANCH  15  16
ATOM     16  C13 <0> d   1      19.586   0.557   9.744  0.00  0.00     0.235 C 
BRANCH  16  17
ATOM     17  N14 <0> d   1      19.523  -0.032  11.088  0.00  0.00    -0.068 N 
ATOM     18  H15 <0> d   1      19.857  -0.983  11.053  0.00  0.00     0.280 HD
ATOM     19  C32 <0> d   1      20.368   0.747  12.002  0.00  0.00     0.254 C 
ATOM     20  C31 <0> d   1      20.397   0.067  13.374  0.00  0.00     0.150 C 
ATOM     21  N18 <0> d   1      19.011  -0.110  13.835  0.00  0.00    -0.378 N 
ATOM     22  C17 <0> d   1      18.050  -0.737  12.914  0.00  0.00     0.150 C 
ATOM     23  C16 <0> d   1      18.134  -0.020  11.562  0.00  0.00     0.254 C 
BRANCH  21  24
ATOM     24  C19 <0> d   1      18.618   0.305  15.112  0.00  0.00     0.031 A 
ATOM     25  C30 <0> d   1      18.719   1.638  15.466  0.00  0.00     0.043 A 
ATOM     26  C29 <0> d   1      18.319   2.043  16.742  0.00  0.00     0.003 A 
ATOM     27  C22 <0> d   1      17.827   1.099  17.661  0.00  0.00     0.086 A 
ATOM     28  C28 <0> d   1      18.283   3.330  17.436  0.00  0.00     0.057 A 
ATOM     29  C21 <0> d   1      17.739  -0.237  17.287  0.00  0.00     0.040 A 
ATOM     30  O23 <0> d   1      17.524   1.758  18.798  0.00  0.00    -0.304 OA
ATOM     31  C20 <0> d   1      18.131  -0.627  16.026  0.00  0.00     0.032 A 
ATOM     32  C24 <0> d   1      17.790   3.075  18.676  0.00  0.00     0.144 A 
BRANCH  32  33
ATOM     33  C25 <0> d   1      17.578   4.082  19.725  0.00  0.00     0.273 C 
ATOM     34  N26 <0> d   1      18.616   4.503  20.474  0.00  0.00    -0.364 N 
ATOM     35  H53 <0> d   1      19.504   4.142  20.321  0.00  0.00     0.159 HD
ATOM     36  H54 <0> d   1      18.476   5.168  21.167  0.00  0.00     0.159 HD
ATOM     37  O27 <0> d   1      16.466   4.535  19.917  0.00  0.00    -0.266 OA
ENDBRANCH  32  33
ENDBRANCH  21  24
ENDBRANCH  16  17
ENDBRANCH  15  16
ENDBRANCH  14  15
ENDBRANCH  13  14
ENDBRANCH   9  13
TORSDOF 7
ENDMDL
MODEL 6
REMARK VINA RESULT:      -9.1      3.681      8.730
REMARK  7 active torsions:
REMARK  status: ('A' for Active; 'I' for Inactive)
REMARK    1  A    between atoms: C9_9  and  C10_10 
REMARK    2  A    between atoms: C10_10  and  C11_11 
REMARK    3  A    between atoms: C11_11  and  C12_12 
REMARK    4  A    between atoms: C12_12  and  C13_13 
REMARK    5  A    between atoms: C13_13  and  N14_14 
REMARK    6  A    between atoms: N18_18  and  C19_19 
REMARK    7  A    between atoms: C24_24  and  C25_25 
REMARK       I    between atoms: C25_25  and  N26_26 
ROOT
ATOM      1  N1  <0> d   1      18.755  -2.054  13.315  0.00  0.00    -0.191 NA
ATOM      2  C2  <0> d   1      18.423  -2.618  12.386  0.00  0.00     0.099 C 
ATOM      3  C3  <0> d   1      18.003  -3.330  11.216  0.00  0.00     0.045 A 
ATOM      4  C4  <0> d   1      17.023  -4.326  11.315  0.00  0.00     0.025 A 
ATOM      5  C5  <0> d   1      16.614  -5.012  10.210  0.00  0.00     0.032 A 
ATOM      6  C6  <0> d   1      17.168  -4.729   8.964  0.00  0.00     0.043 A 
ATOM      7  N7  <0> d   1      16.963  -5.240   7.704  0.00  0.00    -0.365 N 
ATOM      8  C8  <0> d   1      17.775  -4.606   6.804  0.00  0.00     0.096 A 
ATOM      9  C9  <0> d   1      18.520  -3.683   7.432  0.00  0.00    -0.030 A 
ATOM     10  C33 <0> d   1      18.154  -3.730   8.850  0.00  0.00    -0.000 A 
ATOM     11  C34 <0> d   1      18.566  -3.026   9.978  0.00  0.00     0.037 A 
ATOM     12  H37 <0> d   1      16.335  -5.946   7.485  0.00  0.00     0.165 HD
ENDROOT
BRANCH   9  13
ATOM     13  C10 <0> d   1      19.539  -2.770   6.799  0.00  0.00     0.041 C 
BRANCH  13  14
ATOM     14  C11 <0> d   1      18.845  -1.850   5.793  0.00  0.00     0.006 C 
BRANCH  14  15
ATOM     15  C12 <0> d   1      18.092  -0.750   6.544  0.00  0.00     0.028 C 
BRANCH  15  16
ATOM     16  C13 <0> d   1      19.091   0.119   7.310  0.00  0.00     0.235 C 
BRANCH  16  17
ATOM     17  N14 <0> d   1      18.375   0.928   8.305  0.00  0.00    -0.068 N 
ATOM     18  H15 <0> d   1      17.571   1.358   7.872  0.00  0.00     0.280 HD
ATOM     19  C32 <0> d   1      17.930   0.065   9.407  0.00  0.00     0.254 C 
ATOM     20  C31 <0> d   1      17.082   0.883  10.386  0.00  0.00     0.150 C 
ATOM     21  N18 <0> d   1      17.865   2.054  10.813  0.00  0.00    -0.378 N 
ATOM     22  C17 <0> d   1      18.489   2.887   9.772  0.00  0.00     0.150 C 
ATOM     23  C16 <0> d   1      19.268   1.973   8.821  0.00  0.00     0.254 C 
BRANCH  21  24
ATOM     24  C19 <0> d   1      18.012   2.367  12.168  0.00  0.00     0.031 A 
ATOM     25  C30 <0> d   1      18.262   1.363  13.085  0.00  0.00     0.043 A 
ATOM     26  C29 <0> d   1      18.413   1.686  14.436  0.00  0.00     0.003 A 
ATOM     27  C22 <0> d   1      18.300   3.023  14.860  0.00  0.00     0.086 A 
ATOM     28  C28 <0> d   1      18.679   0.907  15.645  0.00  0.00     0.057 A 
ATOM     29  C21 <0> d   1      18.042   4.016  13.922  0.00  0.00     0.040 A 
ATOM     30  O23 <0> d   1      18.482   3.043  16.196  0.00  0.00    -0.304 OA
ATOM     31  C20 <0> d   1      17.900   3.689  12.592  0.00  0.00     0.032 A 
ATOM     32  C24 <0> d   1      18.707   1.800  16.669  0.00  0.00     0.144 A 
BRANCH  32  33
ATOM     33  C25 <0> d   1      18.945   1.462  18.079  0.00  0.00     0.273 C 
ATOM     34  N26 <0> d   1      18.036   1.795  19.015  0.00  0.00    -0.364 N 
ATOM     35  H53 <0> d   1      17.222   2.259  18.758  0.00  0.00     0.159 HD
ATOM     36  H54 <0> d   1      18.193   1.572  19.947  0.00  0.00     0.159 HD
ATOM     37  O27 <0> d   1      19.965   0.880  18.401  0.00  0.00    -0.266 OA
ENDBRANCH  32  33
ENDBRANCH  21  24
ENDBRANCH  16  17
ENDBRANCH  15  16
ENDBRANCH  14  15
ENDBRANCH  13  14
ENDBRANCH   9  13
TORSDOF 7
ENDMDL
MODEL 7
REMARK VINA RESULT:      -8.9      2.236      3.731
REMARK  7 active torsions:
REMARK  status: ('A' for Active; 'I' for Inactive)
REMARK    1  A    between atoms: C9_9  and  C10_10 
REMARK    2  A    between atoms: C10_10  and  C11_11 
REMARK    3  A    between atoms: C11_11  and  C12_12 
REMARK    4  A    between atoms: C12_12  and  C13_13 
REMARK    5  A    between atoms: C13_13  and  N14_14 
REMARK    6  A    between atoms: N18_18  and  C19_19 
REMARK    7  A    between atoms: C24_24  and  C25_25 
REMARK       I    between atoms: C25_25  and  N26_26 
ROOT
ATOM      1  N1  <0> d   1      14.389   5.078  20.626  0.00  0.00    -0.191 NA
ATOM      2  C2  <0> d   1      15.269   4.728  19.998  0.00  0.00     0.099 C 
ATOM      3  C3  <0> d   1      16.378   4.285  19.208  0.00  0.00     0.045 A 
ATOM      4  C4  <0> d   1      16.860   2.977  19.347  0.00  0.00     0.025 A 
ATOM      5  C5  <0> d   1      17.915   2.541  18.601  0.00  0.00     0.032 A 
ATOM      6  C6  <0> d   1      18.530   3.396  17.689  0.00  0.00     0.043 A 
ATOM      7  N7  <0> d   1      19.586   3.246  16.822  0.00  0.00    -0.365 N 
ATOM      8  C8  <0> d   1      19.795   4.410  16.134  0.00  0.00     0.096 A 
ATOM      9  C9  <0> d   1      18.905   5.336  16.521  0.00  0.00    -0.030 A 
ATOM     10  C33 <0> d   1      18.056   4.713  17.540  0.00  0.00    -0.000 A 
ATOM     11  C34 <0> d   1      16.974   5.155  18.298  0.00  0.00     0.037 A 
ATOM     12  H37 <0> d   1      20.106   2.434  16.713  0.00  0.00     0.165 HD
ENDROOT
BRANCH   9  13
ATOM     13  C10 <0> d   1      18.799   6.749  16.005  0.00  0.00     0.041 C 
BRANCH  13  14
ATOM     14  C11 <0> d   1      18.475   6.722  14.510  0.00  0.00     0.006 C 
BRANCH  14  15
ATOM     15  C12 <0> d   1      16.975   6.943  14.309  0.00  0.00     0.028 C 
BRANCH  15  16
ATOM     16  C13 <0> d   1      16.339   5.662  13.766  0.00  0.00     0.235 C 
BRANCH  16  17
ATOM     17  N14 <0> d   1      17.278   4.999  12.852  0.00  0.00    -0.068 N 
ATOM     18  H15 <0> d   1      18.180   5.446  12.914  0.00  0.00     0.280 HD
ATOM     19  C32 <0> d   1      17.409   3.586  13.228  0.00  0.00     0.254 C 
ATOM     20  C31 <0> d   1      18.475   2.921  12.351  0.00  0.00     0.150 C 
ATOM     21  N18 <0> d   1      18.120   3.141  10.940  0.00  0.00    -0.378 N 
ATOM     22  C17 <0> d   1      17.809   4.513  10.510  0.00  0.00     0.150 C 
ATOM     23  C16 <0> d   1      16.776   5.103  11.476  0.00  0.00     0.254 C 
BRANCH  21  24
ATOM     24  C19 <0> d   1      18.078   2.076  10.034  0.00  0.00     0.031 A 
ATOM     25  C30 <0> d   1      18.555   2.247   8.747  0.00  0.00     0.043 A 
ATOM     26  C29 <0> d   1      18.515   1.176   7.850  0.00  0.00     0.003 A 
ATOM     27  C22 <0> d   1      17.982  -0.063   8.252  0.00  0.00     0.086 A 
ATOM     28  C28 <0> d   1      18.922   1.000   6.457  0.00  0.00     0.057 A 
ATOM     29  C21 <0> d   1      17.502  -0.211   9.548  0.00  0.00     0.040 A 
ATOM     30  O23 <0> d   1      18.064  -0.901   7.199  0.00  0.00    -0.304 OA
ATOM     31  C20 <0> d   1      17.551   0.848  10.427  0.00  0.00     0.032 A 
ATOM     32  C24 <0> d   1      18.617  -0.283   6.135  0.00  0.00     0.144 A 
BRANCH  32  33
ATOM     33  C25 <0> d   1      18.853  -0.906   4.824  0.00  0.00     0.273 C 
ATOM     34  N26 <0> d   1      17.810  -1.301   4.068  0.00  0.00    -0.364 N 
ATOM     35  H53 <0> d   1      16.903  -1.176   4.389  0.00  0.00     0.159 HD
ATOM     36  H54 <0> d   1      17.966  -1.712   3.203  0.00  0.00     0.159 HD
ATOM     37  O27 <0> d   1      19.990  -1.063   4.422  0.00  0.00    -0.266 OA
ENDBRANCH  32  33
ENDBRANCH  21  24
ENDBRANCH  16  17
ENDBRANCH  15  16
ENDBRANCH  14  15
ENDBRANCH  13  14
ENDBRANCH   9  13
TORSDOF 7
ENDMDL
MODEL 8
REMARK VINA RESULT:      -8.8      1.653      4.518
REMARK  7 active torsions:
REMARK  status: ('A' for Active; 'I' for Inactive)
REMARK    1  A    between atoms: C9_9  and  C10_10 
REMARK    2  A    between atoms: C10_10  and  C11_11 
REMARK    3  A    between atoms: C11_11  and  C12_12 
REMARK    4  A    between atoms: C12_12  and  C13_13 
REMARK    5  A    between atoms: C13_13  and  N14_14 
REMARK    6  A    between atoms: N18_18  and  C19_19 
REMARK    7  A    between atoms: C24_24  and  C25_25 
REMARK       I    between atoms: C25_25  and  N26_26 
ROOT
ATOM      1  N1  <0> d   1      18.111   3.951  10.083  0.00  0.00    -0.191 NA
ATOM      2  C2  <0> d   1      17.862   4.236  11.155  0.00  0.00     0.099 C 
ATOM      3  C3  <0> d   1      17.548   4.598  12.504  0.00  0.00     0.045 A 
ATOM      4  C4  <0> d   1      16.540   5.536  12.762  0.00  0.00     0.025 A 
ATOM      5  C5  <0> d   1      16.229   5.890  14.042  0.00  0.00     0.032 A 
ATOM      6  C6  <0> d   1      16.914   5.321  15.113  0.00  0.00     0.043 A 
ATOM      7  N7  <0> d   1      16.827   5.476  16.476  0.00  0.00    -0.365 N 
ATOM      8  C8  <0> d   1      17.741   4.671  17.098  0.00  0.00     0.096 A 
ATOM      9  C9  <0> d   1      18.440   3.980  16.183  0.00  0.00    -0.030 A 
ATOM     10  C33 <0> d   1      17.929   4.377  14.868  0.00  0.00    -0.000 A 
ATOM     11  C34 <0> d   1      18.241   4.012  13.561  0.00  0.00     0.037 A 
ATOM     12  H37 <0> d   1      16.208   6.069  16.930  0.00  0.00     0.165 HD
ENDROOT
BRANCH   9  13
ATOM     13  C10 <0> d   1      19.539   2.986  16.457  0.00  0.00     0.041 C 
BRANCH  13  14
ATOM     14  C11 <0> d   1      19.050   1.951  17.472  0.00  0.00     0.006 C 
BRANCH  14  15
ATOM     15  C12 <0> d   1      18.130   0.947  16.773  0.00  0.00     0.028 C 
BRANCH  15  16
ATOM     16  C13 <0> d   1      18.973  -0.163  16.142  0.00  0.00     0.235 C 
BRANCH  16  17
ATOM     17  N14 <0> d   1      18.314  -0.644  14.921  0.00  0.00    -0.068 N 
ATOM     18  H15 <0> d   1      17.514  -1.205  15.171  0.00  0.00     0.280 HD
ATOM     19  C32 <0> d   1      17.872   0.505  14.120  0.00  0.00     0.254 C 
ATOM     20  C31 <0> d   1      17.082   0.006  12.906  0.00  0.00     0.150 C 
ATOM     21  N18 <0> d   1      17.917  -0.958  12.172  0.00  0.00    -0.378 N 
ATOM     22  C17 <0> d   1      18.539  -2.055  12.931  0.00  0.00     0.150 C 
ATOM     23  C16 <0> d   1      19.258  -1.458  14.145  0.00  0.00     0.254 C 
BRANCH  21  24
ATOM     24  C19 <0> d   1      18.114  -0.836  10.792  0.00  0.00     0.031 A 
ATOM     25  C30 <0> d   1      18.350  -1.963  10.027  0.00  0.00     0.043 A 
ATOM     26  C29 <0> d   1      18.540  -1.833   8.649  0.00  0.00     0.003 A 
ATOM     27  C22 <0> d   1      18.502  -0.560   8.048  0.00  0.00     0.086 A 
ATOM     28  C28 <0> d   1      18.801  -2.777   7.563  0.00  0.00     0.057 A 
ATOM     29  C21 <0> d   1      18.269   0.560   8.836  0.00  0.00     0.040 A 
ATOM     30  O23 <0> d   1      18.719  -0.728   6.728  0.00  0.00    -0.304 OA
ATOM     31  C20 <0> d   1      18.078   0.421  10.194  0.00  0.00     0.032 A 
ATOM     32  C24 <0> d   1      18.896  -2.032   6.431  0.00  0.00     0.144 A 
BRANCH  32  33
ATOM     33  C25 <0> d   1      19.154  -2.567   5.087  0.00  0.00     0.273 C 
ATOM     34  N26 <0> d   1      18.893  -3.860   4.814  0.00  0.00    -0.364 N 
ATOM     35  H53 <0> d   1      18.534  -4.439   5.506  0.00  0.00     0.159 HD
ATOM     36  H54 <0> d   1      19.063  -4.213   3.926  0.00  0.00     0.159 HD
ATOM     37  O27 <0> d   1      19.604  -1.841   4.220  0.00  0.00    -0.266 OA
ENDBRANCH  32  33
ENDBRANCH  21  24
ENDBRANCH  16  17
ENDBRANCH  15  16
ENDBRANCH  14  15
ENDBRANCH  13  14
ENDBRANCH   9  13
TORSDOF 7
ENDMDL
MODEL 9
REMARK VINA RESULT:      -8.8      4.056      8.584
REMARK  7 active torsions:
REMARK  status: ('A' for Active; 'I' for Inactive)
REMARK    1  A    between atoms: C9_9  and  C10_10 
REMARK    2  A    between atoms: C10_10  and  C11_11 
REMARK    3  A    between atoms: C11_11  and  C12_12 
REMARK    4  A    between atoms: C12_12  and  C13_13 
REMARK    5  A    between atoms: C13_13  and  N14_14 
REMARK    6  A    between atoms: N18_18  and  C19_19 
REMARK    7  A    between atoms: C24_24  and  C25_25 
REMARK       I    between atoms: C25_25  and  N26_26 
ROOT
ATOM      1  N1  <0> d   1      19.535  -1.949  13.115  0.00  0.00    -0.191 NA
ATOM      2  C2  <0> d   1      19.184  -2.753  12.393  0.00  0.00     0.099 C 
ATOM      3  C3  <0> d   1      18.740  -3.766  11.484  0.00  0.00     0.045 A 
ATOM      4  C4  <0> d   1      17.758  -4.683  11.881  0.00  0.00     0.025 A 
ATOM      5  C5  <0> d   1      17.325  -5.654  11.027  0.00  0.00     0.032 A 
ATOM      6  C6  <0> d   1      17.858  -5.746   9.743  0.00  0.00     0.043 A 
ATOM      7  N7  <0> d   1      17.628  -6.595   8.686  0.00  0.00    -0.365 N 
ATOM      8  C8  <0> d   1      18.426  -6.254   7.629  0.00  0.00     0.096 A 
ATOM      9  C9  <0> d   1      19.186  -5.196   7.953  0.00  0.00    -0.030 A 
ATOM     10  C33 <0> d   1      18.845  -4.831   9.331  0.00  0.00    -0.000 A 
ATOM     11  C34 <0> d   1      19.281  -3.836  10.202  0.00  0.00     0.037 A 
ATOM     12  H37 <0> d   1      16.993  -7.329   8.690  0.00  0.00     0.165 HD
ENDROOT
BRANCH   9  13
ATOM     13  C10 <0> d   1      20.197  -4.513   7.067  0.00  0.00     0.041 C 
BRANCH  13  14
ATOM     14  C11 <0> d   1      19.515  -3.385   6.291  0.00  0.00     0.006 C 
BRANCH  14  15
ATOM     15  C12 <0> d   1      19.614  -2.084   7.090  0.00  0.00     0.028 C 
BRANCH  15  16
ATOM     16  C13 <0> d   1      18.962  -0.949   6.298  0.00  0.00     0.235 C 
BRANCH  16  17
ATOM     17  N14 <0> d   1      18.339   0.002   7.228  0.00  0.00    -0.068 N 
ATOM     18  H15 <0> d   1      17.520   0.405   6.798  0.00  0.00     0.280 HD
ATOM     19  C32 <0> d   1      17.946  -0.703   8.455  0.00  0.00     0.254 C 
ATOM     20  C31 <0> d   1      17.191   0.261   9.377  0.00  0.00     0.150 C 
ATOM     21  N18 <0> d   1      18.035   1.444   9.604  0.00  0.00    -0.378 N 
ATOM     22  C17 <0> d   1      18.610   2.120   8.429  0.00  0.00     0.150 C 
ATOM     23  C16 <0> d   1      19.295   1.068   7.551  0.00  0.00     0.254 C 
BRANCH  21  24
ATOM     24  C19 <0> d   1      18.284   1.915  10.897  0.00  0.00     0.031 A 
ATOM     25  C30 <0> d   1      18.849   3.164  11.080  0.00  0.00     0.043 A 
ATOM     26  C29 <0> d   1      19.089   3.628  12.376  0.00  0.00     0.003 A 
ATOM     27  C22 <0> d   1      18.766   2.824  13.485  0.00  0.00     0.086 A 
ATOM     28  C28 <0> d   1      19.652   4.859  12.928  0.00  0.00     0.057 A 
ATOM     29  C21 <0> d   1      18.204   1.570  13.279  0.00  0.00     0.040 A 
ATOM     30  O23 <0> d   1      19.104   3.510  14.596  0.00  0.00    -0.304 OA
ATOM     31  C20 <0> d   1      17.967   1.122  11.998  0.00  0.00     0.032 A 
ATOM     32  C24 <0> d   1      19.628   4.712  14.278  0.00  0.00     0.144 A 
BRANCH  32  33
ATOM     33  C25 <0> d   1      20.100   5.712  15.247  0.00  0.00     0.273 C 
ATOM     34  N26 <0> d   1      21.085   5.400  16.111  0.00  0.00    -0.364 N 
ATOM     35  H53 <0> d   1      21.482   4.514  16.095  0.00  0.00     0.159 HD
ATOM     36  H54 <0> d   1      21.397   6.059  16.751  0.00  0.00     0.159 HD
ATOM     37  O27 <0> d   1      19.602   6.822  15.267  0.00  0.00    -0.266 OA
ENDBRANCH  32  33
ENDBRANCH  21  24
ENDBRANCH  16  17
ENDBRANCH  15  16
ENDBRANCH  14  15
ENDBRANCH  13  14
ENDBRANCH   9  13
TORSDOF 7
ENDMDL
