MODEL 1
REMARK VINA RESULT:      -8.8      0.000      0.000
REMARK  7 active torsions:
REMARK  status: ('A' for Active; 'I' for Inactive)
REMARK    1  A    between atoms: C2_2  and  O4_4 
REMARK    2  A    between atoms: O4_4  and  C5_5 
REMARK    3  A    between atoms: C8_8  and  C9_9 
REMARK    4  A    between atoms: C9_9  and  C10_10 
REMARK    5  A    between atoms: C9_9  and  C20_20 
REMARK    6  A    between atoms: C13_13  and  O14_14 
REMARK    7  A    between atoms: O14_14  and  C15_15 
ROOT
ATOM      1  C9  ZIN A   1      19.167   2.101  11.008  0.00  0.00     0.103 C 
ENDROOT
BRANCH   1   2
ATOM      2  C8  ZIN A   1      18.962   1.074  12.091  0.00  0.00    -0.044 A 
ATOM      3  C7  ZIN A   1      20.050   0.579  12.787  0.00  0.00     0.011 A 
ATOM      4  C6  ZIN A   1      19.866  -0.363  13.780  0.00  0.00     0.038 A 
ATOM      5  C5  ZIN A   1      18.588  -0.814  14.079  0.00  0.00     0.079 A 
ATOM      6  C27 ZIN A   1      17.499  -0.320  13.375  0.00  0.00     0.038 A 
ATOM      7  C26 ZIN A   1      17.689   0.627  12.386  0.00  0.00     0.011 A 
BRANCH   5   8
ATOM      8  O4  ZIN A   1      18.403  -1.741  15.056  0.00  0.00    -0.279 OA
BRANCH   8   9
ATOM      9  C2  ZIN A   1      18.371  -1.294  16.321  0.00  0.00     0.260 C 
ATOM     10  C1  ZIN A   1      17.120  -0.652  16.862  0.00  0.00     0.126 C 
ATOM     11  O3  ZIN A   1      19.346  -1.406  17.027  0.00  0.00    -0.265 OA
ENDBRANCH   8   9
ENDBRANCH   5   8
ENDBRANCH   1   2
BRANCH   1  12
ATOM     12  C10 ZIN A   1      18.819   1.498   9.670  0.00  0.00    -0.044 A 
ATOM     13  C19 ZIN A   1      19.549   1.844   8.548  0.00  0.00     0.011 A 
ATOM     14  C18 ZIN A   1      19.236   1.290   7.321  0.00  0.00     0.038 A 
ATOM     15  C13 ZIN A   1      18.182   0.393   7.215  0.00  0.00     0.079 A 
ATOM     16  C12 ZIN A   1      17.449   0.052   8.343  0.00  0.00     0.038 A 
ATOM     17  C11 ZIN A   1      17.769   0.606   9.568  0.00  0.00     0.011 A 
BRANCH  15  18
ATOM     18  O14 ZIN A   1      17.867  -0.149   6.010  0.00  0.00    -0.279 OA
BRANCH  18  19
ATOM     19  C15 ZIN A   1      18.815  -0.885   5.408  0.00  0.00     0.260 C 
ATOM     20  C16 ZIN A   1      19.207  -2.223   5.981  0.00  0.00     0.126 C 
ATOM     21  O17 ZIN A   1      19.354  -0.476   4.407  0.00  0.00    -0.265 OA
ENDBRANCH  18  19
ENDBRANCH  15  18
ENDBRANCH   1  12
BRANCH   1  22
ATOM     22  C20 ZIN A   1      18.278   3.290  11.269  0.00  0.00     0.047 A 
ATOM     23  N25 ZIN A   1      17.960   3.606  12.509  0.00  0.00    -0.265 NA
ATOM     24  C24 ZIN A   1      17.189   4.639  12.786  0.00  0.00     0.117 A 
ATOM     25  C23 ZIN A   1      16.676   5.429  11.774  0.00  0.00     0.019 A 
ATOM     26  C22 ZIN A   1      16.985   5.126  10.457  0.00  0.00     0.003 A 
ATOM     27  C21 ZIN A   1      17.803   4.034  10.206  0.00  0.00     0.028 A 
ENDBRANCH   1  22
TORSDOF 7
ENDMDL
MODEL 2
REMARK VINA RESULT:      -8.7      3.045      7.516
REMARK  7 active torsions:
REMARK  status: ('A' for Active; 'I' for Inactive)
REMARK    1  A    between atoms: C2_2  and  O4_4 
REMARK    2  A    between atoms: O4_4  and  C5_5 
REMARK    3  A    between atoms: C8_8  and  C9_9 
REMARK    4  A    between atoms: C9_9  and  C10_10 
REMARK    5  A    between atoms: C9_9  and  C20_20 
REMARK    6  A    between atoms: C13_13  and  O14_14 
REMARK    7  A    between atoms: O14_14  and  C15_15 
ROOT
ATOM      1  C9  ZIN A   1      17.600  -0.625  12.416  0.00  0.00     0.103 C 
ENDROOT
BRANCH   1   2
ATOM      2  C8  ZIN A   1      18.210  -1.870  11.826  0.00  0.00    -0.044 A 
ATOM      3  C7  ZIN A   1      17.407  -2.952  11.517  0.00  0.00     0.011 A 
ATOM      4  C6  ZIN A   1      17.963  -4.094  10.976  0.00  0.00     0.038 A 
ATOM      5  C5  ZIN A   1      19.329  -4.156  10.742  0.00  0.00     0.079 A 
ATOM      6  C27 ZIN A   1      20.134  -3.071  11.058  0.00  0.00     0.038 A 
ATOM      7  C26 ZIN A   1      19.571  -1.929  11.594  0.00  0.00     0.011 A 
BRANCH   5   8
ATOM      8  O4  ZIN A   1      19.879  -5.280  10.210  0.00  0.00    -0.279 OA
BRANCH   8   9
ATOM      9  C2  ZIN A   1      19.523  -5.597   8.955  0.00  0.00     0.260 C 
ATOM     10  C1  ZIN A   1      19.607  -4.562   7.863  0.00  0.00     0.126 C 
ATOM     11  O3  ZIN A   1      19.133  -6.712   8.701  0.00  0.00    -0.265 OA
ENDBRANCH   8   9
ENDBRANCH   5   8
ENDBRANCH   1   2
BRANCH   1  12
ATOM     12  C10 ZIN A   1      17.924  -0.555  13.887  0.00  0.00    -0.044 A 
ATOM     13  C19 ZIN A   1      18.787  -1.479  14.447  0.00  0.00     0.011 A 
ATOM     14  C18 ZIN A   1      19.091  -1.415  15.794  0.00  0.00     0.038 A 
ATOM     15  C13 ZIN A   1      18.520  -0.428  16.586  0.00  0.00     0.079 A 
ATOM     16  C12 ZIN A   1      17.651   0.494  16.021  0.00  0.00     0.038 A 
ATOM     17  C11 ZIN A   1      17.355   0.428  14.673  0.00  0.00     0.011 A 
BRANCH  15  18
ATOM     18  O14 ZIN A   1      18.812  -0.366  17.911  0.00  0.00    -0.279 OA
BRANCH  18  19
ATOM     19  C15 ZIN A   1      18.820   0.852  18.476  0.00  0.00     0.260 C 
ATOM     20  C16 ZIN A   1      17.537   1.454  18.987  0.00  0.00     0.126 C 
ATOM     21  O17 ZIN A   1      19.856   1.465  18.575  0.00  0.00    -0.265 OA
ENDBRANCH  18  19
ENDBRANCH  15  18
ENDBRANCH   1  12
BRANCH   1  22
ATOM     22  C20 ZIN A   1      18.162   0.588  11.720  0.00  0.00     0.047 A 
ATOM     23  N25 ZIN A   1      19.193   1.221  12.245  0.00  0.00    -0.265 NA
ATOM     24  C24 ZIN A   1      19.720   2.284  11.669  0.00  0.00     0.117 A 
ATOM     25  C23 ZIN A   1      19.199   2.780  10.489  0.00  0.00     0.019 A 
ATOM     26  C22 ZIN A   1      18.113   2.143   9.909  0.00  0.00     0.003 A 
ATOM     27  C21 ZIN A   1      17.588   1.026  10.542  0.00  0.00     0.028 A 
ENDBRANCH   1  22
TORSDOF 7
ENDMDL
MODEL 3
REMARK VINA RESULT:      -8.6      2.806      4.846
REMARK  7 active torsions:
REMARK  status: ('A' for Active; 'I' for Inactive)
REMARK    1  A    between atoms: C2_2  and  O4_4 
REMARK    2  A    between atoms: O4_4  and  C5_5 
REMARK    3  A    between atoms: C8_8  and  C9_9 
REMARK    4  A    between atoms: C9_9  and  C10_10 
REMARK    5  A    between atoms: C9_9  and  C20_20 
REMARK    6  A    between atoms: C13_13  and  O14_14 
REMARK    7  A    between atoms: O14_14  and  C15_15 
ROOT
ATOM      1  C9  ZIN A   1      17.629   0.775  10.647  0.00  0.00     0.103 C 
ENDROOT
BRANCH   1   2
ATOM      2  C8  ZIN A   1      18.220   2.039  11.217  0.00  0.00    -0.044 A 
ATOM      3  C7  ZIN A   1      17.492   3.214  11.191  0.00  0.00     0.011 A 
ATOM      4  C6  ZIN A   1      18.031   4.373  11.712  0.00  0.00     0.038 A 
ATOM      5  C5  ZIN A   1      19.304   4.359  12.263  0.00  0.00     0.079 A 
ATOM      6  C27 ZIN A   1      20.035   3.180  12.284  0.00  0.00     0.038 A 
ATOM      7  C26 ZIN A   1      19.488   2.022  11.765  0.00  0.00     0.011 A 
BRANCH   5   8
ATOM      8  O4  ZIN A   1      19.837   5.499  12.777  0.00  0.00    -0.279 OA
BRANCH   8   9
ATOM      9  C2  ZIN A   1      19.705   5.691  14.099  0.00  0.00     0.260 C 
ATOM     10  C1  ZIN A   1      20.916   5.997  14.941  0.00  0.00     0.126 C 
ATOM     11  O3  ZIN A   1      18.614   5.618  14.614  0.00  0.00    -0.265 OA
ENDBRANCH   8   9
ENDBRANCH   5   8
ENDBRANCH   1   2
BRANCH   1  12
ATOM     12  C10 ZIN A   1      17.898   0.719   9.165  0.00  0.00    -0.044 A 
ATOM     13  C19 ZIN A   1      17.174  -0.147   8.365  0.00  0.00     0.011 A 
ATOM     14  C18 ZIN A   1      17.414  -0.198   7.006  0.00  0.00     0.038 A 
ATOM     15  C13 ZIN A   1      18.391   0.613   6.444  0.00  0.00     0.079 A 
ATOM     16  C12 ZIN A   1      19.119   1.477   7.251  0.00  0.00     0.038 A 
ATOM     17  C11 ZIN A   1      18.872   1.527   8.609  0.00  0.00     0.011 A 
BRANCH  15  18
ATOM     18  O14 ZIN A   1      18.634   0.561   5.109  0.00  0.00    -0.279 OA
BRANCH  18  19
ATOM     19  C15 ZIN A   1      18.853  -0.652   4.576  0.00  0.00     0.260 C 
ATOM     20  C16 ZIN A   1      17.696  -1.465   4.054  0.00  0.00     0.126 C 
ATOM     21  O17 ZIN A   1      19.976  -1.092   4.516  0.00  0.00    -0.265 OA
ENDBRANCH  18  19
ENDBRANCH  15  18
ENDBRANCH   1  12
BRANCH   1  22
ATOM     22  C20 ZIN A   1      18.258  -0.420  11.317  0.00  0.00     0.047 A 
ATOM     23  N25 ZIN A   1      19.256  -1.047  10.728  0.00  0.00    -0.265 NA
ATOM     24  C24 ZIN A   1      19.839  -2.094  11.278  0.00  0.00     0.117 A 
ATOM     25  C23 ZIN A   1      19.413  -2.579  12.501  0.00  0.00     0.019 A 
ATOM     26  C22 ZIN A   1      18.363  -1.948  13.149  0.00  0.00     0.003 A 
ATOM     27  C21 ZIN A   1      17.778  -0.847  12.541  0.00  0.00     0.028 A 
ENDBRANCH   1  22
TORSDOF 7
ENDMDL
MODEL 4
REMARK VINA RESULT:      -8.4      2.829      7.639
REMARK  7 active torsions:
REMARK  status: ('A' for Active; 'I' for Inactive)
REMARK    1  A    between atoms: C2_2  and  O4_4 
REMARK    2  A    between atoms: O4_4  and  C5_5 
REMARK    3  A    between atoms: C8_8  and  C9_9 
REMARK    4  A    between atoms: C9_9  and  C10_10 
REMARK    5  A    between atoms: C9_9  and  C20_20 
REMARK    6  A    between atoms: C13_13  and  O14_14 
REMARK    7  A    between atoms: O14_14  and  C15_15 
ROOT
ATOM      1  C9  ZIN A   1      19.459   1.387  10.600  0.00  0.00     0.103 C 
ENDROOT
BRANCH   1   2
ATOM      2  C8  ZIN A   1      19.043   1.066   9.187  0.00  0.00    -0.044 A 
ATOM      3  C7  ZIN A   1      18.204  -0.006   8.942  0.00  0.00     0.011 A 
ATOM      4  C6  ZIN A   1      17.821  -0.303   7.649  0.00  0.00     0.038 A 
ATOM      5  C5  ZIN A   1      18.279   0.475   6.594  0.00  0.00     0.079 A 
ATOM      6  C27 ZIN A   1      19.125   1.546   6.843  0.00  0.00     0.038 A 
ATOM      7  C26 ZIN A   1      19.501   1.842   8.139  0.00  0.00     0.011 A 
BRANCH   5   8
ATOM      8  O4  ZIN A   1      17.904   0.184   5.321  0.00  0.00    -0.279 OA
BRANCH   8   9
ATOM      9  C2  ZIN A   1      18.438  -0.915   4.764  0.00  0.00     0.260 C 
ATOM     10  C1  ZIN A   1      17.545  -2.047   4.326  0.00  0.00     0.126 C 
ATOM     11  O3  ZIN A   1      19.634  -0.997   4.615  0.00  0.00    -0.265 OA
ENDBRANCH   8   9
ENDBRANCH   5   8
ENDBRANCH   1   2
BRANCH   1  12
ATOM     12  C10 ZIN A   1      18.804   2.672  11.037  0.00  0.00    -0.044 A 
ATOM     13  C19 ZIN A   1      17.586   3.044  10.497  0.00  0.00     0.011 A 
ATOM     14  C18 ZIN A   1      16.980   4.219  10.899  0.00  0.00     0.038 A 
ATOM     15  C13 ZIN A   1      17.600   5.031  11.838  0.00  0.00     0.079 A 
ATOM     16  C12 ZIN A   1      18.825   4.658  12.374  0.00  0.00     0.038 A 
ATOM     17  C11 ZIN A   1      19.423   3.480  11.971  0.00  0.00     0.011 A 
BRANCH  15  18
ATOM     18  O14 ZIN A   1      17.010   6.190  12.231  0.00  0.00    -0.279 OA
BRANCH  18  19
ATOM     19  C15 ZIN A   1      16.740   6.323  13.540  0.00  0.00     0.260 C 
ATOM     20  C16 ZIN A   1      15.525   5.655  14.129  0.00  0.00     0.126 C 
ATOM     21  O17 ZIN A   1      17.472   6.976  14.244  0.00  0.00    -0.265 OA
ENDBRANCH  18  19
ENDBRANCH  15  18
ENDBRANCH   1  12
BRANCH   1  22
ATOM     22  C20 ZIN A   1      19.030   0.269  11.515  0.00  0.00     0.047 A 
ATOM     23  N25 ZIN A   1      17.876   0.350  12.147  0.00  0.00    -0.265 NA
ATOM     24  C24 ZIN A   1      17.458  -0.606  12.954  0.00  0.00     0.117 A 
ATOM     25  C23 ZIN A   1      18.229  -1.732  13.173  0.00  0.00     0.019 A 
ATOM     26  C22 ZIN A   1      19.450  -1.851  12.530  0.00  0.00     0.003 A 
ATOM     27  C21 ZIN A   1      19.854  -0.828  11.685  0.00  0.00     0.028 A 
ENDBRANCH   1  22
TORSDOF 7
ENDMDL
MODEL 5
REMARK VINA RESULT:      -8.4      3.297      4.675
REMARK  7 active torsions:
REMARK  status: ('A' for Active; 'I' for Inactive)
REMARK    1  A    between atoms: C2_2  and  O4_4 
REMARK    2  A    between atoms: O4_4  and  C5_5 
REMARK    3  A    between atoms: C8_8  and  C9_9 
REMARK    4  A    between atoms: C9_9  and  C10_10 
REMARK    5  A    between atoms: C9_9  and  C20_20 
REMARK    6  A    between atoms: C13_13  and  O14_14 
REMARK    7  A    between atoms: O14_14  and  C15_15 
ROOT
ATOM      1  C9  ZIN A   1      19.604  -1.064  12.365  0.00  0.00     0.103 C 
ENDROOT
BRANCH   1   2
ATOM      2  C8  ZIN A   1      19.141  -0.762  13.767  0.00  0.00    -0.044 A 
ATOM      3  C7  ZIN A   1      18.314   0.320  14.003  0.00  0.00     0.011 A 
ATOM      4  C6  ZIN A   1      17.888   0.600  15.286  0.00  0.00     0.038 A 
ATOM      5  C5  ZIN A   1      18.292  -0.206  16.341  0.00  0.00     0.079 A 
ATOM      6  C27 ZIN A   1      19.127  -1.288  16.103  0.00  0.00     0.038 A 
ATOM      7  C26 ZIN A   1      19.545  -1.567  14.816  0.00  0.00     0.011 A 
BRANCH   5   8
ATOM      8  O4  ZIN A   1      17.875   0.067  17.606  0.00  0.00    -0.279 OA
BRANCH   8   9
ATOM      9  C2  ZIN A   1      18.492   1.071  18.247  0.00  0.00     0.260 C 
ATOM     10  C1  ZIN A   1      17.714   2.294  18.660  0.00  0.00     0.126 C 
ATOM     11  O3  ZIN A   1      19.673   0.996  18.493  0.00  0.00    -0.265 OA
ENDBRANCH   8   9
ENDBRANCH   5   8
ENDBRANCH   1   2
BRANCH   1  12
ATOM     12  C10 ZIN A   1      19.043  -2.392  11.926  0.00  0.00    -0.044 A 
ATOM     13  C19 ZIN A   1      17.679  -2.615  11.976  0.00  0.00     0.011 A 
ATOM     14  C18 ZIN A   1      17.161  -3.829  11.570  0.00  0.00     0.038 A 
ATOM     15  C13 ZIN A   1      18.011  -4.829  11.119  0.00  0.00     0.079 A 
ATOM     16  C12 ZIN A   1      19.380  -4.604  11.074  0.00  0.00     0.038 A 
ATOM     17  C11 ZIN A   1      19.892  -3.386  11.478  0.00  0.00     0.011 A 
BRANCH  15  18
ATOM     18  O14 ZIN A   1      17.505  -6.027  10.724  0.00  0.00    -0.279 OA
BRANCH  18  19
ATOM     19  C15 ZIN A   1      17.061  -6.112   9.459  0.00  0.00     0.260 C 
ATOM     20  C16 ZIN A   1      17.983  -6.591   8.368  0.00  0.00     0.126 C 
ATOM     21  O17 ZIN A   1      15.923  -5.806   9.197  0.00  0.00    -0.265 OA
ENDBRANCH  18  19
ENDBRANCH  15  18
ENDBRANCH   1  12
BRANCH   1  22
ATOM     22  C20 ZIN A   1      19.121   0.018  11.434  0.00  0.00     0.047 A 
ATOM     23  N25 ZIN A   1      19.667   1.217  11.489  0.00  0.00    -0.265 NA
ATOM     24  C24 ZIN A   1      19.279   2.193  10.692  0.00  0.00     0.117 A 
ATOM     25  C23 ZIN A   1      18.271   1.992   9.767  0.00  0.00     0.019 A 
ATOM     26  C22 ZIN A   1      17.671   0.746   9.682  0.00  0.00     0.003 A 
ATOM     27  C21 ZIN A   1      18.108  -0.257  10.535  0.00  0.00     0.028 A 
ENDBRANCH   1  22
TORSDOF 7
ENDMDL
MODEL 6
REMARK VINA RESULT:      -8.2      3.016      5.490
REMARK  7 active torsions:
REMARK  status: ('A' for Active; 'I' for Inactive)
REMARK    1  A    between atoms: C2_2  and  O4_4 
REMARK    2  A    between atoms: O4_4  and  C5_5 
REMARK    3  A    between atoms: C8_8  and  C9_9 
REMARK    4  A    between atoms: C9_9  and  C10_10 
REMARK    5  A    between atoms: C9_9  and  C20_20 
REMARK    6  A    between atoms: C13_13  and  O14_14 
REMARK    7  A    between atoms: O14_14  and  C15_15 
ROOT
ATOM      1  C9  ZIN A   1      17.564  -1.179  12.763  0.00  0.00     0.103 C 
ENDROOT
BRANCH   1   2
ATOM      2  C8  ZIN A   1      17.941  -0.924  14.200  0.00  0.00    -0.044 A 
ATOM      3  C7  ZIN A   1      17.389   0.148  14.878  0.00  0.00     0.011 A 
ATOM      4  C6  ZIN A   1      17.732   0.384  16.194  0.00  0.00     0.038 A 
ATOM      5  C5  ZIN A   1      18.632  -0.454  16.838  0.00  0.00     0.079 A 
ATOM      6  C27 ZIN A   1      19.188  -1.525  16.154  0.00  0.00     0.038 A 
ATOM      7  C26 ZIN A   1      18.837  -1.760  14.838  0.00  0.00     0.011 A 
BRANCH   5   8
ATOM      8  O4  ZIN A   1      18.971  -0.223  18.133  0.00  0.00    -0.279 OA
BRANCH   8   9
ATOM      9  C2  ZIN A   1      18.858   1.039  18.577  0.00  0.00     0.260 C 
ATOM     10  C1  ZIN A   1      17.522   1.559  19.041  0.00  0.00     0.126 C 
ATOM     11  O3  ZIN A   1      19.829   1.759  18.603  0.00  0.00    -0.265 OA
ENDBRANCH   8   9
ENDBRANCH   5   8
ENDBRANCH   1   2
BRANCH   1  12
ATOM     12  C10 ZIN A   1      17.894   0.036  11.934  0.00  0.00    -0.044 A 
ATOM     13  C19 ZIN A   1      17.172   0.304  10.785  0.00  0.00     0.011 A 
ATOM     14  C18 ZIN A   1      17.468   1.419  10.025  0.00  0.00     0.038 A 
ATOM     15  C13 ZIN A   1      18.498   2.265  10.410  0.00  0.00     0.079 A 
ATOM     16  C12 ZIN A   1      19.225   1.991  11.561  0.00  0.00     0.038 A 
ATOM     17  C11 ZIN A   1      18.921   0.877  12.319  0.00  0.00     0.011 A 
BRANCH  15  18
ATOM     18  O14 ZIN A   1      18.796   3.359   9.662  0.00  0.00    -0.279 OA
BRANCH  18  19
ATOM     19  C15 ZIN A   1      17.971   4.413   9.769  0.00  0.00     0.260 C 
ATOM     20  C16 ZIN A   1      17.277   4.696  11.076  0.00  0.00     0.126 C 
ATOM     21  O17 ZIN A   1      17.785   5.134   8.818  0.00  0.00    -0.265 OA
ENDBRANCH  18  19
ENDBRANCH  15  18
ENDBRANCH   1  12
BRANCH   1  22
ATOM     22  C20 ZIN A   1      18.336  -2.365  12.245  0.00  0.00     0.047 A 
ATOM     23  N25 ZIN A   1      17.718  -3.514  12.057  0.00  0.00    -0.265 NA
ATOM     24  C24 ZIN A   1      18.351  -4.576  11.601  0.00  0.00     0.117 A 
ATOM     25  C23 ZIN A   1      19.702  -4.524  11.312  0.00  0.00     0.019 A 
ATOM     26  C22 ZIN A   1      20.388  -3.334  11.501  0.00  0.00     0.003 A 
ATOM     27  C21 ZIN A   1      19.686  -2.237  11.977  0.00  0.00     0.028 A 
ENDBRANCH   1  22
TORSDOF 7
ENDMDL
MODEL 7
REMARK VINA RESULT:      -7.7      2.925      4.689
REMARK  7 active torsions:
REMARK  status: ('A' for Active; 'I' for Inactive)
REMARK    1  A    between atoms: C2_2  and  O4_4 
REMARK    2  A    between atoms: O4_4  and  C5_5 
REMARK    3  A    between atoms: C8_8  and  C9_9 
REMARK    4  A    between atoms: C9_9  and  C10_10 
REMARK    5  A    between atoms: C9_9  and  C20_20 
REMARK    6  A    between atoms: C13_13  and  O14_14 
REMARK    7  A    between atoms: O14_14  and  C15_15 
ROOT
ATOM      1  C9  ZIN A   1      17.357  -1.343  10.980  0.00  0.00     0.103 C 
ENDROOT
BRANCH   1   2
ATOM      2  C8  ZIN A   1      17.935  -0.510  12.094  0.00  0.00    -0.044 A 
ATOM      3  C7  ZIN A   1      17.133   0.393  12.768  0.00  0.00     0.011 A 
ATOM      4  C6  ZIN A   1      17.659   1.158  13.790  0.00  0.00     0.038 A 
ATOM      5  C5  ZIN A   1      18.995   1.021  14.141  0.00  0.00     0.079 A 
ATOM      6  C27 ZIN A   1      19.799   0.119  13.460  0.00  0.00     0.038 A 
ATOM      7  C26 ZIN A   1      19.266  -0.648  12.442  0.00  0.00     0.011 A 
BRANCH   5   8
ATOM      8  O4  ZIN A   1      19.516   1.773  15.146  0.00  0.00    -0.279 OA
BRANCH   8   9
ATOM      9  C2  ZIN A   1      18.977   1.616  16.366  0.00  0.00     0.260 C 
ATOM     10  C1  ZIN A   1      18.980   0.261  17.023  0.00  0.00     0.126 C 
ATOM     11  O3  ZIN A   1      18.489   2.563  16.937  0.00  0.00    -0.265 OA
ENDBRANCH   8   9
ENDBRANCH   5   8
ENDBRANCH   1   2
BRANCH   1  12
ATOM     12  C10 ZIN A   1      17.880  -0.844   9.656  0.00  0.00    -0.044 A 
ATOM     13  C19 ZIN A   1      18.131  -1.739   8.633  0.00  0.00     0.011 A 
ATOM     14  C18 ZIN A   1      18.606  -1.285   7.417  0.00  0.00     0.038 A 
ATOM     15  C13 ZIN A   1      18.839   0.070   7.227  0.00  0.00     0.079 A 
ATOM     16  C12 ZIN A   1      18.590   0.965   8.258  0.00  0.00     0.038 A 
ATOM     17  C11 ZIN A   1      18.112   0.506   9.470  0.00  0.00     0.011 A 
BRANCH  15  18
ATOM     18  O14 ZIN A   1      19.310   0.519   6.035  0.00  0.00    -0.279 OA
BRANCH  18  19
ATOM     19  C15 ZIN A   1      19.162  -0.294   4.976  0.00  0.00     0.260 C 
ATOM     20  C16 ZIN A   1      17.841  -0.356   4.254  0.00  0.00     0.126 C 
ATOM     21  O17 ZIN A   1      20.088  -0.974   4.603  0.00  0.00    -0.265 OA
ENDBRANCH  18  19
ENDBRANCH  15  18
ENDBRANCH   1  12
BRANCH   1  22
ATOM     22  C20 ZIN A   1      17.761  -2.782  11.168  0.00  0.00     0.047 A 
ATOM     23  N25 ZIN A   1      16.836  -3.696  11.383  0.00  0.00    -0.265 NA
ATOM     24  C24 ZIN A   1      17.141  -4.968  11.549  0.00  0.00     0.117 A 
ATOM     25  C23 ZIN A   1      18.458  -5.389  11.511  0.00  0.00     0.019 A 
ATOM     26  C22 ZIN A   1      19.459  -4.457  11.291  0.00  0.00     0.003 A 
ATOM     27  C21 ZIN A   1      19.098  -3.129  11.116  0.00  0.00     0.028 A 
ENDBRANCH   1  22
TORSDOF 7
ENDMDL
MODEL 8
REMARK VINA RESULT:      -7.7      3.445      4.587
REMARK  7 active torsions:
REMARK  status: ('A' for Active; 'I' for Inactive)
REMARK    1  A    between atoms: C2_2  and  O4_4 
REMARK    2  A    between atoms: O4_4  and  C5_5 
REMARK    3  A    between atoms: C8_8  and  C9_9 
REMARK    4  A    between atoms: C9_9  and  C10_10 
REMARK    5  A    between atoms: C9_9  and  C20_20 
REMARK    6  A    between atoms: C13_13  and  O14_14 
REMARK    7  A    between atoms: O14_14  and  C15_15 
ROOT
ATOM      1  C9  ZIN A   1      19.924  -0.960  11.230  0.00  0.00     0.103 C 
ENDROOT
BRANCH   1   2
ATOM      2  C8  ZIN A   1      19.393  -0.412  12.530  0.00  0.00    -0.044 A 
ATOM      3  C7  ZIN A   1      18.143  -0.795  12.981  0.00  0.00     0.011 A 
ATOM      4  C6  ZIN A   1      17.654  -0.296  14.171  0.00  0.00     0.038 A 
ATOM      5  C5  ZIN A   1      18.416   0.593  14.915  0.00  0.00     0.079 A 
ATOM      6  C27 ZIN A   1      19.667   0.981  14.458  0.00  0.00     0.038 A 
ATOM      7  C26 ZIN A   1      20.154   0.473  13.269  0.00  0.00     0.011 A 
BRANCH   5   8
ATOM      8  O4  ZIN A   1      17.936   1.087  16.087  0.00  0.00    -0.279 OA
BRANCH   8   9
ATOM      9  C2  ZIN A   1      17.729   0.207  17.080  0.00  0.00     0.260 C 
ATOM     10  C1  ZIN A   1      18.891  -0.301  17.892  0.00  0.00     0.126 C 
ATOM     11  O3  ZIN A   1      16.609  -0.178  17.321  0.00  0.00    -0.265 OA
ENDBRANCH   8   9
ENDBRANCH   5   8
ENDBRANCH   1   2
BRANCH   1  12
ATOM     12  C10 ZIN A   1      19.336  -2.325  10.982  0.00  0.00    -0.044 A 
ATOM     13  C19 ZIN A   1      18.121  -2.445  10.332  0.00  0.00     0.011 A 
ATOM     14  C18 ZIN A   1      17.581  -3.695  10.099  0.00  0.00     0.038 A 
ATOM     15  C13 ZIN A   1      18.254  -4.831  10.527  0.00  0.00     0.079 A 
ATOM     16  C12 ZIN A   1      19.471  -4.707  11.183  0.00  0.00     0.038 A 
ATOM     17  C11 ZIN A   1      20.008  -3.455  11.410  0.00  0.00     0.011 A 
BRANCH  15  18
ATOM     18  O14 ZIN A   1      17.723  -6.061  10.304  0.00  0.00    -0.279 OA
BRANCH  18  19
ATOM     19  C15 ZIN A   1      17.726  -6.505   9.036  0.00  0.00     0.260 C 
ATOM     20  C16 ZIN A   1      16.423  -6.726   8.313  0.00  0.00     0.126 C 
ATOM     21  O17 ZIN A   1      18.773  -6.727   8.476  0.00  0.00    -0.265 OA
ENDBRANCH  18  19
ENDBRANCH  15  18
ENDBRANCH   1  12
BRANCH   1  22
ATOM     22  C20 ZIN A   1      19.541  -0.036  10.103  0.00  0.00     0.047 A 
ATOM     23  N25 ZIN A   1      18.974   1.123  10.374  0.00  0.00    -0.265 NA
ATOM     24  C24 ZIN A   1      18.626   1.965   9.421  0.00  0.00     0.117 A 
ATOM     25  C23 ZIN A   1      18.838   1.653   8.091  0.00  0.00     0.019 A 
ATOM     26  C22 ZIN A   1      19.427   0.442   7.766  0.00  0.00     0.003 A 
ATOM     27  C21 ZIN A   1      19.784  -0.416   8.797  0.00  0.00     0.028 A 
ENDBRANCH   1  22
TORSDOF 7
ENDMDL
MODEL 9
REMARK VINA RESULT:      -7.6      3.236      7.197
REMARK  7 active torsions:
REMARK  status: ('A' for Active; 'I' for Inactive)
REMARK    1  A    between atoms: C2_2  and  O4_4 
REMARK    2  A    between atoms: O4_4  and  C5_5 
REMARK    3  A    between atoms: C8_8  and  C9_9 
REMARK    4  A    between atoms: C9_9  and  C10_10 
REMARK    5  A    between atoms: C9_9  and  C20_20 
REMARK    6  A    between atoms: C13_13  and  O14_14 
REMARK    7  A    between atoms: O14_14  and  C15_15 
ROOT
ATOM      1  C9  ZIN A   1      17.401  -0.829  10.933  0.00  0.00     0.103 C 
ENDROOT
BRANCH   1   2
ATOM      2  C8  ZIN A   1      17.829  -2.233  10.595  0.00  0.00    -0.044 A 
ATOM      3  C7  ZIN A   1      18.776  -2.448   9.610  0.00  0.00     0.011 A 
ATOM      4  C6  ZIN A   1      19.171  -3.733   9.297  0.00  0.00     0.038 A 
ATOM      5  C5  ZIN A   1      18.616  -4.812   9.971  0.00  0.00     0.079 A 
ATOM      6  C27 ZIN A   1      17.662  -4.595  10.955  0.00  0.00     0.038 A 
ATOM      7  C26 ZIN A   1      17.275  -3.305  11.267  0.00  0.00     0.011 A 
BRANCH   5   8
ATOM      8  O4  ZIN A   1      19.002  -6.079   9.665  0.00  0.00    -0.279 OA
BRANCH   8   9
ATOM      9  C2  ZIN A   1      18.572  -6.581   8.497  0.00  0.00     0.260 C 
ATOM     10  C1  ZIN A   1      17.221  -7.244   8.414  0.00  0.00     0.126 C 
ATOM     11  O3  ZIN A   1      19.269  -6.504   7.513  0.00  0.00    -0.265 OA
ENDBRANCH   8   9
ENDBRANCH   5   8
ENDBRANCH   1   2
BRANCH   1  12
ATOM     12  C10 ZIN A   1      17.938  -0.453  12.290  0.00  0.00    -0.044 A 
ATOM     13  C19 ZIN A   1      19.131  -0.993  12.733  0.00  0.00     0.011 A 
ATOM     14  C18 ZIN A   1      19.629  -0.647  13.975  0.00  0.00     0.038 A 
ATOM     15  C13 ZIN A   1      18.925   0.237  14.781  0.00  0.00     0.079 A 
ATOM     16  C12 ZIN A   1      17.726   0.773  14.335  0.00  0.00     0.038 A 
ATOM     17  C11 ZIN A   1      17.235   0.427  13.091  0.00  0.00     0.011 A 
BRANCH  15  18
ATOM     18  O14 ZIN A   1      19.409   0.575  16.005  0.00  0.00    -0.279 OA
BRANCH  18  19
ATOM     19  C15 ZIN A   1      18.902  -0.080  17.062  0.00  0.00     0.260 C 
ATOM     20  C16 ZIN A   1      17.922   0.610  17.977  0.00  0.00     0.126 C 
ATOM     21  O17 ZIN A   1      19.231  -1.222  17.280  0.00  0.00    -0.265 OA
ENDBRANCH  18  19
ENDBRANCH  15  18
ENDBRANCH   1  12
BRANCH   1  22
ATOM     22  C20 ZIN A   1      17.942   0.124   9.898  0.00  0.00     0.047 A 
ATOM     23  N25 ZIN A   1      18.719   1.121  10.272  0.00  0.00    -0.265 NA
ATOM     24  C24 ZIN A   1      19.218   1.976   9.402  0.00  0.00     0.117 A 
ATOM     25  C23 ZIN A   1      18.934   1.859   8.054  0.00  0.00     0.019 A 
ATOM     26  C22 ZIN A   1      18.117   0.826   7.622  0.00  0.00     0.003 A 
ATOM     27  C21 ZIN A   1      17.614  -0.056   8.567  0.00  0.00     0.028 A 
ENDBRANCH   1  22
TORSDOF 7
ENDMDL
