MODEL 1
REMARK VINA RESULT:      -8.3      0.000      0.000
REMARK  0 active torsions:
REMARK  status: ('A' for Active; 'I' for Inactive)
ROOT
ATOM      1  C1  ZIN A   1      19.241  -0.282   4.862  0.00  0.00     0.309 C 
ATOM      2  N2  ZIN A   1      18.433  -0.087   6.074  0.00  0.00     0.085 N 
ATOM      3  C3  ZIN A   1      18.952   1.045   6.883  0.00  0.00     0.282 C 
ATOM      4  C4  ZIN A   1      19.292   0.461   8.256  0.00  0.00     0.060 C 
ATOM      5  C6  ZIN A   1      19.165   1.372   9.409  0.00  0.00    -0.018 A 
ATOM      6  C7  ZIN A   1      18.644   2.645   9.302  0.00  0.00     0.010 A 
ATOM      7  C8  ZIN A   1      18.521   3.439  10.428  0.00  0.00     0.001 A 
ATOM      8  C9  ZIN A   1      18.914   2.960  11.664  0.00  0.00     0.003 A 
ATOM      9  C10 ZIN A   1      19.449   1.689  11.776  0.00  0.00     0.038 A 
ATOM     10  C11 ZIN A   1      19.589   0.902  10.647  0.00  0.00     0.082 A 
ATOM     11  O12 ZIN A   1      20.187  -0.305  10.691  0.00  0.00    -0.310 OA
ATOM     12  C13 ZIN A   1      19.571  -1.485  10.485  0.00  0.00     0.083 A 
ATOM     13  C14 ZIN A   1      19.827  -2.489  11.421  0.00  0.00     0.039 A 
ATOM     14  C15 ZIN A   1      19.231  -3.726  11.317  0.00  0.00     0.026 A 
ATOM     15  C16 ZIN A   1      18.362  -3.975  10.269  0.00  0.00     0.034 A 
ATOM     16 Cl17 ZIN A   1      17.590  -5.524  10.129  0.00  0.00    -0.084 Cl
ATOM     17  C18 ZIN A   1      18.112  -2.992   9.339  0.00  0.00     0.034 A 
ATOM     18  C19 ZIN A   1      18.717  -1.738   9.424  0.00  0.00    -0.016 A 
ATOM     19  C20 ZIN A   1      18.409  -0.765   8.352  0.00  0.00     0.060 C 
ATOM     20  C22 ZIN A   1      18.434  -1.313   6.919  0.00  0.00     0.282 C 
ENDROOT
TORSDOF 0
ENDMDL
MODEL 2
REMARK VINA RESULT:      -8.2      4.115      6.283
REMARK  0 active torsions:
REMARK  status: ('A' for Active; 'I' for Inactive)
ROOT
ATOM      1  C1  ZIN A   1      16.395   6.304  13.945  0.00  0.00     0.309 C 
ATOM      2  N2  ZIN A   1      17.551   5.490  13.544  0.00  0.00     0.085 N 
ATOM      3  C3  ZIN A   1      17.349   4.908  12.193  0.00  0.00     0.282 C 
ATOM      4  C4  ZIN A   1      17.443   3.391  12.368  0.00  0.00     0.060 C 
ATOM      5  C6  ZIN A   1      17.956   2.626  11.216  0.00  0.00    -0.018 A 
ATOM      6  C7  ZIN A   1      18.454   3.230  10.079  0.00  0.00     0.010 A 
ATOM      7  C8  ZIN A   1      18.952   2.455   9.047  0.00  0.00     0.001 A 
ATOM      8  C9  ZIN A   1      18.956   1.076   9.150  0.00  0.00     0.003 A 
ATOM      9  C10 ZIN A   1      18.447   0.465  10.281  0.00  0.00     0.038 A 
ATOM     10  C11 ZIN A   1      17.933   1.239  11.307  0.00  0.00     0.082 A 
ATOM     11  O12 ZIN A   1      17.344   0.688  12.386  0.00  0.00    -0.310 OA
ATOM     12  C13 ZIN A   1      17.828   0.734  13.643  0.00  0.00     0.083 A 
ATOM     13  C14 ZIN A   1      17.852  -0.474  14.342  0.00  0.00     0.039 A 
ATOM     14  C15 ZIN A   1      18.347  -0.543  15.625  0.00  0.00     0.026 A 
ATOM     15  C16 ZIN A   1      18.831   0.604  16.229  0.00  0.00     0.034 A 
ATOM     16 Cl17 ZIN A   1      19.473   0.534  17.840  0.00  0.00    -0.084 Cl
ATOM     17  C18 ZIN A   1      18.803   1.800  15.547  0.00  0.00     0.034 A 
ATOM     18  C19 ZIN A   1      18.293   1.888  14.252  0.00  0.00    -0.016 A 
ATOM     19  C20 ZIN A   1      18.275   3.228  13.623  0.00  0.00     0.060 C 
ATOM     20  C22 ZIN A   1      17.780   4.379  14.508  0.00  0.00     0.282 C 
ENDROOT
TORSDOF 0
ENDMDL
MODEL 3
REMARK VINA RESULT:      -8.2      2.536      4.243
REMARK  0 active torsions:
REMARK  status: ('A' for Active; 'I' for Inactive)
ROOT
ATOM      1  C1  ZIN A   1      18.140  -5.697   9.656  0.00  0.00     0.309 C 
ATOM      2  N2  ZIN A   1      17.584  -4.338   9.710  0.00  0.00     0.085 N 
ATOM      3  C3  ZIN A   1      18.129  -3.496   8.614  0.00  0.00     0.282 C 
ATOM      4  C4  ZIN A   1      18.810  -2.307   9.294  0.00  0.00     0.060 C 
ATOM      5  C6  ZIN A   1      18.824  -1.038   8.543  0.00  0.00    -0.018 A 
ATOM      6  C7  ZIN A   1      18.152  -0.868   7.349  0.00  0.00     0.010 A 
ATOM      7  C8  ZIN A   1      18.177   0.359   6.711  0.00  0.00     0.001 A 
ATOM      8  C9  ZIN A   1      18.869   1.419   7.265  0.00  0.00     0.003 A 
ATOM      9  C10 ZIN A   1      19.555   1.252   8.455  0.00  0.00     0.038 A 
ATOM     10  C11 ZIN A   1      19.546   0.019   9.085  0.00  0.00     0.082 A 
ATOM     11  O12 ZIN A   1      20.272  -0.217  10.195  0.00  0.00    -0.310 OA
ATOM     12  C13 ZIN A   1      19.763  -0.460  11.418  0.00  0.00     0.083 A 
ATOM     13  C14 ZIN A   1      20.318   0.264  12.476  0.00  0.00     0.039 A 
ATOM     14  C15 ZIN A   1      19.857   0.108  13.764  0.00  0.00     0.026 A 
ATOM     15  C16 ZIN A   1      18.823  -0.777  14.012  0.00  0.00     0.034 A 
ATOM     16 Cl17 ZIN A   1      18.218  -0.976  15.627  0.00  0.00    -0.084 Cl
ATOM     17  C18 ZIN A   1      18.276  -1.499  12.975  0.00  0.00     0.034 A 
ATOM     18  C19 ZIN A   1      18.741  -1.362  11.668  0.00  0.00    -0.016 A 
ATOM     19  C20 ZIN A   1      18.110  -2.211  10.633  0.00  0.00     0.060 C 
ATOM     20  C22 ZIN A   1      17.898  -3.684  11.009  0.00  0.00     0.282 C 
ENDROOT
TORSDOF 0
ENDMDL
MODEL 4
REMARK VINA RESULT:      -8.0      3.654      5.586
REMARK  0 active torsions:
REMARK  status: ('A' for Active; 'I' for Inactive)
ROOT
ATOM      1  C1  ZIN A   1      18.138  -0.095  17.630  0.00  0.00     0.309 C 
ATOM      2  N2  ZIN A   1      18.917   0.259  16.436  0.00  0.00     0.085 N 
ATOM      3  C3  ZIN A   1      18.423   1.522  15.833  0.00  0.00     0.282 C 
ATOM      4  C4  ZIN A   1      18.017   1.175  14.399  0.00  0.00     0.060 C 
ATOM      5  C6  ZIN A   1      18.147   2.252  13.398  0.00  0.00    -0.018 A 
ATOM      6  C7  ZIN A   1      18.725   3.472  13.684  0.00  0.00     0.010 A 
ATOM      7  C8  ZIN A   1      18.848   4.428  12.692  0.00  0.00     0.001 A 
ATOM      8  C9  ZIN A   1      18.399   4.165  11.412  0.00  0.00     0.003 A 
ATOM      9  C10 ZIN A   1      17.807   2.949  11.122  0.00  0.00     0.038 A 
ATOM     10  C11 ZIN A   1      17.667   1.999  12.119  0.00  0.00     0.082 A 
ATOM     11  O12 ZIN A   1      17.017   0.837  11.908  0.00  0.00    -0.310 OA
ATOM     12  C13 ZIN A   1      17.589  -0.382  11.904  0.00  0.00     0.083 A 
ATOM     13  C14 ZIN A   1      17.263  -1.216  10.833  0.00  0.00     0.039 A 
ATOM     14  C15 ZIN A   1      17.808  -2.475  10.720  0.00  0.00     0.026 A 
ATOM     15  C16 ZIN A   1      18.697  -2.919  11.684  0.00  0.00     0.034 A 
ATOM     16 Cl17 ZIN A   1      19.406  -4.498  11.552  0.00  0.00    -0.084 Cl
ATOM     17  C18 ZIN A   1      19.016  -2.105  12.747  0.00  0.00     0.034 A 
ATOM     18  C19 ZIN A   1      18.463  -0.832  12.881  0.00  0.00    -0.016 A 
ATOM     19  C20 ZIN A   1      18.844  -0.052  14.080  0.00  0.00     0.060 C 
ATOM     20  C22 ZIN A   1      18.838  -0.817  15.410  0.00  0.00     0.282 C 
ENDROOT
TORSDOF 0
ENDMDL
MODEL 5
REMARK VINA RESULT:      -8.0      2.924      4.833
REMARK  0 active torsions:
REMARK  status: ('A' for Active; 'I' for Inactive)
ROOT
ATOM      1  C1  ZIN A   1      17.017   5.126  12.599  0.00  0.00     0.309 C 
ATOM      2  N2  ZIN A   1      18.071   4.241  12.087  0.00  0.00     0.085 N 
ATOM      3  C3  ZIN A   1      17.819   3.878  10.669  0.00  0.00     0.282 C 
ATOM      4  C4  ZIN A   1      17.727   2.351  10.634  0.00  0.00     0.060 C 
ATOM      5  C6  ZIN A   1      18.159   1.694   9.385  0.00  0.00    -0.018 A 
ATOM      6  C7  ZIN A   1      18.743   2.383   8.341  0.00  0.00     0.010 A 
ATOM      7  C8  ZIN A   1      19.157   1.702   7.210  0.00  0.00     0.001 A 
ATOM      8  C9  ZIN A   1      18.993   0.333   7.123  0.00  0.00     0.003 A 
ATOM      9  C10 ZIN A   1      18.398  -0.361   8.160  0.00  0.00     0.038 A 
ATOM     10  C11 ZIN A   1      17.967   0.322   9.284  0.00  0.00     0.082 A 
ATOM     11  O12 ZIN A   1      17.301  -0.296  10.280  0.00  0.00    -0.310 OA
ATOM     12  C13 ZIN A   1      17.769  -0.482  11.529  0.00  0.00     0.083 A 
ATOM     13  C14 ZIN A   1      17.637  -1.769  12.055  0.00  0.00     0.039 A 
ATOM     14  C15 ZIN A   1      18.103  -2.073  13.315  0.00  0.00     0.026 A 
ATOM     15  C16 ZIN A   1      18.714  -1.087  14.069  0.00  0.00     0.034 A 
ATOM     16 Cl17 ZIN A   1      19.320  -1.454  15.654  0.00  0.00    -0.084 Cl
ATOM     17  C18 ZIN A   1      18.839   0.186  13.559  0.00  0.00     0.034 A 
ATOM     18  C19 ZIN A   1      18.363   0.512  12.290  0.00  0.00    -0.016 A 
ATOM     19  C20 ZIN A   1      18.515   1.917  11.851  0.00  0.00     0.060 C 
ATOM     20  C22 ZIN A   1      18.151   2.988  12.888  0.00  0.00     0.282 C 
ENDROOT
TORSDOF 0
ENDMDL
MODEL 6
REMARK VINA RESULT:      -7.9      3.286      4.689
REMARK  0 active torsions:
REMARK  status: ('A' for Active; 'I' for Inactive)
ROOT
ATOM      1  C1  ZIN A   1      19.230  -0.730   9.137  0.00  0.00     0.309 C 
ATOM      2  N2  ZIN A   1      18.183  -0.081   9.938  0.00  0.00     0.085 N 
ATOM      3  C3  ZIN A   1      18.272   1.398   9.833  0.00  0.00     0.282 C 
ATOM      4  C4  ZIN A   1      18.466   1.911  11.262  0.00  0.00     0.060 C 
ATOM      5  C6  ZIN A   1      17.922   3.249  11.560  0.00  0.00    -0.018 A 
ATOM      6  C7  ZIN A   1      17.160   3.965  10.659  0.00  0.00     0.010 A 
ATOM      7  C8  ZIN A   1      16.651   5.201  11.013  0.00  0.00     0.001 A 
ATOM      8  C9  ZIN A   1      16.898   5.723  12.269  0.00  0.00     0.003 A 
ATOM      9  C10 ZIN A   1      17.671   5.016  13.172  0.00  0.00     0.038 A 
ATOM     10  C11 ZIN A   1      18.196   3.787  12.812  0.00  0.00     0.082 A 
ATOM     11  O12 ZIN A   1      19.028   3.105  13.623  0.00  0.00    -0.310 OA
ATOM     12  C13 ZIN A   1      18.741   1.932  14.221  0.00  0.00     0.083 A 
ATOM     13  C14 ZIN A   1      19.031   1.844  15.584  0.00  0.00     0.039 A 
ATOM     14  C15 ZIN A   1      18.756   0.698  16.296  0.00  0.00     0.026 A 
ATOM     15  C16 ZIN A   1      18.181  -0.382  15.651  0.00  0.00     0.034 A 
ATOM     16 Cl17 ZIN A   1      17.814  -1.830  16.535  0.00  0.00    -0.084 Cl
ATOM     17  C18 ZIN A   1      17.900  -0.304  14.305  0.00  0.00     0.034 A 
ATOM     18  C19 ZIN A   1      18.183   0.845  13.567  0.00  0.00    -0.016 A 
ATOM     19  C20 ZIN A   1      17.876   0.812  12.120  0.00  0.00     0.060 C 
ATOM     20  C22 ZIN A   1      18.296  -0.461  11.373  0.00  0.00     0.282 C 
ENDROOT
TORSDOF 0
ENDMDL
MODEL 7
REMARK VINA RESULT:      -7.9      2.692      3.904
REMARK  0 active torsions:
REMARK  status: ('A' for Active; 'I' for Inactive)
ROOT
ATOM      1  C1  ZIN A   1      18.549   2.660   9.563  0.00  0.00     0.309 C 
ATOM      2  N2  ZIN A   1      17.761   1.709  10.359  0.00  0.00     0.085 N 
ATOM      3  C3  ZIN A   1      18.137   1.776  11.794  0.00  0.00     0.282 C 
ATOM      4  C4  ZIN A   1      18.603   0.369  12.174  0.00  0.00     0.060 C 
ATOM      5  C6  ZIN A   1      18.383  -0.041  13.575  0.00  0.00    -0.018 A 
ATOM      6  C7  ZIN A   1      17.679   0.729  14.478  0.00  0.00     0.010 A 
ATOM      7  C8  ZIN A   1      17.479   0.271  15.768  0.00  0.00     0.001 A 
ATOM      8  C9  ZIN A   1      17.977  -0.958  16.156  0.00  0.00     0.003 A 
ATOM      9  C10 ZIN A   1      18.694  -1.729  15.259  0.00  0.00     0.038 A 
ATOM     10  C11 ZIN A   1      18.910  -1.264  13.974  0.00  0.00     0.082 A 
ATOM     11  O12 ZIN A   1      19.678  -1.937  13.094  0.00  0.00    -0.310 OA
ATOM     12  C13 ZIN A   1      19.233  -2.528  11.969  0.00  0.00     0.083 A 
ATOM     13  C14 ZIN A   1      19.661  -3.838  11.746  0.00  0.00     0.039 A 
ATOM     14  C15 ZIN A   1      19.248  -4.543  10.637  0.00  0.00     0.026 A 
ATOM     15  C16 ZIN A   1      18.391  -3.943   9.732  0.00  0.00     0.034 A 
ATOM     16 Cl17 ZIN A   1      17.847  -4.819   8.336  0.00  0.00    -0.084 Cl
ATOM     17  C18 ZIN A   1      17.971  -2.648   9.942  0.00  0.00     0.034 A 
ATOM     18  C19 ZIN A   1      18.390  -1.918  11.053  0.00  0.00    -0.016 A 
ATOM     19  C20 ZIN A   1      17.910  -0.523  11.166  0.00  0.00     0.060 C 
ATOM     20  C22 ZIN A   1      17.968   0.314   9.881  0.00  0.00     0.282 C 
ENDROOT
TORSDOF 0
ENDMDL
MODEL 8
REMARK VINA RESULT:      -7.8      2.650      5.561
REMARK  0 active torsions:
REMARK  status: ('A' for Active; 'I' for Inactive)
ROOT
ATOM      1  C1  ZIN A   1      19.586  -4.468  10.438  0.00  0.00     0.309 C 
ATOM      2  N2  ZIN A   1      18.584  -3.684   9.703  0.00  0.00     0.085 N 
ATOM      3  C3  ZIN A   1      18.908  -3.630   8.255  0.00  0.00     0.282 C 
ATOM      4  C4  ZIN A   1      19.053  -2.147   7.909  0.00  0.00     0.060 C 
ATOM      5  C6  ZIN A   1      18.696  -1.754   6.532  0.00  0.00    -0.018 A 
ATOM      6  C7  ZIN A   1      18.135  -2.630   5.626  0.00  0.00     0.010 A 
ATOM      7  C8  ZIN A   1      17.792  -2.190   4.361  0.00  0.00     0.001 A 
ATOM      8  C9  ZIN A   1      18.004  -0.873   4.000  0.00  0.00     0.003 A 
ATOM      9  C10 ZIN A   1      18.578   0.008   4.899  0.00  0.00     0.038 A 
ATOM     10  C11 ZIN A   1      18.938  -0.437   6.160  0.00  0.00     0.082 A 
ATOM     11  O12 ZIN A   1      19.582   0.359   7.037  0.00  0.00    -0.310 OA
ATOM     12  C13 ZIN A   1      19.067   0.811   8.196  0.00  0.00     0.083 A 
ATOM     13  C14 ZIN A   1      19.220   2.175   8.451  0.00  0.00     0.039 A 
ATOM     14  C15 ZIN A   1      18.712   2.746   9.597  0.00  0.00     0.026 A 
ATOM     15  C16 ZIN A   1      18.037   1.954  10.508  0.00  0.00     0.034 A 
ATOM     16 Cl17 ZIN A   1      17.377   2.657  11.952  0.00  0.00    -0.084 Cl
ATOM     17  C18 ZIN A   1      17.890   0.606  10.267  0.00  0.00     0.034 A 
ATOM     18  C19 ZIN A   1      18.409   0.012   9.117  0.00  0.00    -0.016 A 
ATOM     19  C20 ZIN A   1      18.228  -1.450   8.971  0.00  0.00     0.060 C 
ATOM     20  C22 ZIN A   1      18.512  -2.291  10.223  0.00  0.00     0.282 C 
ENDROOT
TORSDOF 0
ENDMDL
MODEL 9
REMARK VINA RESULT:      -7.7      2.846      5.334
REMARK  0 active torsions:
REMARK  status: ('A' for Active; 'I' for Inactive)
ROOT
ATOM      1  C1  ZIN A   1      18.093  -3.787  11.860  0.00  0.00     0.309 C 
ATOM      2  N2  ZIN A   1      17.411  -2.692  11.156  0.00  0.00     0.085 N 
ATOM      3  C3  ZIN A   1      17.900  -2.571   9.759  0.00  0.00     0.282 C 
ATOM      4  C4  ZIN A   1      18.450  -1.150   9.627  0.00  0.00     0.060 C 
ATOM      5  C6  ZIN A   1      18.362  -0.531   8.290  0.00  0.00    -0.018 A 
ATOM      6  C7  ZIN A   1      17.706  -1.127   7.232  0.00  0.00     0.010 A 
ATOM      7  C8  ZIN A   1      17.631  -0.479   6.012  0.00  0.00     0.001 A 
ATOM      8  C9  ZIN A   1      18.207   0.766   5.848  0.00  0.00     0.003 A 
ATOM      9  C10 ZIN A   1      18.877   1.363   6.901  0.00  0.00     0.038 A 
ATOM     10  C11 ZIN A   1      18.968   0.708   8.116  0.00  0.00     0.082 A 
ATOM     11  O12 ZIN A   1      19.686   1.207   9.141  0.00  0.00    -0.310 OA
ATOM     12  C13 ZIN A   1      19.173   1.652  10.304  0.00  0.00     0.083 A 
ATOM     13  C14 ZIN A   1      19.632   2.893  10.750  0.00  0.00     0.039 A 
ATOM     14  C15 ZIN A   1      19.157   3.451  11.915  0.00  0.00     0.026 A 
ATOM     15  C16 ZIN A   1      18.205   2.771  12.655  0.00  0.00     0.034 A 
ATOM     16 Cl17 ZIN A   1      17.583   3.464  14.119  0.00  0.00    -0.084 Cl
ATOM     17  C18 ZIN A   1      17.754   1.543  12.225  0.00  0.00     0.034 A 
ATOM     18  C19 ZIN A   1      18.235   0.960  11.053  0.00  0.00    -0.016 A 
ATOM     19  C20 ZIN A   1      17.711  -0.379  10.700  0.00  0.00     0.060 C 
ATOM     20  C22 ZIN A   1      17.631  -1.393  11.848  0.00  0.00     0.282 C 
ENDROOT
TORSDOF 0
ENDMDL
