MODEL 1
REMARK VINA RESULT:      -7.9      0.000      0.000
REMARK  0 active torsions:
REMARK  status: ('A' for Active; 'I' for Inactive)
ROOT
ATOM      1  C1  ZIN A   1      19.263  -0.138  18.501  0.00  0.00     0.309 C 
ATOM      2  N2  ZIN A   1      18.566  -0.029  17.212  0.00  0.00     0.084 N 
ATOM      3  C3  ZIN A   1      18.840  -1.197  16.366  0.00  0.00     0.276 C 
ATOM      4  C4  ZIN A   1      17.914  -1.168  15.144  0.00  0.00     0.065 C 
ATOM      5  C5  ZIN A   1      18.074   0.173  14.460  0.00  0.00    -0.065 C 
ATOM      6  C6  ZIN A   1      18.279   0.257  13.137  0.00  0.00    -0.011 C 
ATOM      7  C7  ZIN A   1      18.354  -0.962  12.271  0.00  0.00    -0.004 A 
ATOM      8  C8  ZIN A   1      19.411  -1.199  11.391  0.00  0.00     0.062 A 
ATOM      9  S9  ZIN A   1      19.129  -2.733  10.574  0.00  0.00    -0.098 SA
ATOM     10  C10 ZIN A   1      17.664  -2.977  11.407  0.00  0.00     0.051 A 
ATOM     11  C11 ZIN A   1      17.407  -1.974  12.244  0.00  0.00     0.021 A 
ATOM     12  C12 ZIN A   1      20.525  -0.363  11.167  0.00  0.00     0.171 C 
ATOM     13  O13 ZIN A   1      21.291  -0.633  10.265  0.00  0.00    -0.291 OA
ATOM     14  C14 ZIN A   1      20.794   0.852  12.010  0.00  0.00     0.123 C 
ATOM     15  C15 ZIN A   1      19.676   1.852  11.857  0.00  0.00    -0.040 A 
ATOM     16  C16 ZIN A   1      19.845   3.022  11.154  0.00  0.00     0.008 A 
ATOM     17  C17 ZIN A   1      18.798   3.922  11.057  0.00  0.00     0.001 A 
ATOM     18  C18 ZIN A   1      17.584   3.656  11.663  0.00  0.00     0.001 A 
ATOM     19  C19 ZIN A   1      17.401   2.478  12.363  0.00  0.00     0.013 A 
ATOM     20  C20 ZIN A   1      18.437   1.567  12.450  0.00  0.00    -0.018 A 
ATOM     21  C21 ZIN A   1      17.993   1.417  15.319  0.00  0.00     0.065 C 
ATOM     22  C22 ZIN A   1      18.914   1.225  16.531  0.00  0.00     0.276 C 
ENDROOT
TORSDOF 0
ENDMDL
MODEL 2
REMARK VINA RESULT:      -7.8      3.938      6.864
REMARK  0 active torsions:
REMARK  status: ('A' for Active; 'I' for Inactive)
ROOT
ATOM      1  C1  ZIN A   1      19.247  -0.151   4.412  0.00  0.00     0.309 C 
ATOM      2  N2  ZIN A   1      18.560  -0.206   5.710  0.00  0.00     0.084 N 
ATOM      3  C3  ZIN A   1      18.849   0.991   6.510  0.00  0.00     0.276 C 
ATOM      4  C4  ZIN A   1      17.934   1.015   7.739  0.00  0.00     0.065 C 
ATOM      5  C5  ZIN A   1      18.088  -0.302   8.471  0.00  0.00    -0.065 C 
ATOM      6  C6  ZIN A   1      18.303  -0.338   9.795  0.00  0.00    -0.011 C 
ATOM      7  C7  ZIN A   1      18.395   0.913  10.614  0.00  0.00    -0.004 A 
ATOM      8  C8  ZIN A   1      19.461   1.173  11.477  0.00  0.00     0.062 A 
ATOM      9  S9  ZIN A   1      19.198   2.738  12.238  0.00  0.00    -0.098 SA
ATOM     10  C10 ZIN A   1      17.729   2.964  11.407  0.00  0.00     0.051 A 
ATOM     11  C11 ZIN A   1      17.457   1.933  10.611  0.00  0.00     0.021 A 
ATOM     12  C12 ZIN A   1      20.569   0.337  11.723  0.00  0.00     0.171 C 
ATOM     13  O13 ZIN A   1      21.345   0.634  12.608  0.00  0.00    -0.291 OA
ATOM     14  C14 ZIN A   1      20.822  -0.911  10.924  0.00  0.00     0.123 C 
ATOM     15  C15 ZIN A   1      19.697  -1.895  11.123  0.00  0.00    -0.040 A 
ATOM     16  C16 ZIN A   1      19.863  -3.039  11.867  0.00  0.00     0.008 A 
ATOM     17  C17 ZIN A   1      18.809  -3.927  12.007  0.00  0.00     0.001 A 
ATOM     18  C18 ZIN A   1      17.592  -3.673  11.400  0.00  0.00     0.001 A 
ATOM     19  C19 ZIN A   1      17.413  -2.520  10.658  0.00  0.00     0.013 A 
ATOM     20  C20 ZIN A   1      18.456  -1.622  10.529  0.00  0.00    -0.018 A 
ATOM     21  C21 ZIN A   1      17.990  -1.576   7.660  0.00  0.00     0.065 C 
ATOM     22  C22 ZIN A   1      18.903  -1.436   6.435  0.00  0.00     0.276 C 
ENDROOT
TORSDOF 0
ENDMDL
MODEL 3
REMARK VINA RESULT:      -7.7      1.985      4.366
REMARK  0 active torsions:
REMARK  status: ('A' for Active; 'I' for Inactive)
ROOT
ATOM      1  C1  ZIN A   1      17.870   0.476  18.325  0.00  0.00     0.309 C 
ATOM      2  N2  ZIN A   1      18.641   0.271  17.092  0.00  0.00     0.084 N 
ATOM      3  C3  ZIN A   1      18.466   1.399  16.168  0.00  0.00     0.276 C 
ATOM      4  C4  ZIN A   1      19.465   1.269  15.012  0.00  0.00     0.065 C 
ATOM      5  C5  ZIN A   1      19.298  -0.102  14.392  0.00  0.00    -0.065 C 
ATOM      6  C6  ZIN A   1      19.174  -0.253  13.065  0.00  0.00    -0.011 C 
ATOM      7  C7  ZIN A   1      19.199   0.918  12.132  0.00  0.00    -0.004 A 
ATOM      8  C8  ZIN A   1      18.209   1.140  11.173  0.00  0.00     0.062 A 
ATOM      9  S9  ZIN A   1      18.599   2.616  10.295  0.00  0.00    -0.098 SA
ATOM     10  C10 ZIN A   1      20.017   2.856  11.207  0.00  0.00     0.051 A 
ATOM     11  C11 ZIN A   1      20.183   1.894  12.112  0.00  0.00     0.021 A 
ATOM     12  C12 ZIN A   1      17.082   0.332  10.923  0.00  0.00     0.171 C 
ATOM     13  O13 ZIN A   1      16.384   0.577   9.960  0.00  0.00    -0.291 OA
ATOM     14  C14 ZIN A   1      16.714  -0.824  11.811  0.00  0.00     0.123 C 
ATOM     15  C15 ZIN A   1      17.802  -1.868  11.785  0.00  0.00    -0.040 A 
ATOM     16  C16 ZIN A   1      17.633  -3.069  11.137  0.00  0.00     0.008 A 
ATOM     17  C17 ZIN A   1      18.650  -4.009  11.156  0.00  0.00     0.001 A 
ATOM     18  C18 ZIN A   1      19.832  -3.750  11.825  0.00  0.00     0.001 A 
ATOM     19  C19 ZIN A   1      20.015  -2.542  12.471  0.00  0.00     0.013 A 
ATOM     20  C20 ZIN A   1      19.010  -1.593  12.441  0.00  0.00    -0.018 A 
ATOM     21  C21 ZIN A   1      19.278  -1.297  15.321  0.00  0.00     0.065 C 
ATOM     22  C22 ZIN A   1      18.291  -1.006  16.458  0.00  0.00     0.276 C 
ENDROOT
TORSDOF 0
ENDMDL
MODEL 4
REMARK VINA RESULT:      -7.6      3.857      5.892
REMARK  0 active torsions:
REMARK  status: ('A' for Active; 'I' for Inactive)
ROOT
ATOM      1  C1  ZIN A   1      17.233  -6.170  11.474  0.00  0.00     0.309 C 
ATOM      2  N2  ZIN A   1      18.125  -5.164  10.883  0.00  0.00     0.084 N 
ATOM      3  C3  ZIN A   1      18.408  -4.085  11.837  0.00  0.00     0.276 C 
ATOM      4  C4  ZIN A   1      19.522  -3.191  11.280  0.00  0.00     0.065 C 
ATOM      5  C5  ZIN A   1      19.117  -2.735   9.895  0.00  0.00    -0.065 C 
ATOM      6  C6  ZIN A   1      19.187  -1.443   9.542  0.00  0.00    -0.011 C 
ATOM      7  C7  ZIN A   1      19.673  -0.391  10.491  0.00  0.00    -0.004 A 
ATOM      8  C8  ZIN A   1      18.953   0.775  10.758  0.00  0.00     0.062 A 
ATOM      9  S9  ZIN A   1      19.855   1.737  11.925  0.00  0.00    -0.098 SA
ATOM     10  C10 ZIN A   1      21.109   0.586  11.995  0.00  0.00     0.051 A 
ATOM     11  C11 ZIN A   1      20.864  -0.451  11.197  0.00  0.00     0.021 A 
ATOM     12  C12 ZIN A   1      17.716   1.148  10.196  0.00  0.00     0.171 C 
ATOM     13  O13 ZIN A   1      17.281   2.260  10.417  0.00  0.00    -0.291 OA
ATOM     14  C14 ZIN A   1      16.916   0.215   9.331  0.00  0.00     0.123 C 
ATOM     15  C15 ZIN A   1      17.685  -0.125   8.079  0.00  0.00    -0.040 A 
ATOM     16  C16 ZIN A   1      17.326   0.382   6.852  0.00  0.00     0.008 A 
ATOM     17  C17 ZIN A   1      18.047   0.027   5.725  0.00  0.00     0.001 A 
ATOM     18  C18 ZIN A   1      19.123  -0.836   5.823  0.00  0.00     0.001 A 
ATOM     19  C19 ZIN A   1      19.498  -1.343   7.053  0.00  0.00     0.013 A 
ATOM     20  C20 ZIN A   1      18.792  -0.978   8.185  0.00  0.00    -0.018 A 
ATOM     21  C21 ZIN A   1      18.630  -3.787   8.920  0.00  0.00     0.065 C 
ATOM     22  C22 ZIN A   1      17.571  -4.643   9.627  0.00  0.00     0.276 C 
ENDROOT
TORSDOF 0
ENDMDL
MODEL 5
REMARK VINA RESULT:      -7.2      3.698      5.393
REMARK  0 active torsions:
REMARK  status: ('A' for Active; 'I' for Inactive)
ROOT
ATOM      1  C1  ZIN A   1      17.188  -1.170  16.872  0.00  0.00     0.309 C 
ATOM      2  N2  ZIN A   1      18.059  -0.222  16.165  0.00  0.00     0.084 N 
ATOM      3  C3  ZIN A   1      18.056   1.089  16.827  0.00  0.00     0.276 C 
ATOM      4  C4  ZIN A   1      19.150   1.971  16.214  0.00  0.00     0.065 C 
ATOM      5  C5  ZIN A   1      18.946   2.007  14.715  0.00  0.00    -0.065 C 
ATOM      6  C6  ZIN A   1      18.940   3.168  14.043  0.00  0.00    -0.011 C 
ATOM      7  C7  ZIN A   1      19.141   4.481  14.735  0.00  0.00    -0.004 A 
ATOM      8  C8  ZIN A   1      18.267   5.558  14.577  0.00  0.00     0.062 A 
ATOM      9  S9  ZIN A   1      18.846   6.900  15.560  0.00  0.00    -0.098 SA
ATOM     10  C10 ZIN A   1      20.182   5.999  16.111  0.00  0.00     0.051 A 
ATOM     11  C11 ZIN A   1      20.190   4.773  15.593  0.00  0.00     0.021 A 
ATOM     12  C12 ZIN A   1      17.114   5.596  13.767  0.00  0.00     0.171 C 
ATOM     13  O13 ZIN A   1      16.533   6.652  13.620  0.00  0.00    -0.291 OA
ATOM     14  C14 ZIN A   1      16.579   4.371  13.080  0.00  0.00     0.123 C 
ATOM     15  C15 ZIN A   1      17.586   3.850  12.085  0.00  0.00    -0.040 A 
ATOM     16  C16 ZIN A   1      17.395   3.980  10.730  0.00  0.00     0.008 A 
ATOM     17  C17 ZIN A   1      18.334   3.468   9.851  0.00  0.00     0.001 A 
ATOM     18  C18 ZIN A   1      19.462   2.824  10.326  0.00  0.00     0.001 A 
ATOM     19  C19 ZIN A   1      19.668   2.696  11.687  0.00  0.00     0.013 A 
ATOM     20  C20 ZIN A   1      18.742   3.221  12.570  0.00  0.00    -0.018 A 
ATOM     21  C21 ZIN A   1      18.750   0.688  13.998  0.00  0.00     0.065 C 
ATOM     22  C22 ZIN A   1      17.680  -0.113  14.751  0.00  0.00     0.276 C 
ENDROOT
TORSDOF 0
ENDMDL
MODEL 6
REMARK VINA RESULT:      -7.1      3.425      5.569
REMARK  0 active torsions:
REMARK  status: ('A' for Active; 'I' for Inactive)
ROOT
ATOM      1  C1  ZIN A   1      16.634  -6.431   9.270  0.00  0.00     0.309 C 
ATOM      2  N2  ZIN A   1      17.612  -5.404   9.654  0.00  0.00     0.084 N 
ATOM      3  C3  ZIN A   1      17.477  -5.053  11.073  0.00  0.00     0.276 C 
ATOM      4  C4  ZIN A   1      18.658  -4.170  11.494  0.00  0.00     0.065 C 
ATOM      5  C5  ZIN A   1      18.733  -2.994  10.544  0.00  0.00    -0.065 C 
ATOM      6  C6  ZIN A   1      18.841  -1.738  11.003  0.00  0.00    -0.011 C 
ATOM      7  C7  ZIN A   1      18.900  -1.436  12.469  0.00  0.00    -0.004 A 
ATOM      8  C8  ZIN A   1      18.061  -0.503  13.081  0.00  0.00     0.062 A 
ATOM      9  S9  ZIN A   1      18.439  -0.451  14.800  0.00  0.00    -0.098 SA
ATOM     10  C10 ZIN A   1      19.658  -1.628  14.630  0.00  0.00     0.051 A 
ATOM     11  C11 ZIN A   1      19.771  -2.033  13.367  0.00  0.00     0.021 A 
ATOM     12  C12 ZIN A   1      17.076   0.285  12.452  0.00  0.00     0.171 C 
ATOM     13  O13 ZIN A   1      16.523   1.157  13.092  0.00  0.00    -0.291 OA
ATOM     14  C14 ZIN A   1      16.687   0.081  11.015  0.00  0.00     0.123 C 
ATOM     15  C15 ZIN A   1      17.864   0.355  10.112  0.00  0.00    -0.040 A 
ATOM     16  C16 ZIN A   1      17.924   1.483   9.327  0.00  0.00     0.008 A 
ATOM     17  C17 ZIN A   1      19.013   1.685   8.496  0.00  0.00     0.001 A 
ATOM     18  C18 ZIN A   1      20.039   0.759   8.448  0.00  0.00     0.001 A 
ATOM     19  C19 ZIN A   1      19.993  -0.373   9.240  0.00  0.00     0.013 A 
ATOM     20  C20 ZIN A   1      18.916  -0.571  10.084  0.00  0.00    -0.018 A 
ATOM     21  C21 ZIN A   1      18.682  -3.282   9.059  0.00  0.00     0.065 C 
ATOM     22  C22 ZIN A   1      17.499  -4.221   8.792  0.00  0.00     0.276 C 
ENDROOT
TORSDOF 0
ENDMDL
MODEL 7
REMARK VINA RESULT:      -6.9      3.928      5.278
REMARK  0 active torsions:
REMARK  status: ('A' for Active; 'I' for Inactive)
ROOT
ATOM      1  C1  ZIN A   1      20.376   0.218  13.358  0.00  0.00     0.309 C 
ATOM      2  N2  ZIN A   1      19.354  -0.239  12.407  0.00  0.00     0.084 N 
ATOM      3  C3  ZIN A   1      19.324  -1.705  12.330  0.00  0.00     0.276 C 
ATOM      4  C4  ZIN A   1      18.097  -2.147  11.525  0.00  0.00     0.065 C 
ATOM      5  C5  ZIN A   1      18.123  -1.433  10.190  0.00  0.00    -0.065 C 
ATOM      6  C6  ZIN A   1      17.954  -2.105   9.041  0.00  0.00    -0.011 C 
ATOM      7  C7  ZIN A   1      17.726  -3.585   9.018  0.00  0.00    -0.004 A 
ATOM      8  C8  ZIN A   1      18.483  -4.453   8.229  0.00  0.00     0.062 A 
ATOM      9  S9  ZIN A   1      17.911  -6.097   8.495  0.00  0.00    -0.098 SA
ATOM     10  C10 ZIN A   1      16.727  -5.570   9.601  0.00  0.00     0.051 A 
ATOM     11  C11 ZIN A   1      16.762  -4.249   9.760  0.00  0.00     0.021 A 
ATOM     12  C12 ZIN A   1      19.528  -4.099   7.352  0.00  0.00     0.171 C 
ATOM     13  O13 ZIN A   1      19.998  -4.949   6.623  0.00  0.00    -0.291 OA
ATOM     14  C14 ZIN A   1      20.080  -2.702   7.288  0.00  0.00     0.123 C 
ATOM     15  C15 ZIN A   1      19.013  -1.740   6.832  0.00  0.00    -0.040 A 
ATOM     16  C16 ZIN A   1      19.035  -1.179   5.577  0.00  0.00     0.008 A 
ATOM     17  C17 ZIN A   1      18.047  -0.283   5.207  0.00  0.00     0.001 A 
ATOM     18  C18 ZIN A   1      17.039   0.055   6.091  0.00  0.00     0.001 A 
ATOM     19  C19 ZIN A   1      17.002  -0.510   7.352  0.00  0.00     0.013 A 
ATOM     20  C20 ZIN A   1      17.977  -1.418   7.721  0.00  0.00    -0.018 A 
ATOM     21  C21 ZIN A   1      18.345   0.064  10.195  0.00  0.00     0.065 C 
ATOM     22  C22 ZIN A   1      19.557   0.367  11.085  0.00  0.00     0.276 C 
ENDROOT
TORSDOF 0
ENDMDL
MODEL 8
REMARK VINA RESULT:      -6.8      2.760      5.012
REMARK  0 active torsions:
REMARK  status: ('A' for Active; 'I' for Inactive)
ROOT
ATOM      1  C1  ZIN A   1      16.295   6.476  13.706  0.00  0.00     0.309 C 
ATOM      2  N2  ZIN A   1      17.317   5.513  13.276  0.00  0.00     0.084 N 
ATOM      3  C3  ZIN A   1      17.141   5.155  11.862  0.00  0.00     0.276 C 
ATOM      4  C4  ZIN A   1      18.355   4.349  11.387  0.00  0.00     0.065 C 
ATOM      5  C5  ZIN A   1      18.546   3.178  12.328  0.00  0.00    -0.065 C 
ATOM      6  C6  ZIN A   1      18.712   1.932  11.860  0.00  0.00    -0.011 C 
ATOM      7  C7  ZIN A   1      18.724   1.636  10.392  0.00  0.00    -0.004 A 
ATOM      8  C8  ZIN A   1      17.919   0.652   9.814  0.00  0.00     0.062 A 
ATOM      9  S9  ZIN A   1      18.222   0.626   8.080  0.00  0.00    -0.098 SA
ATOM     10  C10 ZIN A   1      19.372   1.877   8.200  0.00  0.00     0.051 A 
ATOM     11  C11 ZIN A   1      19.516   2.287   9.459  0.00  0.00     0.021 A 
ATOM     12  C12 ZIN A   1      17.015  -0.197  10.483  0.00  0.00     0.171 C 
ATOM     13  O13 ZIN A   1      16.490  -1.101   9.866  0.00  0.00    -0.291 OA
ATOM     14  C14 ZIN A   1      16.678  -0.019  11.937  0.00  0.00     0.123 C 
ATOM     15  C15 ZIN A   1      17.909  -0.219  12.786  0.00  0.00    -0.040 A 
ATOM     16  C16 ZIN A   1      18.074  -1.342  13.563  0.00  0.00     0.008 A 
ATOM     17  C17 ZIN A   1      19.210  -1.475  14.344  0.00  0.00     0.001 A 
ATOM     18  C18 ZIN A   1      20.177  -0.487  14.351  0.00  0.00     0.001 A 
ATOM     19  C19 ZIN A   1      20.025   0.640  13.565  0.00  0.00     0.013 A 
ATOM     20  C20 ZIN A   1      18.901   0.771  12.771  0.00  0.00    -0.018 A 
ATOM     21  C21 ZIN A   1      18.543   3.461  13.815  0.00  0.00     0.065 C 
ATOM     22  C22 ZIN A   1      17.317   4.324  14.138  0.00  0.00     0.276 C 
ENDROOT
TORSDOF 0
ENDMDL
MODEL 9
REMARK VINA RESULT:      -6.6      6.361      8.952
REMARK  0 active torsions:
REMARK  status: ('A' for Active; 'I' for Inactive)
ROOT
ATOM      1  C1  ZIN A   1      14.632  -5.760   3.275  0.00  0.00     0.309 C 
ATOM      2  N2  ZIN A   1      15.952  -5.240   3.655  0.00  0.00     0.084 N 
ATOM      3  C3  ZIN A   1      16.428  -5.868   4.894  0.00  0.00     0.276 C 
ATOM      4  C4  ZIN A   1      17.896  -5.488   5.126  0.00  0.00     0.065 C 
ATOM      5  C5  ZIN A   1      18.007  -3.979   5.086  0.00  0.00    -0.065 C 
ATOM      6  C6  ZIN A   1      18.654  -3.306   6.048  0.00  0.00    -0.011 C 
ATOM      7  C7  ZIN A   1      19.303  -4.007   7.202  0.00  0.00    -0.004 A 
ATOM      8  C8  ZIN A   1      19.063  -3.654   8.531  0.00  0.00     0.062 A 
ATOM      9  S9  ZIN A   1      20.002  -4.718   9.573  0.00  0.00    -0.098 SA
ATOM     10  C10 ZIN A   1      20.653  -5.551   8.238  0.00  0.00     0.051 A 
ATOM     11  C11 ZIN A   1      20.194  -5.062   7.088  0.00  0.00     0.021 A 
ATOM     12  C12 ZIN A   1      18.224  -2.618   8.989  0.00  0.00     0.171 C 
ATOM     13  O13 ZIN A   1      18.227  -2.338  10.171  0.00  0.00    -0.291 OA
ATOM     14  C14 ZIN A   1      17.323  -1.850   8.063  0.00  0.00     0.123 C 
ATOM     15  C15 ZIN A   1      18.143  -1.097   7.045  0.00  0.00    -0.040 A 
ATOM     16  C16 ZIN A   1      18.282   0.270   7.099  0.00  0.00     0.008 A 
ATOM     17  C17 ZIN A   1      19.025   0.924   6.131  0.00  0.00     0.001 A 
ATOM     18  C18 ZIN A   1      19.626   0.212   5.108  0.00  0.00     0.001 A 
ATOM     19  C19 ZIN A   1      19.500  -1.163   5.051  0.00  0.00     0.013 A 
ATOM     20  C20 ZIN A   1      18.773  -1.823   6.024  0.00  0.00    -0.018 A 
ATOM     21  C21 ZIN A   1      17.363  -3.255   3.923  0.00  0.00     0.065 C 
ATOM     22  C22 ZIN A   1      15.929  -3.776   3.767  0.00  0.00     0.276 C 
ENDROOT
TORSDOF 0
ENDMDL
