MODEL 1
REMARK VINA RESULT:      -8.5      0.000      0.000
REMARK  11 active torsions:
REMARK  status: ('A' for Active; 'I' for Inactive)
REMARK    1  A    between atoms: C2_2  and  N4_4 
REMARK    2  A    between atoms: C11_11  and  C12_12 
REMARK    3  A    between atoms: C19_19  and  C20_20 
REMARK    4  A    between atoms: C20_20  and  C21_21 
REMARK    5  A    between atoms: C21_21  and  C22_22 
REMARK    6  A    between atoms: C22_22  and  O24_23 
REMARK    7  A    between atoms: C22_22  and  C25_24 
REMARK    8  A    between atoms: C25_24  and  C26_25 
REMARK    9  A    between atoms: C26_25  and  O28_26 
REMARK   10  A    between atoms: C26_25  and  C29_27 
REMARK   11  A    between atoms: C29_27  and  C30_28 
ROOT
ATOM      1  N4  ZIN A   1      18.832   1.368  12.870  0.00  0.00    -0.341 N 
ATOM      2  C5  ZIN A   1      18.854   0.832  14.140  0.00  0.00     0.046 A 
ATOM      3  C6  ZIN A   1      18.930   1.401  15.407  0.00  0.00     0.030 A 
ATOM      4  C7  ZIN A   1      18.933   0.593  16.524  0.00  0.00     0.002 A 
ATOM      5  C8  ZIN A   1      18.862  -0.787  16.397  0.00  0.00     0.001 A 
ATOM      6  C9  ZIN A   1      18.788  -1.368  15.162  0.00  0.00     0.014 A 
ATOM      7  C10 ZIN A   1      18.783  -0.567  14.019  0.00  0.00     0.004 A 
ATOM      8  C11 ZIN A   1      18.715  -0.856  12.579  0.00  0.00     0.013 A 
ATOM      9  C19 ZIN A   1      18.742   0.365  11.933  0.00  0.00     0.047 A 
ENDROOT
BRANCH   9  10
ATOM     10  C20 ZIN A   1      18.694   0.560  10.478  0.00  0.00     0.029 C 
BRANCH  10  11
ATOM     11  C21 ZIN A   1      17.544   0.405   9.825  0.00  0.00     0.007 C 
BRANCH  11  12
ATOM     12  C22 ZIN A   1      17.540  -0.194   8.441  0.00  0.00     0.143 C 
BRANCH  12  13
ATOM     13  O24 ZIN A   1      18.120  -1.500   8.486  0.00  0.00    -0.392 OA
ATOM     14  H50 ZIN A   1      18.462  -1.807   7.635  0.00  0.00     0.210 HD
ENDBRANCH  12  13
BRANCH  12  15
ATOM     15  C25 ZIN A   1      18.356   0.695   7.499  0.00  0.00     0.068 C 
BRANCH  15  16
ATOM     16  C26 ZIN A   1      17.993   0.369   6.049  0.00  0.00     0.130 C 
BRANCH  16  17
ATOM     17  O28 ZIN A   1      17.144  -0.780   6.017  0.00  0.00    -0.395 OA
ATOM     18  H53 ZIN A   1      17.489  -1.538   6.509  0.00  0.00     0.210 HD
ENDBRANCH  16  17
BRANCH  16  19
ATOM     19  C29 ZIN A   1      19.270   0.082   5.256  0.00  0.00     0.144 C 
BRANCH  19  20
ATOM     20  C30 ZIN A   1      19.477  -1.408   5.162  0.00  0.00     0.175 C 
ATOM     21  O31 ZIN A   1      19.420  -1.964   4.079  0.00  0.00    -0.648 OA
ATOM     22  O32 ZIN A   1      19.700  -2.058   6.170  0.00  0.00    -0.648 OA
ENDBRANCH  19  20
ENDBRANCH  16  19
ENDBRANCH  15  16
ENDBRANCH  12  15
ENDBRANCH  11  12
ENDBRANCH  10  11
ENDBRANCH   9  10
BRANCH   1  23
ATOM     23  C2  ZIN A   1      18.888   2.800  12.563  0.00  0.00     0.082 C 
ATOM     24  C1  ZIN A   1      20.012   3.062  11.559  0.00  0.00     0.032 C 
ATOM     25  C3  ZIN A   1      17.553   3.245  11.963  0.00  0.00     0.032 C 
ENDBRANCH   1  23
BRANCH   8  26
ATOM     26  C12 ZIN A   1      18.629  -2.191  11.947  0.00  0.00    -0.023 A 
ATOM     27  C18 ZIN A   1      17.383  -2.765  11.692  0.00  0.00     0.015 A 
ATOM     28  C17 ZIN A   1      17.309  -4.008  11.096  0.00  0.00     0.043 A 
ATOM     29  C15 ZIN A   1      18.467  -4.690  10.763  0.00  0.00     0.116 A 
ATOM     30  C14 ZIN A   1      19.707  -4.127  11.021  0.00  0.00     0.043 A 
ATOM     31  F16 ZIN A   1      18.389  -5.909  10.186  0.00  0.00    -0.206 F 
ATOM     32  C13 ZIN A   1      19.793  -2.882  11.610  0.00  0.00     0.015 A 
ENDBRANCH   8  26
TORSDOF 11
ENDMDL
MODEL 2
REMARK VINA RESULT:      -8.3      3.484      7.058
REMARK  11 active torsions:
REMARK  status: ('A' for Active; 'I' for Inactive)
REMARK    1  A    between atoms: C2_2  and  N4_4 
REMARK    2  A    between atoms: C11_11  and  C12_12 
REMARK    3  A    between atoms: C19_19  and  C20_20 
REMARK    4  A    between atoms: C20_20  and  C21_21 
REMARK    5  A    between atoms: C21_21  and  C22_22 
REMARK    6  A    between atoms: C22_22  and  O24_23 
REMARK    7  A    between atoms: C22_22  and  C25_24 
REMARK    8  A    between atoms: C25_24  and  C26_25 
REMARK    9  A    between atoms: C26_25  and  O28_26 
REMARK   10  A    between atoms: C26_25  and  C29_27 
REMARK   11  A    between atoms: C29_27  and  C30_28 
ROOT
ATOM      1  N4  ZIN A   1      18.857   1.690  10.121  0.00  0.00    -0.341 N 
ATOM      2  C5  ZIN A   1      18.907   1.242   8.819  0.00  0.00     0.046 A 
ATOM      3  C6  ZIN A   1      19.023   1.895   7.596  0.00  0.00     0.030 A 
ATOM      4  C7  ZIN A   1      19.045   1.165   6.427  0.00  0.00     0.002 A 
ATOM      5  C8  ZIN A   1      18.952  -0.219   6.456  0.00  0.00     0.001 A 
ATOM      6  C9  ZIN A   1      18.837  -0.882   7.646  0.00  0.00     0.014 A 
ATOM      7  C10 ZIN A   1      18.812  -0.161   8.841  0.00  0.00     0.004 A 
ATOM      8  C11 ZIN A   1      18.701  -0.547  10.255  0.00  0.00     0.013 A 
ATOM      9  C19 ZIN A   1      18.741   0.626  10.986  0.00  0.00     0.047 A 
ENDROOT
BRANCH   9  10
ATOM     10  C20 ZIN A   1      18.662   0.721  12.449  0.00  0.00     0.029 C 
BRANCH  10  11
ATOM     11  C21 ZIN A   1      19.710   0.379  13.195  0.00  0.00     0.007 C 
BRANCH  11  12
ATOM     12  C22 ZIN A   1      19.521  -0.522  14.389  0.00  0.00     0.143 C 
BRANCH  12  13
ATOM     13  O24 ZIN A   1      20.083  -1.807  14.110  0.00  0.00    -0.392 OA
ATOM     14  H50 ZIN A   1      19.501  -2.389  13.603  0.00  0.00     0.210 HD
ENDBRANCH  12  13
BRANCH  12  15
ATOM     15  C25 ZIN A   1      18.026  -0.673  14.682  0.00  0.00     0.068 C 
BRANCH  15  16
ATOM     16  C26 ZIN A   1      17.728  -0.153  16.090  0.00  0.00     0.130 C 
BRANCH  16  17
ATOM     17  O28 ZIN A   1      17.719   1.275  16.078  0.00  0.00    -0.395 OA
ATOM     18  H53 ZIN A   1      17.204   1.672  16.795  0.00  0.00     0.210 HD
ENDBRANCH  16  17
BRANCH  16  19
ATOM     19  C29 ZIN A   1      18.809  -0.648  17.054  0.00  0.00     0.144 C 
BRANCH  19  20
ATOM     20  C30 ZIN A   1      18.926   0.312  18.210  0.00  0.00     0.175 C 
ATOM     21  O31 ZIN A   1      18.023   0.400  19.025  0.00  0.00    -0.648 OA
ATOM     22  O32 ZIN A   1      19.925   1.002  18.331  0.00  0.00    -0.648 OA
ENDBRANCH  19  20
ENDBRANCH  16  19
ENDBRANCH  15  16
ENDBRANCH  12  15
ENDBRANCH  11  12
ENDBRANCH  10  11
ENDBRANCH   9  10
BRANCH   1  23
ATOM     23  C2  ZIN A   1      18.926   3.097  10.528  0.00  0.00     0.082 C 
ATOM     24  C1  ZIN A   1      17.609   3.501  11.192  0.00  0.00     0.032 C 
ATOM     25  C3  ZIN A   1      20.076   3.284  11.519  0.00  0.00     0.032 C 
ENDBRANCH   1  23
BRANCH   8  26
ATOM     26  C12 ZIN A   1      18.576  -1.919  10.792  0.00  0.00    -0.023 A 
ATOM     27  C18 ZIN A   1      19.684  -2.767  10.811  0.00  0.00     0.015 A 
ATOM     28  C17 ZIN A   1      19.564  -4.045  11.318  0.00  0.00     0.043 A 
ATOM     29  C15 ZIN A   1      18.343  -4.490  11.796  0.00  0.00     0.116 A 
ATOM     30  C14 ZIN A   1      17.238  -3.656  11.774  0.00  0.00     0.043 A 
ATOM     31  F16 ZIN A   1      18.229  -5.744  12.286  0.00  0.00    -0.206 F 
ATOM     32  C13 ZIN A   1      17.348  -2.374  11.275  0.00  0.00     0.015 A 
ENDBRANCH   8  26
TORSDOF 11
ENDMDL
MODEL 3
REMARK VINA RESULT:      -8.1      2.783      5.319
REMARK  11 active torsions:
REMARK  status: ('A' for Active; 'I' for Inactive)
REMARK    1  A    between atoms: C2_2  and  N4_4 
REMARK    2  A    between atoms: C11_11  and  C12_12 
REMARK    3  A    between atoms: C19_19  and  C20_20 
REMARK    4  A    between atoms: C20_20  and  C21_21 
REMARK    5  A    between atoms: C21_21  and  C22_22 
REMARK    6  A    between atoms: C22_22  and  O24_23 
REMARK    7  A    between atoms: C22_22  and  C25_24 
REMARK    8  A    between atoms: C25_24  and  C26_25 
REMARK    9  A    between atoms: C26_25  and  O28_26 
REMARK   10  A    between atoms: C26_25  and  C29_27 
REMARK   11  A    between atoms: C29_27  and  C30_28 
ROOT
ATOM      1  N4  ZIN A   1      18.567   0.444  11.854  0.00  0.00    -0.341 N 
ATOM      2  C5  ZIN A   1      18.340   1.798  11.733  0.00  0.00     0.046 A 
ATOM      3  C6  ZIN A   1      18.235   2.828  12.663  0.00  0.00     0.030 A 
ATOM      4  C7  ZIN A   1      17.997   4.117  12.236  0.00  0.00     0.002 A 
ATOM      5  C8  ZIN A   1      17.860   4.400  10.884  0.00  0.00     0.001 A 
ATOM      6  C9  ZIN A   1      17.959   3.404   9.954  0.00  0.00     0.014 A 
ATOM      7  C10 ZIN A   1      18.199   2.092  10.365  0.00  0.00     0.004 A 
ATOM      8  C11 ZIN A   1      18.357   0.818   9.648  0.00  0.00     0.013 A 
ATOM      9  C19 ZIN A   1      18.585  -0.147  10.612  0.00  0.00     0.047 A 
ENDROOT
BRANCH   9  10
ATOM     10  C20 ZIN A   1      18.802  -1.576  10.350  0.00  0.00     0.029 C 
BRANCH  10  11
ATOM     11  C21 ZIN A   1      17.767  -2.413  10.336  0.00  0.00     0.007 C 
BRANCH  11  12
ATOM     12  C22 ZIN A   1      17.574  -3.390  11.468  0.00  0.00     0.143 C 
BRANCH  12  13
ATOM     13  O24 ZIN A   1      18.851  -3.815  11.952  0.00  0.00    -0.392 OA
ATOM     14  H50 ZIN A   1      18.803  -4.457  12.674  0.00  0.00     0.210 HD
ENDBRANCH  12  13
BRANCH  12  15
ATOM     15  C25 ZIN A   1      16.790  -4.605  10.965  0.00  0.00     0.068 C 
BRANCH  15  16
ATOM     16  C26 ZIN A   1      17.141  -4.867   9.499  0.00  0.00     0.130 C 
BRANCH  16  17
ATOM     17  O28 ZIN A   1      15.940  -5.023   8.742  0.00  0.00    -0.395 OA
ATOM     18  H53 ZIN A   1      15.491  -4.191   8.538  0.00  0.00     0.210 HD
ENDBRANCH  16  17
BRANCH  16  19
ATOM     19  C29 ZIN A   1      17.979  -6.143   9.396  0.00  0.00     0.144 C 
BRANCH  19  20
ATOM     20  C30 ZIN A   1      19.373  -5.793   8.945  0.00  0.00     0.175 C 
ATOM     21  O31 ZIN A   1      19.775  -6.170   7.857  0.00  0.00    -0.648 OA
ATOM     22  O32 ZIN A   1      20.101  -5.134   9.668  0.00  0.00    -0.648 OA
ENDBRANCH  19  20
ENDBRANCH  16  19
ENDBRANCH  15  16
ENDBRANCH  12  15
ENDBRANCH  11  12
ENDBRANCH  10  11
ENDBRANCH   9  10
BRANCH   1  23
ATOM     23  C2  ZIN A   1      18.769  -0.263  13.121  0.00  0.00     0.082 C 
ATOM     24  C1  ZIN A   1      20.047   0.245  13.791  0.00  0.00     0.032 C 
ATOM     25  C3  ZIN A   1      17.575  -0.008  14.043  0.00  0.00     0.032 C 
ENDBRANCH   1  23
BRANCH   8  26
ATOM     26  C12 ZIN A   1      18.290   0.610   8.186  0.00  0.00    -0.023 A 
ATOM     27  C18 ZIN A   1      19.301   1.103   7.361  0.00  0.00     0.015 A 
ATOM     28  C17 ZIN A   1      19.237   0.902   5.998  0.00  0.00     0.043 A 
ATOM     29  C15 ZIN A   1      18.164   0.221   5.446  0.00  0.00     0.116 A 
ATOM     30  C14 ZIN A   1      17.153  -0.265   6.259  0.00  0.00     0.043 A 
ATOM     31  F16 ZIN A   1      18.102   0.031   4.110  0.00  0.00    -0.206 F 
ATOM     32  C13 ZIN A   1      17.211  -0.075   7.625  0.00  0.00     0.015 A 
ENDBRANCH   8  26
TORSDOF 11
ENDMDL
MODEL 4
REMARK VINA RESULT:      -8.1      2.391      5.211
REMARK  11 active torsions:
REMARK  status: ('A' for Active; 'I' for Inactive)
REMARK    1  A    between atoms: C2_2  and  N4_4 
REMARK    2  A    between atoms: C11_11  and  C12_12 
REMARK    3  A    between atoms: C19_19  and  C20_20 
REMARK    4  A    between atoms: C20_20  and  C21_21 
REMARK    5  A    between atoms: C21_21  and  C22_22 
REMARK    6  A    between atoms: C22_22  and  O24_23 
REMARK    7  A    between atoms: C22_22  and  C25_24 
REMARK    8  A    between atoms: C25_24  and  C26_25 
REMARK    9  A    between atoms: C26_25  and  O28_26 
REMARK   10  A    between atoms: C26_25  and  C29_27 
REMARK   11  A    between atoms: C29_27  and  C30_28 
ROOT
ATOM      1  N4  ZIN A   1      18.601   2.094  13.411  0.00  0.00    -0.341 N 
ATOM      2  C5  ZIN A   1      17.920   3.239  13.056  0.00  0.00     0.046 A 
ATOM      3  C6  ZIN A   1      17.456   4.330  13.784  0.00  0.00     0.030 A 
ATOM      4  C7  ZIN A   1      16.791   5.352  13.141  0.00  0.00     0.002 A 
ATOM      5  C8  ZIN A   1      16.579   5.305  11.771  0.00  0.00     0.001 A 
ATOM      6  C9  ZIN A   1      17.026   4.244  11.035  0.00  0.00     0.014 A 
ATOM      7  C10 ZIN A   1      17.701   3.199  11.667  0.00  0.00     0.004 A 
ATOM      8  C11 ZIN A   1      18.298   1.942  11.190  0.00  0.00     0.013 A 
ATOM      9  C19 ZIN A   1      18.835   1.318  12.299  0.00  0.00     0.047 A 
ENDROOT
BRANCH   9  10
ATOM     10  C20 ZIN A   1      19.536   0.027  12.294  0.00  0.00     0.029 C 
BRANCH  10  11
ATOM     11  C21 ZIN A   1      18.846  -1.104  12.426  0.00  0.00     0.007 C 
BRANCH  11  12
ATOM     12  C22 ZIN A   1      19.301  -2.350  11.708  0.00  0.00     0.143 C 
BRANCH  12  13
ATOM     13  O24 ZIN A   1      19.828  -1.996  10.427  0.00  0.00    -0.392 OA
ATOM     14  H50 ZIN A   1      19.269  -1.386   9.927  0.00  0.00     0.210 HD
ENDBRANCH  12  13
BRANCH  12  15
ATOM     15  C25 ZIN A   1      18.112  -3.296  11.526  0.00  0.00     0.068 C 
BRANCH  15  16
ATOM     16  C26 ZIN A   1      18.615  -4.739  11.452  0.00  0.00     0.130 C 
BRANCH  16  17
ATOM     17  O28 ZIN A   1      20.043  -4.744  11.420  0.00  0.00    -0.395 OA
ATOM     18  H53 ZIN A   1      20.424  -5.473  10.912  0.00  0.00     0.210 HD
ENDBRANCH  16  17
BRANCH  16  19
ATOM     19  C29 ZIN A   1      18.074  -5.403  10.185  0.00  0.00     0.144 C 
BRANCH  19  20
ATOM     20  C30 ZIN A   1      19.153  -5.429   9.133  0.00  0.00     0.175 C 
ATOM     21  O31 ZIN A   1      19.467  -4.403   8.556  0.00  0.00    -0.648 OA
ATOM     22  O32 ZIN A   1      19.711  -6.478   8.858  0.00  0.00    -0.648 OA
ENDBRANCH  19  20
ENDBRANCH  16  19
ENDBRANCH  15  16
ENDBRANCH  12  15
ENDBRANCH  11  12
ENDBRANCH  10  11
ENDBRANCH   9  10
BRANCH   1  23
ATOM     23  C2  ZIN A   1      19.020   1.757  14.773  0.00  0.00     0.082 C 
ATOM     24  C1  ZIN A   1      19.304   3.042  15.553  0.00  0.00     0.032 C 
ATOM     25  C3  ZIN A   1      17.907   0.973  15.470  0.00  0.00     0.032 C 
ENDBRANCH   1  23
BRANCH   8  26
ATOM     26  C12 ZIN A   1      18.323   1.447   9.797  0.00  0.00    -0.023 A 
ATOM     27  C18 ZIN A   1      19.221   1.988   8.876  0.00  0.00     0.015 A 
ATOM     28  C17 ZIN A   1      19.243   1.519   7.579  0.00  0.00     0.043 A 
ATOM     29  C15 ZIN A   1      18.369   0.519   7.187  0.00  0.00     0.116 A 
ATOM     30  C14 ZIN A   1      17.471  -0.018   8.094  0.00  0.00     0.043 A 
ATOM     31  F16 ZIN A   1      18.391   0.066   5.914  0.00  0.00    -0.206 F 
ATOM     32  C13 ZIN A   1      17.443   0.440   9.395  0.00  0.00     0.015 A 
ENDBRANCH   8  26
TORSDOF 11
ENDMDL
MODEL 5
REMARK VINA RESULT:      -8.0      4.128      8.340
REMARK  11 active torsions:
REMARK  status: ('A' for Active; 'I' for Inactive)
REMARK    1  A    between atoms: C2_2  and  N4_4 
REMARK    2  A    between atoms: C11_11  and  C12_12 
REMARK    3  A    between atoms: C19_19  and  C20_20 
REMARK    4  A    between atoms: C20_20  and  C21_21 
REMARK    5  A    between atoms: C21_21  and  C22_22 
REMARK    6  A    between atoms: C22_22  and  O24_23 
REMARK    7  A    between atoms: C22_22  and  C25_24 
REMARK    8  A    between atoms: C25_24  and  C26_25 
REMARK    9  A    between atoms: C26_25  and  O28_26 
REMARK   10  A    between atoms: C26_25  and  C29_27 
REMARK   11  A    between atoms: C29_27  and  C30_28 
ROOT
ATOM      1  N4  ZIN A   1      19.107  -1.883  10.102  0.00  0.00    -0.341 N 
ATOM      2  C5  ZIN A   1      19.057  -1.354   8.831  0.00  0.00     0.046 A 
ATOM      3  C6  ZIN A   1      19.095  -1.928   7.564  0.00  0.00     0.030 A 
ATOM      4  C7  ZIN A   1      19.026  -1.126   6.444  0.00  0.00     0.002 A 
ATOM      5  C8  ZIN A   1      18.919   0.252   6.567  0.00  0.00     0.001 A 
ATOM      6  C9  ZIN A   1      18.881   0.837   7.802  0.00  0.00     0.014 A 
ATOM      7  C10 ZIN A   1      18.950   0.044   8.947  0.00  0.00     0.004 A 
ATOM      8  C11 ZIN A   1      18.936   0.339  10.388  0.00  0.00     0.013 A 
ATOM      9  C19 ZIN A   1      19.028  -0.877  11.038  0.00  0.00     0.047 A 
ENDROOT
BRANCH   9  10
ATOM     10  C20 ZIN A   1      19.048  -1.064  12.494  0.00  0.00     0.029 C 
BRANCH  10  11
ATOM     11  C21 ZIN A   1      17.930  -0.911  13.200  0.00  0.00     0.007 C 
BRANCH  11  12
ATOM     12  C22 ZIN A   1      17.966  -0.176  14.516  0.00  0.00     0.143 C 
BRANCH  12  13
ATOM     13  O24 ZIN A   1      18.962   0.849  14.462  0.00  0.00    -0.392 OA
ATOM     14  H50 ZIN A   1      18.647   1.718  14.746  0.00  0.00     0.210 HD
ENDBRANCH  12  13
BRANCH  12  15
ATOM     15  C25 ZIN A   1      18.306  -1.158  15.640  0.00  0.00     0.068 C 
BRANCH  15  16
ATOM     16  C26 ZIN A   1      17.740  -0.636  16.962  0.00  0.00     0.130 C 
BRANCH  16  17
ATOM     17  O28 ZIN A   1      16.915   0.503  16.710  0.00  0.00    -0.395 OA
ATOM     18  H53 ZIN A   1      17.148   1.282  17.234  0.00  0.00     0.210 HD
ENDBRANCH  16  17
BRANCH  16  19
ATOM     19  C29 ZIN A   1      18.892  -0.236  17.886  0.00  0.00     0.144 C 
BRANCH  19  20
ATOM     20  C30 ZIN A   1      18.977   1.266  17.961  0.00  0.00     0.175 C 
ATOM     21  O31 ZIN A   1      18.383   1.868  18.839  0.00  0.00    -0.648 OA
ATOM     22  O32 ZIN A   1      19.639   1.882  17.142  0.00  0.00    -0.648 OA
ENDBRANCH  19  20
ENDBRANCH  16  19
ENDBRANCH  15  16
ENDBRANCH  12  15
ENDBRANCH  11  12
ENDBRANCH  10  11
ENDBRANCH   9  10
BRANCH   1  23
ATOM     23  C2  ZIN A   1      19.219  -3.310  10.413  0.00  0.00     0.082 C 
ATOM     24  C1  ZIN A   1      20.272  -3.513  11.505  0.00  0.00     0.032 C 
ATOM     25  C3  ZIN A   1      17.868  -3.832  10.905  0.00  0.00     0.032 C 
ENDBRANCH   1  23
BRANCH   8  26
ATOM     26  C12 ZIN A   1      18.837   1.674  11.017  0.00  0.00    -0.023 A 
ATOM     27  C18 ZIN A   1      19.992   2.349  11.413  0.00  0.00     0.015 A 
ATOM     28  C17 ZIN A   1      19.894   3.596  11.995  0.00  0.00     0.043 A 
ATOM     29  C15 ZIN A   1      18.652   4.174  12.197  0.00  0.00     0.116 A 
ATOM     30  C14 ZIN A   1      17.501   3.505  11.812  0.00  0.00     0.043 A 
ATOM     31  F16 ZIN A   1      18.561   5.393  12.772  0.00  0.00    -0.206 F 
ATOM     32  C13 ZIN A   1      17.587   2.260  11.223  0.00  0.00     0.015 A 
ENDBRANCH   8  26
TORSDOF 11
ENDMDL
MODEL 6
REMARK VINA RESULT:      -8.0      3.246      6.211
REMARK  11 active torsions:
REMARK  status: ('A' for Active; 'I' for Inactive)
REMARK    1  A    between atoms: C2_2  and  N4_4 
REMARK    2  A    between atoms: C11_11  and  C12_12 
REMARK    3  A    between atoms: C19_19  and  C20_20 
REMARK    4  A    between atoms: C20_20  and  C21_21 
REMARK    5  A    between atoms: C21_21  and  C22_22 
REMARK    6  A    between atoms: C22_22  and  O24_23 
REMARK    7  A    between atoms: C22_22  and  C25_24 
REMARK    8  A    between atoms: C25_24  and  C26_25 
REMARK    9  A    between atoms: C26_25  and  O28_26 
REMARK   10  A    between atoms: C26_25  and  C29_27 
REMARK   11  A    between atoms: C29_27  and  C30_28 
ROOT
ATOM      1  N4  ZIN A   1      18.860  -2.475   8.666  0.00  0.00    -0.341 N 
ATOM      2  C5  ZIN A   1      18.032  -3.506   9.054  0.00  0.00     0.046 A 
ATOM      3  C6  ZIN A   1      17.482  -4.588   8.373  0.00  0.00     0.030 A 
ATOM      4  C7  ZIN A   1      16.669  -5.478   9.041  0.00  0.00     0.002 A 
ATOM      5  C8  ZIN A   1      16.391  -5.307  10.390  0.00  0.00     0.001 A 
ATOM      6  C9  ZIN A   1      16.921  -4.252  11.079  0.00  0.00     0.014 A 
ATOM      7  C10 ZIN A   1      17.746  -3.339  10.421  0.00  0.00     0.004 A 
ATOM      8  C11 ZIN A   1      18.461  -2.127  10.849  0.00  0.00     0.013 A 
ATOM      9  C19 ZIN A   1      19.126  -1.651   9.735  0.00  0.00     0.047 A 
ENDROOT
BRANCH   9  10
ATOM     10  C20 ZIN A   1      19.972  -0.451   9.697  0.00  0.00     0.029 C 
BRANCH  10  11
ATOM     11  C21 ZIN A   1      19.650   0.564   8.897  0.00  0.00     0.007 C 
BRANCH  11  12
ATOM     12  C22 ZIN A   1      18.825   1.708   9.429  0.00  0.00     0.143 C 
BRANCH  12  13
ATOM     13  O24 ZIN A   1      18.830   2.779   8.482  0.00  0.00    -0.392 OA
ATOM     14  H50 ZIN A   1      17.959   3.167   8.324  0.00  0.00     0.210 HD
ENDBRANCH  12  13
BRANCH  12  15
ATOM     15  C25 ZIN A   1      19.420   2.194  10.752  0.00  0.00     0.068 C 
BRANCH  15  16
ATOM     16  C26 ZIN A   1      18.302   2.730  11.648  0.00  0.00     0.130 C 
BRANCH  16  17
ATOM     17  O28 ZIN A   1      17.035   2.357  11.103  0.00  0.00    -0.395 OA
ATOM     18  H53 ZIN A   1      16.775   1.446  11.297  0.00  0.00     0.210 HD
ENDBRANCH  16  17
BRANCH  16  19
ATOM     19  C29 ZIN A   1      18.396   4.256  11.721  0.00  0.00     0.144 C 
BRANCH  19  20
ATOM     20  C30 ZIN A   1      17.291   4.867  10.897  0.00  0.00     0.175 C 
ATOM     21  O31 ZIN A   1      17.519   5.255   9.764  0.00  0.00    -0.648 OA
ATOM     22  O32 ZIN A   1      16.170   4.974  11.365  0.00  0.00    -0.648 OA
ENDBRANCH  19  20
ENDBRANCH  16  19
ENDBRANCH  15  16
ENDBRANCH  12  15
ENDBRANCH  11  12
ENDBRANCH  10  11
ENDBRANCH   9  10
BRANCH   1  23
ATOM     23  C2  ZIN A   1      19.388  -2.288   7.312  0.00  0.00     0.082 C 
ATOM     24  C1  ZIN A   1      19.988  -3.604   6.812  0.00  0.00     0.032 C 
ATOM     25  C3  ZIN A   1      18.256  -1.858   6.378  0.00  0.00     0.032 C 
ENDBRANCH   1  23
BRANCH   8  26
ATOM     26  C12 ZIN A   1      18.470  -1.537  12.205  0.00  0.00    -0.023 A 
ATOM     27  C18 ZIN A   1      17.457  -0.660  12.594  0.00  0.00     0.015 A 
ATOM     28  C17 ZIN A   1      17.468  -0.116  13.862  0.00  0.00     0.043 A 
ATOM     29  C15 ZIN A   1      18.489  -0.430  14.744  0.00  0.00     0.116 A 
ATOM     30  C14 ZIN A   1      19.501  -1.295  14.361  0.00  0.00     0.043 A 
ATOM     31  F16 ZIN A   1      18.498   0.109  15.983  0.00  0.00    -0.206 F 
ATOM     32  C13 ZIN A   1      19.497  -1.849  13.097  0.00  0.00     0.015 A 
ENDBRANCH   8  26
TORSDOF 11
ENDMDL
MODEL 7
REMARK VINA RESULT:      -7.9      2.680      5.348
REMARK  11 active torsions:
REMARK  status: ('A' for Active; 'I' for Inactive)
REMARK    1  A    between atoms: C2_2  and  N4_4 
REMARK    2  A    between atoms: C11_11  and  C12_12 
REMARK    3  A    between atoms: C19_19  and  C20_20 
REMARK    4  A    between atoms: C20_20  and  C21_21 
REMARK    5  A    between atoms: C21_21  and  C22_22 
REMARK    6  A    between atoms: C22_22  and  O24_23 
REMARK    7  A    between atoms: C22_22  and  C25_24 
REMARK    8  A    between atoms: C25_24  and  C26_25 
REMARK    9  A    between atoms: C26_25  and  O28_26 
REMARK   10  A    between atoms: C26_25  and  C29_27 
REMARK   11  A    between atoms: C29_27  and  C30_28 
ROOT
ATOM      1  N4  ZIN A   1      18.402   0.614  12.075  0.00  0.00    -0.341 N 
ATOM      2  C5  ZIN A   1      18.130   1.958  11.939  0.00  0.00     0.046 A 
ATOM      3  C6  ZIN A   1      17.960   2.989  12.859  0.00  0.00     0.030 A 
ATOM      4  C7  ZIN A   1      17.690   4.266  12.417  0.00  0.00     0.002 A 
ATOM      5  C8  ZIN A   1      17.584   4.537  11.060  0.00  0.00     0.001 A 
ATOM      6  C9  ZIN A   1      17.747   3.541  10.139  0.00  0.00     0.014 A 
ATOM      7  C10 ZIN A   1      18.021   2.241  10.565  0.00  0.00     0.004 A 
ATOM      8  C11 ZIN A   1      18.246   0.970   9.862  0.00  0.00     0.013 A 
ATOM      9  C19 ZIN A   1      18.479   0.018  10.837  0.00  0.00     0.047 A 
ENDROOT
BRANCH   9  10
ATOM     10  C20 ZIN A   1      18.755  -1.403  10.591  0.00  0.00     0.029 C 
BRANCH  10  11
ATOM     11  C21 ZIN A   1      17.750  -2.275  10.533  0.00  0.00     0.007 C 
BRANCH  11  12
ATOM     12  C22 ZIN A   1      17.919  -3.569   9.779  0.00  0.00     0.143 C 
BRANCH  12  13
ATOM     13  O24 ZIN A   1      17.480  -3.395   8.430  0.00  0.00    -0.392 OA
ATOM     14  H50 ZIN A   1      18.197  -3.239   7.800  0.00  0.00     0.210 HD
ENDBRANCH  12  13
BRANCH  12  15
ATOM     15  C25 ZIN A   1      17.085  -4.663  10.449  0.00  0.00     0.068 C 
BRANCH  15  16
ATOM     16  C26 ZIN A   1      17.659  -6.035  10.088  0.00  0.00     0.130 C 
BRANCH  16  17
ATOM     17  O28 ZIN A   1      18.957  -5.872   9.515  0.00  0.00    -0.395 OA
ATOM     18  H53 ZIN A   1      19.684  -6.026  10.135  0.00  0.00     0.210 HD
ENDBRANCH  16  17
BRANCH  16  19
ATOM     19  C29 ZIN A   1      16.738  -6.722   9.078  0.00  0.00     0.144 C 
BRANCH  19  20
ATOM     20  C30 ZIN A   1      17.445  -6.836   7.752  0.00  0.00     0.175 C 
ATOM     21  O31 ZIN A   1      18.052  -7.855   7.470  0.00  0.00    -0.648 OA
ATOM     22  O32 ZIN A   1      17.412  -5.908   6.961  0.00  0.00    -0.648 OA
ENDBRANCH  19  20
ENDBRANCH  16  19
ENDBRANCH  15  16
ENDBRANCH  12  15
ENDBRANCH  11  12
ENDBRANCH  10  11
ENDBRANCH   9  10
BRANCH   1  23
ATOM     23  C2  ZIN A   1      18.589  -0.079  13.352  0.00  0.00     0.082 C 
ATOM     24  C1  ZIN A   1      19.920   0.348  13.973  0.00  0.00     0.032 C 
ATOM     25  C3  ZIN A   1      17.444   0.282  14.300  0.00  0.00     0.032 C 
ENDBRANCH   1  23
BRANCH   8  26
ATOM     26  C12 ZIN A   1      18.232   0.752   8.399  0.00  0.00    -0.023 A 
ATOM     27  C18 ZIN A   1      17.209   0.007   7.811  0.00  0.00     0.015 A 
ATOM     28  C17 ZIN A   1      17.198  -0.188   6.446  0.00  0.00     0.043 A 
ATOM     29  C15 ZIN A   1      18.206   0.344   5.659  0.00  0.00     0.116 A 
ATOM     30  C14 ZIN A   1      19.228   1.079   6.238  0.00  0.00     0.043 A 
ATOM     31  F16 ZIN A   1      18.194   0.146   4.323  0.00  0.00    -0.206 F 
ATOM     32  C13 ZIN A   1      19.246   1.286   7.602  0.00  0.00     0.015 A 
ENDBRANCH   8  26
TORSDOF 11
ENDMDL
MODEL 8
REMARK VINA RESULT:      -7.9      2.437      4.866
REMARK  11 active torsions:
REMARK  status: ('A' for Active; 'I' for Inactive)
REMARK    1  A    between atoms: C2_2  and  N4_4 
REMARK    2  A    between atoms: C11_11  and  C12_12 
REMARK    3  A    between atoms: C19_19  and  C20_20 
REMARK    4  A    between atoms: C20_20  and  C21_21 
REMARK    5  A    between atoms: C21_21  and  C22_22 
REMARK    6  A    between atoms: C22_22  and  O24_23 
REMARK    7  A    between atoms: C22_22  and  C25_24 
REMARK    8  A    between atoms: C25_24  and  C26_25 
REMARK    9  A    between atoms: C26_25  and  O28_26 
REMARK   10  A    between atoms: C26_25  and  C29_27 
REMARK   11  A    between atoms: C29_27  and  C30_28 
ROOT
ATOM      1  N4  ZIN A   1      18.509  -0.090  15.569  0.00  0.00    -0.341 N 
ATOM      2  C5  ZIN A   1      18.719   1.136  16.164  0.00  0.00     0.046 A 
ATOM      3  C6  ZIN A   1      18.845   1.536  17.491  0.00  0.00     0.030 A 
ATOM      4  C7  ZIN A   1      19.055   2.865  17.790  0.00  0.00     0.002 A 
ATOM      5  C8  ZIN A   1      19.142   3.812  16.779  0.00  0.00     0.001 A 
ATOM      6  C9  ZIN A   1      19.022   3.441  15.469  0.00  0.00     0.014 A 
ATOM      7  C10 ZIN A   1      18.809   2.101  15.145  0.00  0.00     0.004 A 
ATOM      8  C11 ZIN A   1      18.639   1.380  13.875  0.00  0.00     0.013 A 
ATOM      9  C19 ZIN A   1      18.466   0.048  14.201  0.00  0.00     0.047 A 
ENDROOT
BRANCH   9  10
ATOM     10  C20 ZIN A   1      18.260  -1.044  13.240  0.00  0.00     0.029 C 
BRANCH  10  11
ATOM     11  C21 ZIN A   1      19.273  -1.846  12.918  0.00  0.00     0.007 C 
BRANCH  11  12
ATOM     12  C22 ZIN A   1      19.450  -2.298  11.491  0.00  0.00     0.143 C 
BRANCH  12  13
ATOM     13  O24 ZIN A   1      20.724  -2.932  11.347  0.00  0.00    -0.392 OA
ATOM     14  H50 ZIN A   1      21.318  -2.794  12.097  0.00  0.00     0.210 HD
ENDBRANCH  12  13
BRANCH  12  15
ATOM     15  C25 ZIN A   1      19.376  -1.086  10.559  0.00  0.00     0.068 C 
BRANCH  15  16
ATOM     16  C26 ZIN A   1      18.662  -1.481   9.265  0.00  0.00     0.130 C 
BRANCH  16  17
ATOM     17  O28 ZIN A   1      19.631  -1.762   8.254  0.00  0.00    -0.395 OA
ATOM     18  H53 ZIN A   1      19.920  -0.984   7.757  0.00  0.00     0.210 HD
ENDBRANCH  16  17
BRANCH  16  19
ATOM     19  C29 ZIN A   1      17.765  -0.330   8.807  0.00  0.00     0.144 C 
BRANCH  19  20
ATOM     20  C30 ZIN A   1      18.124   0.054   7.394  0.00  0.00     0.175 C 
ATOM     21  O31 ZIN A   1      17.527  -0.445   6.456  0.00  0.00    -0.648 OA
ATOM     22  O32 ZIN A   1      19.013   0.863   7.189  0.00  0.00    -0.648 OA
ENDBRANCH  19  20
ENDBRANCH  16  19
ENDBRANCH  15  16
ENDBRANCH  12  15
ENDBRANCH  11  12
ENDBRANCH  10  11
ENDBRANCH   9  10
BRANCH   1  23
ATOM     23  C2  ZIN A   1      18.360  -1.357  16.289  0.00  0.00     0.082 C 
ATOM     24  C1  ZIN A   1      19.504  -1.511  17.293  0.00  0.00     0.032 C 
ATOM     25  C3  ZIN A   1      17.024  -1.367  17.033  0.00  0.00     0.032 C 
ENDBRANCH   1  23
BRANCH   8  26
ATOM     26  C12 ZIN A   1      18.655   1.964  12.516  0.00  0.00    -0.023 A 
ATOM     27  C18 ZIN A   1      19.865   2.148  11.846  0.00  0.00     0.015 A 
ATOM     28  C17 ZIN A   1      19.873   2.688  10.577  0.00  0.00     0.043 A 
ATOM     29  C15 ZIN A   1      18.684   3.058   9.971  0.00  0.00     0.116 A 
ATOM     30  C14 ZIN A   1      17.480   2.885  10.634  0.00  0.00     0.043 A 
ATOM     31  F16 ZIN A   1      18.697   3.592   8.730  0.00  0.00    -0.206 F 
ATOM     32  C13 ZIN A   1      17.459   2.340  11.902  0.00  0.00     0.015 A 
ENDBRANCH   8  26
TORSDOF 11
ENDMDL
MODEL 9
REMARK VINA RESULT:      -7.8      3.685      6.737
REMARK  11 active torsions:
REMARK  status: ('A' for Active; 'I' for Inactive)
REMARK    1  A    between atoms: C2_2  and  N4_4 
REMARK    2  A    between atoms: C11_11  and  C12_12 
REMARK    3  A    between atoms: C19_19  and  C20_20 
REMARK    4  A    between atoms: C20_20  and  C21_21 
REMARK    5  A    between atoms: C21_21  and  C22_22 
REMARK    6  A    between atoms: C22_22  and  O24_23 
REMARK    7  A    between atoms: C22_22  and  C25_24 
REMARK    8  A    between atoms: C25_24  and  C26_25 
REMARK    9  A    between atoms: C26_25  and  O28_26 
REMARK   10  A    between atoms: C26_25  and  C29_27 
REMARK   11  A    between atoms: C29_27  and  C30_28 
ROOT
ATOM      1  N4  ZIN A   1      18.747  -1.895   9.157  0.00  0.00    -0.341 N 
ATOM      2  C5  ZIN A   1      18.010  -3.009   9.496  0.00  0.00     0.046 A 
ATOM      3  C6  ZIN A   1      17.492  -4.065   8.751  0.00  0.00     0.030 A 
ATOM      4  C7  ZIN A   1      16.777  -5.062   9.379  0.00  0.00     0.002 A 
ATOM      5  C8  ZIN A   1      16.565  -5.024  10.749  0.00  0.00     0.001 A 
ATOM      6  C9  ZIN A   1      17.064  -3.998  11.501  0.00  0.00     0.014 A 
ATOM      7  C10 ZIN A   1      17.791  -2.978  10.885  0.00  0.00     0.004 A 
ATOM      8  C11 ZIN A   1      18.449  -1.760  11.380  0.00  0.00     0.013 A 
ATOM      9  C19 ZIN A   1      19.019  -1.147  10.280  0.00  0.00     0.047 A 
ENDROOT
BRANCH   9  10
ATOM     10  C20 ZIN A   1      19.783   0.106  10.304  0.00  0.00     0.029 C 
BRANCH  10  11
ATOM     11  C21 ZIN A   1      19.144   1.275  10.291  0.00  0.00     0.007 C 
BRANCH  11  12
ATOM     12  C22 ZIN A   1      19.552   2.366  11.248  0.00  0.00     0.143 C 
BRANCH  12  13
ATOM     13  O24 ZIN A   1      20.103   1.781  12.430  0.00  0.00    -0.392 OA
ATOM     14  H50 ZIN A   1      20.556   0.940  12.277  0.00  0.00     0.210 HD
ENDBRANCH  12  13
BRANCH  12  15
ATOM     15  C25 ZIN A   1      18.326   3.204  11.618  0.00  0.00     0.068 C 
BRANCH  15  16
ATOM     16  C26 ZIN A   1      18.780   4.511  12.271  0.00  0.00     0.130 C 
BRANCH  16  17
ATOM     17  O28 ZIN A   1      20.195   4.482  12.461  0.00  0.00    -0.395 OA
ATOM     18  H53 ZIN A   1      20.575   3.592  12.464  0.00  0.00     0.210 HD
ENDBRANCH  16  17
BRANCH  16  19
ATOM     19  C29 ZIN A   1      18.087   4.671  13.626  0.00  0.00     0.144 C 
BRANCH  19  20
ATOM     20  C30 ZIN A   1      19.048   4.302  14.727  0.00  0.00     0.175 C 
ATOM     21  O31 ZIN A   1      19.184   3.134  15.051  0.00  0.00    -0.648 OA
ATOM     22  O32 ZIN A   1      19.688   5.171  15.295  0.00  0.00    -0.648 OA
ENDBRANCH  19  20
ENDBRANCH  16  19
ENDBRANCH  15  16
ENDBRANCH  12  15
ENDBRANCH  11  12
ENDBRANCH  10  11
ENDBRANCH   9  10
BRANCH   1  23
ATOM     23  C2  ZIN A   1      19.184  -1.559   7.800  0.00  0.00     0.082 C 
ATOM     24  C1  ZIN A   1      19.579  -2.838   7.060  0.00  0.00     0.032 C 
ATOM     25  C3  ZIN A   1      18.042  -0.869   7.053  0.00  0.00     0.032 C 
ENDBRANCH   1  23
BRANCH   8  26
ATOM     26  C12 ZIN A   1      18.498  -1.287  12.781  0.00  0.00    -0.023 A 
ATOM     27  C18 ZIN A   1      17.555  -0.368  13.243  0.00  0.00     0.015 A 
ATOM     28  C17 ZIN A   1      17.601   0.066  14.551  0.00  0.00     0.043 A 
ATOM     29  C15 ZIN A   1      18.589  -0.400  15.403  0.00  0.00     0.116 A 
ATOM     30  C14 ZIN A   1      19.532  -1.306  14.948  0.00  0.00     0.043 A 
ATOM     31  F16 ZIN A   1      18.633   0.033  16.682  0.00  0.00    -0.206 F 
ATOM     32  C13 ZIN A   1      19.492  -1.752  13.643  0.00  0.00     0.015 A 
ENDBRANCH   8  26
TORSDOF 11
ENDMDL
