MODEL 1
REMARK VINA RESULT:      -5.4      0.000      0.000
REMARK  4 active torsions:
REMARK  status: ('A' for Active; 'I' for Inactive)
REMARK    1  A    between atoms: C3_3  and  N4_4 
REMARK    2  A    between atoms: N4_4  and  C7_7 
REMARK    3  A    between atoms: C7_7  and  C10_9 
REMARK    4  A    between atoms: C10_9  and  C11_10 
ROOT
ATOM      1  C1  <0> d   1      20.677  -0.518  10.862  0.00  0.00     0.013 C 
ATOM      2  C2  <0> d   1      20.402   0.108  11.817  0.00  0.00    -0.090 C 
ATOM      3  C3  <0> d   1      20.059   0.892  13.014  0.00  0.00     0.327 C 
ENDROOT
BRANCH   3   4
ATOM      4  N4  <0> d   1      18.921   1.772  12.713  0.00  0.00    -0.061 N 
ATOM      5  H5  <0> d   1      18.138   1.217  12.404  0.00  0.00     0.281 HD
ATOM      6  C6  <0> d   1      18.548   2.520  13.920  0.00  0.00     0.271 C 
BRANCH   4   7
ATOM      7  C7  <0> d   1      19.300   2.715  11.652  0.00  0.00     0.189 C 
ATOM      8  C9  <0> d   1      19.686   4.058  12.277  0.00  0.00     0.040 C 
BRANCH   7   9
ATOM      9  C10 <0> d   1      18.117   2.917  10.702  0.00  0.00     0.071 C 
BRANCH   9  10
ATOM     10  C11 <0> d   1      18.207   1.927   9.570  0.00  0.00    -0.056 A 
ATOM     11  C16 <0> d   1      17.430   0.784   9.588  0.00  0.00     0.007 A 
ATOM     12  C15 <0> d   1      17.509  -0.122   8.547  0.00  0.00     0.001 A 
ATOM     13  C14 <0> d   1      18.371   0.109   7.493  0.00  0.00     0.000 A 
ATOM     14  C13 <0> d   1      19.153   1.250   7.477  0.00  0.00     0.001 A 
ATOM     15  C12 <0> d   1      19.071   2.158   8.516  0.00  0.00     0.007 A 
ENDBRANCH   9  10
ENDBRANCH   7   9
ENDBRANCH   4   7
ENDBRANCH   3   4
TORSDOF 4
ENDMDL
MODEL 2
REMARK VINA RESULT:      -5.3      1.887      4.457
REMARK  4 active torsions:
REMARK  status: ('A' for Active; 'I' for Inactive)
REMARK    1  A    between atoms: C3_3  and  N4_4 
REMARK    2  A    between atoms: N4_4  and  C7_7 
REMARK    3  A    between atoms: C7_7  and  C10_9 
REMARK    4  A    between atoms: C10_9  and  C11_10 
ROOT
ATOM      1  C1  <0> d   1      16.986   0.294  12.261  0.00  0.00     0.013 C 
ATOM      2  C2  <0> d   1      17.298  -0.304  11.300  0.00  0.00    -0.090 C 
ATOM      3  C3  <0> d   1      17.688  -1.055  10.096  0.00  0.00     0.327 C 
ENDROOT
BRANCH   3   4
ATOM      4  N4  <0> d   1      18.793  -0.359   9.422  0.00  0.00    -0.061 N 
ATOM      5  H5  <0> d   1      19.475  -0.070  10.106  0.00  0.00     0.281 HD
ATOM      6  C6  <0> d   1      19.423  -1.265   8.453  0.00  0.00     0.271 C 
BRANCH   4   7
ATOM      7  C7  <0> d   1      18.272   0.821   8.720  0.00  0.00     0.189 C 
ATOM      8  C9  <0> d   1      18.103   0.497   7.234  0.00  0.00     0.040 C 
BRANCH   7   9
ATOM      9  C10 <0> d   1      19.254   1.984   8.880  0.00  0.00     0.071 C 
BRANCH   9  10
ATOM     10  C11 <0> d   1      18.896   2.778  10.110  0.00  0.00    -0.056 A 
ATOM     11  C16 <0> d   1      17.770   3.580  10.110  0.00  0.00     0.007 A 
ATOM     12  C15 <0> d   1      17.438   4.304  11.240  0.00  0.00     0.001 A 
ATOM     13  C14 <0> d   1      18.237   4.235  12.365  0.00  0.00     0.000 A 
ATOM     14  C13 <0> d   1      19.367   3.437  12.363  0.00  0.00     0.001 A 
ATOM     15  C12 <0> d   1      19.696   2.709  11.235  0.00  0.00     0.007 A 
ENDBRANCH   9  10
ENDBRANCH   7   9
ENDBRANCH   4   7
ENDBRANCH   3   4
TORSDOF 4
ENDMDL
MODEL 3
REMARK VINA RESULT:      -5.3      1.821      4.427
REMARK  4 active torsions:
REMARK  status: ('A' for Active; 'I' for Inactive)
REMARK    1  A    between atoms: C3_3  and  N4_4 
REMARK    2  A    between atoms: N4_4  and  C7_7 
REMARK    3  A    between atoms: C7_7  and  C10_9 
REMARK    4  A    between atoms: C10_9  and  C11_10 
ROOT
ATOM      1  C1  <0> d   1      17.395   0.631  13.188  0.00  0.00     0.013 C 
ATOM      2  C2  <0> d   1      17.418  -0.003  12.200  0.00  0.00    -0.090 C 
ATOM      3  C3  <0> d   1      17.447  -0.798  10.962  0.00  0.00     0.327 C 
ENDROOT
BRANCH   3   4
ATOM      4  N4  <0> d   1      18.521  -0.306  10.088  0.00  0.00    -0.061 N 
ATOM      5  H5  <0> d   1      19.272   0.061  10.652  0.00  0.00     0.281 HD
ATOM      6  C6  <0> d   1      19.023  -1.410   9.261  0.00  0.00     0.271 C 
BRANCH   4   7
ATOM      7  C7  <0> d   1      17.997   0.756   9.219  0.00  0.00     0.189 C 
ATOM      8  C9  <0> d   1      17.763   0.197   7.814  0.00  0.00     0.040 C 
BRANCH   7   9
ATOM      9  C10 <0> d   1      19.009   1.904   9.150  0.00  0.00     0.071 C 
BRANCH   9  10
ATOM     10  C11 <0> d   1      18.781   2.844  10.305  0.00  0.00    -0.056 A 
ATOM     11  C16 <0> d   1      19.793   3.075  11.217  0.00  0.00     0.007 A 
ATOM     12  C15 <0> d   1      19.586   3.941  12.274  0.00  0.00     0.001 A 
ATOM     13  C14 <0> d   1      18.365   4.571  12.423  0.00  0.00     0.000 A 
ATOM     14  C13 <0> d   1      17.351   4.337  11.513  0.00  0.00     0.001 A 
ATOM     15  C12 <0> d   1      17.559   3.473  10.454  0.00  0.00     0.007 A 
ENDBRANCH   9  10
ENDBRANCH   7   9
ENDBRANCH   4   7
ENDBRANCH   3   4
TORSDOF 4
ENDMDL
MODEL 4
REMARK VINA RESULT:      -5.2      1.040      2.037
REMARK  4 active torsions:
REMARK  status: ('A' for Active; 'I' for Inactive)
REMARK    1  A    between atoms: C3_3  and  N4_4 
REMARK    2  A    between atoms: N4_4  and  C7_7 
REMARK    3  A    between atoms: C7_7  and  C10_9 
REMARK    4  A    between atoms: C10_9  and  C11_10 
ROOT
ATOM      1  C1  <0> d   1      18.937   0.825  15.900  0.00  0.00     0.013 C 
ATOM      2  C2  <0> d   1      18.805   0.949  14.739  0.00  0.00    -0.090 C 
ATOM      3  C3  <0> d   1      18.640   1.105  13.285  0.00  0.00     0.327 C 
ENDROOT
BRANCH   3   4
ATOM      4  N4  <0> d   1      19.879   1.644  12.707  0.00  0.00    -0.061 N 
ATOM      5  H5  <0> d   1      20.380   2.165  13.410  0.00  0.00     0.281 HD
ATOM      6  C6  <0> d   1      20.716   0.537  12.226  0.00  0.00     0.271 C 
BRANCH   4   7
ATOM      7  C7  <0> d   1      19.549   2.530  11.583  0.00  0.00     0.189 C 
ATOM      8  C9  <0> d   1      19.623   3.988  12.044  0.00  0.00     0.040 C 
BRANCH   7   9
ATOM      9  C10 <0> d   1      18.132   2.223  11.090  0.00  0.00     0.071 C 
BRANCH   9  10
ATOM     10  C11 <0> d   1      18.202   1.584   9.728  0.00  0.00    -0.056 A 
ATOM     11  C16 <0> d   1      17.446   0.459   9.453  0.00  0.00     0.007 A 
ATOM     12  C15 <0> d   1      17.507  -0.124   8.201  0.00  0.00     0.001 A 
ATOM     13  C14 <0> d   1      18.329   0.410   7.228  0.00  0.00     0.000 A 
ATOM     14  C13 <0> d   1      19.089   1.532   7.504  0.00  0.00     0.001 A 
ATOM     15  C12 <0> d   1      19.025   2.119   8.754  0.00  0.00     0.007 A 
ENDBRANCH   9  10
ENDBRANCH   7   9
ENDBRANCH   4   7
ENDBRANCH   3   4
TORSDOF 4
ENDMDL
MODEL 5
REMARK VINA RESULT:      -5.2      1.427      3.050
REMARK  4 active torsions:
REMARK  status: ('A' for Active; 'I' for Inactive)
REMARK    1  A    between atoms: C3_3  and  N4_4 
REMARK    2  A    between atoms: N4_4  and  C7_7 
REMARK    3  A    between atoms: C7_7  and  C10_9 
REMARK    4  A    between atoms: C10_9  and  C11_10 
ROOT
ATOM      1  C1  <0> d   1      17.681   4.256  10.311  0.00  0.00     0.013 C 
ATOM      2  C2  <0> d   1      18.516   3.573  10.775  0.00  0.00    -0.090 C 
ATOM      3  C3  <0> d   1      19.563   2.718  11.357  0.00  0.00     0.327 C 
ENDROOT
BRANCH   3   4
ATOM      4  N4  <0> d   1      18.942   1.550  11.996  0.00  0.00    -0.061 N 
ATOM      5  H5  <0> d   1      19.655   0.879  12.237  0.00  0.00     0.281 HD
ATOM      6  C6  <0> d   1      18.236   1.975  13.211  0.00  0.00     0.271 C 
BRANCH   4   7
ATOM      7  C7  <0> d   1      17.986   0.935  11.065  0.00  0.00     0.189 C 
ATOM      8  C9  <0> d   1      16.873   0.246  11.859  0.00  0.00     0.040 C 
BRANCH   7   9
ATOM      9  C10 <0> d   1      18.710  -0.099  10.199  0.00  0.00     0.071 C 
BRANCH   9  10
ATOM     10  C11 <0> d   1      18.437   0.184   8.745  0.00  0.00    -0.056 A 
ATOM     11  C16 <0> d   1      19.264   1.039   8.041  0.00  0.00     0.007 A 
ATOM     12  C15 <0> d   1      19.016   1.296   6.705  0.00  0.00     0.001 A 
ATOM     13  C14 <0> d   1      17.937   0.705   6.076  0.00  0.00     0.000 A 
ATOM     14  C13 <0> d   1      17.107  -0.147   6.781  0.00  0.00     0.001 A 
ATOM     15  C12 <0> d   1      17.357  -0.407   8.116  0.00  0.00     0.007 A 
ENDBRANCH   9  10
ENDBRANCH   7   9
ENDBRANCH   4   7
ENDBRANCH   3   4
TORSDOF 4
ENDMDL
MODEL 6
REMARK VINA RESULT:      -5.2      1.880      2.401
REMARK  4 active torsions:
REMARK  status: ('A' for Active; 'I' for Inactive)
REMARK    1  A    between atoms: C3_3  and  N4_4 
REMARK    2  A    between atoms: N4_4  and  C7_7 
REMARK    3  A    between atoms: C7_7  and  C10_9 
REMARK    4  A    between atoms: C10_9  and  C11_10 
ROOT
ATOM      1  C1  <0> d   1      17.364  -1.186  11.535  0.00  0.00     0.013 C 
ATOM      2  C2  <0> d   1      17.401  -0.036  11.768  0.00  0.00    -0.090 C 
ATOM      3  C3  <0> d   1      17.447   1.405  12.062  0.00  0.00     0.327 C 
ENDROOT
BRANCH   3   4
ATOM      4  N4  <0> d   1      17.634   2.153  10.811  0.00  0.00    -0.061 N 
ATOM      5  H5  <0> d   1      16.994   1.807  10.113  0.00  0.00     0.281 HD
ATOM      6  C6  <0> d   1      17.374   3.579  11.050  0.00  0.00     0.271 C 
BRANCH   4   7
ATOM      7  C7  <0> d   1      19.014   1.981  10.338  0.00  0.00     0.189 C 
ATOM      8  C9  <0> d   1      19.951   2.860  11.169  0.00  0.00     0.040 C 
BRANCH   7   9
ATOM      9  C10 <0> d   1      19.104   2.389   8.866  0.00  0.00     0.071 C 
BRANCH   9  10
ATOM     10  C11 <0> d   1      19.105   1.155   8.002  0.00  0.00    -0.056 A 
ATOM     11  C16 <0> d   1      19.342  -0.084   8.568  0.00  0.00     0.007 A 
ATOM     12  C15 <0> d   1      19.338  -1.217   7.776  0.00  0.00     0.001 A 
ATOM     13  C14 <0> d   1      19.107  -1.111   6.418  0.00  0.00     0.000 A 
ATOM     14  C13 <0> d   1      18.875   0.129   5.850  0.00  0.00     0.001 A 
ATOM     15  C12 <0> d   1      18.875   1.261   6.643  0.00  0.00     0.007 A 
ENDBRANCH   9  10
ENDBRANCH   7   9
ENDBRANCH   4   7
ENDBRANCH   3   4
TORSDOF 4
ENDMDL
MODEL 7
REMARK VINA RESULT:      -5.1      1.791      2.163
REMARK  4 active torsions:
REMARK  status: ('A' for Active; 'I' for Inactive)
REMARK    1  A    between atoms: C3_3  and  N4_4 
REMARK    2  A    between atoms: N4_4  and  C7_7 
REMARK    3  A    between atoms: C7_7  and  C10_9 
REMARK    4  A    between atoms: C10_9  and  C11_10 
ROOT
ATOM      1  C1  <0> d   1      17.679  -2.470  11.849  0.00  0.00     0.013 C 
ATOM      2  C2  <0> d   1      17.440  -1.364  12.164  0.00  0.00    -0.090 C 
ATOM      3  C3  <0> d   1      17.140   0.022  12.558  0.00  0.00     0.327 C 
ENDROOT
BRANCH   3   4
ATOM      4  N4  <0> d   1      18.391   0.785  12.653  0.00  0.00    -0.061 N 
ATOM      5  H5  <0> d   1      18.181   1.765  12.770  0.00  0.00     0.281 HD
ATOM      6  C6  <0> d   1      19.168   0.309  13.804  0.00  0.00     0.271 C 
BRANCH   4   7
ATOM      7  C7  <0> d   1      19.174   0.597  11.424  0.00  0.00     0.189 C 
ATOM      8  C9  <0> d   1      20.663   0.531  11.772  0.00  0.00     0.040 C 
BRANCH   7   9
ATOM      9  C10 <0> d   1      18.924   1.771  10.474  0.00  0.00     0.071 C 
BRANCH   9  10
ATOM     10  C11 <0> d   1      18.587   1.245   9.103  0.00  0.00    -0.056 A 
ATOM     11  C16 <0> d   1      17.600   0.288   8.954  0.00  0.00     0.007 A 
ATOM     12  C15 <0> d   1      17.287  -0.191   7.696  0.00  0.00     0.001 A 
ATOM     13  C14 <0> d   1      17.966   0.280   6.588  0.00  0.00     0.000 A 
ATOM     14  C13 <0> d   1      18.956   1.234   6.737  0.00  0.00     0.001 A 
ATOM     15  C12 <0> d   1      19.266   1.716   7.995  0.00  0.00     0.007 A 
ENDBRANCH   9  10
ENDBRANCH   7   9
ENDBRANCH   4   7
ENDBRANCH   3   4
TORSDOF 4
ENDMDL
MODEL 8
REMARK VINA RESULT:      -5.1      1.079      1.663
REMARK  4 active torsions:
REMARK  status: ('A' for Active; 'I' for Inactive)
REMARK    1  A    between atoms: C3_3  and  N4_4 
REMARK    2  A    between atoms: N4_4  and  C7_7 
REMARK    3  A    between atoms: C7_7  and  C10_9 
REMARK    4  A    between atoms: C10_9  and  C11_10 
ROOT
ATOM      1  C1  <0> d   1      19.100  -1.440  12.658  0.00  0.00     0.013 C 
ATOM      2  C2  <0> d   1      19.337  -0.428  13.205  0.00  0.00    -0.090 C 
ATOM      3  C3  <0> d   1      19.635   0.839  13.891  0.00  0.00     0.327 C 
ENDROOT
BRANCH   3   4
ATOM      4  N4  <0> d   1      18.576   1.815  13.599  0.00  0.00    -0.061 N 
ATOM      5  H5  <0> d   1      17.699   1.333  13.474  0.00  0.00     0.281 HD
ATOM      6  C6  <0> d   1      18.462   2.762  14.715  0.00  0.00     0.271 C 
BRANCH   4   7
ATOM      7  C7  <0> d   1      18.911   2.547  12.370  0.00  0.00     0.189 C 
ATOM      8  C9  <0> d   1      19.317   3.979  12.724  0.00  0.00     0.040 C 
BRANCH   7   9
ATOM      9  C10 <0> d   1      17.692   2.576  11.445  0.00  0.00     0.071 C 
BRANCH   9  10
ATOM     10  C11 <0> d   1      18.007   1.830  10.174  0.00  0.00    -0.056 A 
ATOM     11  C16 <0> d   1      18.872   2.381   9.247  0.00  0.00     0.007 A 
ATOM     12  C15 <0> d   1      19.166   1.694   8.084  0.00  0.00     0.001 A 
ATOM     13  C14 <0> d   1      18.588   0.462   7.843  0.00  0.00     0.000 A 
ATOM     14  C13 <0> d   1      17.719  -0.086   8.769  0.00  0.00     0.001 A 
ATOM     15  C12 <0> d   1      17.429   0.598   9.934  0.00  0.00     0.007 A 
ENDBRANCH   9  10
ENDBRANCH   7   9
ENDBRANCH   4   7
ENDBRANCH   3   4
TORSDOF 4
ENDMDL
MODEL 9
REMARK VINA RESULT:      -5.0      2.011      3.152
REMARK  4 active torsions:
REMARK  status: ('A' for Active; 'I' for Inactive)
REMARK    1  A    between atoms: C3_3  and  N4_4 
REMARK    2  A    between atoms: N4_4  and  C7_7 
REMARK    3  A    between atoms: C7_7  and  C10_9 
REMARK    4  A    between atoms: C10_9  and  C11_10 
ROOT
ATOM      1  C1  <0> d   1      18.815  -1.340  15.838  0.00  0.00     0.013 C 
ATOM      2  C2  <0> d   1      18.498  -0.999  14.760  0.00  0.00    -0.090 C 
ATOM      3  C3  <0> d   1      18.100  -0.570  13.410  0.00  0.00     0.327 C 
ENDROOT
BRANCH   3   4
ATOM      4  N4  <0> d   1      18.950  -1.238  12.415  0.00  0.00    -0.061 N 
ATOM      5  H5  <0> d   1      19.742  -1.658  12.876  0.00  0.00     0.281 HD
ATOM      6  C6  <0> d   1      18.174  -2.279  11.728  0.00  0.00     0.271 C 
BRANCH   4   7
ATOM      7  C7  <0> d   1      19.421  -0.252  11.433  0.00  0.00     0.189 C 
ATOM      8  C9  <0> d   1      20.429   0.689  12.097  0.00  0.00     0.040 C 
BRANCH   7   9
ATOM      9  C10 <0> d   1      18.231   0.560  10.915  0.00  0.00     0.071 C 
BRANCH   9  10
ATOM     10  C11 <0> d   1      18.266   0.599   9.409  0.00  0.00    -0.056 A 
ATOM     11  C16 <0> d   1      19.186   1.401   8.760  0.00  0.00     0.007 A 
ATOM     12  C15 <0> d   1      19.222   1.433   7.379  0.00  0.00     0.001 A 
ATOM     13  C14 <0> d   1      18.334   0.669   6.646  0.00  0.00     0.000 A 
ATOM     14  C13 <0> d   1      17.411  -0.131   7.295  0.00  0.00     0.001 A 
ATOM     15  C12 <0> d   1      17.377  -0.165   8.676  0.00  0.00     0.007 A 
ENDBRANCH   9  10
ENDBRANCH   7   9
ENDBRANCH   4   7
ENDBRANCH   3   4
TORSDOF 4
ENDMDL
