MODEL 1
REMARK VINA RESULT:      -8.6      0.000      0.000
REMARK  3 active torsions:
REMARK  status: ('A' for Active; 'I' for Inactive)
REMARK    1  A    between atoms: C2_2  and  O3_3 
REMARK    2  A    between atoms: C2_2  and  C18_16 
REMARK    3  A    between atoms: O3_3  and  C4_4 
ROOT
ATOM      1  O3  ZIN A   1      19.338   0.337  11.324  0.00  0.00    -0.312 OA
ENDROOT
BRANCH   1   2
ATOM      2  C2  ZIN A   1      19.930   0.619  12.502  0.00  0.00     0.296 C 
ATOM      3  O1  ZIN A   1      21.140   0.562  12.604  0.00  0.00    -0.259 OA
BRANCH   2   4
ATOM      4  C18 ZIN A   1      19.113   0.987  13.664  0.00  0.00     0.067 A 
ATOM      5  C26 ZIN A   1      18.705   0.104  14.773  0.00  0.00     0.008 A 
ATOM      6  C21 ZIN A   1      17.941   0.903  15.640  0.00  0.00     0.043 A 
ATOM      7  C25 ZIN A   1      18.938  -1.234  15.081  0.00  0.00     0.015 A 
ATOM      8  N20 ZIN A   1      17.884   2.168  15.093  0.00  0.00    -0.364 N 
ATOM      9  C22 ZIN A   1      17.413   0.342  16.797  0.00  0.00     0.030 A 
ATOM     10  C19 ZIN A   1      18.576   2.213  13.929  0.00  0.00     0.107 A 
ATOM     11  H40 ZIN A   1      17.415   2.921  15.487  0.00  0.00     0.165 HD
ATOM     12  C23 ZIN A   1      17.646  -0.986  17.086  0.00  0.00     0.002 A 
ATOM     13  C24 ZIN A   1      18.406  -1.772  16.231  0.00  0.00     0.001 A 
ENDBRANCH   2   4
ENDBRANCH   1   2
BRANCH   1  14
ATOM     14  C4  ZIN A   1      18.265  -0.641  11.343  0.00  0.00     0.136 C 
ATOM     15  C13 ZIN A   1      18.646  -1.835  10.464  0.00  0.00     0.068 C 
ATOM     16  C11 ZIN A   1      18.815  -1.366   9.018  0.00  0.00     0.227 C 
ATOM     17  C10 ZIN A   1      19.964  -0.359   8.936  0.00  0.00     0.048 C 
ATOM     18  N14 ZIN A   1      17.578  -0.759   8.548  0.00  0.00     0.104 N 
ATOM     19  C9  ZIN A   1      19.435   0.963   8.354  0.00  0.00     0.061 C 
ATOM     20  C8  ZIN A   1      18.319   1.463   9.285  0.00  0.00     0.048 C 
ATOM     21  C16 ZIN A   1      18.781   0.622   7.019  0.00  0.00     0.159 C 
ATOM     22  C6  ZIN A   1      17.207   0.416   9.345  0.00  0.00     0.227 C 
ATOM     23  C5  ZIN A   1      16.983  -0.006  10.800  0.00  0.00     0.068 C 
ATOM     24  C15 ZIN A   1      17.683  -0.404   7.117  0.00  0.00     0.351 C 
ATOM     25  O17 ZIN A   1      19.115   1.124   5.973  0.00  0.00    -0.296 OA
ENDBRANCH   1  14
TORSDOF 3
ENDMDL
MODEL 2
REMARK VINA RESULT:      -8.5      3.565      6.064
REMARK  3 active torsions:
REMARK  status: ('A' for Active; 'I' for Inactive)
REMARK    1  A    between atoms: C2_2  and  O3_3 
REMARK    2  A    between atoms: C2_2  and  C18_16 
REMARK    3  A    between atoms: O3_3  and  C4_4 
ROOT
ATOM      1  O3  ZIN A   1      17.489  -2.591  10.676  0.00  0.00    -0.312 OA
ENDROOT
BRANCH   1   2
ATOM      2  C2  ZIN A   1      17.440  -1.296  11.045  0.00  0.00     0.296 C 
ATOM      3  O1  ZIN A   1      16.760  -0.959  11.996  0.00  0.00    -0.259 OA
BRANCH   2   4
ATOM      4  C18 ZIN A   1      18.201  -0.290  10.295  0.00  0.00     0.067 A 
ATOM      5  C26 ZIN A   1      18.110  -0.010   8.851  0.00  0.00     0.008 A 
ATOM      6  C21 ZIN A   1      19.022   1.030   8.602  0.00  0.00     0.043 A 
ATOM      7  C25 ZIN A   1      17.345  -0.530   7.810  0.00  0.00     0.015 A 
ATOM      8  N20 ZIN A   1      19.624   1.346   9.802  0.00  0.00    -0.364 N 
ATOM      9  C22 ZIN A   1      19.160   1.522   7.309  0.00  0.00     0.030 A 
ATOM     10  C19 ZIN A   1      19.137   0.567  10.797  0.00  0.00     0.107 A 
ATOM     11  H40 ZIN A   1      20.301   2.032   9.918  0.00  0.00     0.165 HD
ATOM     12  C23 ZIN A   1      18.401   0.993   6.287  0.00  0.00     0.002 A 
ATOM     13  C24 ZIN A   1      17.497  -0.030   6.535  0.00  0.00     0.001 A 
ENDBRANCH   2   4
ENDBRANCH   1   2
BRANCH   1  14
ATOM     14  C4  ZIN A   1      17.908  -3.548  11.685  0.00  0.00     0.136 C 
ATOM     15  C13 ZIN A   1      19.375  -3.921  11.459  0.00  0.00     0.068 C 
ATOM     16  C11 ZIN A   1      19.522  -4.597  10.094  0.00  0.00     0.227 C 
ATOM     17  C10 ZIN A   1      19.130  -3.614   8.991  0.00  0.00     0.048 C 
ATOM     18  N14 ZIN A   1      18.680  -5.782  10.038  0.00  0.00     0.104 N 
ATOM     19  C9  ZIN A   1      17.984  -4.220   8.161  0.00  0.00     0.061 C 
ATOM     20  C8  ZIN A   1      16.810  -4.482   9.117  0.00  0.00     0.048 C 
ATOM     21  C16 ZIN A   1      18.471  -5.579   7.671  0.00  0.00     0.159 C 
ATOM     22  C6  ZIN A   1      17.260  -5.454  10.210  0.00  0.00     0.227 C 
ATOM     23  C5  ZIN A   1      17.047  -4.810  11.582  0.00  0.00     0.068 C 
ATOM     24  C15 ZIN A   1      18.895  -6.514   8.772  0.00  0.00     0.351 C 
ATOM     25  O17 ZIN A   1      18.520  -5.880   6.502  0.00  0.00    -0.296 OA
ENDBRANCH   1  14
TORSDOF 3
ENDMDL
MODEL 3
REMARK VINA RESULT:      -8.4      2.731      6.990
REMARK  3 active torsions:
REMARK  status: ('A' for Active; 'I' for Inactive)
REMARK    1  A    between atoms: C2_2  and  O3_3 
REMARK    2  A    between atoms: C2_2  and  C18_16 
REMARK    3  A    between atoms: O3_3  and  C4_4 
ROOT
ATOM      1  O3  ZIN A   1      18.270  -1.699  10.108  0.00  0.00    -0.312 OA
ENDROOT
BRANCH   1   2
ATOM      2  C2  ZIN A   1      18.052  -2.750   9.293  0.00  0.00     0.296 C 
ATOM      3  O1  ZIN A   1      17.407  -3.702   9.687  0.00  0.00    -0.259 OA
BRANCH   2   4
ATOM      4  C18 ZIN A   1      18.599  -2.748   7.931  0.00  0.00     0.067 A 
ATOM      5  C26 ZIN A   1      18.445  -1.687   6.919  0.00  0.00     0.008 A 
ATOM      6  C21 ZIN A   1      19.142  -2.135   5.784  0.00  0.00     0.043 A 
ATOM      7  C25 ZIN A   1      17.812  -0.447   6.905  0.00  0.00     0.015 A 
ATOM      8  N20 ZIN A   1      19.667  -3.375   6.084  0.00  0.00    -0.364 N 
ATOM      9  C22 ZIN A   1      19.181  -1.334   4.648  0.00  0.00     0.030 A 
ATOM     10  C19 ZIN A   1      19.346  -3.732   7.350  0.00  0.00     0.107 A 
ATOM     11  H40 ZIN A   1      20.195  -3.914   5.474  0.00  0.00     0.165 HD
ATOM     12  C23 ZIN A   1      18.544  -0.111   4.646  0.00  0.00     0.002 A 
ATOM     13  C24 ZIN A   1      17.862   0.331   5.770  0.00  0.00     0.001 A 
ENDBRANCH   2   4
ENDBRANCH   1   2
BRANCH   1  14
ATOM     14  C4  ZIN A   1      19.197  -1.899  11.208  0.00  0.00     0.136 C 
ATOM     15  C13 ZIN A   1      18.464  -1.700  12.537  0.00  0.00     0.068 C 
ATOM     16  C11 ZIN A   1      17.952  -0.261  12.623  0.00  0.00     0.227 C 
ATOM     17  C10 ZIN A   1      16.939  -0.010  11.505  0.00  0.00     0.048 C 
ATOM     18  N14 ZIN A   1      19.068   0.667  12.511  0.00  0.00     0.104 N 
ATOM     19  C9  ZIN A   1      17.422   1.169  10.642  0.00  0.00     0.061 C 
ATOM     20  C8  ZIN A   1      18.798   0.788  10.072  0.00  0.00     0.048 C 
ATOM     21  C16 ZIN A   1      17.642   2.343  11.589  0.00  0.00     0.159 C 
ATOM     22  C6  ZIN A   1      19.767   0.531  11.228  0.00  0.00     0.227 C 
ATOM     23  C5  ZIN A   1      20.339  -0.884  11.106  0.00  0.00     0.068 C 
ATOM     24  C15 ZIN A   1      18.610   2.059  12.708  0.00  0.00     0.351 C 
ATOM     25  O17 ZIN A   1      17.086   3.407  11.460  0.00  0.00    -0.296 OA
ENDBRANCH   1  14
TORSDOF 3
ENDMDL
MODEL 4
REMARK VINA RESULT:      -8.3      1.279      1.814
REMARK  3 active torsions:
REMARK  status: ('A' for Active; 'I' for Inactive)
REMARK    1  A    between atoms: C2_2  and  O3_3 
REMARK    2  A    between atoms: C2_2  and  C18_16 
REMARK    3  A    between atoms: O3_3  and  C4_4 
ROOT
ATOM      1  O3  ZIN A   1      18.112   0.237  11.212  0.00  0.00    -0.312 OA
ENDROOT
BRANCH   1   2
ATOM      2  C2  ZIN A   1      17.220   0.417  12.206  0.00  0.00     0.296 C 
ATOM      3  O1  ZIN A   1      16.051   0.127  12.036  0.00  0.00    -0.259 OA
BRANCH   2   4
ATOM      4  C18 ZIN A   1      17.658   0.969  13.493  0.00  0.00     0.067 A 
ATOM      5  C26 ZIN A   1      18.064   0.208  14.689  0.00  0.00     0.008 A 
ATOM      6  C21 ZIN A   1      18.397   1.167  15.660  0.00  0.00     0.043 A 
ATOM      7  C25 ZIN A   1      18.180  -1.149  14.979  0.00  0.00     0.015 A 
ATOM      8  N20 ZIN A   1      18.197   2.411  15.099  0.00  0.00    -0.364 N 
ATOM      9  C22 ZIN A   1      18.829   0.746  16.913  0.00  0.00     0.030 A 
ATOM     10  C19 ZIN A   1      17.762   2.290  13.822  0.00  0.00     0.107 A 
ATOM     11  H40 ZIN A   1      18.349   3.254  15.554  0.00  0.00     0.165 HD
ATOM     12  C23 ZIN A   1      18.932  -0.600  17.189  0.00  0.00     0.002 A 
ATOM     13  C24 ZIN A   1      18.608  -1.546  16.227  0.00  0.00     0.001 A 
ENDBRANCH   2   4
ENDBRANCH   1   2
BRANCH   1  14
ATOM     14  C4  ZIN A   1      18.899  -0.983  11.245  0.00  0.00     0.136 C 
ATOM     15  C13 ZIN A   1      20.269  -0.725  10.611  0.00  0.00     0.068 C 
ATOM     16  C11 ZIN A   1      20.082  -0.337   9.143  0.00  0.00     0.227 C 
ATOM     17  C10 ZIN A   1      19.290   0.968   9.054  0.00  0.00     0.048 C 
ATOM     18  N14 ZIN A   1      19.385  -1.401   8.436  0.00  0.00     0.104 N 
ATOM     19  C9  ZIN A   1      18.021   0.730   8.216  0.00  0.00     0.061 C 
ATOM     20  C8  ZIN A   1      17.207  -0.371   8.914  0.00  0.00     0.048 C 
ATOM     21  C16 ZIN A   1      18.481   0.162   6.878  0.00  0.00     0.159 C 
ATOM     22  C6  ZIN A   1      18.049  -1.645   8.993  0.00  0.00     0.227 C 
ATOM     23  C5  ZIN A   1      18.178  -2.079  10.456  0.00  0.00     0.068 C 
ATOM     24  C15 ZIN A   1      19.298  -1.098   6.992  0.00  0.00     0.351 C 
ATOM     25  O17 ZIN A   1      18.220   0.678   5.818  0.00  0.00    -0.296 OA
ENDBRANCH   1  14
TORSDOF 3
ENDMDL
MODEL 5
REMARK VINA RESULT:      -8.3      2.424      3.502
REMARK  3 active torsions:
REMARK  status: ('A' for Active; 'I' for Inactive)
REMARK    1  A    between atoms: C2_2  and  O3_3 
REMARK    2  A    between atoms: C2_2  and  C18_16 
REMARK    3  A    between atoms: O3_3  and  C4_4 
ROOT
ATOM      1  O3  ZIN A   1      18.106   1.903  12.874  0.00  0.00    -0.312 OA
ENDROOT
BRANCH   1   2
ATOM      2  C2  ZIN A   1      17.987   2.898  13.775  0.00  0.00     0.296 C 
ATOM      3  O1  ZIN A   1      17.405   3.924  13.475  0.00  0.00    -0.259 OA
BRANCH   2   4
ATOM      4  C18 ZIN A   1      18.565   2.748  15.115  0.00  0.00     0.067 A 
ATOM      5  C26 ZIN A   1      18.411   1.593  16.019  0.00  0.00     0.008 A 
ATOM      6  C21 ZIN A   1      19.143   1.910  17.176  0.00  0.00     0.043 A 
ATOM      7  C25 ZIN A   1      17.752   0.370  15.923  0.00  0.00     0.015 A 
ATOM      8  N20 ZIN A   1      19.688   3.163  16.989  0.00  0.00    -0.364 N 
ATOM      9  C22 ZIN A   1      19.191   0.997  18.223  0.00  0.00     0.030 A 
ATOM     10  C19 ZIN A   1      19.345   3.654  15.774  0.00  0.00     0.107 A 
ATOM     11  H40 ZIN A   1      20.240   3.628  17.637  0.00  0.00     0.165 HD
ATOM     12  C23 ZIN A   1      18.528  -0.207  18.117  0.00  0.00     0.002 A 
ATOM     13  C24 ZIN A   1      17.811  -0.521  16.972  0.00  0.00     0.001 A 
ENDBRANCH   2   4
ENDBRANCH   1   2
BRANCH   1  14
ATOM     14  C4  ZIN A   1      18.802   2.213  11.638  0.00  0.00     0.136 C 
ATOM     15  C13 ZIN A   1      17.858   1.996  10.451  0.00  0.00     0.068 C 
ATOM     16  C11 ZIN A   1      17.449   0.523  10.393  0.00  0.00     0.227 C 
ATOM     17  C10 ZIN A   1      16.675   0.155  11.659  0.00  0.00     0.048 C 
ATOM     18  N14 ZIN A   1      18.633  -0.314  10.263  0.00  0.00     0.104 N 
ATOM     19  C9  ZIN A   1      17.394  -1.006  12.369  0.00  0.00     0.061 C 
ATOM     20  C8  ZIN A   1      18.817  -0.532  12.703  0.00  0.00     0.048 C 
ATOM     21  C16 ZIN A   1      17.527  -2.129  11.346  0.00  0.00     0.159 C 
ATOM     22  C6  ZIN A   1      19.540  -0.160  11.407  0.00  0.00     0.227 C 
ATOM     23  C5  ZIN A   1      20.016   1.293  11.489  0.00  0.00     0.068 C 
ATOM     24  C15 ZIN A   1      18.253  -1.731  10.087  0.00  0.00     0.351 C 
ATOM     25  O17 ZIN A   1      17.086  -3.239  11.522  0.00  0.00    -0.296 OA
ENDBRANCH   1  14
TORSDOF 3
ENDMDL
MODEL 6
REMARK VINA RESULT:      -8.2      2.665      3.981
REMARK  3 active torsions:
REMARK  status: ('A' for Active; 'I' for Inactive)
REMARK    1  A    between atoms: C2_2  and  O3_3 
REMARK    2  A    between atoms: C2_2  and  C18_16 
REMARK    3  A    between atoms: O3_3  and  C4_4 
ROOT
ATOM      1  O3  ZIN A   1      17.729  -1.641  11.784  0.00  0.00    -0.312 OA
ENDROOT
BRANCH   1   2
ATOM      2  C2  ZIN A   1      17.106  -0.496  12.129  0.00  0.00     0.296 C 
ATOM      3  O1  ZIN A   1      16.106  -0.144  11.534  0.00  0.00    -0.259 OA
BRANCH   2   4
ATOM      4  C18 ZIN A   1      17.640   0.330  13.218  0.00  0.00     0.067 A 
ATOM      5  C26 ZIN A   1      18.066  -0.134  14.551  0.00  0.00     0.008 A 
ATOM      6  C21 ZIN A   1      18.501   1.013  15.237  0.00  0.00     0.043 A 
ATOM      7  C25 ZIN A   1      18.122  -1.380  15.170  0.00  0.00     0.015 A 
ATOM      8  N20 ZIN A   1      18.340   2.088  14.387  0.00  0.00    -0.364 N 
ATOM      9  C22 ZIN A   1      18.974   0.891  16.538  0.00  0.00     0.030 A 
ATOM     10  C19 ZIN A   1      17.833   1.681  13.198  0.00  0.00     0.107 A 
ATOM     11  H40 ZIN A   1      18.561   3.006  14.608  0.00  0.00     0.165 HD
ATOM     12  C23 ZIN A   1      19.017  -0.348  17.141  0.00  0.00     0.002 A 
ATOM     13  C24 ZIN A   1      18.593  -1.480  16.461  0.00  0.00     0.001 A 
ENDBRANCH   2   4
ENDBRANCH   1   2
BRANCH   1  14
ATOM     14  C4  ZIN A   1      19.131  -1.544  11.419  0.00  0.00     0.136 C 
ATOM     15  C13 ZIN A   1      19.275  -1.676   9.901  0.00  0.00     0.068 C 
ATOM     16  C11 ZIN A   1      18.779  -3.056   9.463  0.00  0.00     0.227 C 
ATOM     17  C10 ZIN A   1      17.291  -3.193   9.790  0.00  0.00     0.048 C 
ATOM     18  N14 ZIN A   1      19.543  -4.092  10.140  0.00  0.00     0.104 N 
ATOM     19  C9  ZIN A   1      17.089  -4.410  10.711  0.00  0.00     0.061 C 
ATOM     20  C8  ZIN A   1      17.920  -4.169  11.982  0.00  0.00     0.048 C 
ATOM     21  C16 ZIN A   1      17.706  -5.607   9.997  0.00  0.00     0.159 C 
ATOM     22  C6  ZIN A   1      19.393  -4.020  11.598  0.00  0.00     0.227 C 
ATOM     23  C5  ZIN A   1      19.915  -2.670  12.098  0.00  0.00     0.068 C 
ATOM     24  C15 ZIN A   1      19.159  -5.431   9.644  0.00  0.00     0.351 C 
ATOM     25  O17 ZIN A   1      17.085  -6.607   9.730  0.00  0.00    -0.296 OA
ENDBRANCH   1  14
TORSDOF 3
ENDMDL
MODEL 7
REMARK VINA RESULT:      -8.2      1.674      2.961
REMARK  3 active torsions:
REMARK  status: ('A' for Active; 'I' for Inactive)
REMARK    1  A    between atoms: C2_2  and  O3_3 
REMARK    2  A    between atoms: C2_2  and  C18_16 
REMARK    3  A    between atoms: O3_3  and  C4_4 
ROOT
ATOM      1  O3  ZIN A   1      19.330   0.582  11.543  0.00  0.00    -0.312 OA
ENDROOT
BRANCH   1   2
ATOM      2  C2  ZIN A   1      19.523   1.674  12.309  0.00  0.00     0.296 C 
ATOM      3  O1  ZIN A   1      20.207   2.592  11.899  0.00  0.00    -0.259 OA
BRANCH   2   4
ATOM      4  C18 ZIN A   1      18.912   1.753  13.641  0.00  0.00     0.067 A 
ATOM      5  C26 ZIN A   1      18.831   0.672  14.641  0.00  0.00     0.008 A 
ATOM      6  C21 ZIN A   1      18.166   1.223  15.749  0.00  0.00     0.043 A 
ATOM      7  C25 ZIN A   1      19.269  -0.649  14.676  0.00  0.00     0.015 A 
ATOM      8  N20 ZIN A   1      17.861   2.532  15.439  0.00  0.00    -0.364 N 
ATOM      9  C22 ZIN A   1      17.940   0.433  16.871  0.00  0.00     0.030 A 
ATOM     10  C19 ZIN A   1      18.303   2.841  14.196  0.00  0.00     0.107 A 
ATOM     11  H40 ZIN A   1      17.396   3.147  16.029  0.00  0.00     0.165 HD
ATOM     12  C23 ZIN A   1      18.373  -0.875  16.889  0.00  0.00     0.002 A 
ATOM     13  C24 ZIN A   1      19.035  -1.416  15.796  0.00  0.00     0.001 A 
ENDBRANCH   2   4
ENDBRANCH   1   2
BRANCH   1  14
ATOM     14  C4  ZIN A   1      19.311   0.780  10.105  0.00  0.00     0.136 C 
ATOM     15  C13 ZIN A   1      17.867   0.712   9.599  0.00  0.00     0.068 C 
ATOM     16  C11 ZIN A   1      17.298  -0.681   9.879  0.00  0.00     0.227 C 
ATOM     17  C10 ZIN A   1      17.260  -0.925  11.388  0.00  0.00     0.048 C 
ATOM     18  N14 ZIN A   1      18.117  -1.690   9.224  0.00  0.00     0.104 N 
ATOM     19  C9  ZIN A   1      18.084  -2.183  11.716  0.00  0.00     0.061 C 
ATOM     20  C8  ZIN A   1      19.519  -1.934  11.226  0.00  0.00     0.048 C 
ATOM     21  C16 ZIN A   1      17.513  -3.312  10.865  0.00  0.00     0.159 C 
ATOM     22  C6  ZIN A   1      19.499  -1.678   9.718  0.00  0.00     0.227 C 
ATOM     23  C5  ZIN A   1      20.134  -0.316   9.425  0.00  0.00     0.068 C 
ATOM     24  C15 ZIN A   1      17.519  -3.032   9.385  0.00  0.00     0.351 C 
ATOM     25  O17 ZIN A   1      17.088  -4.341  11.333  0.00  0.00    -0.296 OA
ENDBRANCH   1  14
TORSDOF 3
ENDMDL
MODEL 8
REMARK VINA RESULT:      -7.9      2.084      7.172
REMARK  3 active torsions:
REMARK  status: ('A' for Active; 'I' for Inactive)
REMARK    1  A    between atoms: C2_2  and  O3_3 
REMARK    2  A    between atoms: C2_2  and  C18_16 
REMARK    3  A    between atoms: O3_3  and  C4_4 
ROOT
ATOM      1  O3  ZIN A   1      19.046   1.618  10.026  0.00  0.00    -0.312 OA
ENDROOT
BRANCH   1   2
ATOM      2  C2  ZIN A   1      19.125   1.377   8.703  0.00  0.00     0.296 C 
ATOM      3  O1  ZIN A   1      19.109   2.301   7.913  0.00  0.00    -0.259 OA
BRANCH   2   4
ATOM      4  C18 ZIN A   1      19.224  -0.003   8.213  0.00  0.00     0.067 A 
ATOM      5  C26 ZIN A   1      19.091  -0.456   6.816  0.00  0.00     0.008 A 
ATOM      6  C21 ZIN A   1      19.264  -1.850   6.845  0.00  0.00     0.043 A 
ATOM      7  C25 ZIN A   1      18.866   0.193   5.605  0.00  0.00     0.015 A 
ATOM      8  N20 ZIN A   1      19.476  -2.212   8.159  0.00  0.00    -0.364 N 
ATOM      9  C22 ZIN A   1      19.196  -2.571   5.658  0.00  0.00     0.030 A 
ATOM     10  C19 ZIN A   1      19.452  -1.121   8.962  0.00  0.00     0.107 A 
ATOM     11  H40 ZIN A   1      19.623  -3.121   8.466  0.00  0.00     0.165 HD
ATOM     12  C23 ZIN A   1      18.966  -1.915   4.468  0.00  0.00     0.002 A 
ATOM     13  C24 ZIN A   1      18.801  -0.539   4.440  0.00  0.00     0.001 A 
ENDBRANCH   2   4
ENDBRANCH   1   2
BRANCH   1  14
ATOM     14  C4  ZIN A   1      19.027   3.009  10.442  0.00  0.00     0.136 C 
ATOM     15  C13 ZIN A   1      20.083   3.232  11.529  0.00  0.00     0.068 C 
ATOM     16  C11 ZIN A   1      19.738   2.380  12.753  0.00  0.00     0.227 C 
ATOM     17  C10 ZIN A   1      19.783   0.899  12.375  0.00  0.00     0.048 C 
ATOM     18  N14 ZIN A   1      18.415   2.736  13.245  0.00  0.00     0.104 N 
ATOM     19  C9  ZIN A   1      18.413   0.262  12.670  0.00  0.00     0.061 C 
ATOM     20  C8  ZIN A   1      17.365   1.018  11.838  0.00  0.00     0.048 C 
ATOM     21  C16 ZIN A   1      18.106   0.546  14.136  0.00  0.00     0.159 C 
ATOM     22  C6  ZIN A   1      17.373   2.494  12.240  0.00  0.00     0.227 C 
ATOM     23  C5  ZIN A   1      17.646   3.356  11.005  0.00  0.00     0.068 C 
ATOM     24  C15 ZIN A   1      18.111   2.008  14.495  0.00  0.00     0.351 C 
ATOM     25  O17 ZIN A   1      17.883  -0.324  14.943  0.00  0.00    -0.296 OA
ENDBRANCH   1  14
TORSDOF 3
ENDMDL
MODEL 9
REMARK VINA RESULT:      -7.8      1.989      7.253
REMARK  3 active torsions:
REMARK  status: ('A' for Active; 'I' for Inactive)
REMARK    1  A    between atoms: C2_2  and  O3_3 
REMARK    2  A    between atoms: C2_2  and  C18_16 
REMARK    3  A    between atoms: O3_3  and  C4_4 
ROOT
ATOM      1  O3  ZIN A   1      18.653   0.121  11.137  0.00  0.00    -0.312 OA
ENDROOT
BRANCH   1   2
ATOM      2  C2  ZIN A   1      18.137   0.115   9.892  0.00  0.00     0.296 C 
ATOM      3  O1  ZIN A   1      17.283   0.924   9.583  0.00  0.00    -0.259 OA
BRANCH   2   4
ATOM      4  C18 ZIN A   1      18.599  -0.874   8.911  0.00  0.00     0.067 A 
ATOM      5  C26 ZIN A   1      18.714  -0.684   7.453  0.00  0.00     0.008 A 
ATOM      6  C21 ZIN A   1      19.200  -1.900   6.944  0.00  0.00     0.043 A 
ATOM      7  C25 ZIN A   1      18.467   0.384   6.594  0.00  0.00     0.015 A 
ATOM      8  N20 ZIN A   1      19.357  -2.760   8.011  0.00  0.00    -0.364 N 
ATOM      9  C22 ZIN A   1      19.418  -2.028   5.577  0.00  0.00     0.030 A 
ATOM     10  C19 ZIN A   1      19.002  -2.152   9.168  0.00  0.00     0.107 A 
ATOM     11  H40 ZIN A   1      19.678  -3.673   7.942  0.00  0.00     0.165 HD
ATOM     12  C23 ZIN A   1      19.164  -0.965   4.737  0.00  0.00     0.002 A 
ATOM     13  C24 ZIN A   1      18.689   0.237   5.242  0.00  0.00     0.001 A 
ENDBRANCH   2   4
ENDBRANCH   1   2
BRANCH   1  14
ATOM     14  C4  ZIN A   1      19.579   1.192  11.461  0.00  0.00     0.136 C 
ATOM     15  C13 ZIN A   1      20.733   0.635  12.299  0.00  0.00     0.068 C 
ATOM     16  C11 ZIN A   1      20.182   0.088  13.618  0.00  0.00     0.227 C 
ATOM     17  C10 ZIN A   1      19.228  -1.073  13.333  0.00  0.00     0.048 C 
ATOM     18  N14 ZIN A   1      19.490   1.146  14.340  0.00  0.00     0.104 N 
ATOM     19  C9  ZIN A   1      17.848  -0.749  13.934  0.00  0.00     0.061 C 
ATOM     20  C8  ZIN A   1      17.355   0.552  13.281  0.00  0.00     0.048 C 
ATOM     21  C16 ZIN A   1      18.074  -0.448  15.411  0.00  0.00     0.159 C 
ATOM     22  C6  ZIN A   1      18.351   1.673  13.580  0.00  0.00     0.227 C 
ATOM     23  C5  ZIN A   1      18.851   2.273  12.263  0.00  0.00     0.068 C 
ATOM     24  C15 ZIN A   1      19.052   0.669  15.669  0.00  0.00     0.351 C 
ATOM     25  O17 ZIN A   1      17.524  -1.053  16.300  0.00  0.00    -0.296 OA
ENDBRANCH   1  14
TORSDOF 3
ENDMDL
