MODEL 1
REMARK VINA RESULT:      -5.4      0.000      0.000
REMARK  5 active torsions:
REMARK  status: ('A' for Active; 'I' for Inactive)
REMARK    1  A    between atoms: N2_2  and  C5_5 
REMARK    2  A    between atoms: C5_5  and  C6_6 
REMARK    3  A    between atoms: C6_6  and  O8_7 
REMARK    4  A    between atoms: C6_6  and  C9_8 
REMARK    5  A    between atoms: C13_12  and  O14_13 
ROOT
ATOM      1  C9  <0> d   1      19.674   0.205  13.330  0.00  0.00    -0.025 A 
ATOM      2  C10 <0> d   1      19.545  -1.087  13.808  0.00  0.00     0.010 A 
ATOM      3  C11 <0> d   1      18.888  -1.323  15.001  0.00  0.00     0.003 A 
ATOM      4  C12 <0> d   1      18.358  -0.268  15.719  0.00  0.00     0.036 A 
ATOM      5  C13 <0> d   1      18.485   1.029  15.242  0.00  0.00     0.066 A 
ATOM      6  C15 <0> d   1      19.151   1.263  14.047  0.00  0.00     0.046 A 
ENDROOT
BRANCH   1   7
ATOM      7  C6  <0> d   1      20.391   0.458  12.028  0.00  0.00     0.176 C 
BRANCH   7   8
ATOM      8  C5  <0> d   1      20.219  -0.752  11.108  0.00  0.00     0.268 C 
BRANCH   8   9
ATOM      9  N2  <0> d   1      20.746  -0.431   9.775  0.00  0.00    -0.076 N 
ATOM     10  C1  <0> d   1      19.648   0.026   8.912  0.00  0.00     0.267 C 
ATOM     11  H3  <0> d   1      21.169  -1.255   9.374  0.00  0.00     0.276 HD
ATOM     12  H4  <0> d   1      21.439   0.299   9.853  0.00  0.00     0.276 HD
ENDBRANCH   8   9
ENDBRANCH   7   8
BRANCH   7  13
ATOM     13  O8  <0> d   1      21.781   0.668  12.284  0.00  0.00    -0.389 OA
ATOM     14  H21 <0> d   1      22.368   0.209  11.667  0.00  0.00     0.210 HD
ENDBRANCH   7  13
ENDBRANCH   1   7
BRANCH   5  15
ATOM     15  O14 <0> d   1      17.965   2.068  15.946  0.00  0.00    -0.361 OA
ATOM     16  H25 <0> d   1      17.864   2.880  15.432  0.00  0.00     0.217 HD
ENDBRANCH   5  15
TORSDOF 5
ENDMDL
MODEL 2
REMARK VINA RESULT:      -5.4      2.632      5.761
REMARK  5 active torsions:
REMARK  status: ('A' for Active; 'I' for Inactive)
REMARK    1  A    between atoms: N2_2  and  C5_5 
REMARK    2  A    between atoms: C5_5  and  C6_6 
REMARK    3  A    between atoms: C6_6  and  O8_7 
REMARK    4  A    between atoms: C6_6  and  C9_8 
REMARK    5  A    between atoms: C13_12  and  O14_13 
ROOT
ATOM      1  C9  <0> d   1      19.681  -0.088   9.729  0.00  0.00    -0.025 A 
ATOM      2  C10 <0> d   1      19.629   1.214   9.267  0.00  0.00     0.010 A 
ATOM      3  C11 <0> d   1      19.003   1.501   8.069  0.00  0.00     0.003 A 
ATOM      4  C12 <0> d   1      18.428   0.486   7.329  0.00  0.00     0.036 A 
ATOM      5  C13 <0> d   1      18.477  -0.822   7.789  0.00  0.00     0.066 A 
ATOM      6  C15 <0> d   1      19.112  -1.107   8.990  0.00  0.00     0.046 A 
ENDROOT
BRANCH   1   7
ATOM      7  C6  <0> d   1      20.365  -0.397  11.036  0.00  0.00     0.176 C 
BRANCH   7   8
ATOM      8  C5  <0> d   1      20.227   0.800  11.979  0.00  0.00     0.268 C 
BRANCH   8   9
ATOM      9  N2  <0> d   1      20.694   0.423  13.320  0.00  0.00    -0.076 N 
ATOM     10  C1  <0> d   1      19.670  -0.395  13.982  0.00  0.00     0.267 C 
ATOM     11  H3  <0> d   1      20.863   1.257  13.863  0.00  0.00     0.276 HD
ATOM     12  H4  <0> d   1      21.549  -0.107  13.242  0.00  0.00     0.276 HD
ENDBRANCH   8   9
ENDBRANCH   7   8
BRANCH   7  13
ATOM     13  O8  <0> d   1      21.750  -0.660  10.800  0.00  0.00    -0.389 OA
ATOM     14  H21 <0> d   1      22.179  -1.164  11.504  0.00  0.00     0.210 HD
ENDBRANCH   7  13
ENDBRANCH   1   7
BRANCH   5  15
ATOM     15  O14 <0> d   1      17.912  -1.822   7.064  0.00  0.00    -0.361 OA
ATOM     16  H25 <0> d   1      18.278  -2.697   7.249  0.00  0.00     0.217 HD
ENDBRANCH   5  15
TORSDOF 5
ENDMDL
MODEL 3
REMARK VINA RESULT:      -5.2      2.778      3.868
REMARK  5 active torsions:
REMARK  status: ('A' for Active; 'I' for Inactive)
REMARK    1  A    between atoms: N2_2  and  C5_5 
REMARK    2  A    between atoms: C5_5  and  C6_6 
REMARK    3  A    between atoms: C6_6  and  O8_7 
REMARK    4  A    between atoms: C6_6  and  C9_8 
REMARK    5  A    between atoms: C13_12  and  O14_13 
ROOT
ATOM      1  C9  <0> d   1      19.802   0.761  10.623  0.00  0.00    -0.025 A 
ATOM      2  C10 <0> d   1      19.121   1.370   9.585  0.00  0.00     0.010 A 
ATOM      3  C11 <0> d   1      18.558   2.620   9.762  0.00  0.00     0.003 A 
ATOM      4  C12 <0> d   1      18.674   3.264  10.979  0.00  0.00     0.036 A 
ATOM      5  C13 <0> d   1      19.358   2.657  12.022  0.00  0.00     0.066 A 
ATOM      6  C15 <0> d   1      19.917   1.399  11.842  0.00  0.00     0.046 A 
ENDROOT
BRANCH   1   7
ATOM      7  C6  <0> d   1      20.415  -0.602  10.425  0.00  0.00     0.176 C 
BRANCH   7   8
ATOM      8  C5  <0> d   1      19.626  -1.637  11.230  0.00  0.00     0.268 C 
BRANCH   8   9
ATOM      9  N2  <0> d   1      20.485  -2.795  11.511  0.00  0.00    -0.076 N 
ATOM     10  C1  <0> d   1      19.724  -4.033  11.296  0.00  0.00     0.267 C 
ATOM     11  H3  <0> d   1      20.799  -2.755  12.469  0.00  0.00     0.276 HD
ATOM     12  H4  <0> d   1      21.284  -2.780  10.894  0.00  0.00     0.276 HD
ENDBRANCH   8   9
ENDBRANCH   7   8
BRANCH   7  13
ATOM     13  O8  <0> d   1      21.772  -0.584  10.872  0.00  0.00    -0.389 OA
ATOM     14  H21 <0> d   1      22.008  -1.329  11.440  0.00  0.00     0.210 HD
ENDBRANCH   7  13
ENDBRANCH   1   7
BRANCH   5  15
ATOM     15  O14 <0> d   1      19.475   3.288  13.220  0.00  0.00    -0.361 OA
ATOM     16  H25 <0> d   1      18.630   3.544  13.614  0.00  0.00     0.217 HD
ENDBRANCH   5  15
TORSDOF 5
ENDMDL
MODEL 4
REMARK VINA RESULT:      -5.2      2.109      2.948
REMARK  5 active torsions:
REMARK  status: ('A' for Active; 'I' for Inactive)
REMARK    1  A    between atoms: N2_2  and  C5_5 
REMARK    2  A    between atoms: C5_5  and  C6_6 
REMARK    3  A    between atoms: C6_6  and  O8_7 
REMARK    4  A    between atoms: C6_6  and  C9_8 
REMARK    5  A    between atoms: C13_12  and  O14_13 
ROOT
ATOM      1  C9  <0> d   1      18.702   0.835  15.751  0.00  0.00    -0.025 A 
ATOM      2  C10 <0> d   1      17.825  -0.162  16.139  0.00  0.00     0.010 A 
ATOM      3  C11 <0> d   1      17.550  -0.361  17.479  0.00  0.00     0.003 A 
ATOM      4  C12 <0> d   1      18.151   0.436  18.434  0.00  0.00     0.036 A 
ATOM      5  C13 <0> d   1      19.030   1.438  18.048  0.00  0.00     0.066 A 
ATOM      6  C15 <0> d   1      19.309   1.631  16.702  0.00  0.00     0.046 A 
ENDROOT
BRANCH   1   7
ATOM      7  C6  <0> d   1      18.999   1.048  14.288  0.00  0.00     0.176 C 
BRANCH   7   8
ATOM      8  C5  <0> d   1      19.943  -0.051  13.794  0.00  0.00     0.268 C 
BRANCH   8   9
ATOM      9  N2  <0> d   1      20.893   0.519  12.830  0.00  0.00    -0.076 N 
ATOM     10  C1  <0> d   1      20.533   0.085  11.473  0.00  0.00     0.267 C 
ATOM     11  H3  <0> d   1      21.825   0.200  13.049  0.00  0.00     0.276 HD
ATOM     12  H4  <0> d   1      20.861   1.526  12.880  0.00  0.00     0.276 HD
ENDBRANCH   8   9
ENDBRANCH   7   8
BRANCH   7  13
ATOM     13  O8  <0> d   1      19.619   2.324  14.109  0.00  0.00    -0.389 OA
ATOM     14  H21 <0> d   1      20.518   2.376  14.459  0.00  0.00     0.210 HD
ENDBRANCH   7  13
ENDBRANCH   1   7
BRANCH   5  15
ATOM     15  O14 <0> d   1      19.622   2.224  18.985  0.00  0.00    -0.361 OA
ATOM     16  H25 <0> d   1      19.565   3.170  18.797  0.00  0.00     0.217 HD
ENDBRANCH   5  15
TORSDOF 5
ENDMDL
MODEL 5
REMARK VINA RESULT:      -5.2      3.930      7.615
REMARK  5 active torsions:
REMARK  status: ('A' for Active; 'I' for Inactive)
REMARK    1  A    between atoms: N2_2  and  C5_5 
REMARK    2  A    between atoms: C5_5  and  C6_6 
REMARK    3  A    between atoms: C6_6  and  O8_7 
REMARK    4  A    between atoms: C6_6  and  C9_8 
REMARK    5  A    between atoms: C13_12  and  O14_13 
ROOT
ATOM      1  C9  <0> d   1      18.957  -0.780   7.319  0.00  0.00    -0.025 A 
ATOM      2  C10 <0> d   1      18.883   0.573   7.040  0.00  0.00     0.010 A 
ATOM      3  C11 <0> d   1      19.012   1.021   5.739  0.00  0.00     0.003 A 
ATOM      4  C12 <0> d   1      19.216   0.118   4.713  0.00  0.00     0.036 A 
ATOM      5  C13 <0> d   1      19.290  -1.240   4.989  0.00  0.00     0.066 A 
ATOM      6  C15 <0> d   1      19.165  -1.686   6.298  0.00  0.00     0.046 A 
ENDROOT
BRANCH   1   7
ATOM      7  C6  <0> d   1      18.815  -1.264   8.739  0.00  0.00     0.176 C 
BRANCH   7   8
ATOM      8  C5  <0> d   1      19.253  -0.158   9.702  0.00  0.00     0.268 C 
BRANCH   8   9
ATOM      9  N2  <0> d   1      20.660  -0.360  10.071  0.00  0.00    -0.076 N 
ATOM     10  C1  <0> d   1      20.819  -0.165  11.518  0.00  0.00     0.267 C 
ATOM     11  H3  <0> d   1      21.235   0.305   9.576  0.00  0.00     0.276 HD
ATOM     12  H4  <0> d   1      20.942  -1.298   9.825  0.00  0.00     0.276 HD
ENDBRANCH   8   9
ENDBRANCH   7   8
BRANCH   7  13
ATOM     13  O8  <0> d   1      19.637  -2.418   8.933  0.00  0.00    -0.389 OA
ATOM     14  H21 <0> d   1      19.264  -3.231   8.568  0.00  0.00     0.210 HD
ENDBRANCH   7  13
ENDBRANCH   1   7
BRANCH   5  15
ATOM     15  O14 <0> d   1      19.490  -2.130   3.983  0.00  0.00    -0.361 OA
ATOM     16  H25 <0> d   1      20.235  -2.728   4.129  0.00  0.00     0.217 HD
ENDBRANCH   5  15
TORSDOF 5
ENDMDL
MODEL 6
REMARK VINA RESULT:      -5.1      2.714      4.383
REMARK  5 active torsions:
REMARK  status: ('A' for Active; 'I' for Inactive)
REMARK    1  A    between atoms: N2_2  and  C5_5 
REMARK    2  A    between atoms: C5_5  and  C6_6 
REMARK    3  A    between atoms: C6_6  and  O8_7 
REMARK    4  A    between atoms: C6_6  and  C9_8 
REMARK    5  A    between atoms: C13_12  and  O14_13 
ROOT
ATOM      1  C9  <0> d   1      19.692   1.482  11.409  0.00  0.00    -0.025 A 
ATOM      2  C10 <0> d   1      19.320   1.302  10.089  0.00  0.00     0.010 A 
ATOM      3  C11 <0> d   1      18.649   2.304   9.414  0.00  0.00     0.003 A 
ATOM      4  C12 <0> d   1      18.347   3.489  10.057  0.00  0.00     0.036 A 
ATOM      5  C13 <0> d   1      18.720   3.674  11.381  0.00  0.00     0.066 A 
ATOM      6  C15 <0> d   1      19.388   2.664  12.058  0.00  0.00     0.046 A 
ENDROOT
BRANCH   1   7
ATOM      7  C6  <0> d   1      20.424   0.387  12.142  0.00  0.00     0.176 C 
BRANCH   7   8
ATOM      8  C5  <0> d   1      19.936   0.328  13.591  0.00  0.00     0.268 C 
BRANCH   8   9
ATOM      9  N2  <0> d   1      19.900  -1.070  14.038  0.00  0.00    -0.076 N 
ATOM     10  C1  <0> d   1      18.643  -1.322  14.756  0.00  0.00     0.267 C 
ATOM     11  H3  <0> d   1      20.680  -1.247  14.653  0.00  0.00     0.276 HD
ATOM     12  H4  <0> d   1      19.957  -1.682  13.237  0.00  0.00     0.276 HD
ENDBRANCH   8   9
ENDBRANCH   7   8
BRANCH   7  13
ATOM     13  O8  <0> d   1      21.828   0.657  12.123  0.00  0.00    -0.389 OA
ATOM     14  H21 <0> d   1      22.248   0.609  12.992  0.00  0.00     0.210 HD
ENDBRANCH   7  13
ENDBRANCH   1   7
BRANCH   5  15
ATOM     15  O14 <0> d   1      18.425   4.839  12.016  0.00  0.00    -0.361 OA
ATOM     16  H25 <0> d   1      18.822   4.920  12.893  0.00  0.00     0.217 HD
ENDBRANCH   5  15
TORSDOF 5
ENDMDL
MODEL 7
REMARK VINA RESULT:      -5.1      3.482      6.134
REMARK  5 active torsions:
REMARK  status: ('A' for Active; 'I' for Inactive)
REMARK    1  A    between atoms: N2_2  and  C5_5 
REMARK    2  A    between atoms: C5_5  and  C6_6 
REMARK    3  A    between atoms: C6_6  and  O8_7 
REMARK    4  A    between atoms: C6_6  and  C9_8 
REMARK    5  A    between atoms: C13_12  and  O14_13 
ROOT
ATOM      1  C9  <0> d   1      18.666   1.782   9.115  0.00  0.00    -0.025 A 
ATOM      2  C10 <0> d   1      17.759   0.805   9.486  0.00  0.00     0.010 A 
ATOM      3  C11 <0> d   1      17.370  -0.162   8.578  0.00  0.00     0.003 A 
ATOM      4  C12 <0> d   1      17.886  -0.154   7.296  0.00  0.00     0.036 A 
ATOM      5  C13 <0> d   1      18.797   0.824   6.921  0.00  0.00     0.066 A 
ATOM      6  C15 <0> d   1      19.181   1.796   7.834  0.00  0.00     0.046 A 
ENDROOT
BRANCH   1   7
ATOM      7  C6  <0> d   1      19.087   2.834  10.109  0.00  0.00     0.176 C 
BRANCH   7   8
ATOM      8  C5  <0> d   1      19.154   2.217  11.508  0.00  0.00     0.268 C 
BRANCH   8   9
ATOM      9  N2  <0> d   1      20.552   1.911  11.841  0.00  0.00    -0.076 N 
ATOM     10  C1  <0> d   1      20.674   0.487  12.178  0.00  0.00     0.267 C 
ATOM     11  H3  <0> d   1      20.839   2.470  12.630  0.00  0.00     0.276 HD
ATOM     12  H4  <0> d   1      21.140   2.121  11.048  0.00  0.00     0.276 HD
ENDBRANCH   8   9
ENDBRANCH   7   8
BRANCH   7  13
ATOM     13  O8  <0> d   1      18.137   3.901  10.105  0.00  0.00    -0.389 OA
ATOM     14  H21 <0> d   1      17.409   3.781  10.729  0.00  0.00     0.210 HD
ENDBRANCH   7  13
ENDBRANCH   1   7
BRANCH   5  15
ATOM     15  O14 <0> d   1      19.307   0.833   5.662  0.00  0.00    -0.361 OA
ATOM     16  H25 <0> d   1      19.961   0.140   5.497  0.00  0.00     0.217 HD
ENDBRANCH   5  15
TORSDOF 5
ENDMDL
MODEL 8
REMARK VINA RESULT:      -5.1      3.433      4.369
REMARK  5 active torsions:
REMARK  status: ('A' for Active; 'I' for Inactive)
REMARK    1  A    between atoms: N2_2  and  C5_5 
REMARK    2  A    between atoms: C5_5  and  C6_6 
REMARK    3  A    between atoms: C6_6  and  O8_7 
REMARK    4  A    between atoms: C6_6  and  C9_8 
REMARK    5  A    between atoms: C13_12  and  O14_13 
ROOT
ATOM      1  C9  <0> d   1      18.710   3.569  11.765  0.00  0.00    -0.025 A 
ATOM      2  C10 <0> d   1      18.030   4.188  10.732  0.00  0.00     0.010 A 
ATOM      3  C11 <0> d   1      16.947   5.003  11.003  0.00  0.00     0.003 A 
ATOM      4  C12 <0> d   1      16.540   5.200  12.309  0.00  0.00     0.036 A 
ATOM      5  C13 <0> d   1      17.220   4.581  13.348  0.00  0.00     0.066 A 
ATOM      6  C15 <0> d   1      18.304   3.759  13.071  0.00  0.00     0.046 A 
ENDROOT
BRANCH   1   7
ATOM      7  C6  <0> d   1      19.890   2.681  11.464  0.00  0.00     0.176 C 
BRANCH   7   8
ATOM      8  C5  <0> d   1      19.884   1.484  12.417  0.00  0.00     0.268 C 
BRANCH   8   9
ATOM      9  N2  <0> d   1      21.073   0.657  12.171  0.00  0.00    -0.076 N 
ATOM     10  C1  <0> d   1      20.776  -0.328  11.123  0.00  0.00     0.267 C 
ATOM     11  H3  <0> d   1      21.330   0.178  13.021  0.00  0.00     0.276 HD
ATOM     12  H4  <0> d   1      21.837   1.246  11.873  0.00  0.00     0.276 HD
ENDBRANCH   8   9
ENDBRANCH   7   8
BRANCH   7  13
ATOM     13  O8  <0> d   1      21.100   3.422  11.639  0.00  0.00    -0.389 OA
ATOM     14  H21 <0> d   1      21.002   4.209  12.192  0.00  0.00     0.210 HD
ENDBRANCH   7  13
ENDBRANCH   1   7
BRANCH   5  15
ATOM     15  O14 <0> d   1      16.823   4.774  14.633  0.00  0.00    -0.361 OA
ATOM     16  H25 <0> d   1      17.477   4.503  15.292  0.00  0.00     0.217 HD
ENDBRANCH   5  15
TORSDOF 5
ENDMDL
MODEL 9
REMARK VINA RESULT:      -5.0      3.490      6.096
REMARK  5 active torsions:
REMARK  status: ('A' for Active; 'I' for Inactive)
REMARK    1  A    between atoms: N2_2  and  C5_5 
REMARK    2  A    between atoms: C5_5  and  C6_6 
REMARK    3  A    between atoms: C6_6  and  O8_7 
REMARK    4  A    between atoms: C6_6  and  C9_8 
REMARK    5  A    between atoms: C13_12  and  O14_13 
ROOT
ATOM      1  C9  <0> d   1      17.819   0.840   9.851  0.00  0.00    -0.025 A 
ATOM      2  C10 <0> d   1      18.776   1.762   9.468  0.00  0.00     0.010 A 
ATOM      3  C11 <0> d   1      19.210   1.807   8.156  0.00  0.00     0.003 A 
ATOM      4  C12 <0> d   1      18.690   0.929   7.225  0.00  0.00     0.036 A 
ATOM      5  C13 <0> d   1      17.729   0.003   7.606  0.00  0.00     0.066 A 
ATOM      6  C15 <0> d   1      17.299  -0.043   8.924  0.00  0.00     0.046 A 
ENDROOT
BRANCH   1   7
ATOM      7  C6  <0> d   1      17.347   0.795  11.282  0.00  0.00     0.176 C 
BRANCH   7   8
ATOM      8  C5  <0> d   1      18.376   0.049  12.135  0.00  0.00     0.268 C 
BRANCH   8   9
ATOM      9  N2  <0> d   1      17.763  -1.166  12.688  0.00  0.00    -0.076 N 
ATOM     10  C1  <0> d   1      18.690  -2.295  12.533  0.00  0.00     0.267 C 
ATOM     11  H3  <0> d   1      16.905  -1.364  12.195  0.00  0.00     0.276 HD
ATOM     12  H4  <0> d   1      17.564  -1.027  13.668  0.00  0.00     0.276 HD
ENDBRANCH   8   9
ENDBRANCH   7   8
BRANCH   7  13
ATOM     13  O8  <0> d   1      16.091   0.116  11.348  0.00  0.00    -0.389 OA
ATOM     14  H21 <0> d   1      15.325   0.703  11.297  0.00  0.00     0.210 HD
ENDBRANCH   7  13
ENDBRANCH   1   7
BRANCH   5  15
ATOM     15  O14 <0> d   1      17.215  -0.861   6.691  0.00  0.00    -0.361 OA
ATOM     16  H25 <0> d   1      17.120  -0.485   5.805  0.00  0.00     0.217 HD
ENDBRANCH   5  15
TORSDOF 5
ENDMDL
