MODEL 1
REMARK VINA RESULT:      -4.9      0.000      0.000
REMARK  7 active torsions:
REMARK  status: ('A' for Active; 'I' for Inactive)
REMARK    1  A    between atoms: N1_1  and  C2_2 
REMARK    2  A    between atoms: C2_2  and  C3_3 
REMARK    3  A    between atoms: C2_2  and  C10_10 
REMARK    4  A    between atoms: C2_2  and  C13_13 
REMARK    5  A    between atoms: C3_3  and  C4_4 
REMARK    6  A    between atoms: C4_4  and  C5_5 
REMARK    7  A    between atoms: C5_5  and  N6_6 
ROOT
ATOM      1  C2  <0> d   1      18.562  -0.935   6.775  0.00  0.00     0.298 C 
ENDROOT
BRANCH   1   2
ATOM      2  N1  <0> d   1      17.670  -1.893   7.443  0.00  0.00     0.104 N 
ATOM      3  H16 <0> d   1      17.829  -2.831   7.106  0.00  0.00     0.314 HD
ATOM      4  H17 <0> d   1      17.775  -1.846   8.446  0.00  0.00     0.314 HD
ENDBRANCH   1   2
BRANCH   1   5
ATOM      5  C3  <0> d   1      19.408  -0.209   7.823  0.00  0.00     0.060 C 
BRANCH   5   6
ATOM      6  C4  <0> d   1      19.467  -1.048   9.101  0.00  0.00     0.030 C 
BRANCH   6   7
ATOM      7  C5  <0> d   1      19.957  -0.178  10.260  0.00  0.00     0.230 C 
BRANCH   7   8
ATOM      8  N6  <0> d   1      21.307  -0.603  10.656  0.00  0.00    -0.079 N 
ATOM      9  H7  <0> d   1      21.270  -1.544  11.019  0.00  0.00     0.274 HD
ATOM     10  H8  <0> d   1      21.916  -0.577   9.852  0.00  0.00     0.274 HD
ATOM     11  H9  <0> d   1      21.661   0.018  11.367  0.00  0.00     0.274 HD
ENDBRANCH   7   8
ENDBRANCH   6   7
ENDBRANCH   5   6
ENDBRANCH   1   5
BRANCH   1  12
ATOM     12  C10 <0> d   1      19.467  -1.672   5.822  0.00  0.00     0.219 C 
ATOM     13  O11 <0> d   1      19.859  -1.125   4.806  0.00  0.00    -0.646 OA
ATOM     14  O12 <0> d   1      19.806  -2.818   6.067  0.00  0.00    -0.646 OA
ENDBRANCH   1  12
BRANCH   1  15
ATOM     15  C13 <0> d   1      17.725   0.084   5.999  0.00  0.00     0.402 C 
ATOM     16  F14 <0> d   1      16.404   0.050   6.458  0.00  0.00    -0.211 F 
ATOM     17  F15 <0> d   1      18.254   1.366   6.194  0.00  0.00    -0.211 F 
ENDBRANCH   1  15
TORSDOF 7
ENDMDL
MODEL 2
REMARK VINA RESULT:      -4.8      9.658     10.303
REMARK  7 active torsions:
REMARK  status: ('A' for Active; 'I' for Inactive)
REMARK    1  A    between atoms: N1_1  and  C2_2 
REMARK    2  A    between atoms: C2_2  and  C3_3 
REMARK    3  A    between atoms: C2_2  and  C10_10 
REMARK    4  A    between atoms: C2_2  and  C13_13 
REMARK    5  A    between atoms: C3_3  and  C4_4 
REMARK    6  A    between atoms: C4_4  and  C5_5 
REMARK    7  A    between atoms: C5_5  and  N6_6 
ROOT
ATOM      1  C2  <0> d   1      18.413   0.204  16.679  0.00  0.00     0.298 C 
ENDROOT
BRANCH   1   2
ATOM      2  N1  <0> d   1      16.984   0.521  16.565  0.00  0.00     0.104 N 
ATOM      3  H16 <0> d   1      16.729   1.273  17.188  0.00  0.00     0.314 HD
ATOM      4  H17 <0> d   1      16.736   0.741  15.611  0.00  0.00     0.314 HD
ENDBRANCH   1   2
BRANCH   1   5
ATOM      5  C3  <0> d   1      19.208   1.070  15.699  0.00  0.00     0.060 C 
BRANCH   5   6
ATOM      6  C4  <0> d   1      18.269   2.078  15.033  0.00  0.00     0.030 C 
BRANCH   6   7
ATOM      7  C5  <0> d   1      18.720   3.499  15.376  0.00  0.00     0.230 C 
BRANCH   7   8
ATOM      8  N6  <0> d   1      19.960   3.442  16.163  0.00  0.00    -0.079 N 
ATOM      9  H7  <0> d   1      20.346   2.511  16.116  0.00  0.00     0.274 HD
ATOM     10  H8  <0> d   1      20.626   4.102  15.789  0.00  0.00     0.274 HD
ATOM     11  H9  <0> d   1      19.759   3.675  17.124  0.00  0.00     0.274 HD
ENDBRANCH   7   8
ENDBRANCH   6   7
ENDBRANCH   5   6
ENDBRANCH   1   5
BRANCH   1  12
ATOM     12  C10 <0> d   1      18.878   0.481  18.085  0.00  0.00     0.219 C 
ATOM     13  O11 <0> d   1      18.245   0.048  19.033  0.00  0.00    -0.646 OA
ATOM     14  O12 <0> d   1      19.887   1.138  18.275  0.00  0.00    -0.646 OA
ENDBRANCH   1  12
BRANCH   1  15
ATOM     15  C13 <0> d   1      18.635  -1.274  16.349  0.00  0.00     0.402 C 
ATOM     16  F14 <0> d   1      19.709  -1.764  17.100  0.00  0.00    -0.211 F 
ATOM     17  F15 <0> d   1      17.479  -1.999  16.661  0.00  0.00    -0.211 F 
ENDBRANCH   1  15
TORSDOF 7
ENDMDL
MODEL 3
REMARK VINA RESULT:      -4.8      8.191      9.640
REMARK  7 active torsions:
REMARK  status: ('A' for Active; 'I' for Inactive)
REMARK    1  A    between atoms: N1_1  and  C2_2 
REMARK    2  A    between atoms: C2_2  and  C3_3 
REMARK    3  A    between atoms: C2_2  and  C10_10 
REMARK    4  A    between atoms: C2_2  and  C13_13 
REMARK    5  A    between atoms: C3_3  and  C4_4 
REMARK    6  A    between atoms: C4_4  and  C5_5 
REMARK    7  A    between atoms: C5_5  and  N6_6 
ROOT
ATOM      1  C2  <0> d   1      18.442   0.212  16.273  0.00  0.00     0.298 C 
ENDROOT
BRANCH   1   2
ATOM      2  N1  <0> d   1      17.020   0.469  16.006  0.00  0.00     0.104 N 
ATOM      3  H16 <0> d   1      16.885   0.814  15.068  0.00  0.00     0.314 HD
ATOM      4  H17 <0> d   1      16.465  -0.358  16.171  0.00  0.00     0.314 HD
ENDBRANCH   1   2
BRANCH   1   5
ATOM      5  C3  <0> d   1      19.296   0.945  15.236  0.00  0.00     0.060 C 
BRANCH   5   6
ATOM      6  C4  <0> d   1      19.710  -0.032  14.134  0.00  0.00     0.030 C 
BRANCH   6   7
ATOM      7  C5  <0> d   1      19.949   0.738  12.833  0.00  0.00     0.230 C 
BRANCH   7   8
ATOM      8  N6  <0> d   1      21.339   0.545  12.399  0.00  0.00    -0.079 N 
ATOM      9  H7  <0> d   1      21.357   0.327  11.414  0.00  0.00     0.274 HD
ATOM     10  H8  <0> d   1      21.864   1.391  12.566  0.00  0.00     0.274 HD
ATOM     11  H9  <0> d   1      21.753  -0.214  12.920  0.00  0.00     0.274 HD
ENDBRANCH   7   8
ENDBRANCH   6   7
ENDBRANCH   5   6
ENDBRANCH   1   5
BRANCH   1  12
ATOM     12  C10 <0> d   1      18.791   0.708  17.652  0.00  0.00     0.219 C 
ATOM     13  O11 <0> d   1      18.115   0.373  18.610  0.00  0.00    -0.646 OA
ATOM     14  O12 <0> d   1      19.749   1.445  17.810  0.00  0.00    -0.646 OA
ENDBRANCH   1  12
BRANCH   1  15
ATOM     15  C13 <0> d   1      18.713  -1.291  16.187  0.00  0.00     0.402 C 
ATOM     16  F14 <0> d   1      19.736  -1.633  17.077  0.00  0.00    -0.211 F 
ATOM     17  F15 <0> d   1      17.550  -1.994  16.520  0.00  0.00    -0.211 F 
ENDBRANCH   1  15
TORSDOF 7
ENDMDL
MODEL 4
REMARK VINA RESULT:      -4.7      4.965      5.745
REMARK  7 active torsions:
REMARK  status: ('A' for Active; 'I' for Inactive)
REMARK    1  A    between atoms: N1_1  and  C2_2 
REMARK    2  A    between atoms: C2_2  and  C3_3 
REMARK    3  A    between atoms: C2_2  and  C10_10 
REMARK    4  A    between atoms: C2_2  and  C13_13 
REMARK    5  A    between atoms: C3_3  and  C4_4 
REMARK    6  A    between atoms: C4_4  and  C5_5 
REMARK    7  A    between atoms: C5_5  and  N6_6 
ROOT
ATOM      1  C2  <0> d   1      19.095   2.581  11.199  0.00  0.00     0.298 C 
ENDROOT
BRANCH   1   2
ATOM      2  N1  <0> d   1      20.484   2.933  11.522  0.00  0.00     0.104 N 
ATOM      3  H16 <0> d   1      21.013   3.125  10.684  0.00  0.00     0.314 HD
ATOM      4  H17 <0> d   1      20.522   3.714  12.160  0.00  0.00     0.314 HD
ENDBRANCH   1   2
BRANCH   1   5
ATOM      5  C3  <0> d   1      18.705   1.305  11.949  0.00  0.00     0.060 C 
BRANCH   5   6
ATOM      6  C4  <0> d   1      19.970   0.559  12.379  0.00  0.00     0.030 C 
BRANCH   6   7
ATOM      7  C5  <0> d   1      20.153  -0.681  11.502  0.00  0.00     0.230 C 
BRANCH   7   8
ATOM      8  N6  <0> d   1      21.437  -0.594  10.794  0.00  0.00    -0.079 N 
ATOM      9  H7  <0> d   1      21.416  -1.194   9.982  0.00  0.00     0.274 HD
ATOM     10  H8  <0> d   1      21.597   0.360  10.503  0.00  0.00     0.274 HD
ATOM     11  H9  <0> d   1      22.182  -0.887  11.409  0.00  0.00     0.274 HD
ENDBRANCH   7   8
ENDBRANCH   6   7
ENDBRANCH   5   6
ENDBRANCH   1   5
BRANCH   1  12
ATOM     12  C10 <0> d   1      18.183   3.706  11.614  0.00  0.00     0.219 C 
ATOM     13  O11 <0> d   1      16.974   3.555  11.582  0.00  0.00    -0.646 OA
ATOM     14  O12 <0> d   1      18.655   4.769  11.982  0.00  0.00    -0.646 OA
ENDBRANCH   1  12
BRANCH   1  15
ATOM     15  C13 <0> d   1      18.965   2.348   9.693  0.00  0.00     0.402 C 
ATOM     16  F14 <0> d   1      17.968   1.397   9.451  0.00  0.00    -0.211 F 
ATOM     17  F15 <0> d   1      18.626   3.551   9.063  0.00  0.00    -0.211 F 
ENDBRANCH   1  15
TORSDOF 7
ENDMDL
MODEL 5
REMARK VINA RESULT:      -4.6      2.497      2.854
REMARK  7 active torsions:
REMARK  status: ('A' for Active; 'I' for Inactive)
REMARK    1  A    between atoms: N1_1  and  C2_2 
REMARK    2  A    between atoms: C2_2  and  C3_3 
REMARK    3  A    between atoms: C2_2  and  C10_10 
REMARK    4  A    between atoms: C2_2  and  C13_13 
REMARK    5  A    between atoms: C3_3  and  C4_4 
REMARK    6  A    between atoms: C4_4  and  C5_5 
REMARK    7  A    between atoms: C5_5  and  N6_6 
ROOT
ATOM      1  C2  <0> d   1      18.674   0.573   8.397  0.00  0.00     0.298 C 
ENDROOT
BRANCH   1   2
ATOM      2  N1  <0> d   1      17.391   0.392   9.090  0.00  0.00     0.104 N 
ATOM      3  H16 <0> d   1      17.516   0.405  10.091  0.00  0.00     0.314 HD
ATOM      4  H17 <0> d   1      16.721   1.090   8.800  0.00  0.00     0.314 HD
ENDBRANCH   1   2
BRANCH   1   5
ATOM      5  C3  <0> d   1      19.289   1.913   8.803  0.00  0.00     0.060 C 
BRANCH   5   6
ATOM      6  C4  <0> d   1      18.371   2.611   9.809  0.00  0.00     0.030 C 
BRANCH   6   7
ATOM      7  C5  <0> d   1      19.203   3.124  10.987  0.00  0.00     0.230 C 
BRANCH   7   8
ATOM      8  N6  <0> d   1      20.275   2.164  11.284  0.00  0.00    -0.079 N 
ATOM      9  H7  <0> d   1      19.872   1.305  11.628  0.00  0.00     0.274 HD
ATOM     10  H8  <0> d   1      20.799   1.975  10.442  0.00  0.00     0.274 HD
ATOM     11  H9  <0> d   1      20.890   2.551  11.984  0.00  0.00     0.274 HD
ENDBRANCH   7   8
ENDBRANCH   6   7
ENDBRANCH   5   6
ENDBRANCH   1   5
BRANCH   1  12
ATOM     12  C10 <0> d   1      19.610  -0.545   8.775  0.00  0.00     0.219 C 
ATOM     13  O11 <0> d   1      20.418  -0.386   9.674  0.00  0.00    -0.646 OA
ATOM     14  O12 <0> d   1      19.560  -1.610   8.182  0.00  0.00    -0.646 OA
ENDBRANCH   1  12
BRANCH   1  15
ATOM     15  C13 <0> d   1      18.443   0.555   6.884  0.00  0.00     0.402 C 
ATOM     16  F14 <0> d   1      17.095   0.289   6.621  0.00  0.00    -0.211 F 
ATOM     17  F15 <0> d   1      18.787   1.800   6.346  0.00  0.00    -0.211 F 
ENDBRANCH   1  15
TORSDOF 7
ENDMDL
MODEL 6
REMARK VINA RESULT:      -4.5      4.643      5.238
REMARK  7 active torsions:
REMARK  status: ('A' for Active; 'I' for Inactive)
REMARK    1  A    between atoms: N1_1  and  C2_2 
REMARK    2  A    between atoms: C2_2  and  C3_3 
REMARK    3  A    between atoms: C2_2  and  C10_10 
REMARK    4  A    between atoms: C2_2  and  C13_13 
REMARK    5  A    between atoms: C3_3  and  C4_4 
REMARK    6  A    between atoms: C4_4  and  C5_5 
REMARK    7  A    between atoms: C5_5  and  N6_6 
ROOT
ATOM      1  C2  <0> d   1      18.973   1.874  10.584  0.00  0.00     0.298 C 
ENDROOT
BRANCH   1   2
ATOM      2  N1  <0> d   1      19.991   2.869  10.945  0.00  0.00     0.104 N 
ATOM      3  H16 <0> d   1      19.851   3.204  11.887  0.00  0.00     0.314 HD
ATOM      4  H17 <0> d   1      20.921   2.496  10.828  0.00  0.00     0.314 HD
ENDBRANCH   1   2
BRANCH   1   5
ATOM      5  C3  <0> d   1      19.418   0.491  11.066  0.00  0.00     0.060 C 
BRANCH   5   6
ATOM      6  C4  <0> d   1      20.580   0.644  12.050  0.00  0.00     0.030 C 
BRANCH   6   7
ATOM      7  C5  <0> d   1      20.121   0.225  13.449  0.00  0.00     0.230 C 
BRANCH   7   8
ATOM      8  N6  <0> d   1      19.619   1.402  14.172  0.00  0.00    -0.079 N 
ATOM      9  H7  <0> d   1      19.339   1.131  15.102  0.00  0.00     0.274 HD
ATOM     10  H8  <0> d   1      20.348   2.097  14.229  0.00  0.00     0.274 HD
ATOM     11  H9  <0> d   1      18.825   1.786  13.680  0.00  0.00     0.274 HD
ENDBRANCH   7   8
ENDBRANCH   6   7
ENDBRANCH   5   6
ENDBRANCH   1   5
BRANCH   1  12
ATOM     12  C10 <0> d   1      17.664   2.235  11.235  0.00  0.00     0.219 C 
ATOM     13  O11 <0> d   1      17.111   3.284  10.953  0.00  0.00    -0.646 OA
ATOM     14  O12 <0> d   1      17.157   1.478  12.045  0.00  0.00    -0.646 OA
ENDBRANCH   1  12
BRANCH   1  15
ATOM     15  C13 <0> d   1      18.799   1.852   9.064  0.00  0.00     0.402 C 
ATOM     16  F14 <0> d   1      19.987   1.422   8.463  0.00  0.00    -0.211 F 
ATOM     17  F15 <0> d   1      17.761   0.976   8.727  0.00  0.00    -0.211 F 
ENDBRANCH   1  15
TORSDOF 7
ENDMDL
MODEL 7
REMARK VINA RESULT:      -4.5      5.294      6.237
REMARK  7 active torsions:
REMARK  status: ('A' for Active; 'I' for Inactive)
REMARK    1  A    between atoms: N1_1  and  C2_2 
REMARK    2  A    between atoms: C2_2  and  C3_3 
REMARK    3  A    between atoms: C2_2  and  C10_10 
REMARK    4  A    between atoms: C2_2  and  C13_13 
REMARK    5  A    between atoms: C3_3  and  C4_4 
REMARK    6  A    between atoms: C4_4  and  C5_5 
REMARK    7  A    between atoms: C5_5  and  N6_6 
ROOT
ATOM      1  C2  <0> d   1      18.274   3.175  10.850  0.00  0.00     0.298 C 
ENDROOT
BRANCH   1   2
ATOM      2  N1  <0> d   1      17.488   2.082  11.436  0.00  0.00     0.104 N 
ATOM      3  H16 <0> d   1      17.261   1.386  10.741  0.00  0.00     0.314 HD
ATOM      4  H17 <0> d   1      17.971   1.667  12.219  0.00  0.00     0.314 HD
ENDBRANCH   1   2
BRANCH   1   5
ATOM      5  C3  <0> d   1      18.928   2.695   9.553  0.00  0.00     0.060 C 
BRANCH   5   6
ATOM      6  C4  <0> d   1      18.365   1.324   9.175  0.00  0.00     0.030 C 
BRANCH   6   7
ATOM      7  C5  <0> d   1      19.515   0.383   8.812  0.00  0.00     0.230 C 
BRANCH   7   8
ATOM      8  N6  <0> d   1      20.403   0.224   9.971  0.00  0.00    -0.079 N 
ATOM      9  H7  <0> d   1      19.914  -0.269  10.704  0.00  0.00     0.274 HD
ATOM     10  H8  <0> d   1      21.221  -0.302   9.700  0.00  0.00     0.274 HD
ATOM     11  H9  <0> d   1      20.684   1.133  10.307  0.00  0.00     0.274 HD
ENDBRANCH   7   8
ENDBRANCH   6   7
ENDBRANCH   5   6
ENDBRANCH   1   5
BRANCH   1  12
ATOM     12  C10 <0> d   1      17.368   4.342  10.554  0.00  0.00     0.219 C 
ATOM     13  O11 <0> d   1      16.379   4.536  11.240  0.00  0.00    -0.646 OA
ATOM     14  O12 <0> d   1      17.624   5.092   9.627  0.00  0.00    -0.646 OA
ENDBRANCH   1  12
BRANCH   1  15
ATOM     15  C13 <0> d   1      19.359   3.609  11.838  0.00  0.00     0.402 C 
ATOM     16  F14 <0> d   1      20.620   3.328  11.301  0.00  0.00    -0.211 F 
ATOM     17  F15 <0> d   1      19.249   4.984  12.076  0.00  0.00    -0.211 F 
ENDBRANCH   1  15
TORSDOF 7
ENDMDL
MODEL 8
REMARK VINA RESULT:      -4.5      4.049      4.882
REMARK  7 active torsions:
REMARK  status: ('A' for Active; 'I' for Inactive)
REMARK    1  A    between atoms: N1_1  and  C2_2 
REMARK    2  A    between atoms: C2_2  and  C3_3 
REMARK    3  A    between atoms: C2_2  and  C10_10 
REMARK    4  A    between atoms: C2_2  and  C13_13 
REMARK    5  A    between atoms: C3_3  and  C4_4 
REMARK    6  A    between atoms: C4_4  and  C5_5 
REMARK    7  A    between atoms: C5_5  and  N6_6 
ROOT
ATOM      1  C2  <0> d   1      19.217  -2.293  11.102  0.00  0.00     0.298 C 
ENDROOT
BRANCH   1   2
ATOM      2  N1  <0> d   1      20.557  -2.741  11.504  0.00  0.00     0.104 N 
ATOM      3  H16 <0> d   1      21.227  -2.586  10.765  0.00  0.00     0.314 HD
ATOM      4  H17 <0> d   1      20.850  -2.290  12.358  0.00  0.00     0.314 HD
ENDBRANCH   1   2
BRANCH   1   5
ATOM      5  C3  <0> d   1      18.685  -1.291  12.129  0.00  0.00     0.060 C 
BRANCH   5   6
ATOM      6  C4  <0> d   1      19.796  -0.938  13.120  0.00  0.00     0.030 C 
BRANCH   6   7
ATOM      7  C5  <0> d   1      20.221   0.517  12.913  0.00  0.00     0.230 C 
BRANCH   7   8
ATOM      8  N6  <0> d   1      21.470   0.558  12.140  0.00  0.00    -0.079 N 
ATOM      9  H7  <0> d   1      22.101   1.226  12.556  0.00  0.00     0.274 HD
ATOM     10  H8  <0> d   1      21.897  -0.357  12.144  0.00  0.00     0.274 HD
ATOM     11  H9  <0> d   1      21.269   0.831  11.190  0.00  0.00     0.274 HD
ENDBRANCH   7   8
ENDBRANCH   6   7
ENDBRANCH   5   6
ENDBRANCH   1   5
BRANCH   1  12
ATOM     12  C10 <0> d   1      19.293  -1.634   9.750  0.00  0.00     0.219 C 
ATOM     13  O11 <0> d   1      19.979  -0.639   9.594  0.00  0.00    -0.646 OA
ATOM     14  O12 <0> d   1      18.666  -2.095   8.811  0.00  0.00    -0.646 OA
ENDBRANCH   1  12
BRANCH   1  15
ATOM     15  C13 <0> d   1      18.277  -3.498  11.031  0.00  0.00     0.402 C 
ATOM     16  F14 <0> d   1      18.781  -4.532  11.828  0.00  0.00    -0.211 F 
ATOM     17  F15 <0> d   1      17.009  -3.128  11.494  0.00  0.00    -0.211 F 
ENDBRANCH   1  15
TORSDOF 7
ENDMDL
MODEL 9
REMARK VINA RESULT:      -4.4      3.688      4.775
REMARK  7 active torsions:
REMARK  status: ('A' for Active; 'I' for Inactive)
REMARK    1  A    between atoms: N1_1  and  C2_2 
REMARK    2  A    between atoms: C2_2  and  C3_3 
REMARK    3  A    between atoms: C2_2  and  C10_10 
REMARK    4  A    between atoms: C2_2  and  C13_13 
REMARK    5  A    between atoms: C3_3  and  C4_4 
REMARK    6  A    between atoms: C4_4  and  C5_5 
REMARK    7  A    between atoms: C5_5  and  N6_6 
ROOT
ATOM      1  C2  <0> d   1      20.070  -0.657  10.627  0.00  0.00     0.298 C 
ENDROOT
BRANCH   1   2
ATOM      2  N1  <0> d   1      21.518  -0.657  10.879  0.00  0.00     0.104 N 
ATOM      3  H16 <0> d   1      21.713  -0.601  11.867  0.00  0.00     0.314 HD
ATOM      4  H17 <0> d   1      21.957  -1.467  10.468  0.00  0.00     0.314 HD
ENDBRANCH   1   2
BRANCH   1   5
ATOM      5  C3  <0> d   1      19.376   0.258  11.638  0.00  0.00     0.060 C 
BRANCH   5   6
ATOM      6  C4  <0> d   1      20.298   0.481  12.840  0.00  0.00     0.030 C 
BRANCH   6   7
ATOM      7  C5  <0> d   1      19.610  -0.024  14.110  0.00  0.00     0.230 C 
BRANCH   7   8
ATOM      8  N6  <0> d   1      19.938  -1.442  14.313  0.00  0.00    -0.079 N 
ATOM      9  H7  <0> d   1      19.164  -1.906  14.763  0.00  0.00     0.274 HD
ATOM     10  H8  <0> d   1      20.118  -1.877  13.420  0.00  0.00     0.274 HD
ATOM     11  H9  <0> d   1      20.760  -1.517  14.895  0.00  0.00     0.274 HD
ENDBRANCH   7   8
ENDBRANCH   6   7
ENDBRANCH   5   6
ENDBRANCH   1   5
BRANCH   1  12
ATOM     12  C10 <0> d   1      19.804  -0.156   9.231  0.00  0.00     0.219 C 
ATOM     13  O11 <0> d   1      19.690   1.040   9.024  0.00  0.00    -0.646 OA
ATOM     14  O12 <0> d   1      19.702  -0.947   8.308  0.00  0.00    -0.646 OA
ENDBRANCH   1  12
BRANCH   1  15
ATOM     15  C13 <0> d   1      19.528  -2.080  10.770  0.00  0.00     0.402 C 
ATOM     16  F14 <0> d   1      20.472  -2.876  11.429  0.00  0.00    -0.211 F 
ATOM     17  F15 <0> d   1      18.341  -2.054  11.511  0.00  0.00    -0.211 F 
ENDBRANCH   1  15
TORSDOF 7
ENDMDL
