MODEL 1
REMARK VINA RESULT:      -6.2      0.000      0.000
REMARK  1 active torsions:
REMARK  status: ('A' for Active; 'I' for Inactive)
REMARK    1  A    between atoms: C4_3  and  C6_4 
ROOT
ATOM      1  C1  ZIN A   1      20.474  -0.209  10.974  0.00  0.00     0.043 C 
ATOM      2  C2  ZIN A   1      19.408   0.773  11.463  0.00  0.00     0.217 C 
ATOM      3  C4  ZIN A   1      19.215   1.877  10.420  0.00  0.00     0.184 C 
ATOM      4  O12 ZIN A   1      18.256   2.822  10.907  0.00  0.00    -0.377 OA
ATOM      5  C13 ZIN A   1      18.620   3.416  12.155  0.00  0.00     0.196 C 
ATOM      6  C14 ZIN A   1      18.814   2.315  13.202  0.00  0.00     0.261 C 
ATOM      7  N15 ZIN A   1      19.838   1.372  12.734  0.00  0.00    -0.066 N 
ATOM      8  H16 ZIN A   1      20.709   1.863  12.596  0.00  0.00     0.280 HD
ATOM      9  C17 ZIN A   1      20.025   0.315  13.736  0.00  0.00     0.270 C 
ENDROOT
BRANCH   3  10
ATOM     10  C6  ZIN A   1      18.716   1.272   9.133  0.00  0.00    -0.027 A 
ATOM     11  C11 ZIN A   1      19.313   1.613   7.933  0.00  0.00     0.010 A 
ATOM     12  C10 ZIN A   1      18.858   1.055   6.753  0.00  0.00     0.001 A 
ATOM     13  C9  ZIN A   1      17.803   0.163   6.771  0.00  0.00     0.000 A 
ATOM     14  C8  ZIN A   1      17.204  -0.174   7.970  0.00  0.00     0.001 A 
ATOM     15  C7  ZIN A   1      17.660   0.380   9.151  0.00  0.00     0.010 A 
ENDBRANCH   3  10
TORSDOF 1
ENDMDL
MODEL 2
REMARK VINA RESULT:      -6.0      1.328      2.282
REMARK  1 active torsions:
REMARK  status: ('A' for Active; 'I' for Inactive)
REMARK    1  A    between atoms: C4_3  and  C6_4 
ROOT
ATOM      1  C1  ZIN A   1      17.708   2.818  10.342  0.00  0.00     0.043 C 
ATOM      2  C2  ZIN A   1      18.913   1.911  10.602  0.00  0.00     0.217 C 
ATOM      3  C4  ZIN A   1      18.598   0.494  10.114  0.00  0.00     0.184 C 
ATOM      4  O12 ZIN A   1      19.706  -0.363  10.409  0.00  0.00    -0.377 OA
ATOM      5  C13 ZIN A   1      20.040  -0.409  11.798  0.00  0.00     0.196 C 
ATOM      6  C14 ZIN A   1      20.357   1.006  12.290  0.00  0.00     0.261 C 
ATOM      7  N15 ZIN A   1      19.201   1.878  12.042  0.00  0.00    -0.066 N 
ATOM      8  H16 ZIN A   1      18.398   1.521  12.538  0.00  0.00     0.280 HD
ATOM      9  C17 ZIN A   1      19.503   3.236  12.512  0.00  0.00     0.270 C 
ENDROOT
BRANCH   3  10
ATOM     10  C6  ZIN A   1      18.360   0.515   8.626  0.00  0.00    -0.027 A 
ATOM     11  C11 ZIN A   1      19.204   1.234   7.801  0.00  0.00     0.010 A 
ATOM     12  C10 ZIN A   1      18.988   1.250   6.436  0.00  0.00     0.001 A 
ATOM     13  C9  ZIN A   1      17.924   0.554   5.897  0.00  0.00     0.000 A 
ATOM     14  C8  ZIN A   1      17.077  -0.163   6.722  0.00  0.00     0.001 A 
ATOM     15  C7  ZIN A   1      17.295  -0.182   8.087  0.00  0.00     0.010 A 
ENDBRANCH   3  10
TORSDOF 1
ENDMDL
MODEL 3
REMARK VINA RESULT:      -5.8      3.049      6.078
REMARK  1 active torsions:
REMARK  status: ('A' for Active; 'I' for Inactive)
REMARK    1  A    between atoms: C4_3  and  C6_4 
ROOT
ATOM      1  C1  ZIN A   1      20.537   0.307  12.072  0.00  0.00     0.043 C 
ATOM      2  C2  ZIN A   1      19.496  -0.716  11.611  0.00  0.00     0.217 C 
ATOM      3  C4  ZIN A   1      19.327  -1.792  12.686  0.00  0.00     0.184 C 
ATOM      4  O12 ZIN A   1      18.394  -2.775  12.226  0.00  0.00    -0.377 OA
ATOM      5  C13 ZIN A   1      18.775  -3.397  10.997  0.00  0.00     0.196 C 
ATOM      6  C14 ZIN A   1      18.944  -2.323   9.918  0.00  0.00     0.261 C 
ATOM      7  N15 ZIN A   1      19.944  -1.342  10.359  0.00  0.00    -0.066 N 
ATOM      8  H16 ZIN A   1      20.826  -1.807  10.513  0.00  0.00     0.280 HD
ATOM      9  C17 ZIN A   1      20.107  -0.311   9.326  0.00  0.00     0.270 C 
ENDROOT
BRANCH   3  10
ATOM     10  C6  ZIN A   1      18.811  -1.161  13.954  0.00  0.00    -0.027 A 
ATOM     11  C11 ZIN A   1      17.798  -0.222  13.895  0.00  0.00     0.010 A 
ATOM     12  C10 ZIN A   1      17.322   0.354  15.058  0.00  0.00     0.001 A 
ATOM     13  C9  ZIN A   1      17.862  -0.004  16.278  0.00  0.00     0.000 A 
ATOM     14  C8  ZIN A   1      18.878  -0.940  16.336  0.00  0.00     0.001 A 
ATOM     15  C7  ZIN A   1      19.353  -1.519  15.174  0.00  0.00     0.010 A 
ENDBRANCH   3  10
TORSDOF 1
ENDMDL
MODEL 4
REMARK VINA RESULT:      -5.8      2.237      4.644
REMARK  1 active torsions:
REMARK  status: ('A' for Active; 'I' for Inactive)
REMARK    1  A    between atoms: C4_3  and  C6_4 
ROOT
ATOM      1  C1  ZIN A   1      17.078   0.236  11.071  0.00  0.00     0.043 C 
ATOM      2  C2  ZIN A   1      18.198   0.330  10.033  0.00  0.00     0.217 C 
ATOM      3  C4  ZIN A   1      18.157   1.706   9.362  0.00  0.00     0.184 C 
ATOM      4  O12 ZIN A   1      19.171   1.769   8.354  0.00  0.00    -0.377 OA
ATOM      5  C13 ZIN A   1      19.047   0.756   7.352  0.00  0.00     0.196 C 
ATOM      6  C14 ZIN A   1      19.089  -0.622   8.019  0.00  0.00     0.261 C 
ATOM      7  N15 ZIN A   1      18.013  -0.714   9.016  0.00  0.00    -0.066 N 
ATOM      8  H16 ZIN A   1      17.122  -0.587   8.561  0.00  0.00     0.280 HD
ATOM      9  C17 ZIN A   1      18.052  -2.035   9.657  0.00  0.00     0.270 C 
ENDROOT
BRANCH   3  10
ATOM     10  C6  ZIN A   1      18.405   2.777  10.393  0.00  0.00    -0.027 A 
ATOM     11  C11 ZIN A   1      17.446   3.744  10.628  0.00  0.00     0.010 A 
ATOM     12  C10 ZIN A   1      17.672   4.724  11.576  0.00  0.00     0.001 A 
ATOM     13  C9  ZIN A   1      18.858   4.741  12.284  0.00  0.00     0.000 A 
ATOM     14  C8  ZIN A   1      19.819   3.776  12.046  0.00  0.00     0.001 A 
ATOM     15  C7  ZIN A   1      19.592   2.793  11.100  0.00  0.00     0.010 A 
ENDBRANCH   3  10
TORSDOF 1
ENDMDL
MODEL 5
REMARK VINA RESULT:      -5.8      2.214      5.494
REMARK  1 active torsions:
REMARK  status: ('A' for Active; 'I' for Inactive)
REMARK    1  A    between atoms: C4_3  and  C6_4 
ROOT
ATOM      1  C1  ZIN A   1      16.732  -0.156  11.653  0.00  0.00     0.043 C 
ATOM      2  C2  ZIN A   1      18.039   0.639  11.619  0.00  0.00     0.217 C 
ATOM      3  C4  ZIN A   1      18.209   1.398  12.937  0.00  0.00     0.184 C 
ATOM      4  O12 ZIN A   1      19.405   2.183  12.877  0.00  0.00    -0.377 OA
ATOM      5  C13 ZIN A   1      19.425   3.116  11.794  0.00  0.00     0.196 C 
ATOM      6  C14 ZIN A   1      19.257   2.359  10.473  0.00  0.00     0.261 C 
ATOM      7  N15 ZIN A   1      18.001   1.597  10.505  0.00  0.00    -0.066 N 
ATOM      8  H16 ZIN A   1      17.226   2.230  10.632  0.00  0.00     0.280 HD
ATOM      9  C17 ZIN A   1      17.838   0.871   9.239  0.00  0.00     0.270 C 
ENDROOT
BRANCH   3  10
ATOM     10  C6  ZIN A   1      18.308   0.415  14.075  0.00  0.00    -0.027 A 
ATOM     11  C11 ZIN A   1      17.421   0.493  15.133  0.00  0.00     0.010 A 
ATOM     12  C10 ZIN A   1      17.509  -0.411  16.176  0.00  0.00     0.001 A 
ATOM     13  C9  ZIN A   1      18.487  -1.386  16.164  0.00  0.00     0.000 A 
ATOM     14  C8  ZIN A   1      19.376  -1.462  15.108  0.00  0.00     0.001 A 
ATOM     15  C7  ZIN A   1      19.287  -0.560  14.063  0.00  0.00     0.010 A 
ENDBRANCH   3  10
TORSDOF 1
ENDMDL
MODEL 6
REMARK VINA RESULT:      -5.8      2.933      4.290
REMARK  1 active torsions:
REMARK  status: ('A' for Active; 'I' for Inactive)
REMARK    1  A    between atoms: C4_3  and  C6_4 
ROOT
ATOM      1  C1  ZIN A   1      19.621  -1.344  14.670  0.00  0.00     0.043 C 
ATOM      2  C2  ZIN A   1      19.156  -0.381  13.575  0.00  0.00     0.217 C 
ATOM      3  C4  ZIN A   1      19.713  -0.837  12.224  0.00  0.00     0.184 C 
ATOM      4  O12 ZIN A   1      19.321   0.098  11.214  0.00  0.00    -0.377 OA
ATOM      5  C13 ZIN A   1      19.755   1.436  11.471  0.00  0.00     0.196 C 
ATOM      6  C14 ZIN A   1      19.198   1.896  12.822  0.00  0.00     0.261 C 
ATOM      7  N15 ZIN A   1      19.645   0.972  13.873  0.00  0.00    -0.066 N 
ATOM      8  H16 ZIN A   1      20.654   0.966  13.909  0.00  0.00     0.280 HD
ATOM      9  C17 ZIN A   1      19.112   1.412  15.169  0.00  0.00     0.270 C 
ENDROOT
BRANCH   3  10
ATOM     10  C6  ZIN A   1      19.166  -2.201  11.888  0.00  0.00    -0.027 A 
ATOM     11  C11 ZIN A   1      17.800  -2.390  11.785  0.00  0.00     0.010 A 
ATOM     12  C10 ZIN A   1      17.298  -3.640  11.473  0.00  0.00     0.001 A 
ATOM     13  C9  ZIN A   1      18.160  -4.701  11.272  0.00  0.00     0.000 A 
ATOM     14  C8  ZIN A   1      19.526  -4.512  11.379  0.00  0.00     0.001 A 
ATOM     15  C7  ZIN A   1      20.029  -3.261  11.688  0.00  0.00     0.010 A 
ENDBRANCH   3  10
TORSDOF 1
ENDMDL
MODEL 7
REMARK VINA RESULT:      -5.8      3.330      5.487
REMARK  1 active torsions:
REMARK  status: ('A' for Active; 'I' for Inactive)
REMARK    1  A    between atoms: C4_3  and  C6_4 
ROOT
ATOM      1  C1  ZIN A   1      18.949  -2.460   8.724  0.00  0.00     0.043 C 
ATOM      2  C2  ZIN A   1      18.979  -1.862   7.316  0.00  0.00     0.217 C 
ATOM      3  C4  ZIN A   1      17.859  -0.828   7.177  0.00  0.00     0.184 C 
ATOM      4  O12 ZIN A   1      17.857  -0.312   5.842  0.00  0.00    -0.377 OA
ATOM      5  C13 ZIN A   1      17.692  -1.317   4.839  0.00  0.00     0.196 C 
ATOM      6  C14 ZIN A   1      18.812  -2.353   4.974  0.00  0.00     0.261 C 
ATOM      7  N15 ZIN A   1      18.783  -2.929   6.325  0.00  0.00    -0.066 N 
ATOM      8  H16 ZIN A   1      17.891  -3.375   6.482  0.00  0.00     0.280 HD
ATOM      9  C17 ZIN A   1      19.857  -3.923   6.456  0.00  0.00     0.270 C 
ENDROOT
BRANCH   3  10
ATOM     10  C6  ZIN A   1      18.090   0.299   8.152  0.00  0.00    -0.027 A 
ATOM     11  C11 ZIN A   1      19.010   1.288   7.859  0.00  0.00     0.010 A 
ATOM     12  C10 ZIN A   1      19.219   2.323   8.751  0.00  0.00     0.001 A 
ATOM     13  C9  ZIN A   1      18.514   2.365   9.938  0.00  0.00     0.000 A 
ATOM     14  C8  ZIN A   1      17.597   1.373  10.233  0.00  0.00     0.001 A 
ATOM     15  C7  ZIN A   1      17.385   0.340   9.340  0.00  0.00     0.010 A 
ENDBRANCH   3  10
TORSDOF 1
ENDMDL
MODEL 8
REMARK VINA RESULT:      -5.8      1.731      2.785
REMARK  1 active torsions:
REMARK  status: ('A' for Active; 'I' for Inactive)
REMARK    1  A    between atoms: C4_3  and  C6_4 
ROOT
ATOM      1  C1  ZIN A   1      17.113   4.259  10.885  0.00  0.00     0.043 C 
ATOM      2  C2  ZIN A   1      17.999   3.450  11.835  0.00  0.00     0.217 C 
ATOM      3  C4  ZIN A   1      17.708   1.958  11.657  0.00  0.00     0.184 C 
ATOM      4  O12 ZIN A   1      18.498   1.210  12.586  0.00  0.00    -0.377 OA
ATOM      5  C13 ZIN A   1      18.274   1.571  13.951  0.00  0.00     0.196 C 
ATOM      6  C14 ZIN A   1      18.566   3.064  14.134  0.00  0.00     0.261 C 
ATOM      7  N15 ZIN A   1      17.715   3.841  13.223  0.00  0.00    -0.066 N 
ATOM      8  H16 ZIN A   1      16.744   3.659  13.432  0.00  0.00     0.280 HD
ATOM      9  C17 ZIN A   1      17.993   5.273  13.396  0.00  0.00     0.270 C 
ENDROOT
BRANCH   3  10
ATOM     10  C6  ZIN A   1      18.054   1.541  10.251  0.00  0.00    -0.027 A 
ATOM     11  C11 ZIN A   1      19.105   2.150   9.589  0.00  0.00     0.010 A 
ATOM     12  C10 ZIN A   1      19.425   1.765   8.301  0.00  0.00     0.001 A 
ATOM     13  C9  ZIN A   1      18.691   0.778   7.672  0.00  0.00     0.000 A 
ATOM     14  C8  ZIN A   1      17.639   0.172   8.332  0.00  0.00     0.001 A 
ATOM     15  C7  ZIN A   1      17.320   0.554   9.622  0.00  0.00     0.010 A 
ENDBRANCH   3  10
TORSDOF 1
ENDMDL
MODEL 9
REMARK VINA RESULT:      -5.8      3.152      6.062
REMARK  1 active torsions:
REMARK  status: ('A' for Active; 'I' for Inactive)
REMARK    1  A    between atoms: C4_3  and  C6_4 
ROOT
ATOM      1  C1  ZIN A   1      17.440  -1.937  12.228  0.00  0.00     0.043 C 
ATOM      2  C2  ZIN A   1      18.856  -1.359  12.258  0.00  0.00     0.217 C 
ATOM      3  C4  ZIN A   1      18.867  -0.081  13.101  0.00  0.00     0.184 C 
ATOM      4  O12 ZIN A   1      20.181   0.486  13.080  0.00  0.00    -0.377 OA
ATOM      5  C13 ZIN A   1      20.654   0.788  11.765  0.00  0.00     0.196 C 
ATOM      6  C14 ZIN A   1      20.646  -0.488  10.919  0.00  0.00     0.261 C 
ATOM      7  N15 ZIN A   1      19.286  -1.044  10.888  0.00  0.00    -0.066 N 
ATOM      8  H16 ZIN A   1      18.655  -0.368  10.485  0.00  0.00     0.280 HD
ATOM      9  C17 ZIN A   1      19.276  -2.268  10.078  0.00  0.00     0.270 C 
ENDROOT
BRANCH   3  10
ATOM     10  C6  ZIN A   1      18.484  -0.410  14.521  0.00  0.00    -0.027 A 
ATOM     11  C11 ZIN A   1      19.220  -1.335  15.238  0.00  0.00     0.010 A 
ATOM     12  C10 ZIN A   1      18.870  -1.635  16.541  0.00  0.00     0.001 A 
ATOM     13  C9  ZIN A   1      17.782  -1.016  17.125  0.00  0.00     0.000 A 
ATOM     14  C8  ZIN A   1      17.043  -0.094  16.406  0.00  0.00     0.001 A 
ATOM     15  C7  ZIN A   1      17.394   0.209  15.104  0.00  0.00     0.010 A 
ENDBRANCH   3  10
TORSDOF 1
ENDMDL
