MODEL 1
REMARK VINA RESULT:      -7.8      0.000      0.000
REMARK  2 active torsions:
REMARK  status: ('A' for Active; 'I' for Inactive)
REMARK    1  A    between atoms: N2_2  and  C5_5 
REMARK    2  A    between atoms: C9_8  and  C11_9 
ROOT
ATOM      1  C5  <0> d   1      18.657   2.112  13.355  0.00  0.00     0.218 C 
ATOM      2  C7  <0> d   1      19.819   1.238  12.886  0.00  0.00     0.039 C 
ATOM      3  C8  <0> d   1      19.421   0.571  11.563  0.00  0.00     0.016 C 
ATOM      4  C9  <0> d   1      19.368   1.646  10.479  0.00  0.00     0.052 C 
ATOM      5  C19 <0> d   1      18.523   2.810  10.927  0.00  0.00    -0.041 A 
ATOM      6  C20 <0> d   1      18.058   3.684   9.954  0.00  0.00     0.008 A 
ATOM      7  C21 <0> d   1      17.283   4.772  10.300  0.00  0.00     0.001 A 
ATOM      8  C22 <0> d   1      16.969   4.995  11.627  0.00  0.00     0.001 A 
ATOM      9  C23 <0> d   1      17.427   4.126  12.596  0.00  0.00     0.010 A 
ATOM     10  C24 <0> d   1      18.204   3.027  12.248  0.00  0.00    -0.021 A 
ENDROOT
BRANCH   4  11
ATOM     11  C11 <0> d   1      18.776   1.057   9.224  0.00  0.00    -0.048 A 
ATOM     12  C18 <0> d   1      19.375   1.297   8.001  0.00  0.00     0.033 A 
ATOM     13  C16 <0> d   1      18.836   0.752   6.849  0.00  0.00     0.056 A 
ATOM     14  C14 <0> d   1      17.691  -0.024   6.922  0.00  0.00     0.055 A 
ATOM     15 Cl17 <0> d   1      19.590   1.046   5.314  0.00  0.00    -0.083 Cl
ATOM     16  C13 <0> d   1      17.091  -0.258   8.146  0.00  0.00     0.026 A 
ATOM     17 Cl15 <0> d   1      17.008  -0.702   5.477  0.00  0.00    -0.083 Cl
ATOM     18  C12 <0> d   1      17.634   0.283   9.296  0.00  0.00     0.009 A 
ENDBRANCH   4  11
BRANCH   1  19
ATOM     19  N2  <0> d   1      17.537   1.251  13.761  0.00  0.00    -0.071 N 
ATOM     20  C1  <0> d   1      17.786   0.730  15.112  0.00  0.00     0.267 C 
ATOM     21  H3  <0> d   1      17.452   0.482  13.114  0.00  0.00     0.277 HD
ATOM     22  H4  <0> d   1      16.683   1.789  13.760  0.00  0.00     0.277 HD
ENDBRANCH   1  19
TORSDOF 2
ENDMDL
MODEL 2
REMARK VINA RESULT:      -7.6      3.719      6.038
REMARK  2 active torsions:
REMARK  status: ('A' for Active; 'I' for Inactive)
REMARK    1  A    between atoms: N2_2  and  C5_5 
REMARK    2  A    between atoms: C9_8  and  C11_9 
ROOT
ATOM      1  C5  <0> d   1      18.495  -0.270   8.438  0.00  0.00     0.218 C 
ATOM      2  C7  <0> d   1      19.472   0.848   8.083  0.00  0.00     0.039 C 
ATOM      3  C8  <0> d   1      19.039   2.122   8.820  0.00  0.00     0.016 C 
ATOM      4  C9  <0> d   1      19.301   1.927  10.313  0.00  0.00     0.052 C 
ATOM      5  C19 <0> d   1      18.696   0.633  10.792  0.00  0.00    -0.041 A 
ATOM      6  C20 <0> d   1      18.505   0.476  12.159  0.00  0.00     0.008 A 
ATOM      7  C21 <0> d   1      17.960  -0.687  12.661  0.00  0.00     0.001 A 
ATOM      8  C22 <0> d   1      17.602  -1.706  11.799  0.00  0.00     0.001 A 
ATOM      9  C23 <0> d   1      17.788  -1.551  10.440  0.00  0.00     0.010 A 
ATOM     10  C24 <0> d   1      18.334  -0.378   9.932  0.00  0.00    -0.021 A 
ENDROOT
BRANCH   4  11
ATOM     11  C11 <0> d   1      18.691   3.073  11.078  0.00  0.00    -0.048 A 
ATOM     12  C18 <0> d   1      19.409   3.688  12.087  0.00  0.00     0.033 A 
ATOM     13  C16 <0> d   1      18.853   4.745  12.786  0.00  0.00     0.056 A 
ATOM     14  C14 <0> d   1      17.573   5.178  12.481  0.00  0.00     0.055 A 
ATOM     15 Cl17 <0> d   1      19.756   5.523  14.047  0.00  0.00    -0.083 Cl
ATOM     16  C13 <0> d   1      16.855   4.557  11.475  0.00  0.00     0.026 A 
ATOM     17 Cl15 <0> d   1      16.870   6.498  13.362  0.00  0.00    -0.083 Cl
ATOM     18  C12 <0> d   1      17.415   3.505  10.774  0.00  0.00     0.009 A 
ENDBRANCH   4  11
BRANCH   1  19
ATOM     19  N2  <0> d   1      17.188   0.016   7.830  0.00  0.00    -0.071 N 
ATOM     20  C1  <0> d   1      17.296  -0.084   6.368  0.00  0.00     0.267 C 
ATOM     21  H3  <0> d   1      16.897   0.949   8.082  0.00  0.00     0.277 HD
ATOM     22  H4  <0> d   1      16.508  -0.651   8.163  0.00  0.00     0.277 HD
ENDBRANCH   1  19
TORSDOF 2
ENDMDL
MODEL 3
REMARK VINA RESULT:      -7.5      4.214      6.185
REMARK  2 active torsions:
REMARK  status: ('A' for Active; 'I' for Inactive)
REMARK    1  A    between atoms: N2_2  and  C5_5 
REMARK    2  A    between atoms: C9_8  and  C11_9 
ROOT
ATOM      1  C5  <0> d   1      17.946   0.983   9.230  0.00  0.00     0.218 C 
ATOM      2  C7  <0> d   1      17.018  -0.176   9.586  0.00  0.00     0.039 C 
ATOM      3  C8  <0> d   1      17.467  -0.761  10.931  0.00  0.00     0.016 C 
ATOM      4  C9  <0> d   1      17.149   0.255  12.028  0.00  0.00     0.052 C 
ATOM      5  C19 <0> d   1      17.695   1.612  11.667  0.00  0.00    -0.041 A 
ATOM      6  C20 <0> d   1      17.836   2.544  12.686  0.00  0.00     0.008 A 
ATOM      7  C21 <0> d   1      18.326   3.806  12.420  0.00  0.00     0.001 A 
ATOM      8  C22 <0> d   1      18.680   4.146  11.128  0.00  0.00     0.001 A 
ATOM      9  C23 <0> d   1      18.544   3.220  10.114  0.00  0.00     0.010 A 
ATOM     10  C24 <0> d   1      18.054   1.947  10.381  0.00  0.00    -0.021 A 
ENDROOT
BRANCH   4  11
ATOM     11  C11 <0> d   1      17.769  -0.201  13.323  0.00  0.00    -0.048 A 
ATOM     12  C18 <0> d   1      17.169   0.122  14.526  0.00  0.00     0.033 A 
ATOM     13  C16 <0> d   1      17.734  -0.302  15.716  0.00  0.00     0.056 A 
ATOM     14  C14 <0> d   1      18.906  -1.040  15.700  0.00  0.00     0.055 A 
ATOM     15 Cl17 <0> d   1      16.979   0.097  17.226  0.00  0.00    -0.083 Cl
ATOM     16  C13 <0> d   1      19.507  -1.358  14.496  0.00  0.00     0.026 A 
ATOM     17 Cl15 <0> d   1      19.621  -1.566  17.192  0.00  0.00    -0.083 Cl
ATOM     18  C12 <0> d   1      18.938  -0.938  13.308  0.00  0.00     0.009 A 
ENDBRANCH   4  11
BRANCH   1  19
ATOM     19  N2  <0> d   1      19.281   0.455   8.914  0.00  0.00    -0.071 N 
ATOM     20  C1  <0> d   1      19.218  -0.323   7.669  0.00  0.00     0.267 C 
ATOM     21  H3  <0> d   1      19.595  -0.140   9.667  0.00  0.00     0.277 HD
ATOM     22  H4  <0> d   1      19.927   1.221   8.799  0.00  0.00     0.277 HD
ENDBRANCH   1  19
TORSDOF 2
ENDMDL
MODEL 4
REMARK VINA RESULT:      -7.4      4.767      7.297
REMARK  2 active torsions:
REMARK  status: ('A' for Active; 'I' for Inactive)
REMARK    1  A    between atoms: N2_2  and  C5_5 
REMARK    2  A    between atoms: C9_8  and  C11_9 
ROOT
ATOM      1  C5  <0> d   1      18.905  -1.185   8.973  0.00  0.00     0.218 C 
ATOM      2  C7  <0> d   1      20.042  -0.384   9.601  0.00  0.00     0.039 C 
ATOM      3  C8  <0> d   1      19.617   0.036  11.014  0.00  0.00     0.016 C 
ATOM      4  C9  <0> d   1      19.575  -1.211  11.895  0.00  0.00     0.052 C 
ATOM      5  C19 <0> d   1      18.759  -2.296  11.241  0.00  0.00    -0.041 A 
ATOM      6  C20 <0> d   1      18.302  -3.334  12.042  0.00  0.00     0.008 A 
ATOM      7  C21 <0> d   1      17.554  -4.359  11.502  0.00  0.00     0.001 A 
ATOM      8  C22 <0> d   1      17.258  -4.355  10.152  0.00  0.00     0.001 A 
ATOM      9  C23 <0> d   1      17.708  -3.323   9.354  0.00  0.00     0.010 A 
ATOM     10  C24 <0> d   1      18.459  -2.287   9.898  0.00  0.00    -0.021 A 
ENDROOT
BRANCH   4  11
ATOM     11  C11 <0> d   1      18.958  -0.860  13.225  0.00  0.00    -0.048 A 
ATOM     12  C18 <0> d   1      19.465  -1.410  14.387  0.00  0.00     0.033 A 
ATOM     13  C16 <0> d   1      18.904  -1.083  15.609  0.00  0.00     0.056 A 
ATOM     14  C14 <0> d   1      17.827  -0.214  15.664  0.00  0.00     0.055 A 
ATOM     15 Cl17 <0> d   1      19.544  -1.767  17.069  0.00  0.00    -0.083 Cl
ATOM     16  C13 <0> d   1      17.318   0.330  14.499  0.00  0.00     0.026 A 
ATOM     17 Cl15 <0> d   1      17.116   0.191  17.195  0.00  0.00    -0.083 Cl
ATOM     18  C12 <0> d   1      17.884   0.007  13.280  0.00  0.00     0.009 A 
ENDBRANCH   4  11
BRANCH   1  19
ATOM     19  N2  <0> d   1      17.771  -0.289   8.706  0.00  0.00    -0.071 N 
ATOM     20  C1  <0> d   1      17.542  -0.208   7.257  0.00  0.00     0.267 C 
ATOM     21  H3  <0> d   1      17.978   0.632   9.065  0.00  0.00     0.277 HD
ATOM     22  H4  <0> d   1      16.944  -0.649   9.158  0.00  0.00     0.277 HD
ENDBRANCH   1  19
TORSDOF 2
ENDMDL
MODEL 5
REMARK VINA RESULT:      -7.3      3.510      5.789
REMARK  2 active torsions:
REMARK  status: ('A' for Active; 'I' for Inactive)
REMARK    1  A    between atoms: N2_2  and  C5_5 
REMARK    2  A    between atoms: C9_8  and  C11_9 
ROOT
ATOM      1  C5  <0> d   1      18.462  -3.034   9.525  0.00  0.00     0.218 C 
ATOM      2  C7  <0> d   1      17.533  -2.774  10.708  0.00  0.00     0.039 C 
ATOM      3  C8  <0> d   1      17.934  -1.443  11.357  0.00  0.00     0.016 C 
ATOM      4  C9  <0> d   1      17.563  -0.311  10.401  0.00  0.00     0.052 C 
ATOM      5  C19 <0> d   1      18.109  -0.580   9.023  0.00  0.00    -0.041 A 
ATOM      6  C20 <0> d   1      18.200   0.490   8.143  0.00  0.00     0.008 A 
ATOM      7  C21 <0> d   1      18.687   0.308   6.866  0.00  0.00     0.001 A 
ATOM      8  C22 <0> d   1      19.088  -0.950   6.457  0.00  0.00     0.001 A 
ATOM      9  C23 <0> d   1      19.001  -2.014   7.330  0.00  0.00     0.010 A 
ATOM     10  C24 <0> d   1      18.514  -1.832   8.619  0.00  0.00    -0.021 A 
ENDROOT
BRANCH   4  11
ATOM     11  C11 <0> d   1      18.136   0.984  10.918  0.00  0.00    -0.048 A 
ATOM     12  C18 <0> d   1      17.366   2.131  10.911  0.00  0.00     0.033 A 
ATOM     13  C16 <0> d   1      17.889   3.319  11.391  0.00  0.00     0.056 A 
ATOM     14  C14 <0> d   1      19.188   3.358  11.868  0.00  0.00     0.055 A 
ATOM     15 Cl17 <0> d   1      16.920   4.758  11.389  0.00  0.00    -0.083 Cl
ATOM     16  C13 <0> d   1      19.959   2.210  11.869  0.00  0.00     0.026 A 
ATOM     17 Cl15 <0> d   1      19.849   4.849  12.463  0.00  0.00    -0.083 Cl
ATOM     18  C12 <0> d   1      19.433   1.023  11.394  0.00  0.00     0.009 A 
ENDBRANCH   4  11
BRANCH   1  19
ATOM     19  N2  <0> d   1      19.814  -3.323  10.025  0.00  0.00    -0.071 N 
ATOM     20  C1  <0> d   1      19.797  -4.582  10.782  0.00  0.00     0.267 C 
ATOM     21  H3  <0> d   1      20.117  -2.572  10.627  0.00  0.00     0.277 HD
ATOM     22  H4  <0> d   1      20.450  -3.408   9.246  0.00  0.00     0.277 HD
ENDBRANCH   1  19
TORSDOF 2
ENDMDL
MODEL 6
REMARK VINA RESULT:      -7.2      3.431      4.465
REMARK  2 active torsions:
REMARK  status: ('A' for Active; 'I' for Inactive)
REMARK    1  A    between atoms: N2_2  and  C5_5 
REMARK    2  A    between atoms: C9_8  and  C11_9 
ROOT
ATOM      1  C5  <0> d   1      19.424   1.622  12.222  0.00  0.00     0.218 C 
ATOM      2  C7  <0> d   1      20.169   0.618  13.098  0.00  0.00     0.039 C 
ATOM      3  C8  <0> d   1      19.576  -0.775  12.851  0.00  0.00     0.016 C 
ATOM      4  C9  <0> d   1      19.967  -1.223  11.443  0.00  0.00     0.052 C 
ATOM      5  C19 <0> d   1      19.625  -0.157  10.435  0.00  0.00    -0.041 A 
ATOM      6  C20 <0> d   1      19.555  -0.529   9.099  0.00  0.00     0.008 A 
ATOM      7  C21 <0> d   1      19.252   0.401   8.126  0.00  0.00     0.001 A 
ATOM      8  C22 <0> d   1      19.016   1.715   8.484  0.00  0.00     0.001 A 
ATOM      9  C23 <0> d   1      19.082   2.087   9.811  0.00  0.00     0.010 A 
ATOM     10  C24 <0> d   1      19.384   1.150  10.792  0.00  0.00    -0.021 A 
ENDROOT
BRANCH   4  11
ATOM     11  C11 <0> d   1      19.223  -2.488  11.099  0.00  0.00    -0.048 A 
ATOM     12  C18 <0> d   1      19.864  -3.498  10.407  0.00  0.00     0.033 A 
ATOM     13  C16 <0> d   1      19.185  -4.662  10.096  0.00  0.00     0.056 A 
ATOM     14  C14 <0> d   1      17.859  -4.809  10.469  0.00  0.00     0.055 A 
ATOM     15 Cl17 <0> d   1      19.990  -5.934   9.233  0.00  0.00    -0.083 Cl
ATOM     16  C13 <0> d   1      17.218  -3.795  11.158  0.00  0.00     0.026 A 
ATOM     17 Cl15 <0> d   1      17.002  -6.266  10.074  0.00  0.00    -0.083 Cl
ATOM     18  C12 <0> d   1      17.901  -2.635  11.472  0.00  0.00     0.009 A 
ENDBRANCH   4  11
BRANCH   1  19
ATOM     19  N2  <0> d   1      18.050   1.773  12.721  0.00  0.00    -0.071 N 
ATOM     20  C1  <0> d   1      18.074   2.443  14.028  0.00  0.00     0.267 C 
ATOM     21  H3  <0> d   1      17.625   0.862  12.818  0.00  0.00     0.277 HD
ATOM     22  H4  <0> d   1      17.514   2.327  12.069  0.00  0.00     0.277 HD
ENDBRANCH   1  19
TORSDOF 2
ENDMDL
MODEL 7
REMARK VINA RESULT:      -7.2      3.594      5.168
REMARK  2 active torsions:
REMARK  status: ('A' for Active; 'I' for Inactive)
REMARK    1  A    between atoms: N2_2  and  C5_5 
REMARK    2  A    between atoms: C9_8  and  C11_9 
ROOT
ATOM      1  C5  <0> d   1      18.307   2.711  13.594  0.00  0.00     0.218 C 
ATOM      2  C7  <0> d   1      17.410   2.464  12.384  0.00  0.00     0.039 C 
ATOM      3  C8  <0> d   1      17.867   1.171  11.697  0.00  0.00     0.016 C 
ATOM      4  C9  <0> d   1      17.515  -0.007  12.604  0.00  0.00     0.052 C 
ATOM      5  C19 <0> d   1      18.026   0.230  14.002  0.00  0.00    -0.041 A 
ATOM      6  C20 <0> d   1      18.135  -0.867  14.845  0.00  0.00     0.008 A 
ATOM      7  C21 <0> d   1      18.592  -0.716  16.138  0.00  0.00     0.001 A 
ATOM      8  C22 <0> d   1      18.943   0.539  16.599  0.00  0.00     0.001 A 
ATOM      9  C23 <0> d   1      18.838   1.631  15.762  0.00  0.00     0.010 A 
ATOM     10  C24 <0> d   1      18.382   1.479  14.457  0.00  0.00    -0.021 A 
ENDROOT
BRANCH   4  11
ATOM     11  C11 <0> d   1      18.141  -1.262  12.054  0.00  0.00    -0.048 A 
ATOM     12  C18 <0> d   1      17.359  -2.379  11.825  0.00  0.00     0.033 A 
ATOM     13  C16 <0> d   1      17.930  -3.531  11.313  0.00  0.00     0.056 A 
ATOM     14  C14 <0> d   1      19.288  -3.566  11.042  0.00  0.00     0.055 A 
ATOM     15 Cl17 <0> d   1      16.949  -4.931  11.019  0.00  0.00    -0.083 Cl
ATOM     16  C13 <0> d   1      20.069  -2.449  11.277  0.00  0.00     0.026 A 
ATOM     17 Cl15 <0> d   1      20.009  -5.012  10.408  0.00  0.00    -0.083 Cl
ATOM     18  C12 <0> d   1      19.495  -1.298  11.783  0.00  0.00     0.009 A 
ENDBRANCH   4  11
BRANCH   1  19
ATOM     19  N2  <0> d   1      19.657   3.061  13.132  0.00  0.00    -0.071 N 
ATOM     20  C1  <0> d   1      19.625   4.375  12.476  0.00  0.00     0.267 C 
ATOM     21  H3  <0> d   1      19.980   2.365  12.476  0.00  0.00     0.277 HD
ATOM     22  H4  <0> d   1      20.285   3.095  13.922  0.00  0.00     0.277 HD
ENDBRANCH   1  19
TORSDOF 2
ENDMDL
MODEL 8
REMARK VINA RESULT:      -7.1      2.115      4.200
REMARK  2 active torsions:
REMARK  status: ('A' for Active; 'I' for Inactive)
REMARK    1  A    between atoms: N2_2  and  C5_5 
REMARK    2  A    between atoms: C9_8  and  C11_9 
ROOT
ATOM      1  C5  <0> d   1      18.150  -0.293  13.103  0.00  0.00     0.218 C 
ATOM      2  C7  <0> d   1      16.993   0.534  12.547  0.00  0.00     0.039 C 
ATOM      3  C8  <0> d   1      17.335   0.938  11.107  0.00  0.00     0.016 C 
ATOM      4  C9  <0> d   1      17.286  -0.313  10.232  0.00  0.00     0.052 C 
ATOM      5  C19 <0> d   1      18.115  -1.416  10.837  0.00  0.00    -0.041 A 
ATOM      6  C20 <0> d   1      18.491  -2.469  10.013  0.00  0.00     0.008 A 
ATOM      7  C21 <0> d   1      19.247  -3.511  10.508  0.00  0.00     0.001 A 
ATOM      8  C22 <0> d   1      19.632  -3.509  11.835  0.00  0.00     0.001 A 
ATOM      9  C23 <0> d   1      19.263  -2.463  12.655  0.00  0.00     0.010 A 
ATOM     10  C24 <0> d   1      18.504  -1.410  12.157  0.00  0.00    -0.021 A 
ENDROOT
BRANCH   4  11
ATOM     11  C11 <0> d   1      17.822   0.017   8.863  0.00  0.00    -0.048 A 
ATOM     12  C18 <0> d   1      17.377  -0.688   7.760  0.00  0.00     0.033 A 
ATOM     13  C16 <0> d   1      17.863  -0.382   6.501  0.00  0.00     0.056 A 
ATOM     14  C14 <0> d   1      18.805   0.623   6.350  0.00  0.00     0.055 A 
ATOM     15 Cl17 <0> d   1      17.300  -1.260   5.115  0.00  0.00    -0.083 Cl
ATOM     16  C13 <0> d   1      19.252   1.323   7.456  0.00  0.00     0.026 A 
ATOM     17 Cl15 <0> d   1      19.422   1.004   4.773  0.00  0.00    -0.083 Cl
ATOM     18  C12 <0> d   1      18.760   1.019   8.712  0.00  0.00     0.009 A 
ENDBRANCH   4  11
BRANCH   1  19
ATOM     19  N2  <0> d   1      19.321   0.575  13.289  0.00  0.00    -0.071 N 
ATOM     20  C1  <0> d   1      19.268   1.189  14.623  0.00  0.00     0.267 C 
ATOM     21  H3  <0> d   1      19.319   1.298  12.586  0.00  0.00     0.277 HD
ATOM     22  H4  <0> d   1      20.163   0.025  13.206  0.00  0.00     0.277 HD
ENDBRANCH   1  19
TORSDOF 2
ENDMDL
MODEL 9
REMARK VINA RESULT:      -6.9      4.961      8.440
REMARK  2 active torsions:
REMARK  status: ('A' for Active; 'I' for Inactive)
REMARK    1  A    between atoms: N2_2  and  C5_5 
REMARK    2  A    between atoms: C9_8  and  C11_9 
ROOT
ATOM      1  C5  <0> d   1      16.974  -5.083   4.430  0.00  0.00     0.218 C 
ATOM      2  C7  <0> d   1      16.938  -4.000   3.354  0.00  0.00     0.039 C 
ATOM      3  C8  <0> d   1      17.072  -2.634   4.037  0.00  0.00     0.016 C 
ATOM      4  C9  <0> d   1      18.495  -2.503   4.580  0.00  0.00     0.052 C 
ATOM      5  C19 <0> d   1      18.859  -3.709   5.407  0.00  0.00    -0.041 A 
ATOM      6  C20 <0> d   1      19.938  -3.597   6.273  0.00  0.00     0.008 A 
ATOM      7  C21 <0> d   1      20.325  -4.666   7.055  0.00  0.00     0.001 A 
ATOM      8  C22 <0> d   1      19.633  -5.860   6.974  0.00  0.00     0.001 A 
ATOM      9  C23 <0> d   1      18.557  -5.972   6.117  0.00  0.00     0.010 A 
ATOM     10  C24 <0> d   1      18.165  -4.895   5.332  0.00  0.00    -0.021 A 
ENDROOT
BRANCH   4  11
ATOM     11  C11 <0> d   1      18.589  -1.267   5.436  0.00  0.00    -0.048 A 
ATOM     12  C18 <0> d   1      18.008  -1.250   6.690  0.00  0.00     0.033 A 
ATOM     13  C16 <0> d   1      18.100  -0.118   7.480  0.00  0.00     0.056 A 
ATOM     14  C14 <0> d   1      18.764   1.002   7.007  0.00  0.00     0.055 A 
ATOM     15 Cl17 <0> d   1      17.377  -0.098   9.057  0.00  0.00    -0.083 Cl
ATOM     16  C13 <0> d   1      19.340   0.985   5.750  0.00  0.00     0.026 A 
ATOM     17 Cl15 <0> d   1      18.873   2.427   7.993  0.00  0.00    -0.083 Cl
ATOM     18  C12 <0> d   1      19.252  -0.150   4.965  0.00  0.00     0.009 A 
ENDBRANCH   4  11
BRANCH   1  19
ATOM     19  N2  <0> d   1      15.743  -5.010   5.230  0.00  0.00    -0.071 N 
ATOM     20  C1  <0> d   1      14.799  -6.038   4.771  0.00  0.00     0.267 C 
ATOM     21  H3  <0> d   1      15.325  -4.098   5.123  0.00  0.00     0.277 HD
ATOM     22  H4  <0> d   1      15.965  -5.167   6.202  0.00  0.00     0.277 HD
ENDBRANCH   1  19
TORSDOF 2
ENDMDL
