MODEL 1
REMARK VINA RESULT:      -7.6      0.000      0.000
REMARK  3 active torsions:
REMARK  status: ('A' for Active; 'I' for Inactive)
REMARK    1  A    between atoms: N5_5  and  C6_6 
REMARK    2  A    between atoms: C6_6  and  C8_7 
REMARK    3  A    between atoms: C6_6  and  C14_13 
ROOT
ATOM      1  C6  <0> d   1      19.633  -0.899  11.935  0.00  0.00     0.289 C 
ENDROOT
BRANCH   1   2
ATOM      2  N5  <0> d   1      19.047  -0.367  13.173  0.00  0.00     0.105 N 
ATOM      3  C4  <0> d   1      19.897   0.687  13.746  0.00  0.00     0.304 C 
ATOM      4  C3  <0> d   1      19.216   1.269  14.987  0.00  0.00     0.302 C 
ATOM      5  N2  <0> d   1      18.982   0.196  15.963  0.00  0.00     0.087 N 
ATOM      6  C1  <0> d   1      18.397   0.728  17.201  0.00  0.00     0.310 C 
ATOM      7  C22 <0> d   1      18.133  -0.858  15.391  0.00  0.00     0.302 C 
ATOM      8  C21 <0> d   1      18.814  -1.440  14.150  0.00  0.00     0.304 C 
ENDBRANCH   1   2
BRANCH   1   9
ATOM      9  C8  <0> d   1      19.316   0.028  10.790  0.00  0.00    -0.021 A 
ATOM     10  C13 <0> d   1      19.927  -0.154   9.564  0.00  0.00     0.010 A 
ATOM     11  C12 <0> d   1      19.634   0.694   8.513  0.00  0.00     0.001 A 
ATOM     12  C11 <0> d   1      18.734   1.728   8.690  0.00  0.00     0.000 A 
ATOM     13  C10 <0> d   1      18.126   1.914   9.918  0.00  0.00     0.001 A 
ATOM     14  C9  <0> d   1      18.418   1.063  10.968  0.00  0.00     0.010 A 
ENDBRANCH   1   9
BRANCH   1  15
ATOM     15  C14 <0> d   1      19.055  -2.263  11.653  0.00  0.00    -0.021 A 
ATOM     16  C20 <0> d   1      19.888  -3.362  11.565  0.00  0.00     0.011 A 
ATOM     17  C19 <0> d   1      19.359  -4.613  11.312  0.00  0.00     0.024 A 
ATOM     18  C17 <0> d   1      17.996  -4.763  11.134  0.00  0.00     0.034 A 
ATOM     19  C16 <0> d   1      17.162  -3.662  11.217  0.00  0.00     0.024 A 
ATOM     20 Cl18 <0> d   1      17.330  -6.333  10.809  0.00  0.00    -0.084 Cl
ATOM     21  C15 <0> d   1      17.692  -2.412  11.475  0.00  0.00     0.011 A 
ENDBRANCH   1  15
TORSDOF 3
ENDMDL
MODEL 2
REMARK VINA RESULT:      -7.6      2.581      5.695
REMARK  3 active torsions:
REMARK  status: ('A' for Active; 'I' for Inactive)
REMARK    1  A    between atoms: N5_5  and  C6_6 
REMARK    2  A    between atoms: C6_6  and  C8_7 
REMARK    3  A    between atoms: C6_6  and  C14_13 
ROOT
ATOM      1  C6  <0> d   1      19.442  -1.461  12.127  0.00  0.00     0.289 C 
ENDROOT
BRANCH   1   2
ATOM      2  N5  <0> d   1      19.039  -0.496  11.095  0.00  0.00     0.105 N 
ATOM      3  C4  <0> d   1      19.189  -1.072   9.750  0.00  0.00     0.304 C 
ATOM      4  C3  <0> d   1      18.686  -0.067   8.711  0.00  0.00     0.302 C 
ATOM      5  N2  <0> d   1      19.446   1.184   8.833  0.00  0.00     0.087 N 
ATOM      6  C1  <0> d   1      19.044   2.149   7.801  0.00  0.00     0.310 C 
ATOM      7  C22 <0> d   1      19.297   1.759  10.178  0.00  0.00     0.302 C 
ATOM      8  C21 <0> d   1      19.800   0.755  11.218  0.00  0.00     0.304 C 
ENDBRANCH   1   2
BRANCH   1   9
ATOM      9  C8  <0> d   1      18.894  -2.823  11.783  0.00  0.00    -0.021 A 
ATOM     10  C13 <0> d   1      17.527  -3.022  11.720  0.00  0.00     0.010 A 
ATOM     11  C12 <0> d   1      17.026  -4.269  11.400  0.00  0.00     0.001 A 
ATOM     12  C11 <0> d   1      17.889  -5.319  11.152  0.00  0.00     0.000 A 
ATOM     13  C10 <0> d   1      19.256  -5.122  11.220  0.00  0.00     0.001 A 
ATOM     14  C9  <0> d   1      19.758  -3.872  11.536  0.00  0.00     0.010 A 
ENDBRANCH   1   9
BRANCH   1  15
ATOM     15  C14 <0> d   1      18.898  -1.023  13.463  0.00  0.00    -0.021 A 
ATOM     16  C20 <0> d   1      19.430  -1.541  14.629  0.00  0.00     0.011 A 
ATOM     17  C19 <0> d   1      18.937  -1.135  15.854  0.00  0.00     0.024 A 
ATOM     18  C17 <0> d   1      17.901  -0.220  15.913  0.00  0.00     0.034 A 
ATOM     19  C16 <0> d   1      17.365   0.295  14.746  0.00  0.00     0.024 A 
ATOM     20 Cl18 <0> d   1      17.275   0.285  17.452  0.00  0.00    -0.084 Cl
ATOM     21  C15 <0> d   1      17.864  -0.108  13.521  0.00  0.00     0.011 A 
ENDBRANCH   1  15
TORSDOF 3
ENDMDL
MODEL 3
REMARK VINA RESULT:      -7.5      3.091      5.250
REMARK  3 active torsions:
REMARK  status: ('A' for Active; 'I' for Inactive)
REMARK    1  A    between atoms: N5_5  and  C6_6 
REMARK    2  A    between atoms: C6_6  and  C8_7 
REMARK    3  A    between atoms: C6_6  and  C14_13 
ROOT
ATOM      1  C6  <0> d   1      17.667   0.438  10.241  0.00  0.00     0.289 C 
ENDROOT
BRANCH   1   2
ATOM      2  N5  <0> d   1      18.330   1.589  10.868  0.00  0.00     0.105 N 
ATOM      3  C4  <0> d   1      18.411   1.419  12.326  0.00  0.00     0.304 C 
ATOM      4  C3  <0> d   1      19.177   2.598  12.932  0.00  0.00     0.302 C 
ATOM      5  N2  <0> d   1      18.493   3.852  12.587  0.00  0.00     0.087 N 
ATOM      6  C1  <0> d   1      19.156   5.004  13.215  0.00  0.00     0.310 C 
ATOM      7  C22 <0> d   1      18.411   4.022  11.130  0.00  0.00     0.302 C 
ATOM      8  C21 <0> d   1      17.646   2.843  10.524  0.00  0.00     0.304 C 
ENDBRANCH   1   2
BRANCH   1   9
ATOM      9  C8  <0> d   1      18.196  -0.837  10.846  0.00  0.00    -0.021 A 
ATOM     10  C13 <0> d   1      17.339  -1.691  11.517  0.00  0.00     0.010 A 
ATOM     11  C12 <0> d   1      17.823  -2.862  12.068  0.00  0.00     0.001 A 
ATOM     12  C11 <0> d   1      19.164  -3.177  11.956  0.00  0.00     0.000 A 
ATOM     13  C10 <0> d   1      20.022  -2.321  11.289  0.00  0.00     0.001 A 
ATOM     14  C9  <0> d   1      19.537  -1.151  10.734  0.00  0.00     0.010 A 
ENDBRANCH   1   9
BRANCH   1  15
ATOM     15  C14 <0> d   1      17.945   0.444   8.759  0.00  0.00    -0.021 A 
ATOM     16  C20 <0> d   1      17.187  -0.340   7.911  0.00  0.00     0.011 A 
ATOM     17  C19 <0> d   1      17.437  -0.330   6.552  0.00  0.00     0.024 A 
ATOM     18  C17 <0> d   1      18.455   0.456   6.042  0.00  0.00     0.034 A 
ATOM     19  C16 <0> d   1      19.217   1.237   6.893  0.00  0.00     0.024 A 
ATOM     20 Cl18 <0> d   1      18.775   0.463   4.336  0.00  0.00    -0.084 Cl
ATOM     21  C15 <0> d   1      18.962   1.230   8.251  0.00  0.00     0.011 A 
ENDBRANCH   1  15
TORSDOF 3
ENDMDL
MODEL 4
REMARK VINA RESULT:      -7.5      3.658      5.675
REMARK  3 active torsions:
REMARK  status: ('A' for Active; 'I' for Inactive)
REMARK    1  A    between atoms: N5_5  and  C6_6 
REMARK    2  A    between atoms: C6_6  and  C8_7 
REMARK    3  A    between atoms: C6_6  and  C14_13 
ROOT
ATOM      1  C6  <0> d   1      17.595   0.346   9.847  0.00  0.00     0.289 C 
ENDROOT
BRANCH   1   2
ATOM      2  N5  <0> d   1      18.180  -0.894  10.376  0.00  0.00     0.105 N 
ATOM      3  C4  <0> d   1      18.306  -1.908   9.319  0.00  0.00     0.304 C 
ATOM      4  C3  <0> d   1      18.991  -3.152   9.890  0.00  0.00     0.302 C 
ATOM      5  N2  <0> d   1      18.205  -3.667  11.020  0.00  0.00     0.087 N 
ATOM      6  C1  <0> d   1      18.789  -4.906  11.548  0.00  0.00     0.310 C 
ATOM      7  C22 <0> d   1      18.078  -2.653  12.076  0.00  0.00     0.302 C 
ATOM      8  C21 <0> d   1      17.393  -1.408  11.505  0.00  0.00     0.304 C 
ENDBRANCH   1   2
BRANCH   1   9
ATOM      9  C8  <0> d   1      17.869   0.440   8.368  0.00  0.00    -0.021 A 
ATOM     10  C13 <0> d   1      17.013  -0.165   7.467  0.00  0.00     0.010 A 
ATOM     11  C12 <0> d   1      17.262  -0.075   6.110  0.00  0.00     0.001 A 
ATOM     12  C11 <0> d   1      18.371   0.613   5.655  0.00  0.00     0.000 A 
ATOM     13  C10 <0> d   1      19.231   1.213   6.556  0.00  0.00     0.001 A 
ATOM     14  C9  <0> d   1      18.979   1.127   7.913  0.00  0.00     0.010 A 
ENDBRANCH   1   9
BRANCH   1  15
ATOM     15  C14 <0> d   1      18.210   1.530  10.549  0.00  0.00    -0.021 A 
ATOM     16  C20 <0> d   1      19.412   1.390  11.216  0.00  0.00     0.011 A 
ATOM     17  C19 <0> d   1      19.978   2.477  11.855  0.00  0.00     0.024 A 
ATOM     18  C17 <0> d   1      19.336   3.702  11.835  0.00  0.00     0.034 A 
ATOM     19  C16 <0> d   1      18.131   3.841  11.171  0.00  0.00     0.024 A 
ATOM     20 Cl18 <0> d   1      20.044   5.066  12.644  0.00  0.00    -0.084 Cl
ATOM     21  C15 <0> d   1      17.568   2.754  10.528  0.00  0.00     0.011 A 
ENDBRANCH   1  15
TORSDOF 3
ENDMDL
MODEL 5
REMARK VINA RESULT:      -7.5      2.959      4.326
REMARK  3 active torsions:
REMARK  status: ('A' for Active; 'I' for Inactive)
REMARK    1  A    between atoms: N5_5  and  C6_6 
REMARK    2  A    between atoms: C6_6  and  C8_7 
REMARK    3  A    between atoms: C6_6  and  C14_13 
ROOT
ATOM      1  C6  <0> d   1      19.225   1.782  11.167  0.00  0.00     0.289 C 
ENDROOT
BRANCH   1   2
ATOM      2  N5  <0> d   1      18.846   0.794  12.187  0.00  0.00     0.105 N 
ATOM      3  C4  <0> d   1      18.004   1.407  13.225  0.00  0.00     0.304 C 
ATOM      4  C3  <0> d   1      17.567   0.332  14.223  0.00  0.00     0.302 C 
ATOM      5  N2  <0> d   1      18.755  -0.297  14.815  0.00  0.00     0.087 N 
ATOM      6  C1  <0> d   1      18.377  -1.283  15.835  0.00  0.00     0.310 C 
ATOM      7  C22 <0> d   1      19.598  -0.908  13.777  0.00  0.00     0.302 C 
ATOM      8  C21 <0> d   1      20.035   0.167  12.780  0.00  0.00     0.304 C 
ENDBRANCH   1   2
BRANCH   1   9
ATOM      9  C8  <0> d   1      18.552   3.097  11.467  0.00  0.00    -0.021 A 
ATOM     10  C13 <0> d   1      17.416   3.466  10.771  0.00  0.00     0.010 A 
ATOM     11  C12 <0> d   1      16.796   4.670  11.049  0.00  0.00     0.001 A 
ATOM     12  C11 <0> d   1      17.316   5.508  12.017  0.00  0.00     0.000 A 
ATOM     13  C10 <0> d   1      18.455   5.141  12.710  0.00  0.00     0.001 A 
ATOM     14  C9  <0> d   1      19.072   3.935  12.434  0.00  0.00     0.010 A 
ENDBRANCH   1   9
BRANCH   1  15
ATOM     15  C14 <0> d   1      18.790   1.293   9.809  0.00  0.00    -0.021 A 
ATOM     16  C20 <0> d   1      19.397   1.787   8.670  0.00  0.00     0.011 A 
ATOM     17  C19 <0> d   1      19.004   1.335   7.425  0.00  0.00     0.024 A 
ATOM     18  C17 <0> d   1      17.994   0.395   7.319  0.00  0.00     0.034 A 
ATOM     19  C16 <0> d   1      17.383  -0.096   8.459  0.00  0.00     0.024 A 
ATOM     20 Cl18 <0> d   1      17.494  -0.169   5.755  0.00  0.00    -0.084 Cl
ATOM     21  C15 <0> d   1      17.782   0.354   9.704  0.00  0.00     0.011 A 
ENDBRANCH   1  15
TORSDOF 3
ENDMDL
MODEL 6
REMARK VINA RESULT:      -7.4      2.503      4.739
REMARK  3 active torsions:
REMARK  status: ('A' for Active; 'I' for Inactive)
REMARK    1  A    between atoms: N5_5  and  C6_6 
REMARK    2  A    between atoms: C6_6  and  C8_7 
REMARK    3  A    between atoms: C6_6  and  C14_13 
ROOT
ATOM      1  C6  <0> d   1      17.703  -0.699  11.164  0.00  0.00     0.289 C 
ENDROOT
BRANCH   1   2
ATOM      2  N5  <0> d   1      18.294   0.168  12.193  0.00  0.00     0.105 N 
ATOM      3  C4  <0> d   1      18.236  -0.471  13.515  0.00  0.00     0.304 C 
ATOM      4  C3  <0> d   1      18.931   0.426  14.543  0.00  0.00     0.302 C 
ATOM      5  N2  <0> d   1      18.274   1.740  14.566  0.00  0.00     0.087 N 
ATOM      6  C1  <0> d   1      18.865   2.606  15.595  0.00  0.00     0.310 C 
ATOM      7  C22 <0> d   1      18.331   2.379  13.244  0.00  0.00     0.302 C 
ATOM      8  C21 <0> d   1      17.636   1.482  12.217  0.00  0.00     0.304 C 
ENDBRANCH   1   2
BRANCH   1   9
ATOM      9  C8  <0> d   1      18.233  -2.100  11.322  0.00  0.00    -0.021 A 
ATOM     10  C13 <0> d   1      17.356  -3.163  11.435  0.00  0.00     0.010 A 
ATOM     11  C12 <0> d   1      17.843  -4.448  11.576  0.00  0.00     0.001 A 
ATOM     12  C11 <0> d   1      19.206  -4.672  11.612  0.00  0.00     0.000 A 
ATOM     13  C10 <0> d   1      20.084  -3.609  11.504  0.00  0.00     0.001 A 
ATOM     14  C9  <0> d   1      19.597  -2.323  11.359  0.00  0.00     0.010 A 
ENDBRANCH   1   9
BRANCH   1  15
ATOM     15  C14 <0> d   1      18.065  -0.175   9.798  0.00  0.00    -0.021 A 
ATOM     16  C20 <0> d   1      17.313  -0.538   8.697  0.00  0.00     0.011 A 
ATOM     17  C19 <0> d   1      17.641  -0.054   7.445  0.00  0.00     0.024 A 
ATOM     18  C17 <0> d   1      18.730   0.785   7.292  0.00  0.00     0.034 A 
ATOM     19  C16 <0> d   1      19.487   1.145   8.394  0.00  0.00     0.024 A 
ATOM     20 Cl18 <0> d   1      19.148   1.389   5.719  0.00  0.00    -0.084 Cl
ATOM     21  C15 <0> d   1      19.154   0.664   9.646  0.00  0.00     0.011 A 
ENDBRANCH   1  15
TORSDOF 3
ENDMDL
MODEL 7
REMARK VINA RESULT:      -7.2      3.134      6.385
REMARK  3 active torsions:
REMARK  status: ('A' for Active; 'I' for Inactive)
REMARK    1  A    between atoms: N5_5  and  C6_6 
REMARK    2  A    between atoms: C6_6  and  C8_7 
REMARK    3  A    between atoms: C6_6  and  C14_13 
ROOT
ATOM      1  C6  <0> d   1      19.161  -0.456  12.217  0.00  0.00     0.289 C 
ENDROOT
BRANCH   1   2
ATOM      2  N5  <0> d   1      18.380  -1.427  11.437  0.00  0.00     0.105 N 
ATOM      3  C4  <0> d   1      18.223  -2.688  12.175  0.00  0.00     0.304 C 
ATOM      4  C3  <0> d   1      17.340  -3.641  11.366  0.00  0.00     0.302 C 
ATOM      5  N2  <0> d   1      17.951  -3.876  10.051  0.00  0.00     0.087 N 
ATOM      6  C1  <0> d   1      17.171  -4.846   9.271  0.00  0.00     0.310 C 
ATOM      7  C22 <0> d   1      18.110  -2.614   9.313  0.00  0.00     0.302 C 
ATOM      8  C21 <0> d   1      18.993  -1.661  10.122  0.00  0.00     0.304 C 
ENDBRANCH   1   2
BRANCH   1   9
ATOM      9  C8  <0> d   1      18.782  -0.559  13.671  0.00  0.00    -0.021 A 
ATOM     10  C13 <0> d   1      17.676   0.121  14.146  0.00  0.00     0.010 A 
ATOM     11  C12 <0> d   1      17.325   0.024  15.479  0.00  0.00     0.001 A 
ATOM     12  C11 <0> d   1      18.084  -0.747  16.340  0.00  0.00     0.000 A 
ATOM     13  C10 <0> d   1      19.193  -1.423  15.866  0.00  0.00     0.001 A 
ATOM     14  C9  <0> d   1      19.541  -1.329  14.531  0.00  0.00     0.010 A 
ENDBRANCH   1   9
BRANCH   1  15
ATOM     15  C14 <0> d   1      18.873   0.937  11.718  0.00  0.00    -0.021 A 
ATOM     16  C20 <0> d   1      17.670   1.213  11.096  0.00  0.00     0.011 A 
ATOM     17  C19 <0> d   1      17.402   2.490  10.644  0.00  0.00     0.024 A 
ATOM     18  C17 <0> d   1      18.343   3.491  10.804  0.00  0.00     0.034 A 
ATOM     19  C16 <0> d   1      19.550   3.214  11.422  0.00  0.00     0.024 A 
ATOM     20 Cl18 <0> d   1      18.011   5.096  10.229  0.00  0.00    -0.084 Cl
ATOM     21  C15 <0> d   1      19.814   1.936  11.878  0.00  0.00     0.011 A 
ENDBRANCH   1  15
TORSDOF 3
ENDMDL
MODEL 8
REMARK VINA RESULT:      -7.2      2.819      5.175
REMARK  3 active torsions:
REMARK  status: ('A' for Active; 'I' for Inactive)
REMARK    1  A    between atoms: N5_5  and  C6_6 
REMARK    2  A    between atoms: C6_6  and  C8_7 
REMARK    3  A    between atoms: C6_6  and  C14_13 
ROOT
ATOM      1  C6  <0> d   1      17.762  -0.504  12.462  0.00  0.00     0.289 C 
ENDROOT
BRANCH   1   2
ATOM      2  N5  <0> d   1      18.449  -1.629  11.812  0.00  0.00     0.105 N 
ATOM      3  C4  <0> d   1      18.434  -1.480  10.350  0.00  0.00     0.304 C 
ATOM      4  C3  <0> d   1      19.225  -2.626   9.715  0.00  0.00     0.302 C 
ATOM      5  N2  <0> d   1      18.632  -3.909  10.118  0.00  0.00     0.087 N 
ATOM      6  C1  <0> d   1      19.318  -5.034   9.468  0.00  0.00     0.310 C 
ATOM      7  C22 <0> d   1      18.646  -4.058  11.580  0.00  0.00     0.302 C 
ATOM      8  C21 <0> d   1      17.855  -2.912  12.214  0.00  0.00     0.304 C 
ENDBRANCH   1   2
BRANCH   1   9
ATOM      9  C8  <0> d   1      18.211   0.789  11.832  0.00  0.00    -0.021 A 
ATOM     10  C13 <0> d   1      17.344   1.501  11.023  0.00  0.00     0.010 A 
ATOM     11  C12 <0> d   1      17.754   2.689  10.449  0.00  0.00     0.001 A 
ATOM     12  C11 <0> d   1      19.032   3.163  10.677  0.00  0.00     0.000 A 
ATOM     13  C10 <0> d   1      19.901   2.449  11.482  0.00  0.00     0.001 A 
ATOM     14  C9  <0> d   1      19.489   1.262  12.059  0.00  0.00     0.010 A 
ENDBRANCH   1   9
BRANCH   1  15
ATOM     15  C14 <0> d   1      18.100  -0.491  13.931  0.00  0.00    -0.021 A 
ATOM     16  C20 <0> d   1      17.423   0.356  14.788  0.00  0.00     0.011 A 
ATOM     17  C19 <0> d   1      17.728   0.364  16.136  0.00  0.00     0.024 A 
ATOM     18  C17 <0> d   1      18.718  -0.468  16.625  0.00  0.00     0.034 A 
ATOM     19  C16 <0> d   1      19.399  -1.313  15.766  0.00  0.00     0.024 A 
ATOM     20 Cl18 <0> d   1      19.107  -0.454  18.317  0.00  0.00    -0.084 Cl
ATOM     21  C15 <0> d   1      19.090  -1.323  14.420  0.00  0.00     0.011 A 
ENDBRANCH   1  15
TORSDOF 3
ENDMDL
MODEL 9
REMARK VINA RESULT:      -7.0      3.251      5.399
REMARK  3 active torsions:
REMARK  status: ('A' for Active; 'I' for Inactive)
REMARK    1  A    between atoms: N5_5  and  C6_6 
REMARK    2  A    between atoms: C6_6  and  C8_7 
REMARK    3  A    between atoms: C6_6  and  C14_13 
ROOT
ATOM      1  C6  <0> d   1      17.579   1.833  12.994  0.00  0.00     0.289 C 
ENDROOT
BRANCH   1   2
ATOM      2  N5  <0> d   1      18.194   3.083  13.462  0.00  0.00     0.105 N 
ATOM      3  C4  <0> d   1      18.515   3.006  14.894  0.00  0.00     0.304 C 
ATOM      4  C3  <0> d   1      19.224   4.293  15.324  0.00  0.00     0.302 C 
ATOM      5  N2  <0> d   1      18.358   5.445  15.041  0.00  0.00     0.087 N 
ATOM      6  C1  <0> d   1      18.973   6.695  15.509  0.00  0.00     0.310 C 
ATOM      7  C22 <0> d   1      18.037   5.521  13.609  0.00  0.00     0.302 C 
ATOM      8  C21 <0> d   1      17.327   4.235  13.179  0.00  0.00     0.304 C 
ENDBRANCH   1   2
BRANCH   1   9
ATOM      9  C8  <0> d   1      18.106   0.679  13.807  0.00  0.00    -0.021 A 
ATOM     10  C13 <0> d   1      19.290   0.064  13.447  0.00  0.00     0.010 A 
ATOM     11  C12 <0> d   1      19.776  -0.992  14.195  0.00  0.00     0.001 A 
ATOM     12  C11 <0> d   1      19.073  -1.438  15.298  0.00  0.00     0.000 A 
ATOM     13  C10 <0> d   1      17.886  -0.827  15.656  0.00  0.00     0.001 A 
ATOM     14  C9  <0> d   1      17.402   0.232  14.909  0.00  0.00     0.010 A 
ENDBRANCH   1   9
BRANCH   1  15
ATOM     15  C14 <0> d   1      17.917   1.621  11.540  0.00  0.00    -0.021 A 
ATOM     16  C20 <0> d   1      17.258   0.647  10.813  0.00  0.00     0.011 A 
ATOM     17  C19 <0> d   1      17.563   0.456   9.479  0.00  0.00     0.024 A 
ATOM     18  C17 <0> d   1      18.537   1.231   8.875  0.00  0.00     0.034 A 
ATOM     19  C16 <0> d   1      19.200   2.202   9.605  0.00  0.00     0.024 A 
ATOM     20 Cl18 <0> d   1      18.926   0.986   7.201  0.00  0.00    -0.084 Cl
ATOM     21  C15 <0> d   1      18.890   2.396  10.937  0.00  0.00     0.011 A 
ENDBRANCH   1  15
TORSDOF 3
ENDMDL
