MODEL 1
REMARK VINA RESULT:      -9.1      0.000      0.000
REMARK  6 active torsions:
REMARK  status: ('A' for Active; 'I' for Inactive)
REMARK    1  A    between atoms: C2_2  and  C3_3 
REMARK       I    between atoms: C3_3  and  N5_5 
REMARK    2  A    between atoms: C9_9  and  N11_10 
REMARK    3  A    between atoms: C13_12  and  C14_13 
REMARK    4  A    between atoms: C17_16  and  O18_17 
REMARK    5  A    between atoms: O18_17  and  C19_18 
REMARK    6  A    between atoms: C28_27  and  N29_28 
ROOT
ATOM      1  N11 ZIN A   1      17.902   2.704  12.638  0.00  0.00    -0.244 N 
ATOM      2  N12 ZIN A   1      17.738   2.682  11.249  0.00  0.00    -0.169 NA
ATOM      3  C13 ZIN A   1      18.190   1.548  10.765  0.00  0.00     0.105 A 
ATOM      4  C27 ZIN A   1      18.688   0.760  11.892  0.00  0.00     0.088 A 
ATOM      5  C28 ZIN A   1      19.278  -0.506  12.033  0.00  0.00     0.139 A 
ATOM      6  N30 ZIN A   1      19.614  -0.912  13.254  0.00  0.00    -0.224 NA
ATOM      7  C31 ZIN A   1      19.401  -0.148  14.310  0.00  0.00     0.237 A 
ATOM      8  N32 ZIN A   1      18.851   1.044  14.225  0.00  0.00    -0.222 NA
ATOM      9  C33 ZIN A   1      18.485   1.541  13.045  0.00  0.00     0.164 A 
ENDROOT
BRANCH   3  10
ATOM     10  C14 ZIN A   1      18.196   1.143   9.339  0.00  0.00    -0.004 A 
ATOM     11  C26 ZIN A   1      17.281   0.196   8.879  0.00  0.00     0.016 A 
ATOM     12  C25 ZIN A   1      17.284  -0.174   7.550  0.00  0.00     0.038 A 
ATOM     13  C17 ZIN A   1      18.204   0.387   6.674  0.00  0.00     0.076 A 
ATOM     14  C16 ZIN A   1      19.120   1.324   7.131  0.00  0.00     0.038 A 
ATOM     15  C15 ZIN A   1      19.119   1.703   8.457  0.00  0.00     0.016 A 
BRANCH  13  16
ATOM     16  O18 ZIN A   1      18.209   0.014   5.367  0.00  0.00    -0.311 OA
BRANCH  16  17
ATOM     17  C19 ZIN A   1      18.183  -1.314   5.082  0.00  0.00     0.076 A 
ATOM     18  C24 ZIN A   1      19.135  -2.161   5.629  0.00  0.00     0.037 A 
ATOM     19  C23 ZIN A   1      19.104  -3.511   5.341  0.00  0.00     0.003 A 
ATOM     20  C22 ZIN A   1      18.131  -4.018   4.500  0.00  0.00     0.000 A 
ATOM     21  C21 ZIN A   1      17.184  -3.175   3.948  0.00  0.00     0.003 A 
ATOM     22  C20 ZIN A   1      17.207  -1.824   4.237  0.00  0.00     0.037 A 
ENDBRANCH  16  17
ENDBRANCH  13  16
ENDBRANCH   3  10
BRANCH   1  23
ATOM     23  C9  ZIN A   1      17.514   3.809  13.518  0.00  0.00     0.130 C 
ATOM     24  C8  ZIN A   1      16.879   4.926  12.686  0.00  0.00     0.030 C 
ATOM     25  C7  ZIN A   1      16.443   6.066  13.608  0.00  0.00     0.022 C 
ATOM     26  C6  ZIN A   1      17.671   6.636  14.326  0.00  0.00     0.126 C 
ATOM     27  N5  ZIN A   1      18.370   5.539  15.010  0.00  0.00    -0.347 N 
ATOM     28  C3  ZIN A   1      18.653   5.621  16.325  0.00  0.00     0.242 C 
ATOM     29  C34 ZIN A   1      18.759   4.356  14.232  0.00  0.00     0.153 C 
ATOM     30  O4  ZIN A   1      19.320   4.756  16.859  0.00  0.00    -0.268 OA
BRANCH  28  31
ATOM     31  C2  ZIN A   1      18.156   6.758  17.115  0.00  0.00     0.064 C 
ATOM     32  C1  ZIN A   1      17.298   6.550  18.111  0.00  0.00     0.017 C 
ENDBRANCH  28  31
ENDBRANCH   1  23
BRANCH   5  33
ATOM     33  N29 ZIN A   1      19.504  -1.310  10.933  0.00  0.00    -0.383 N 
ATOM     34  H53 ZIN A   1      18.759  -1.745  10.490  0.00  0.00     0.157 HD
ATOM     35  H54 ZIN A   1      20.406  -1.440  10.604  0.00  0.00     0.157 HD
ENDBRANCH   5  33
TORSDOF 6
ENDMDL
MODEL 2
REMARK VINA RESULT:      -8.8      3.456     10.110
REMARK  6 active torsions:
REMARK  status: ('A' for Active; 'I' for Inactive)
REMARK    1  A    between atoms: C2_2  and  C3_3 
REMARK       I    between atoms: C3_3  and  N5_5 
REMARK    2  A    between atoms: C9_9  and  N11_10 
REMARK    3  A    between atoms: C13_12  and  C14_13 
REMARK    4  A    between atoms: C17_16  and  O18_17 
REMARK    5  A    between atoms: O18_17  and  C19_18 
REMARK    6  A    between atoms: C28_27  and  N29_28 
ROOT
ATOM      1  N11 ZIN A   1      18.521  -3.581   8.221  0.00  0.00    -0.244 N 
ATOM      2  N12 ZIN A   1      18.248  -2.222   8.030  0.00  0.00    -0.169 NA
ATOM      3  C13 ZIN A   1      18.639  -1.538   9.080  0.00  0.00     0.105 A 
ATOM      4  C27 ZIN A   1      19.209  -2.488  10.034  0.00  0.00     0.088 A 
ATOM      5  C28 ZIN A   1      19.785  -2.388  11.310  0.00  0.00     0.139 A 
ATOM      6  N30 ZIN A   1      20.209  -3.501  11.900  0.00  0.00    -0.224 NA
ATOM      7  C31 ZIN A   1      20.094  -4.675  11.304  0.00  0.00     0.237 A 
ATOM      8  N32 ZIN A   1      19.561  -4.817  10.110  0.00  0.00    -0.222 NA
ATOM      9  C33 ZIN A   1      19.102  -3.760   9.441  0.00  0.00     0.164 A 
ENDROOT
BRANCH   3  10
ATOM     10  C14 ZIN A   1      18.523  -0.070   9.263  0.00  0.00    -0.004 A 
ATOM     11  C26 ZIN A   1      17.542   0.452  10.105  0.00  0.00     0.016 A 
ATOM     12  C25 ZIN A   1      17.442   1.817  10.278  0.00  0.00     0.038 A 
ATOM     13  C17 ZIN A   1      18.308   2.669   9.607  0.00  0.00     0.076 A 
ATOM     14  C16 ZIN A   1      19.282   2.151   8.764  0.00  0.00     0.038 A 
ATOM     15  C15 ZIN A   1      19.392   0.788   8.590  0.00  0.00     0.016 A 
BRANCH  13  16
ATOM     16  O18 ZIN A   1      18.201   4.014   9.776  0.00  0.00    -0.311 OA
BRANCH  16  17
ATOM     17  C19 ZIN A   1      18.021   4.486  11.036  0.00  0.00     0.076 A 
ATOM     18  C24 ZIN A   1      19.033   4.359  11.977  0.00  0.00     0.037 A 
ATOM     19  C23 ZIN A   1      18.849   4.845  13.257  0.00  0.00     0.003 A 
ATOM     20  C22 ZIN A   1      17.654   5.447  13.604  0.00  0.00     0.000 A 
ATOM     21  C21 ZIN A   1      16.642   5.570  12.671  0.00  0.00     0.003 A 
ATOM     22  C20 ZIN A   1      16.823   5.091  11.387  0.00  0.00     0.037 A 
ENDBRANCH  16  17
ENDBRANCH  13  16
ENDBRANCH   3  10
BRANCH   1  23
ATOM     23  C9  ZIN A   1      18.222  -4.647   7.262  0.00  0.00     0.130 C 
ATOM     24  C8  ZIN A   1      18.046  -4.044   5.866  0.00  0.00     0.030 C 
ATOM     25  C7  ZIN A   1      17.766  -5.160   4.858  0.00  0.00     0.022 C 
ATOM     26  C6  ZIN A   1      16.467  -5.877   5.242  0.00  0.00     0.126 C 
ATOM     27  N5  ZIN A   1      16.574  -6.334   6.635  0.00  0.00    -0.347 N 
ATOM     28  C3  ZIN A   1      16.350  -7.624   6.952  0.00  0.00     0.242 C 
ATOM     29  C34 ZIN A   1      16.923  -5.356   7.674  0.00  0.00     0.153 C 
ATOM     30  O4  ZIN A   1      16.341  -7.971   8.118  0.00  0.00    -0.268 OA
BRANCH  28  31
ATOM     31  C2  ZIN A   1      16.118  -8.614   5.889  0.00  0.00     0.064 C 
ATOM     32  C1  ZIN A   1      16.992  -9.597   5.693  0.00  0.00     0.017 C 
ENDBRANCH  28  31
ENDBRANCH   1  23
BRANCH   5  33
ATOM     33  N29 ZIN A   1      19.908  -1.164  11.938  0.00  0.00    -0.383 N 
ATOM     34  H53 ZIN A   1      20.610  -0.550  11.670  0.00  0.00     0.157 HD
ATOM     35  H54 ZIN A   1      19.294  -0.918  12.647  0.00  0.00     0.157 HD
ENDBRANCH   5  33
TORSDOF 6
ENDMDL
MODEL 3
REMARK VINA RESULT:      -8.8      2.814     10.517
REMARK  6 active torsions:
REMARK  status: ('A' for Active; 'I' for Inactive)
REMARK    1  A    between atoms: C2_2  and  C3_3 
REMARK       I    between atoms: C3_3  and  N5_5 
REMARK    2  A    between atoms: C9_9  and  N11_10 
REMARK    3  A    between atoms: C13_12  and  C14_13 
REMARK    4  A    between atoms: C17_16  and  O18_17 
REMARK    5  A    between atoms: O18_17  and  C19_18 
REMARK    6  A    between atoms: C28_27  and  N29_28 
ROOT
ATOM      1  N11 ZIN A   1      18.193  -1.520   9.317  0.00  0.00    -0.244 N 
ATOM      2  N12 ZIN A   1      18.091  -1.818  10.680  0.00  0.00    -0.169 NA
ATOM      3  C13 ZIN A   1      18.406  -0.761  11.392  0.00  0.00     0.105 A 
ATOM      4  C27 ZIN A   1      18.741   0.312  10.457  0.00  0.00     0.088 A 
ATOM      5  C28 ZIN A   1      19.147   1.650  10.586  0.00  0.00     0.139 A 
ATOM      6  N30 ZIN A   1      19.369   2.351   9.478  0.00  0.00    -0.224 NA
ATOM      7  C31 ZIN A   1      19.214   1.807   8.284  0.00  0.00     0.237 A 
ATOM      8  N32 ZIN A   1      18.836   0.559   8.115  0.00  0.00    -0.222 NA
ATOM      9  C33 ZIN A   1      18.594  -0.226   9.164  0.00  0.00     0.164 A 
ENDROOT
BRANCH   3  10
ATOM     10  C14 ZIN A   1      18.421  -0.673  12.873  0.00  0.00    -0.004 A 
ATOM     11  C26 ZIN A   1      19.414  -1.327  13.601  0.00  0.00     0.016 A 
ATOM     12  C25 ZIN A   1      19.429  -1.238  14.977  0.00  0.00     0.038 A 
ATOM     13  C17 ZIN A   1      18.449  -0.507  15.637  0.00  0.00     0.076 A 
ATOM     14  C16 ZIN A   1      17.456   0.140  14.915  0.00  0.00     0.038 A 
ATOM     15  C15 ZIN A   1      17.439   0.059  13.538  0.00  0.00     0.016 A 
BRANCH  13  16
ATOM     16  O18 ZIN A   1      18.463  -0.427  16.994  0.00  0.00    -0.311 OA
BRANCH  16  17
ATOM     17  C19 ZIN A   1      18.365   0.803  17.561  0.00  0.00     0.076 A 
ATOM     18  C24 ZIN A   1      17.360   1.066  18.481  0.00  0.00     0.037 A 
ATOM     19  C23 ZIN A   1      17.265   2.317  19.060  0.00  0.00     0.003 A 
ATOM     20  C22 ZIN A   1      18.164   3.309  18.716  0.00  0.00     0.000 A 
ATOM     21  C21 ZIN A   1      19.163   3.052  17.796  0.00  0.00     0.003 A 
ATOM     22  C20 ZIN A   1      19.266   1.800  17.218  0.00  0.00     0.037 A 
ENDBRANCH  16  17
ENDBRANCH  13  16
ENDBRANCH   3  10
BRANCH   1  23
ATOM     23  C9  ZIN A   1      17.919  -2.455   8.223  0.00  0.00     0.130 C 
ATOM     24  C8  ZIN A   1      17.917  -3.887   8.764  0.00  0.00     0.030 C 
ATOM     25  C7  ZIN A   1      17.598  -4.862   7.629  0.00  0.00     0.022 C 
ATOM     26  C6  ZIN A   1      18.680  -4.755   6.550  0.00  0.00     0.126 C 
ATOM     27  N5  ZIN A   1      18.789  -3.351   6.127  0.00  0.00    -0.347 N 
ATOM     28  C3  ZIN A   1      18.693  -3.018   4.826  0.00  0.00     0.242 C 
ATOM     29  C34 ZIN A   1      19.011  -2.322   7.151  0.00  0.00     0.153 C 
ATOM     30  O4  ZIN A   1      18.886  -1.869   4.477  0.00  0.00    -0.268 OA
BRANCH  28  31
ATOM     31  C2  ZIN A   1      18.355  -4.043   3.826  0.00  0.00     0.064 C 
ATOM     32  C1  ZIN A   1      17.139  -4.070   3.287  0.00  0.00     0.017 C 
ENDBRANCH  28  31
ENDBRANCH   1  23
BRANCH   5  33
ATOM     33  N29 ZIN A   1      19.311   2.224  11.831  0.00  0.00    -0.383 N 
ATOM     34  H53 ZIN A   1      18.763   2.981  12.091  0.00  0.00     0.157 HD
ATOM     35  H54 ZIN A   1      19.973   1.871  12.445  0.00  0.00     0.157 HD
ENDBRANCH   5  33
TORSDOF 6
ENDMDL
MODEL 4
REMARK VINA RESULT:      -8.8      3.262     10.831
REMARK  6 active torsions:
REMARK  status: ('A' for Active; 'I' for Inactive)
REMARK    1  A    between atoms: C2_2  and  C3_3 
REMARK       I    between atoms: C3_3  and  N5_5 
REMARK    2  A    between atoms: C9_9  and  N11_10 
REMARK    3  A    between atoms: C13_12  and  C14_13 
REMARK    4  A    between atoms: C17_16  and  O18_17 
REMARK    5  A    between atoms: O18_17  and  C19_18 
REMARK    6  A    between atoms: C28_27  and  N29_28 
ROOT
ATOM      1  N11 ZIN A   1      17.994  -2.537  10.482  0.00  0.00    -0.244 N 
ATOM      2  N12 ZIN A   1      17.886  -2.555  11.876  0.00  0.00    -0.169 NA
ATOM      3  C13 ZIN A   1      18.328  -1.423  12.372  0.00  0.00     0.105 A 
ATOM      4  C27 ZIN A   1      18.758  -0.592  11.248  0.00  0.00     0.088 A 
ATOM      5  C28 ZIN A   1      19.309   0.692  11.117  0.00  0.00     0.139 A 
ATOM      6  N30 ZIN A   1      19.585   1.139   9.895  0.00  0.00    -0.224 NA
ATOM      7  C31 ZIN A   1      19.349   0.397   8.828  0.00  0.00     0.237 A 
ATOM      8  N32 ZIN A   1      18.834  -0.811   8.903  0.00  0.00    -0.222 NA
ATOM      9  C33 ZIN A   1      18.529  -1.348  10.083  0.00  0.00     0.164 A 
ENDROOT
BRANCH   3  10
ATOM     10  C14 ZIN A   1      18.381  -1.054  13.807  0.00  0.00    -0.004 A 
ATOM     11  C26 ZIN A   1      19.358  -1.607  14.634  0.00  0.00     0.016 A 
ATOM     12  C25 ZIN A   1      19.409  -1.257  15.967  0.00  0.00     0.038 A 
ATOM     13  C17 ZIN A   1      18.480  -0.365  16.488  0.00  0.00     0.076 A 
ATOM     14  C16 ZIN A   1      17.503   0.181  15.669  0.00  0.00     0.038 A 
ATOM     15  C15 ZIN A   1      17.450  -0.160  14.333  0.00  0.00     0.016 A 
BRANCH  13  16
ATOM     16  O18 ZIN A   1      18.529  -0.029  17.804  0.00  0.00    -0.311 OA
BRANCH  16  17
ATOM     17  C19 ZIN A   1      18.305   1.268  18.139  0.00  0.00     0.076 A 
ATOM     18  C24 ZIN A   1      19.161   2.261  17.687  0.00  0.00     0.037 A 
ATOM     19  C23 ZIN A   1      18.928   3.580  18.025  0.00  0.00     0.003 A 
ATOM     20  C22 ZIN A   1      17.849   3.910  18.823  0.00  0.00     0.000 A 
ATOM     21  C21 ZIN A   1      16.997   2.922  19.281  0.00  0.00     0.003 A 
ATOM     22  C20 ZIN A   1      17.222   1.602  18.941  0.00  0.00     0.037 A 
ENDBRANCH  16  17
ENDBRANCH  13  16
ENDBRANCH   3  10
BRANCH   1  23
ATOM     23  C9  ZIN A   1      17.599  -3.629   9.588  0.00  0.00     0.130 C 
ATOM     24  C8  ZIN A   1      16.897  -4.722  10.397  0.00  0.00     0.030 C 
ATOM     25  C7  ZIN A   1      16.455  -5.848   9.460  0.00  0.00     0.022 C 
ATOM     26  C6  ZIN A   1      17.687  -6.461   8.787  0.00  0.00     0.126 C 
ATOM     27  N5  ZIN A   1      18.447  -5.389   8.127  0.00  0.00    -0.347 N 
ATOM     28  C3  ZIN A   1      18.773  -5.483   6.823  0.00  0.00     0.242 C 
ATOM     29  C34 ZIN A   1      18.849  -4.219   8.918  0.00  0.00     0.153 C 
ATOM     30  O4  ZIN A   1      19.488  -4.641   6.313  0.00  0.00    -0.268 OA
BRANCH  28  31
ATOM     31  C2  ZIN A   1      18.265  -6.602   6.016  0.00  0.00     0.064 C 
ATOM     32  C1  ZIN A   1      17.753  -6.373   4.809  0.00  0.00     0.017 C 
ENDBRANCH  28  31
ENDBRANCH   1  23
BRANCH   5  33
ATOM     33  N29 ZIN A   1      19.559   1.473  12.228  0.00  0.00    -0.383 N 
ATOM     34  H53 ZIN A   1      19.111   2.328  12.330  0.00  0.00     0.157 HD
ATOM     35  H54 ZIN A   1      20.181   1.169  12.907  0.00  0.00     0.157 HD
ENDBRANCH   5  33
TORSDOF 6
ENDMDL
MODEL 5
REMARK VINA RESULT:      -8.7      4.622     11.023
REMARK  6 active torsions:
REMARK  status: ('A' for Active; 'I' for Inactive)
REMARK    1  A    between atoms: C2_2  and  C3_3 
REMARK       I    between atoms: C3_3  and  N5_5 
REMARK    2  A    between atoms: C9_9  and  N11_10 
REMARK    3  A    between atoms: C13_12  and  C14_13 
REMARK    4  A    between atoms: C17_16  and  O18_17 
REMARK    5  A    between atoms: O18_17  and  C19_18 
REMARK    6  A    between atoms: C28_27  and  N29_28 
ROOT
ATOM      1  N11 ZIN A   1      17.073  -4.778   9.228  0.00  0.00    -0.244 N 
ATOM      2  N12 ZIN A   1      17.027  -4.026  10.406  0.00  0.00    -0.169 NA
ATOM      3  C13 ZIN A   1      17.777  -2.955  10.281  0.00  0.00     0.105 A 
ATOM      4  C27 ZIN A   1      18.362  -2.986   8.941  0.00  0.00     0.088 A 
ATOM      5  C28 ZIN A   1      19.228  -2.152   8.217  0.00  0.00     0.139 A 
ATOM      6  N30 ZIN A   1      19.558  -2.507   6.979  0.00  0.00    -0.224 NA
ATOM      7  C31 ZIN A   1      19.085  -3.616   6.439  0.00  0.00     0.237 A 
ATOM      8  N32 ZIN A   1      18.271  -4.427   7.079  0.00  0.00    -0.222 NA
ATOM      9  C33 ZIN A   1      17.887  -4.160   8.326  0.00  0.00     0.164 A 
ENDROOT
BRANCH   3  10
ATOM     10  C14 ZIN A   1      17.990  -1.908  11.309  0.00  0.00    -0.004 A 
ATOM     11  C26 ZIN A   1      19.038  -2.029  12.221  0.00  0.00     0.016 A 
ATOM     12  C25 ZIN A   1      19.237  -1.050  13.172  0.00  0.00     0.038 A 
ATOM     13  C17 ZIN A   1      18.390   0.048  13.228  0.00  0.00     0.076 A 
ATOM     14  C16 ZIN A   1      17.343   0.168  12.325  0.00  0.00     0.038 A 
ATOM     15  C15 ZIN A   1      17.141  -0.804  11.368  0.00  0.00     0.016 A 
BRANCH  13  16
ATOM     16  O18 ZIN A   1      18.586   1.008  14.171  0.00  0.00    -0.311 OA
BRANCH  16  17
ATOM     17  C19 ZIN A   1      18.470   0.652  15.477  0.00  0.00     0.076 A 
ATOM     18  C24 ZIN A   1      19.272   1.254  16.435  0.00  0.00     0.037 A 
ATOM     19  C23 ZIN A   1      19.150   0.894  17.763  0.00  0.00     0.003 A 
ATOM     20  C22 ZIN A   1      18.236  -0.074  18.136  0.00  0.00     0.000 A 
ATOM     21  C21 ZIN A   1      17.439  -0.681  17.183  0.00  0.00     0.003 A 
ATOM     22  C20 ZIN A   1      17.554  -0.320  15.854  0.00  0.00     0.037 A 
ENDBRANCH  16  17
ENDBRANCH  13  16
ENDBRANCH   3  10
BRANCH   1  23
ATOM     23  C9  ZIN A   1      16.362  -6.038   9.000  0.00  0.00     0.130 C 
ATOM     24  C8  ZIN A   1      17.306  -7.046   8.339  0.00  0.00     0.030 C 
ATOM     25  C7  ZIN A   1      16.574  -8.373   8.131  0.00  0.00     0.022 C 
ATOM     26  C6  ZIN A   1      15.376  -8.151   7.202  0.00  0.00     0.126 C 
ATOM     27  N5  ZIN A   1      14.538  -7.080   7.759  0.00  0.00    -0.347 N 
ATOM     28  C3  ZIN A   1      13.222  -7.279   7.970  0.00  0.00     0.242 C 
ATOM     29  C34 ZIN A   1      15.161  -5.788   8.076  0.00  0.00     0.153 C 
ATOM     30  O4  ZIN A   1      12.518  -6.356   8.335  0.00  0.00    -0.268 OA
BRANCH  28  31
ATOM     31  C2  ZIN A   1      12.636  -8.611   7.758  0.00  0.00     0.064 C 
ATOM     32  C1  ZIN A   1      11.753  -9.095   8.628  0.00  0.00     0.017 C 
ENDBRANCH  28  31
ENDBRANCH   1  23
BRANCH   5  33
ATOM     33  N29 ZIN A   1      19.727  -0.991   8.776  0.00  0.00    -0.383 N 
ATOM     34  H53 ZIN A   1      19.187  -0.486   9.404  0.00  0.00     0.157 HD
ATOM     35  H54 ZIN A   1      20.615  -0.682   8.541  0.00  0.00     0.157 HD
ENDBRANCH   5  33
TORSDOF 6
ENDMDL
MODEL 6
REMARK VINA RESULT:      -8.7      4.096     10.688
REMARK  6 active torsions:
REMARK  status: ('A' for Active; 'I' for Inactive)
REMARK    1  A    between atoms: C2_2  and  C3_3 
REMARK       I    between atoms: C3_3  and  N5_5 
REMARK    2  A    between atoms: C9_9  and  N11_10 
REMARK    3  A    between atoms: C13_12  and  C14_13 
REMARK    4  A    between atoms: C17_16  and  O18_17 
REMARK    5  A    between atoms: O18_17  and  C19_18 
REMARK    6  A    between atoms: C28_27  and  N29_28 
ROOT
ATOM      1  N11 ZIN A   1      18.542  -2.879   6.807  0.00  0.00    -0.244 N 
ATOM      2  N12 ZIN A   1      18.558  -2.684   8.192  0.00  0.00    -0.169 NA
ATOM      3  C13 ZIN A   1      18.786  -1.420   8.461  0.00  0.00     0.105 A 
ATOM      4  C27 ZIN A   1      18.933  -0.721   7.185  0.00  0.00     0.088 A 
ATOM      5  C28 ZIN A   1      19.182   0.607   6.803  0.00  0.00     0.139 A 
ATOM      6  N30 ZIN A   1      19.252   0.887   5.506  0.00  0.00    -0.224 NA
ATOM      7  C31 ZIN A   1      19.092  -0.055   4.594  0.00  0.00     0.237 A 
ATOM      8  N32 ZIN A   1      18.857  -1.311   4.905  0.00  0.00    -0.222 NA
ATOM      9  C33 ZIN A   1      18.774  -1.692   6.178  0.00  0.00     0.164 A 
ENDROOT
BRANCH   3  10
ATOM     10  C14 ZIN A   1      18.879  -0.813   9.811  0.00  0.00    -0.004 A 
ATOM     11  C26 ZIN A   1      17.727  -0.362  10.454  0.00  0.00     0.016 A 
ATOM     12  C25 ZIN A   1      17.815   0.196  11.712  0.00  0.00     0.038 A 
ATOM     13  C17 ZIN A   1      19.052   0.320  12.333  0.00  0.00     0.076 A 
ATOM     14  C16 ZIN A   1      20.201  -0.122  11.692  0.00  0.00     0.038 A 
ATOM     15  C15 ZIN A   1      20.119  -0.686  10.436  0.00  0.00     0.016 A 
BRANCH  13  16
ATOM     16  O18 ZIN A   1      19.136   0.877  13.569  0.00  0.00    -0.311 OA
BRANCH  16  17
ATOM     17  C19 ZIN A   1      18.659   0.165  14.623  0.00  0.00     0.076 A 
ATOM     18  C24 ZIN A   1      19.223  -1.061  14.945  0.00  0.00     0.037 A 
ATOM     19  C23 ZIN A   1      18.739  -1.781  16.021  0.00  0.00     0.003 A 
ATOM     20  C22 ZIN A   1      17.687  -1.286  16.769  0.00  0.00     0.000 A 
ATOM     21  C21 ZIN A   1      17.120  -0.068  16.447  0.00  0.00     0.003 A 
ATOM     22  C20 ZIN A   1      17.603   0.660  15.375  0.00  0.00     0.037 A 
ENDBRANCH  16  17
ENDBRANCH  13  16
ENDBRANCH   3  10
BRANCH   1  23
ATOM     23  C9  ZIN A   1      18.317  -4.162   6.136  0.00  0.00     0.130 C 
ATOM     24  C8  ZIN A   1      17.478  -3.938   4.875  0.00  0.00     0.030 C 
ATOM     25  C7  ZIN A   1      17.270  -5.272   4.155  0.00  0.00     0.022 C 
ATOM     26  C6  ZIN A   1      16.511  -6.233   5.077  0.00  0.00     0.126 C 
ATOM     27  N5  ZIN A   1      17.238  -6.340   6.350  0.00  0.00    -0.347 N 
ATOM     28  C3  ZIN A   1      17.592  -7.545   6.837  0.00  0.00     0.242 C 
ATOM     29  C34 ZIN A   1      17.564  -5.109   7.082  0.00  0.00     0.153 C 
ATOM     30  O4  ZIN A   1      18.102  -7.629   7.938  0.00  0.00    -0.268 OA
BRANCH  28  31
ATOM     31  C2  ZIN A   1      17.363  -8.759   6.038  0.00  0.00     0.064 C 
ATOM     32  C1  ZIN A   1      17.389  -9.954   6.622  0.00  0.00     0.017 C 
ENDBRANCH  28  31
ENDBRANCH   1  23
BRANCH   5  33
ATOM     33  N29 ZIN A   1      19.351   1.597   7.751  0.00  0.00    -0.383 N 
ATOM     34  H53 ZIN A   1      19.079   2.507   7.554  0.00  0.00     0.157 HD
ATOM     35  H54 ZIN A   1      19.740   1.383   8.613  0.00  0.00     0.157 HD
ENDBRANCH   5  33
TORSDOF 6
ENDMDL
MODEL 7
REMARK VINA RESULT:      -8.5      3.467      5.071
REMARK  6 active torsions:
REMARK  status: ('A' for Active; 'I' for Inactive)
REMARK    1  A    between atoms: C2_2  and  C3_3 
REMARK       I    between atoms: C3_3  and  N5_5 
REMARK    2  A    between atoms: C9_9  and  N11_10 
REMARK    3  A    between atoms: C13_12  and  C14_13 
REMARK    4  A    between atoms: C17_16  and  O18_17 
REMARK    5  A    between atoms: O18_17  and  C19_18 
REMARK    6  A    between atoms: C28_27  and  N29_28 
ROOT
ATOM      1  N11 ZIN A   1      19.086  -0.821  13.628  0.00  0.00    -0.244 N 
ATOM      2  N12 ZIN A   1      18.739  -2.130  13.276  0.00  0.00    -0.169 NA
ATOM      3  C13 ZIN A   1      18.665  -2.236  11.970  0.00  0.00     0.105 A 
ATOM      4  C27 ZIN A   1      18.980  -0.924  11.407  0.00  0.00     0.088 A 
ATOM      5  C28 ZIN A   1      19.069  -0.397  10.109  0.00  0.00     0.139 A 
ATOM      6  N30 ZIN A   1      19.392   0.886   9.969  0.00  0.00    -0.224 NA
ATOM      7  C31 ZIN A   1      19.624   1.649  11.023  0.00  0.00     0.237 A 
ATOM      8  N32 ZIN A   1      19.553   1.199  12.256  0.00  0.00    -0.222 NA
ATOM      9  C33 ZIN A   1      19.231  -0.071  12.498  0.00  0.00     0.164 A 
ENDROOT
BRANCH   3  10
ATOM     10  C14 ZIN A   1      18.325  -3.461  11.207  0.00  0.00    -0.004 A 
ATOM     11  C26 ZIN A   1      19.333  -4.203  10.593  0.00  0.00     0.016 A 
ATOM     12  C25 ZIN A   1      19.014  -5.346   9.889  0.00  0.00     0.038 A 
ATOM     13  C17 ZIN A   1      17.690  -5.750   9.783  0.00  0.00     0.076 A 
ATOM     14  C16 ZIN A   1      16.684  -5.010  10.388  0.00  0.00     0.038 A 
ATOM     15  C15 ZIN A   1      16.996  -3.870  11.098  0.00  0.00     0.016 A 
BRANCH  13  16
ATOM     16  O18 ZIN A   1      17.378  -6.873   9.083  0.00  0.00    -0.311 OA
BRANCH  16  17
ATOM     17  C19 ZIN A   1      16.657  -6.733   7.941  0.00  0.00     0.076 A 
ATOM     18  C24 ZIN A   1      15.416  -7.342   7.824  0.00  0.00     0.037 A 
ATOM     19  C23 ZIN A   1      14.682  -7.195   6.662  0.00  0.00     0.003 A 
ATOM     20  C22 ZIN A   1      15.188  -6.450   5.614  0.00  0.00     0.000 A 
ATOM     21  C21 ZIN A   1      16.427  -5.846   5.725  0.00  0.00     0.003 A 
ATOM     22  C20 ZIN A   1      17.162  -5.986   6.886  0.00  0.00     0.037 A 
ENDBRANCH  16  17
ENDBRANCH  13  16
ENDBRANCH   3  10
BRANCH   1  23
ATOM     23  C9  ZIN A   1      19.259  -0.330  14.997  0.00  0.00     0.130 C 
ATOM     24  C8  ZIN A   1      18.935  -1.452  15.987  0.00  0.00     0.030 C 
ATOM     25  C7  ZIN A   1      19.147  -0.950  17.416  0.00  0.00     0.022 C 
ATOM     26  C6  ZIN A   1      18.199   0.223  17.688  0.00  0.00     0.126 C 
ATOM     27  N5  ZIN A   1      18.404   1.246  16.652  0.00  0.00    -0.347 N 
ATOM     28  C3  ZIN A   1      18.670   2.522  16.992  0.00  0.00     0.242 C 
ATOM     29  C34 ZIN A   1      18.306   0.850  15.241  0.00  0.00     0.153 C 
ATOM     30  O4  ZIN A   1      18.736   3.379  16.132  0.00  0.00    -0.268 OA
BRANCH  28  31
ATOM     31  C2  ZIN A   1      18.880   2.879  18.403  0.00  0.00     0.064 C 
ATOM     32  C1  ZIN A   1      18.044   3.719  19.008  0.00  0.00     0.017 C 
ENDBRANCH  28  31
ENDBRANCH   1  23
BRANCH   5  33
ATOM     33  N29 ZIN A   1      18.827  -1.189   9.004  0.00  0.00    -0.383 N 
ATOM     34  H53 ZIN A   1      18.703  -0.780   8.132  0.00  0.00     0.157 HD
ATOM     35  H54 ZIN A   1      18.782  -2.153   9.098  0.00  0.00     0.157 HD
ENDBRANCH   5  33
TORSDOF 6
ENDMDL
MODEL 8
REMARK VINA RESULT:      -8.3      1.819      9.882
REMARK  6 active torsions:
REMARK  status: ('A' for Active; 'I' for Inactive)
REMARK    1  A    between atoms: C2_2  and  C3_3 
REMARK       I    between atoms: C3_3  and  N5_5 
REMARK    2  A    between atoms: C9_9  and  N11_10 
REMARK    3  A    between atoms: C13_12  and  C14_13 
REMARK    4  A    between atoms: C17_16  and  O18_17 
REMARK    5  A    between atoms: O18_17  and  C19_18 
REMARK    6  A    between atoms: C28_27  and  N29_28 
ROOT
ATOM      1  N11 ZIN A   1      19.201   0.374   9.262  0.00  0.00    -0.244 N 
ATOM      2  N12 ZIN A   1      18.973   1.691   9.676  0.00  0.00    -0.169 NA
ATOM      3  C13 ZIN A   1      18.953   1.748  10.987  0.00  0.00     0.105 A 
ATOM      4  C27 ZIN A   1      19.182   0.392  11.487  0.00  0.00     0.088 A 
ATOM      5  C28 ZIN A   1      19.273  -0.194  12.759  0.00  0.00     0.139 A 
ATOM      6  N30 ZIN A   1      19.496  -1.502  12.837  0.00  0.00    -0.224 NA
ATOM      7  C31 ZIN A   1      19.630  -2.237  11.747  0.00  0.00     0.237 A 
ATOM      8  N32 ZIN A   1      19.552  -1.731  10.535  0.00  0.00    -0.222 NA
ATOM      9  C33 ZIN A   1      19.325  -0.431  10.355  0.00  0.00     0.164 A 
ENDROOT
BRANCH   3  10
ATOM     10  C14 ZIN A   1      18.739   2.963  11.810  0.00  0.00    -0.004 A 
ATOM     11  C26 ZIN A   1      17.446   3.352  12.157  0.00  0.00     0.016 A 
ATOM     12  C25 ZIN A   1      17.250   4.478  12.927  0.00  0.00     0.038 A 
ATOM     13  C17 ZIN A   1      18.339   5.232  13.347  0.00  0.00     0.076 A 
ATOM     14  C16 ZIN A   1      19.627   4.851  12.997  0.00  0.00     0.038 A 
ATOM     15  C15 ZIN A   1      19.830   3.722  12.232  0.00  0.00     0.016 A 
BRANCH  13  16
ATOM     16  O18 ZIN A   1      18.141   6.346  14.100  0.00  0.00    -0.311 OA
BRANCH  16  17
ATOM     17  C19 ZIN A   1      17.566   6.196  15.322  0.00  0.00     0.076 A 
ATOM     18  C24 ZIN A   1      16.320   6.751  15.575  0.00  0.00     0.037 A 
ATOM     19  C23 ZIN A   1      15.735   6.593  16.817  0.00  0.00     0.003 A 
ATOM     20  C22 ZIN A   1      16.395   5.893  17.810  0.00  0.00     0.000 A 
ATOM     21  C21 ZIN A   1      17.640   5.345  17.562  0.00  0.00     0.003 A 
ATOM     22  C20 ZIN A   1      18.227   5.495  16.320  0.00  0.00     0.037 A 
ENDBRANCH  16  17
ENDBRANCH  13  16
ENDBRANCH   3  10
BRANCH   1  23
ATOM     23  C9  ZIN A   1      19.286  -0.072   7.869  0.00  0.00     0.130 C 
ATOM     24  C8  ZIN A   1      19.009   1.110   6.936  0.00  0.00     0.030 C 
ATOM     25  C7  ZIN A   1      19.130   0.653   5.481  0.00  0.00     0.022 C 
ATOM     26  C6  ZIN A   1      18.089  -0.436   5.203  0.00  0.00     0.126 C 
ATOM     27  N5  ZIN A   1      18.257  -1.513   6.190  0.00  0.00    -0.347 N 
ATOM     28  C3  ZIN A   1      18.415  -2.790   5.792  0.00  0.00     0.242 C 
ATOM     29  C34 ZIN A   1      18.241  -1.169   7.618  0.00  0.00     0.153 C 
ATOM     30  O4  ZIN A   1      18.450  -3.684   6.615  0.00  0.00    -0.268 OA
BRANCH  28  31
ATOM     31  C2  ZIN A   1      18.545  -3.103   4.360  0.00  0.00     0.064 C 
ATOM     32  C1  ZIN A   1      17.984  -4.204   3.867  0.00  0.00     0.017 C 
ENDBRANCH  28  31
ENDBRANCH   1  23
BRANCH   5  33
ATOM     33  N29 ZIN A   1      19.134   0.569  13.903  0.00  0.00    -0.383 N 
ATOM     34  H53 ZIN A   1      18.251   0.745  14.263  0.00  0.00     0.157 HD
ATOM     35  H54 ZIN A   1      19.918   0.927  14.346  0.00  0.00     0.157 HD
ENDBRANCH   5  33
TORSDOF 6
ENDMDL
MODEL 9
REMARK VINA RESULT:      -8.3      1.957      3.101
REMARK  6 active torsions:
REMARK  status: ('A' for Active; 'I' for Inactive)
REMARK    1  A    between atoms: C2_2  and  C3_3 
REMARK       I    between atoms: C3_3  and  N5_5 
REMARK    2  A    between atoms: C9_9  and  N11_10 
REMARK    3  A    between atoms: C13_12  and  C14_13 
REMARK    4  A    between atoms: C17_16  and  O18_17 
REMARK    5  A    between atoms: O18_17  and  C19_18 
REMARK    6  A    between atoms: C28_27  and  N29_28 
ROOT
ATOM      1  N11 ZIN A   1      18.777   3.100  14.215  0.00  0.00    -0.244 N 
ATOM      2  N12 ZIN A   1      18.805   2.637  12.896  0.00  0.00    -0.169 NA
ATOM      3  C13 ZIN A   1      18.851   1.325  12.885  0.00  0.00     0.105 A 
ATOM      4  C27 ZIN A   1      18.852   0.876  14.277  0.00  0.00     0.088 A 
ATOM      5  C28 ZIN A   1      18.889  -0.372  14.917  0.00  0.00     0.139 A 
ATOM      6  N30 ZIN A   1      18.876  -0.400  16.246  0.00  0.00    -0.224 NA
ATOM      7  C31 ZIN A   1      18.831   0.716  16.952  0.00  0.00     0.237 A 
ATOM      8  N32 ZIN A   1      18.796   1.907  16.395  0.00  0.00    -0.222 NA
ATOM      9  C33 ZIN A   1      18.810   2.039  15.070  0.00  0.00     0.164 A 
ENDROOT
BRANCH   3  10
ATOM     10  C14 ZIN A   1      18.893   0.458  11.682  0.00  0.00    -0.004 A 
ATOM     11  C26 ZIN A   1      20.119   0.097  11.125  0.00  0.00     0.016 A 
ATOM     12  C25 ZIN A   1      20.155  -0.715  10.011  0.00  0.00     0.038 A 
ATOM     13  C17 ZIN A   1      18.972  -1.162   9.437  0.00  0.00     0.076 A 
ATOM     14  C16 ZIN A   1      17.750  -0.800   9.987  0.00  0.00     0.038 A 
ATOM     15  C15 ZIN A   1      17.707   0.007  11.105  0.00  0.00     0.016 A 
BRANCH  13  16
ATOM     16  O18 ZIN A   1      19.011  -1.957   8.335  0.00  0.00    -0.311 OA
BRANCH  16  17
ATOM     17  C19 ZIN A   1      19.015  -1.357   7.117  0.00  0.00     0.076 A 
ATOM     18  C24 ZIN A   1      19.251  -2.107   5.974  0.00  0.00     0.037 A 
ATOM     19  C23 ZIN A   1      19.251  -1.495   4.735  0.00  0.00     0.003 A 
ATOM     20  C22 ZIN A   1      19.026  -0.135   4.635  0.00  0.00     0.000 A 
ATOM     21  C21 ZIN A   1      18.796   0.617   5.772  0.00  0.00     0.003 A 
ATOM     22  C20 ZIN A   1      18.790   0.008   7.013  0.00  0.00     0.037 A 
ENDBRANCH  16  17
ENDBRANCH  13  16
ENDBRANCH   3  10
BRANCH   1  23
ATOM     23  C9  ZIN A   1      18.725   4.508  14.617  0.00  0.00     0.130 C 
ATOM     24  C8  ZIN A   1      19.756   4.762  15.720  0.00  0.00     0.030 C 
ATOM     25  C7  ZIN A   1      19.726   6.239  16.117  0.00  0.00     0.022 C 
ATOM     26  C6  ZIN A   1      18.338   6.590  16.663  0.00  0.00     0.126 C 
ATOM     27  N5  ZIN A   1      17.329   6.213  15.663  0.00  0.00    -0.347 N 
ATOM     28  C3  ZIN A   1      16.422   7.112  15.231  0.00  0.00     0.242 C 
ATOM     29  C34 ZIN A   1      17.323   4.837  15.150  0.00  0.00     0.153 C 
ATOM     30  O4  ZIN A   1      15.530   6.763  14.482  0.00  0.00    -0.268 OA
BRANCH  28  31
ATOM     31  C2  ZIN A   1      16.513   8.514  15.665  0.00  0.00     0.064 C 
ATOM     32  C1  ZIN A   1      16.929   9.448  14.813  0.00  0.00     0.017 C 
ENDBRANCH  28  31
ENDBRANCH   1  23
BRANCH   5  33
ATOM     33  N29 ZIN A   1      18.936  -1.543  14.186  0.00  0.00    -0.383 N 
ATOM     34  H53 ZIN A   1      18.118  -2.024  13.988  0.00  0.00     0.157 HD
ATOM     35  H54 ZIN A   1      19.787  -1.884  13.870  0.00  0.00     0.157 HD
ENDBRANCH   5  33
TORSDOF 6
ENDMDL
