MODEL 1
REMARK VINA RESULT:      -7.9      0.000      0.000
REMARK  8 active torsions:
REMARK  status: ('A' for Active; 'I' for Inactive)
REMARK    1  A    between atoms: C4_3  and  N6_4 
REMARK       I    between atoms: N6_4  and  C7_5 
REMARK    2  A    between atoms: C7_5  and  C9_7 
REMARK    3  A    between atoms: C9_7  and  C18_16 
REMARK    4  A    between atoms: N10_8  and  O11_9 
REMARK    5  A    between atoms: O11_9  and  C12_10 
REMARK    6  A    between atoms: C12_10  and  C15_13 
REMARK    7  A    between atoms: C21_19  and  N22_20 
REMARK    8  A    between atoms: N26_24  and  S27_25 
ROOT
ATOM      1  C9  ZIN A   1      18.508  -1.356  11.314  0.00  0.00     0.180 C 
ATOM      2  N10 ZIN A   1      19.168  -0.598  10.486  0.00  0.00    -0.125 NA
ENDROOT
BRANCH   1   3
ATOM      3  C7  ZIN A   1      17.707  -0.745  12.401  0.00  0.00     0.275 C 
ATOM      4  N6  ZIN A   1      18.300  -0.393  13.559  0.00  0.00    -0.340 N 
ATOM      5  H34 ZIN A   1      19.233  -0.609  13.711  0.00  0.00     0.163 HD
ATOM      6  O8  ZIN A   1      16.516  -0.561  12.248  0.00  0.00    -0.266 OA
BRANCH   4   7
ATOM      7  C4  ZIN A   1      17.534   0.315  14.589  0.00  0.00     0.202 A 
ATOM      8  C2  ZIN A   1      17.956  -0.009  16.021  0.00  0.00     0.135 A 
ATOM      9  C1  ZIN A   1      16.774  -0.351  16.931  0.00  0.00     0.036 C 
ATOM     10  N26 ZIN A   1      18.439   1.362  16.202  0.00  0.00    -0.218 N 
ATOM     11  C24 ZIN A   1      18.079   1.672  14.945  0.00  0.00     0.260 A 
ATOM     12  O25 ZIN A   1      18.163   2.702  14.311  0.00  0.00    -0.270 OA
BRANCH  10  13
ATOM     13  S27 ZIN A   1      19.145   2.190  17.450  0.00  0.00     0.214 S 
ATOM     14  O28 ZIN A   1      19.840   1.208  18.267  0.00  0.00    -0.578 OA
ATOM     15  O29 ZIN A   1      20.061   3.148  16.851  0.00  0.00    -0.578 OA
ATOM     16  O30 ZIN A   1      18.070   2.846  18.178  0.00  0.00    -0.578 OA
ENDBRANCH  10  13
ENDBRANCH   4   7
ENDBRANCH   1   3
BRANCH   1  17
ATOM     17  C18 ZIN A   1      18.556  -2.827  11.169  0.00  0.00     0.102 A 
ATOM     18  N23 ZIN A   1      17.910  -3.648  11.997  0.00  0.00    -0.222 NA
ATOM     19  C21 ZIN A   1      18.024  -4.918  11.768  0.00  0.00     0.164 A 
ATOM     20  S20 ZIN A   1      19.059  -5.174  10.368  0.00  0.00    -0.062 SA
ATOM     21  C19 ZIN A   1      19.260  -3.434  10.194  0.00  0.00     0.087 A 
BRANCH  19  22
ATOM     22  N22 ZIN A   1      17.426  -5.921  12.513  0.00  0.00    -0.378 N 
ATOM     23  H42 ZIN A   1      16.534  -5.795  12.871  0.00  0.00     0.158 HD
ATOM     24  H43 ZIN A   1      17.901  -6.752  12.677  0.00  0.00     0.158 HD
ENDBRANCH  19  22
ENDBRANCH   1  17
BRANCH   2  25
ATOM     25  O11 ZIN A   1      19.214   0.804  10.691  0.00  0.00    -0.234 OA
BRANCH  25  26
ATOM     26  C12 ZIN A   1      18.512   1.559   9.702  0.00  0.00     0.171 C 
ATOM     27  C13 ZIN A   1      19.499   2.053   8.642  0.00  0.00     0.060 C 
ATOM     28  C14 ZIN A   1      17.454   0.674   9.040  0.00  0.00     0.060 C 
BRANCH  26  29
ATOM     29  C15 ZIN A   1      17.842   2.740  10.354  0.00  0.00     0.211 C 
ATOM     30  O16 ZIN A   1      18.096   3.871   9.976  0.00  0.00    -0.646 OA
ATOM     31  O17 ZIN A   1      17.043   2.565  11.259  0.00  0.00    -0.646 OA
ENDBRANCH  26  29
ENDBRANCH  25  26
ENDBRANCH   2  25
TORSDOF 8
ENDMDL
MODEL 2
REMARK VINA RESULT:      -7.9      4.700      8.446
REMARK  8 active torsions:
REMARK  status: ('A' for Active; 'I' for Inactive)
REMARK    1  A    between atoms: C4_3  and  N6_4 
REMARK       I    between atoms: N6_4  and  C7_5 
REMARK    2  A    between atoms: C7_5  and  C9_7 
REMARK    3  A    between atoms: C9_7  and  C18_16 
REMARK    4  A    between atoms: N10_8  and  O11_9 
REMARK    5  A    between atoms: O11_9  and  C12_10 
REMARK    6  A    between atoms: C12_10  and  C15_13 
REMARK    7  A    between atoms: C21_19  and  N22_20 
REMARK    8  A    between atoms: N26_24  and  S27_25 
ROOT
ATOM      1  C9  ZIN A   1      18.827  -1.027   9.647  0.00  0.00     0.180 C 
ATOM      2  N10 ZIN A   1      18.582  -0.421   8.520  0.00  0.00    -0.125 NA
ENDROOT
BRANCH   1   3
ATOM      3  C7  ZIN A   1      18.582  -2.483   9.775  0.00  0.00     0.275 C 
ATOM      4  N6  ZIN A   1      19.263  -3.351   9.003  0.00  0.00    -0.340 N 
ATOM      5  H34 ZIN A   1      19.856  -3.023   8.310  0.00  0.00     0.163 HD
ATOM      6  O8  ZIN A   1      17.766  -2.893  10.577  0.00  0.00    -0.266 OA
BRANCH   4   7
ATOM      7  C4  ZIN A   1      19.106  -4.794   9.208  0.00  0.00     0.202 A 
ATOM      8  C2  ZIN A   1      17.731  -5.340   8.824  0.00  0.00     0.135 A 
ATOM      9  C1  ZIN A   1      17.114  -6.227   9.908  0.00  0.00     0.036 C 
ATOM     10  N26 ZIN A   1      18.326  -6.106   7.728  0.00  0.00    -0.218 N 
ATOM     11  C24 ZIN A   1      19.547  -5.640   8.044  0.00  0.00     0.260 A 
ATOM     12  O25 ZIN A   1      20.639  -5.836   7.555  0.00  0.00    -0.270 OA
BRANCH  10  13
ATOM     13  S27 ZIN A   1      17.735  -7.129   6.569  0.00  0.00     0.214 S 
ATOM     14  O28 ZIN A   1      16.297  -6.918   6.516  0.00  0.00    -0.578 OA
ATOM     15  O29 ZIN A   1      18.386  -6.769   5.320  0.00  0.00    -0.578 OA
ATOM     16  O30 ZIN A   1      18.073  -8.480   6.990  0.00  0.00    -0.578 OA
ENDBRANCH  10  13
ENDBRANCH   4   7
ENDBRANCH   1   3
BRANCH   1  17
ATOM     17  C18 ZIN A   1      19.349  -0.262  10.800  0.00  0.00     0.102 A 
ATOM     18  N23 ZIN A   1      19.691   1.024  10.708  0.00  0.00    -0.222 NA
ATOM     19  C21 ZIN A   1      20.132   1.591  11.786  0.00  0.00     0.164 A 
ATOM     20  S20 ZIN A   1      20.153   0.420  13.101  0.00  0.00    -0.062 SA
ATOM     21  C19 ZIN A   1      19.518  -0.814  12.017  0.00  0.00     0.087 A 
BRANCH  19  22
ATOM     22  N22 ZIN A   1      20.531   2.913  11.890  0.00  0.00    -0.378 N 
ATOM     23  H42 ZIN A   1      19.887   3.626  11.758  0.00  0.00     0.158 HD
ATOM     24  H43 ZIN A   1      21.456   3.126  12.093  0.00  0.00     0.158 HD
ENDBRANCH  19  22
ENDBRANCH   1  17
BRANCH   2  25
ATOM     25  O11 ZIN A   1      17.977  -1.129   7.452  0.00  0.00    -0.234 OA
BRANCH  25  26
ATOM     26  C12 ZIN A   1      18.344  -0.652   6.157  0.00  0.00     0.171 C 
ATOM     27  C13 ZIN A   1      17.108  -0.614   5.257  0.00  0.00     0.060 C 
ATOM     28  C14 ZIN A   1      18.930   0.757   6.278  0.00  0.00     0.060 C 
BRANCH  26  29
ATOM     29  C15 ZIN A   1      19.375  -1.573   5.556  0.00  0.00     0.211 C 
ATOM     30  O16 ZIN A   1      19.832  -1.338   4.451  0.00  0.00    -0.646 OA
ATOM     31  O17 ZIN A   1      19.753  -2.552   6.177  0.00  0.00    -0.646 OA
ENDBRANCH  26  29
ENDBRANCH  25  26
ENDBRANCH   2  25
TORSDOF 8
ENDMDL
MODEL 3
REMARK VINA RESULT:      -7.9      3.127      4.909
REMARK  8 active torsions:
REMARK  status: ('A' for Active; 'I' for Inactive)
REMARK    1  A    between atoms: C4_3  and  N6_4 
REMARK       I    between atoms: N6_4  and  C7_5 
REMARK    2  A    between atoms: C7_5  and  C9_7 
REMARK    3  A    between atoms: C9_7  and  C18_16 
REMARK    4  A    between atoms: N10_8  and  O11_9 
REMARK    5  A    between atoms: O11_9  and  C12_10 
REMARK    6  A    between atoms: C12_10  and  C15_13 
REMARK    7  A    between atoms: C21_19  and  N22_20 
REMARK    8  A    between atoms: N26_24  and  S27_25 
ROOT
ATOM      1  C9  ZIN A   1      18.862  -0.384   8.801  0.00  0.00     0.180 C 
ATOM      2  N10 ZIN A   1      18.983  -1.225   9.787  0.00  0.00    -0.125 NA
ENDROOT
BRANCH   1   3
ATOM      3  C7  ZIN A   1      19.001   1.072   9.046  0.00  0.00     0.275 C 
ATOM      4  N6  ZIN A   1      18.170   1.692   9.906  0.00  0.00    -0.340 N 
ATOM      5  H34 ZIN A   1      17.434   1.205  10.307  0.00  0.00     0.163 HD
ATOM      6  O8  ZIN A   1      19.864   1.705   8.471  0.00  0.00    -0.266 OA
BRANCH   4   7
ATOM      7  C4  ZIN A   1      18.379   3.105  10.237  0.00  0.00     0.202 A 
ATOM      8  C2  ZIN A   1      17.339   3.690  11.192  0.00  0.00     0.135 A 
ATOM      9  C1  ZIN A   1      16.761   5.020  10.706  0.00  0.00     0.036 C 
ATOM     10  N26 ZIN A   1      18.362   3.854  12.226  0.00  0.00    -0.218 N 
ATOM     11  C24 ZIN A   1      19.296   3.341  11.406  0.00  0.00     0.260 A 
ATOM     12  O25 ZIN A   1      20.482   3.139  11.558  0.00  0.00    -0.270 OA
BRANCH  10  13
ATOM     13  S27 ZIN A   1      18.365   4.433  13.777  0.00  0.00     0.214 S 
ATOM     14  O28 ZIN A   1      18.857   3.359  14.626  0.00  0.00    -0.578 OA
ATOM     15  O29 ZIN A   1      19.247   5.589  13.791  0.00  0.00    -0.578 OA
ATOM     16  O30 ZIN A   1      16.990   4.792  14.092  0.00  0.00    -0.578 OA
ENDBRANCH  10  13
ENDBRANCH   4   7
ENDBRANCH   1   3
BRANCH   1  17
ATOM     17  C18 ZIN A   1      18.585  -0.880   7.436  0.00  0.00     0.102 A 
ATOM     18  N23 ZIN A   1      19.082  -2.029   6.978  0.00  0.00    -0.222 NA
ATOM     19  C21 ZIN A   1      18.766  -2.363   5.767  0.00  0.00     0.164 A 
ATOM     20  S20 ZIN A   1      17.735  -1.122   5.064  0.00  0.00    -0.062 SA
ATOM     21  C19 ZIN A   1      17.816  -0.200   6.562  0.00  0.00     0.087 A 
BRANCH  19  22
ATOM     22  N22 ZIN A   1      19.180  -3.516   5.122  0.00  0.00    -0.378 N 
ATOM     23  H42 ZIN A   1      18.828  -4.378   5.393  0.00  0.00     0.158 HD
ATOM     24  H43 ZIN A   1      19.823  -3.462   4.397  0.00  0.00     0.158 HD
ENDBRANCH  19  22
ENDBRANCH   1  17
BRANCH   2  25
ATOM     25  O11 ZIN A   1      19.136  -0.746  11.112  0.00  0.00    -0.234 OA
BRANCH  25  26
ATOM     26  C12 ZIN A   1      18.158  -1.245  12.027  0.00  0.00     0.171 C 
ATOM     27  C13 ZIN A   1      17.459  -2.461  11.413  0.00  0.00     0.060 C 
ATOM     28  C14 ZIN A   1      18.842  -1.656  13.332  0.00  0.00     0.060 C 
BRANCH  26  29
ATOM     29  C15 ZIN A   1      17.141  -0.170  12.311  0.00  0.00     0.211 C 
ATOM     30  O16 ZIN A   1      16.166  -0.048  11.590  0.00  0.00    -0.646 OA
ATOM     31  O17 ZIN A   1      17.292   0.575  13.263  0.00  0.00    -0.646 OA
ENDBRANCH  26  29
ENDBRANCH  25  26
ENDBRANCH   2  25
TORSDOF 8
ENDMDL
MODEL 4
REMARK VINA RESULT:      -7.8      1.483      1.990
REMARK  8 active torsions:
REMARK  status: ('A' for Active; 'I' for Inactive)
REMARK    1  A    between atoms: C4_3  and  N6_4 
REMARK       I    between atoms: N6_4  and  C7_5 
REMARK    2  A    between atoms: C7_5  and  C9_7 
REMARK    3  A    between atoms: C9_7  and  C18_16 
REMARK    4  A    between atoms: N10_8  and  O11_9 
REMARK    5  A    between atoms: O11_9  and  C12_10 
REMARK    6  A    between atoms: C12_10  and  C15_13 
REMARK    7  A    between atoms: C21_19  and  N22_20 
REMARK    8  A    between atoms: N26_24  and  S27_25 
ROOT
ATOM      1  C9  ZIN A   1      18.834  -1.080  11.037  0.00  0.00     0.180 C 
ATOM      2  N10 ZIN A   1      19.490  -0.044  10.601  0.00  0.00    -0.125 NA
ENDROOT
BRANCH   1   3
ATOM      3  C7  ZIN A   1      18.046  -0.986  12.289  0.00  0.00     0.275 C 
ATOM      4  N6  ZIN A   1      18.615  -0.497  13.408  0.00  0.00    -0.340 N 
ATOM      5  H34 ZIN A   1      19.560  -0.278  13.416  0.00  0.00     0.163 HD
ATOM      6  O8  ZIN A   1      16.887  -1.349  12.305  0.00  0.00    -0.266 OA
BRANCH   4   7
ATOM      7  C4  ZIN A   1      17.806  -0.295  14.613  0.00  0.00     0.202 A 
ATOM      8  C2  ZIN A   1      18.502  -0.698  15.913  0.00  0.00     0.135 A 
ATOM      9  C1  ZIN A   1      17.634  -1.587  16.806  0.00  0.00     0.036 C 
ATOM     10  N26 ZIN A   1      18.526   0.700  16.349  0.00  0.00    -0.218 N 
ATOM     11  C24 ZIN A   1      17.916   1.081  15.212  0.00  0.00     0.260 A 
ATOM     12  O25 ZIN A   1      17.568   2.170  14.808  0.00  0.00    -0.270 OA
BRANCH  10  13
ATOM     13  S27 ZIN A   1      19.081   1.490  17.693  0.00  0.00     0.214 S 
ATOM     14  O28 ZIN A   1      19.777   2.678  17.225  0.00  0.00    -0.578 OA
ATOM     15  O29 ZIN A   1      17.915   1.820  18.497  0.00  0.00    -0.578 OA
ATOM     16  O30 ZIN A   1      19.974   0.569  18.381  0.00  0.00    -0.578 OA
ENDBRANCH  10  13
ENDBRANCH   4   7
ENDBRANCH   1   3
BRANCH   1  17
ATOM     17  C18 ZIN A   1      18.874  -2.352  10.284  0.00  0.00     0.102 A 
ATOM     18  N23 ZIN A   1      18.282  -2.500   9.098  0.00  0.00    -0.222 NA
ATOM     19  C21 ZIN A   1      18.389  -3.660   8.531  0.00  0.00     0.164 A 
ATOM     20  S20 ZIN A   1      19.323  -4.736   9.563  0.00  0.00    -0.062 SA
ATOM     21  C19 ZIN A   1      19.508  -3.446  10.748  0.00  0.00     0.087 A 
BRANCH  19  22
ATOM     22  N22 ZIN A   1      17.848  -4.002   7.303  0.00  0.00    -0.378 N 
ATOM     23  H42 ZIN A   1      18.404  -3.996   6.509  0.00  0.00     0.158 HD
ATOM     24  H43 ZIN A   1      16.912  -4.248   7.237  0.00  0.00     0.158 HD
ENDBRANCH  19  22
ENDBRANCH   1  17
BRANCH   2  25
ATOM     25  O11 ZIN A   1      19.545   1.140  11.378  0.00  0.00    -0.234 OA
BRANCH  25  26
ATOM     26  C12 ZIN A   1      19.111   2.311  10.684  0.00  0.00     0.171 C 
ATOM     27  C13 ZIN A   1      19.969   3.504  11.110  0.00  0.00     0.060 C 
ATOM     28  C14 ZIN A   1      19.252   2.094   9.176  0.00  0.00     0.060 C 
BRANCH  26  29
ATOM     29  C15 ZIN A   1      17.667   2.586  11.018  0.00  0.00     0.211 C 
ATOM     30  O16 ZIN A   1      17.025   1.775  11.663  0.00  0.00    -0.646 OA
ATOM     31  O17 ZIN A   1      17.142   3.621  10.644  0.00  0.00    -0.646 OA
ENDBRANCH  26  29
ENDBRANCH  25  26
ENDBRANCH   2  25
TORSDOF 8
ENDMDL
MODEL 5
REMARK VINA RESULT:      -7.7      2.707      5.109
REMARK  8 active torsions:
REMARK  status: ('A' for Active; 'I' for Inactive)
REMARK    1  A    between atoms: C4_3  and  N6_4 
REMARK       I    between atoms: N6_4  and  C7_5 
REMARK    2  A    between atoms: C7_5  and  C9_7 
REMARK    3  A    between atoms: C9_7  and  C18_16 
REMARK    4  A    between atoms: N10_8  and  O11_9 
REMARK    5  A    between atoms: O11_9  and  C12_10 
REMARK    6  A    between atoms: C12_10  and  C15_13 
REMARK    7  A    between atoms: C21_19  and  N22_20 
REMARK    8  A    between atoms: N26_24  and  S27_25 
ROOT
ATOM      1  C9  ZIN A   1      17.950   0.005  12.982  0.00  0.00     0.180 C 
ATOM      2  N10 ZIN A   1      17.980  -0.445  14.204  0.00  0.00    -0.125 NA
ENDROOT
BRANCH   1   3
ATOM      3  C7  ZIN A   1      17.624   1.428  12.724  0.00  0.00     0.275 C 
ATOM      4  N6  ZIN A   1      18.098   2.387  13.542  0.00  0.00    -0.340 N 
ATOM      5  H34 ZIN A   1      18.588   2.144  14.343  0.00  0.00     0.163 HD
ATOM      6  O8  ZIN A   1      16.929   1.728  11.773  0.00  0.00    -0.266 OA
BRANCH   4   7
ATOM      7  C4  ZIN A   1      17.873   3.800  13.223  0.00  0.00     0.202 A 
ATOM      8  C2  ZIN A   1      17.486   4.663  14.423  0.00  0.00     0.135 A 
ATOM      9  C1  ZIN A   1      16.260   5.540  14.160  0.00  0.00     0.036 C 
ATOM     10  N26 ZIN A   1      18.748   5.398  14.318  0.00  0.00    -0.218 N 
ATOM     11  C24 ZIN A   1      19.113   4.651  13.261  0.00  0.00     0.260 A 
ATOM     12  O25 ZIN A   1      20.108   4.662  12.568  0.00  0.00    -0.270 OA
BRANCH  10  13
ATOM     13  S27 ZIN A   1      19.443   6.641  15.161  0.00  0.00     0.214 S 
ATOM     14  O28 ZIN A   1      19.286   6.331  16.573  0.00  0.00    -0.578 OA
ATOM     15  O29 ZIN A   1      20.842   6.687  14.764  0.00  0.00    -0.578 OA
ATOM     16  O30 ZIN A   1      18.730   7.853  14.785  0.00  0.00    -0.578 OA
ENDBRANCH  10  13
ENDBRANCH   4   7
ENDBRANCH   1   3
BRANCH   1  17
ATOM     17  C18 ZIN A   1      18.241  -0.903  11.852  0.00  0.00     0.102 A 
ATOM     18  N23 ZIN A   1      19.016  -0.544  10.828  0.00  0.00    -0.222 NA
ATOM     19  C21 ZIN A   1      19.202  -1.426   9.898  0.00  0.00     0.164 A 
ATOM     20  S20 ZIN A   1      18.319  -2.896  10.294  0.00  0.00    -0.062 SA
ATOM     21  C19 ZIN A   1      17.739  -2.151  11.781  0.00  0.00     0.087 A 
BRANCH  19  22
ATOM     22  N22 ZIN A   1      19.975  -1.241   8.763  0.00  0.00    -0.378 N 
ATOM     23  H42 ZIN A   1      19.850  -0.452   8.214  0.00  0.00     0.158 HD
ATOM     24  H43 ZIN A   1      20.641  -1.903   8.518  0.00  0.00     0.158 HD
ENDBRANCH  19  22
ENDBRANCH   1  17
BRANCH   2  25
ATOM     25  O11 ZIN A   1      17.592   0.394  15.278  0.00  0.00    -0.234 OA
BRANCH  25  26
ATOM     26  C12 ZIN A   1      18.180   0.042  16.531  0.00  0.00     0.171 C 
ATOM     27  C13 ZIN A   1      17.082  -0.113  17.586  0.00  0.00     0.060 C 
ATOM     28  C14 ZIN A   1      18.939  -1.279  16.387  0.00  0.00     0.060 C 
BRANCH  26  29
ATOM     29  C15 ZIN A   1      19.137   1.126  16.958  0.00  0.00     0.211 C 
ATOM     30  O16 ZIN A   1      19.319   2.096  16.242  0.00  0.00    -0.646 OA
ATOM     31  O17 ZIN A   1      19.729   1.033  18.020  0.00  0.00    -0.646 OA
ENDBRANCH  26  29
ENDBRANCH  25  26
ENDBRANCH   2  25
TORSDOF 8
ENDMDL
MODEL 6
REMARK VINA RESULT:      -7.7      2.658      6.681
REMARK  8 active torsions:
REMARK  status: ('A' for Active; 'I' for Inactive)
REMARK    1  A    between atoms: C4_3  and  N6_4 
REMARK       I    between atoms: N6_4  and  C7_5 
REMARK    2  A    between atoms: C7_5  and  C9_7 
REMARK    3  A    between atoms: C9_7  and  C18_16 
REMARK    4  A    between atoms: N10_8  and  O11_9 
REMARK    5  A    between atoms: O11_9  and  C12_10 
REMARK    6  A    between atoms: C12_10  and  C15_13 
REMARK    7  A    between atoms: C21_19  and  N22_20 
REMARK    8  A    between atoms: N26_24  and  S27_25 
ROOT
ATOM      1  C9  ZIN A   1      18.873   1.146  14.430  0.00  0.00     0.180 C 
ATOM      2  N10 ZIN A   1      18.155   2.106  13.920  0.00  0.00    -0.125 NA
ENDROOT
BRANCH   1   3
ATOM      3  C7  ZIN A   1      19.639   0.241  13.541  0.00  0.00     0.275 C 
ATOM      4  N6  ZIN A   1      19.004  -0.739  12.869  0.00  0.00    -0.340 N 
ATOM      5  H34 ZIN A   1      18.061  -0.902  13.024  0.00  0.00     0.163 HD
ATOM      6  O8  ZIN A   1      20.839   0.383  13.419  0.00  0.00    -0.266 OA
BRANCH   4   7
ATOM      7  C4  ZIN A   1      19.739  -1.560  11.903  0.00  0.00     0.202 A 
ATOM      8  C2  ZIN A   1      18.952  -2.753  11.361  0.00  0.00     0.135 A 
ATOM      9  C1  ZIN A   1      19.738  -4.065  11.419  0.00  0.00     0.036 C 
ATOM     10  N26 ZIN A   1      18.938  -2.153  10.026  0.00  0.00    -0.218 N 
ATOM     11  C24 ZIN A   1      19.628  -1.092  10.477  0.00  0.00     0.260 A 
ATOM     12  O25 ZIN A   1      20.030  -0.092   9.920  0.00  0.00    -0.270 OA
BRANCH  10  13
ATOM     13  S27 ZIN A   1      18.318  -2.601   8.557  0.00  0.00     0.214 S 
ATOM     14  O28 ZIN A   1      19.442  -3.034   7.741  0.00  0.00    -0.578 OA
ATOM     15  O29 ZIN A   1      17.378  -3.682   8.810  0.00  0.00    -0.578 OA
ATOM     16  O30 ZIN A   1      17.662  -1.426   8.003  0.00  0.00    -0.578 OA
ENDBRANCH  10  13
ENDBRANCH   4   7
ENDBRANCH   1   3
BRANCH   1  17
ATOM     17  C18 ZIN A   1      18.923   0.959  15.896  0.00  0.00     0.102 A 
ATOM     18  N23 ZIN A   1      19.008   1.984  16.745  0.00  0.00    -0.222 NA
ATOM     19  C21 ZIN A   1      19.041   1.697  18.008  0.00  0.00     0.164 A 
ATOM     20  S20 ZIN A   1      18.972  -0.049  18.217  0.00  0.00    -0.062 SA
ATOM     21  C19 ZIN A   1      18.892  -0.259  16.470  0.00  0.00     0.087 A 
BRANCH  19  22
ATOM     22  N22 ZIN A   1      19.122   2.621  19.036  0.00  0.00    -0.378 N 
ATOM     23  H42 ZIN A   1      18.964   2.345  19.952  0.00  0.00     0.158 HD
ATOM     24  H43 ZIN A   1      19.337   3.547  18.839  0.00  0.00     0.158 HD
ENDBRANCH  19  22
ENDBRANCH   1  17
BRANCH   2  25
ATOM     25  O11 ZIN A   1      18.015   2.216  12.515  0.00  0.00    -0.234 OA
BRANCH  25  26
ATOM     26  C12 ZIN A   1      18.490   3.452  11.979  0.00  0.00     0.171 C 
ATOM     27  C13 ZIN A   1      18.379   4.546  13.043  0.00  0.00     0.060 C 
ATOM     28  C14 ZIN A   1      19.953   3.297  11.557  0.00  0.00     0.060 C 
BRANCH  26  29
ATOM     29  C15 ZIN A   1      17.660   3.832  10.779  0.00  0.00     0.211 C 
ATOM     30  O16 ZIN A   1      16.561   4.335  10.934  0.00  0.00    -0.646 OA
ATOM     31  O17 ZIN A   1      18.090   3.638   9.655  0.00  0.00    -0.646 OA
ENDBRANCH  26  29
ENDBRANCH  25  26
ENDBRANCH   2  25
TORSDOF 8
ENDMDL
MODEL 7
REMARK VINA RESULT:      -7.6      2.997      7.719
REMARK  8 active torsions:
REMARK  status: ('A' for Active; 'I' for Inactive)
REMARK    1  A    between atoms: C4_3  and  N6_4 
REMARK       I    between atoms: N6_4  and  C7_5 
REMARK    2  A    between atoms: C7_5  and  C9_7 
REMARK    3  A    between atoms: C9_7  and  C18_16 
REMARK    4  A    between atoms: N10_8  and  O11_9 
REMARK    5  A    between atoms: O11_9  and  C12_10 
REMARK    6  A    between atoms: C12_10  and  C15_13 
REMARK    7  A    between atoms: C21_19  and  N22_20 
REMARK    8  A    between atoms: N26_24  and  S27_25 
ROOT
ATOM      1  C9  ZIN A   1      18.807   1.657  13.433  0.00  0.00     0.180 C 
ATOM      2  N10 ZIN A   1      18.646   1.511  14.717  0.00  0.00    -0.125 NA
ENDROOT
BRANCH   1   3
ATOM      3  C7  ZIN A   1      19.634   0.688  12.675  0.00  0.00     0.275 C 
ATOM      4  N6  ZIN A   1      19.122  -0.508  12.327  0.00  0.00    -0.340 N 
ATOM      5  H34 ZIN A   1      18.240  -0.767  12.637  0.00  0.00     0.163 HD
ATOM      6  O8  ZIN A   1      20.775   0.973  12.368  0.00  0.00    -0.266 OA
BRANCH   4   7
ATOM      7  C4  ZIN A   1      19.897  -1.419  11.480  0.00  0.00     0.202 A 
ATOM      8  C2  ZIN A   1      19.212  -2.757  11.201  0.00  0.00     0.135 A 
ATOM      9  C1  ZIN A   1      20.126  -3.960  11.443  0.00  0.00     0.036 C 
ATOM     10  N26 ZIN A   1      19.086  -2.411   9.784  0.00  0.00    -0.218 N 
ATOM     11  C24 ZIN A   1      19.684  -1.227  10.002  0.00  0.00     0.260 A 
ATOM     12  O25 ZIN A   1      19.962  -0.311   9.257  0.00  0.00    -0.270 OA
BRANCH  10  13
ATOM     13  S27 ZIN A   1      18.457  -3.170   8.453  0.00  0.00     0.214 S 
ATOM     14  O28 ZIN A   1      19.512  -4.012   7.912  0.00  0.00    -0.578 OA
ATOM     15  O29 ZIN A   1      17.318  -3.948   8.914  0.00  0.00    -0.578 OA
ATOM     16  O30 ZIN A   1      18.061  -2.124   7.522  0.00  0.00    -0.578 OA
ENDBRANCH  10  13
ENDBRANCH   4   7
ENDBRANCH   1   3
BRANCH   1  17
ATOM     17  C18 ZIN A   1      18.165   2.789  12.731  0.00  0.00     0.102 A 
ATOM     18  N23 ZIN A   1      17.690   3.854  13.377  0.00  0.00    -0.222 NA
ATOM     19  C21 ZIN A   1      17.153   4.785  12.654  0.00  0.00     0.164 A 
ATOM     20  S20 ZIN A   1      17.212   4.322  10.957  0.00  0.00    -0.062 SA
ATOM     21  C19 ZIN A   1      18.015   2.816  11.392  0.00  0.00     0.087 A 
BRANCH  19  22
ATOM     22  N22 ZIN A   1      16.611   5.963  13.141  0.00  0.00    -0.378 N 
ATOM     23  H42 ZIN A   1      17.148   6.555  13.690  0.00  0.00     0.158 HD
ATOM     24  H43 ZIN A   1      15.692   6.195  12.934  0.00  0.00     0.158 HD
ENDBRANCH  19  22
ENDBRANCH   1  17
BRANCH   2  25
ATOM     25  O11 ZIN A   1      19.351   0.495  15.409  0.00  0.00    -0.234 OA
BRANCH  25  26
ATOM     26  C12 ZIN A   1      18.670  -0.000  16.563  0.00  0.00     0.171 C 
ATOM     27  C13 ZIN A   1      17.168  -0.071  16.279  0.00  0.00     0.060 C 
ATOM     28  C14 ZIN A   1      19.192  -1.398  16.903  0.00  0.00     0.060 C 
BRANCH  26  29
ATOM     29  C15 ZIN A   1      18.918   0.924  17.728  0.00  0.00     0.211 C 
ATOM     30  O16 ZIN A   1      18.095   1.776  18.016  0.00  0.00    -0.646 OA
ATOM     31  O17 ZIN A   1      19.941   0.818  18.383  0.00  0.00    -0.646 OA
ENDBRANCH  26  29
ENDBRANCH  25  26
ENDBRANCH   2  25
TORSDOF 8
ENDMDL
MODEL 8
REMARK VINA RESULT:      -7.5      3.068      4.981
REMARK  8 active torsions:
REMARK  status: ('A' for Active; 'I' for Inactive)
REMARK    1  A    between atoms: C4_3  and  N6_4 
REMARK       I    between atoms: N6_4  and  C7_5 
REMARK    2  A    between atoms: C7_5  and  C9_7 
REMARK    3  A    between atoms: C9_7  and  C18_16 
REMARK    4  A    between atoms: N10_8  and  O11_9 
REMARK    5  A    between atoms: O11_9  and  C12_10 
REMARK    6  A    between atoms: C12_10  and  C15_13 
REMARK    7  A    between atoms: C21_19  and  N22_20 
REMARK    8  A    between atoms: N26_24  and  S27_25 
ROOT
ATOM      1  C9  ZIN A   1      17.817   1.338  10.847  0.00  0.00     0.180 C 
ATOM      2  N10 ZIN A   1      17.768   0.350  11.694  0.00  0.00    -0.125 NA
ENDROOT
BRANCH   1   3
ATOM      3  C7  ZIN A   1      17.571   2.724  11.310  0.00  0.00     0.275 C 
ATOM      4  N6  ZIN A   1      18.190   3.186  12.414  0.00  0.00    -0.340 N 
ATOM      5  H34 ZIN A   1      18.735   2.590  12.950  0.00  0.00     0.163 HD
ATOM      6  O8  ZIN A   1      16.812   3.444  10.693  0.00  0.00    -0.266 OA
BRANCH   4   7
ATOM      7  C4  ZIN A   1      18.037   4.590  12.807  0.00  0.00     0.202 A 
ATOM      8  C2  ZIN A   1      17.336   4.797  14.149  0.00  0.00     0.135 A 
ATOM      9  C1  ZIN A   1      16.211   5.832  14.083  0.00  0.00     0.036 C 
ATOM     10  N26 ZIN A   1      18.571   5.330  14.727  0.00  0.00    -0.218 N 
ATOM     11  C24 ZIN A   1      19.212   5.156  13.558  0.00  0.00     0.260 A 
ATOM     12  O25 ZIN A   1      20.354   5.383  13.221  0.00  0.00    -0.270 OA
BRANCH  10  13
ATOM     13  S27 ZIN A   1      19.002   5.908  16.217  0.00  0.00     0.214 S 
ATOM     14  O28 ZIN A   1      18.695   7.330  16.221  0.00  0.00    -0.578 OA
ATOM     15  O29 ZIN A   1      18.212   5.176  17.195  0.00  0.00    -0.578 OA
ATOM     16  O30 ZIN A   1      20.427   5.656  16.368  0.00  0.00    -0.578 OA
ENDBRANCH  10  13
ENDBRANCH   4   7
ENDBRANCH   1   3
BRANCH   1  17
ATOM     17  C18 ZIN A   1      18.118   1.077   9.423  0.00  0.00     0.102 A 
ATOM     18  N23 ZIN A   1      17.384   0.251   8.677  0.00  0.00    -0.222 NA
ATOM     19  C21 ZIN A   1      17.741   0.105   7.441  0.00  0.00     0.164 A 
ATOM     20  S20 ZIN A   1      19.167   1.085   7.120  0.00  0.00    -0.062 SA
ATOM     21  C19 ZIN A   1      19.157   1.653   8.787  0.00  0.00     0.087 A 
BRANCH  19  22
ATOM     22  N22 ZIN A   1      17.103  -0.703   6.514  0.00  0.00    -0.378 N 
ATOM     23  H42 ZIN A   1      17.255  -0.568   5.566  0.00  0.00     0.158 HD
ATOM     24  H43 ZIN A   1      16.503  -1.404   6.814  0.00  0.00     0.158 HD
ENDBRANCH  19  22
ENDBRANCH   1  17
BRANCH   2  25
ATOM     25  O11 ZIN A   1      17.370   0.584  13.034  0.00  0.00    -0.234 OA
BRANCH  25  26
ATOM     26  C12 ZIN A   1      18.205  -0.045  14.007  0.00  0.00     0.171 C 
ATOM     27  C13 ZIN A   1      17.499  -0.043  15.364  0.00  0.00     0.060 C 
ATOM     28  C14 ZIN A   1      18.489  -1.487  13.581  0.00  0.00     0.060 C 
BRANCH  26  29
ATOM     29  C15 ZIN A   1      19.505   0.710  14.116  0.00  0.00     0.211 C 
ATOM     30  O16 ZIN A   1      20.517   0.259  13.607  0.00  0.00    -0.646 OA
ATOM     31  O17 ZIN A   1      19.544   1.773  14.712  0.00  0.00    -0.646 OA
ENDBRANCH  26  29
ENDBRANCH  25  26
ENDBRANCH   2  25
TORSDOF 8
ENDMDL
MODEL 9
REMARK VINA RESULT:      -7.4      3.205      5.648
REMARK  8 active torsions:
REMARK  status: ('A' for Active; 'I' for Inactive)
REMARK    1  A    between atoms: C4_3  and  N6_4 
REMARK       I    between atoms: N6_4  and  C7_5 
REMARK    2  A    between atoms: C7_5  and  C9_7 
REMARK    3  A    between atoms: C9_7  and  C18_16 
REMARK    4  A    between atoms: N10_8  and  O11_9 
REMARK    5  A    between atoms: O11_9  and  C12_10 
REMARK    6  A    between atoms: C12_10  and  C15_13 
REMARK    7  A    between atoms: C21_19  and  N22_20 
REMARK    8  A    between atoms: N26_24  and  S27_25 
ROOT
ATOM      1  C9  ZIN A   1      19.024   1.000  13.463  0.00  0.00     0.180 C 
ATOM      2  N10 ZIN A   1      19.073   0.453  14.644  0.00  0.00    -0.125 NA
ENDROOT
BRANCH   1   3
ATOM      3  C7  ZIN A   1      18.529   2.389  13.309  0.00  0.00     0.275 C 
ATOM      4  N6  ZIN A   1      19.181   3.406  13.904  0.00  0.00    -0.340 N 
ATOM      5  H34 ZIN A   1      19.928   3.225  14.496  0.00  0.00     0.163 HD
ATOM      6  O8  ZIN A   1      17.535   2.609  12.646  0.00  0.00    -0.266 OA
BRANCH   4   7
ATOM      7  C4  ZIN A   1      18.761   4.789  13.659  0.00  0.00     0.202 A 
ATOM      8  C2  ZIN A   1      17.481   5.198  14.388  0.00  0.00     0.135 A 
ATOM      9  C1  ZIN A   1      16.464   5.883  13.472  0.00  0.00     0.036 C 
ATOM     10  N26 ZIN A   1      18.237   6.143  15.212  0.00  0.00    -0.218 N 
ATOM     11  C24 ZIN A   1      19.378   5.800  14.588  0.00  0.00     0.260 A 
ATOM     12  O25 ZIN A   1      20.520   6.180  14.727  0.00  0.00    -0.270 OA
BRANCH  10  13
ATOM     13  S27 ZIN A   1      17.844   7.201  16.423  0.00  0.00     0.214 S 
ATOM     14  O28 ZIN A   1      16.410   7.083  16.636  0.00  0.00    -0.578 OA
ATOM     15  O29 ZIN A   1      18.605   6.798  17.595  0.00  0.00    -0.578 OA
ATOM     16  O30 ZIN A   1      18.221   8.527  15.959  0.00  0.00    -0.578 OA
ENDBRANCH  10  13
ENDBRANCH   4   7
ENDBRANCH   1   3
BRANCH   1  17
ATOM     17  C18 ZIN A   1      19.462   0.236  12.275  0.00  0.00     0.102 A 
ATOM     18  N23 ZIN A   1      19.771  -1.060  12.333  0.00  0.00    -0.222 NA
ATOM     19  C21 ZIN A   1      20.137  -1.624  11.226  0.00  0.00     0.164 A 
ATOM     20  S20 ZIN A   1      20.122  -0.437   9.927  0.00  0.00    -0.062 SA
ATOM     21  C19 ZIN A   1      19.581   0.800  11.058  0.00  0.00     0.087 A 
BRANCH  19  22
ATOM     22  N22 ZIN A   1      20.491  -2.956  11.086  0.00  0.00    -0.378 N 
ATOM     23  H42 ZIN A   1      19.833  -3.606  10.796  0.00  0.00     0.158 HD
ATOM     24  H43 ZIN A   1      21.399  -3.238  11.279  0.00  0.00     0.158 HD
ENDBRANCH  19  22
ENDBRANCH   1  17
BRANCH   2  25
ATOM     25  O11 ZIN A   1      18.550   1.142  15.766  0.00  0.00    -0.234 OA
BRANCH  25  26
ATOM     26  C12 ZIN A   1      18.295   0.304  16.895  0.00  0.00     0.171 C 
ATOM     27  C13 ZIN A   1      16.806  -0.048  16.945  0.00  0.00     0.060 C 
ATOM     28  C14 ZIN A   1      19.118  -0.980  16.774  0.00  0.00     0.060 C 
BRANCH  26  29
ATOM     29  C15 ZIN A   1      18.683   1.030  18.158  0.00  0.00     0.211 C 
ATOM     30  O16 ZIN A   1      19.856   1.115  18.476  0.00  0.00    -0.646 OA
ATOM     31  O17 ZIN A   1      17.822   1.534  18.859  0.00  0.00    -0.646 OA
ENDBRANCH  26  29
ENDBRANCH  25  26
ENDBRANCH   2  25
TORSDOF 8
ENDMDL
