MODEL 1
REMARK VINA RESULT:      -8.8      0.000      0.000
REMARK  4 active torsions:
REMARK  status: ('A' for Active; 'I' for Inactive)
REMARK    1  A    between atoms: N11_10  and  N12_11 
REMARK       I    between atoms: N12_11  and  C13_12 
REMARK    2  A    between atoms: C13_12  and  C15_14 
REMARK    3  A    between atoms: C20_19  and  S21_20 
REMARK    4  A    between atoms: S21_20  and  N22_21 
ROOT
ATOM      1  N12 ZIN A   1      18.420  -0.498  12.299  0.00  0.00    -0.263 N 
ATOM      2  C13 ZIN A   1      19.365  -0.124  13.182  0.00  0.00     0.270 C 
ATOM      3  O14 ZIN A   1      20.487   0.142  12.797  0.00  0.00    -0.266 OA
ATOM      4  H35 ZIN A   1      17.525  -0.710  12.606  0.00  0.00     0.190 HD
ENDROOT
BRANCH   2   5
ATOM      5  C15 ZIN A   1      19.038  -0.034  14.621  0.00  0.00     0.035 A 
ATOM      6  C25 ZIN A   1      19.278   1.149  15.322  0.00  0.00     0.044 A 
ATOM      7  C20 ZIN A   1      18.966   1.228  16.663  0.00  0.00     0.102 A 
ATOM      8  C18 ZIN A   1      18.424   0.133  17.316  0.00  0.00     0.057 A 
ATOM      9  C17 ZIN A   1      18.190  -1.045  16.628  0.00  0.00     0.026 A 
ATOM     10 Cl19 ZIN A   1      18.039   0.239  19.007  0.00  0.00    -0.083 Cl
ATOM     11  C16 ZIN A   1      18.493  -1.135  15.286  0.00  0.00     0.019 A 
BRANCH   7  12
ATOM     12  S21 ZIN A   1      19.261   2.724  17.548  0.00  0.00     0.258 S 
ATOM     13  O23 ZIN A   1      19.696   2.342  18.845  0.00  0.00    -0.201 OA
ATOM     14  O24 ZIN A   1      20.023   3.556  16.685  0.00  0.00    -0.201 OA
BRANCH  12  15
ATOM     15  N22 ZIN A   1      17.797   3.472  17.747  0.00  0.00    -0.324 N 
ATOM     16  H38 ZIN A   1      17.088   3.028  18.239  0.00  0.00     0.169 HD
ATOM     17  H39 ZIN A   1      17.648   4.355  17.372  0.00  0.00     0.169 HD
ENDBRANCH  12  15
ENDBRANCH   7  12
ENDBRANCH   2   5
BRANCH   1  18
ATOM     18  N11 ZIN A   1      18.730  -0.583  10.935  0.00  0.00    -0.284 N 
ATOM     19  C2  ZIN A   1      19.069  -1.818  10.223  0.00  0.00     0.109 A 
ATOM     20  C1  ZIN A   1      17.903  -2.806  10.290  0.00  0.00     0.034 C 
ATOM     21  C4  ZIN A   1      19.324  -1.390   8.769  0.00  0.00     0.067 A 
ATOM     22  C5  ZIN A   1      19.102   0.105   8.768  0.00  0.00    -0.028 A 
ATOM     23  C10 ZIN A   1      18.761   0.500  10.052  0.00  0.00     0.057 A 
ATOM     24  C6  ZIN A   1      19.186   1.033   7.748  0.00  0.00     0.009 A 
ATOM     25  C9  ZIN A   1      18.506   1.851  10.299  0.00  0.00     0.031 A 
ATOM     26  C8  ZIN A   1      18.593   2.774   9.279  0.00  0.00     0.002 A 
ATOM     27  C7  ZIN A   1      18.933   2.369   8.002  0.00  0.00     0.001 A 
ENDBRANCH   1  18
TORSDOF 4
ENDMDL
MODEL 2
REMARK VINA RESULT:      -8.6      1.215      1.231
REMARK  4 active torsions:
REMARK  status: ('A' for Active; 'I' for Inactive)
REMARK    1  A    between atoms: N11_10  and  N12_11 
REMARK       I    between atoms: N12_11  and  C13_12 
REMARK    2  A    between atoms: C13_12  and  C15_14 
REMARK    3  A    between atoms: C20_19  and  S21_20 
REMARK    4  A    between atoms: S21_20  and  N22_21 
ROOT
ATOM      1  N12 ZIN A   1      19.358  -0.961  11.964  0.00  0.00    -0.263 N 
ATOM      2  C13 ZIN A   1      18.337  -0.541  12.736  0.00  0.00     0.270 C 
ATOM      3  O14 ZIN A   1      17.247  -0.330  12.241  0.00  0.00    -0.266 OA
ATOM      4  H35 ZIN A   1      20.228  -1.129  12.359  0.00  0.00     0.190 HD
ENDROOT
BRANCH   2   5
ATOM      5  C15 ZIN A   1      18.542  -0.338  14.186  0.00  0.00     0.035 A 
ATOM      6  C25 ZIN A   1      18.543   0.953  14.720  0.00  0.00     0.044 A 
ATOM      7  C20 ZIN A   1      18.730   1.136  16.073  0.00  0.00     0.102 A 
ATOM      8  C18 ZIN A   1      18.926   0.043  16.902  0.00  0.00     0.057 A 
ATOM      9  C17 ZIN A   1      18.932  -1.238  16.377  0.00  0.00     0.026 A 
ATOM     10 Cl19 ZIN A   1      19.167   0.282  18.605  0.00  0.00    -0.083 Cl
ATOM     11  C16 ZIN A   1      18.741  -1.434  15.026  0.00  0.00     0.019 A 
BRANCH   7  12
ATOM     12  S21 ZIN A   1      18.725   2.763  16.750  0.00  0.00     0.258 S 
ATOM     13  O23 ZIN A   1      17.850   2.729  17.868  0.00  0.00    -0.201 OA
ATOM     14  O24 ZIN A   1      20.084   3.165  16.838  0.00  0.00    -0.201 OA
BRANCH  12  15
ATOM     15  N22 ZIN A   1      18.015   3.756  15.631  0.00  0.00    -0.324 N 
ATOM     16  H38 ZIN A   1      18.060   3.535  14.687  0.00  0.00     0.169 HD
ATOM     17  H39 ZIN A   1      17.553   4.560  15.919  0.00  0.00     0.169 HD
ENDBRANCH  12  15
ENDBRANCH   7  12
ENDBRANCH   2   5
BRANCH   1  18
ATOM     18  N11 ZIN A   1      19.164  -1.154  10.590  0.00  0.00    -0.284 N 
ATOM     19  C2  ZIN A   1      18.979  -2.454   9.940  0.00  0.00     0.109 A 
ATOM     20  C1  ZIN A   1      17.727  -3.146  10.484  0.00  0.00     0.034 C 
ATOM     21  C4  ZIN A   1      18.808  -2.139   8.445  0.00  0.00     0.067 A 
ATOM     22  C5  ZIN A   1      18.912  -0.633   8.360  0.00  0.00    -0.028 A 
ATOM     23  C10 ZIN A   1      19.116  -0.133   9.637  0.00  0.00     0.057 A 
ATOM     24  C6  ZIN A   1      18.836   0.221   7.277  0.00  0.00     0.009 A 
ATOM     25  C9  ZIN A   1      19.244   1.247   9.811  0.00  0.00     0.031 A 
ATOM     26  C8  ZIN A   1      19.170   2.095   8.727  0.00  0.00     0.002 A 
ATOM     27  C7  ZIN A   1      18.965   1.585   7.458  0.00  0.00     0.001 A 
ENDBRANCH   1  18
TORSDOF 4
ENDMDL
MODEL 3
REMARK VINA RESULT:      -8.5      4.752      8.459
REMARK  4 active torsions:
REMARK  status: ('A' for Active; 'I' for Inactive)
REMARK    1  A    between atoms: N11_10  and  N12_11 
REMARK       I    between atoms: N12_11  and  C13_12 
REMARK    2  A    between atoms: C13_12  and  C15_14 
REMARK    3  A    between atoms: C20_19  and  S21_20 
REMARK    4  A    between atoms: S21_20  and  N22_21 
ROOT
ATOM      1  N12 ZIN A   1      19.226   1.430  11.484  0.00  0.00    -0.263 N 
ATOM      2  C13 ZIN A   1      18.229   1.116  10.635  0.00  0.00     0.270 C 
ATOM      3  O14 ZIN A   1      17.085   1.039  11.041  0.00  0.00    -0.266 OA
ATOM      4  H35 ZIN A   1      20.138   1.491  11.160  0.00  0.00     0.190 HD
ENDROOT
BRANCH   2   5
ATOM      5  C15 ZIN A   1      18.524   0.867   9.208  0.00  0.00     0.035 A 
ATOM      6  C25 ZIN A   1      18.450  -0.429   8.693  0.00  0.00     0.044 A 
ATOM      7  C20 ZIN A   1      18.722  -0.655   7.360  0.00  0.00     0.102 A 
ATOM      8  C18 ZIN A   1      19.078   0.400   6.535  0.00  0.00     0.057 A 
ATOM      9  C17 ZIN A   1      19.160   1.686   7.042  0.00  0.00     0.026 A 
ATOM     10 Cl19 ZIN A   1      19.425   0.107   4.859  0.00  0.00    -0.083 Cl
ATOM     11  C16 ZIN A   1      18.885   1.925   8.372  0.00  0.00     0.019 A 
BRANCH   7  12
ATOM     12  S21 ZIN A   1      18.620  -2.288   6.706  0.00  0.00     0.258 S 
ATOM     13  O23 ZIN A   1      17.749  -2.217   5.586  0.00  0.00    -0.201 OA
ATOM     14  O24 ZIN A   1      19.954  -2.770   6.625  0.00  0.00    -0.201 OA
BRANCH  12  15
ATOM     15  N22 ZIN A   1      17.852  -3.222   7.837  0.00  0.00    -0.324 N 
ATOM     16  H38 ZIN A   1      18.121  -3.176   8.768  0.00  0.00     0.169 HD
ATOM     17  H39 ZIN A   1      17.132  -3.815   7.568  0.00  0.00     0.169 HD
ENDBRANCH  12  15
ENDBRANCH   7  12
ENDBRANCH   2   5
BRANCH   1  18
ATOM     18  N11 ZIN A   1      18.946   1.666  12.836  0.00  0.00    -0.284 N 
ATOM     19  C2  ZIN A   1      18.805   2.990  13.448  0.00  0.00     0.109 A 
ATOM     20  C1  ZIN A   1      17.647   3.753  12.801  0.00  0.00     0.034 C 
ATOM     21  C4  ZIN A   1      18.505   2.721  14.932  0.00  0.00     0.067 A 
ATOM     22  C5  ZIN A   1      18.498   1.214  15.050  0.00  0.00    -0.028 A 
ATOM     23  C10 ZIN A   1      18.759   0.672  13.801  0.00  0.00     0.057 A 
ATOM     24  C6  ZIN A   1      18.284   0.391  16.139  0.00  0.00     0.009 A 
ATOM     25  C9  ZIN A   1      18.804  -0.716  13.661  0.00  0.00     0.031 A 
ATOM     26  C8  ZIN A   1      18.592  -1.533  14.751  0.00  0.00     0.002 A 
ATOM     27  C7  ZIN A   1      18.332  -0.982  15.992  0.00  0.00     0.001 A 
ENDBRANCH   1  18
TORSDOF 4
ENDMDL
MODEL 4
REMARK VINA RESULT:      -8.5      5.165      8.245
REMARK  4 active torsions:
REMARK  status: ('A' for Active; 'I' for Inactive)
REMARK    1  A    between atoms: N11_10  and  N12_11 
REMARK       I    between atoms: N12_11  and  C13_12 
REMARK    2  A    between atoms: C13_12  and  C15_14 
REMARK    3  A    between atoms: C20_19  and  S21_20 
REMARK    4  A    between atoms: S21_20  and  N22_21 
ROOT
ATOM      1  N12 ZIN A   1      18.059   0.967  10.510  0.00  0.00    -0.263 N 
ATOM      2  C13 ZIN A   1      18.981   1.264   9.573  0.00  0.00     0.270 C 
ATOM      3  O14 ZIN A   1      19.791   2.147   9.776  0.00  0.00    -0.266 OA
ATOM      4  H35 ZIN A   1      17.412   0.263  10.347  0.00  0.00     0.190 HD
ENDROOT
BRANCH   2   5
ATOM      5  C15 ZIN A   1      19.008   0.515   8.299  0.00  0.00     0.035 A 
ATOM      6  C25 ZIN A   1      19.128  -0.877   8.307  0.00  0.00     0.044 A 
ATOM      7  C20 ZIN A   1      19.147  -1.570   7.115  0.00  0.00     0.102 A 
ATOM      8  C18 ZIN A   1      19.058  -0.889   5.912  0.00  0.00     0.057 A 
ATOM      9  C17 ZIN A   1      18.945   0.491   5.899  0.00  0.00     0.026 A 
ATOM     10 Cl19 ZIN A   1      19.089  -1.770   4.416  0.00  0.00    -0.083 Cl
ATOM     11  C16 ZIN A   1      18.920   1.196   7.083  0.00  0.00     0.019 A 
BRANCH   7  12
ATOM     12  S21 ZIN A   1      19.291  -3.327   7.123  0.00  0.00     0.258 S 
ATOM     13  O23 ZIN A   1      18.028  -3.833   6.713  0.00  0.00    -0.201 OA
ATOM     14  O24 ZIN A   1      20.506  -3.632   6.454  0.00  0.00    -0.201 OA
BRANCH  12  15
ATOM     15  N22 ZIN A   1      19.493  -3.795   8.699  0.00  0.00    -0.324 N 
ATOM     16  H38 ZIN A   1      19.410  -4.730   8.941  0.00  0.00     0.169 HD
ATOM     17  H39 ZIN A   1      19.695  -3.133   9.379  0.00  0.00     0.169 HD
ENDBRANCH  12  15
ENDBRANCH   7  12
ENDBRANCH   2   5
BRANCH   1  18
ATOM     18  N11 ZIN A   1      18.034   1.677  11.717  0.00  0.00    -0.284 N 
ATOM     19  C2  ZIN A   1      18.426   1.135  13.021  0.00  0.00     0.109 A 
ATOM     20  C1  ZIN A   1      19.895   0.707  12.997  0.00  0.00     0.034 C 
ATOM     21  C4  ZIN A   1      18.223   2.288  14.017  0.00  0.00     0.067 A 
ATOM     22  C5  ZIN A   1      17.714   3.434  13.172  0.00  0.00    -0.028 A 
ATOM     23  C10 ZIN A   1      17.631   3.008  11.856  0.00  0.00     0.057 A 
ATOM     24  C6  ZIN A   1      17.358   4.725  13.514  0.00  0.00     0.009 A 
ATOM     25  C9  ZIN A   1      17.182   3.902  10.881  0.00  0.00     0.031 A 
ATOM     26  C8  ZIN A   1      16.825   5.188  11.228  0.00  0.00     0.002 A 
ATOM     27  C7  ZIN A   1      16.912   5.603  12.544  0.00  0.00     0.001 A 
ENDBRANCH   1  18
TORSDOF 4
ENDMDL
MODEL 5
REMARK VINA RESULT:      -8.4      1.528      2.823
REMARK  4 active torsions:
REMARK  status: ('A' for Active; 'I' for Inactive)
REMARK    1  A    between atoms: N11_10  and  N12_11 
REMARK       I    between atoms: N12_11  and  C13_12 
REMARK    2  A    between atoms: C13_12  and  C15_14 
REMARK    3  A    between atoms: C20_19  and  S21_20 
REMARK    4  A    between atoms: S21_20  and  N22_21 
ROOT
ATOM      1  N12 ZIN A   1      18.817  -0.163  11.680  0.00  0.00    -0.263 N 
ATOM      2  C13 ZIN A   1      17.878  -0.363  12.626  0.00  0.00     0.270 C 
ATOM      3  O14 ZIN A   1      16.739  -0.640  12.303  0.00  0.00    -0.266 OA
ATOM      4  H35 ZIN A   1      19.726   0.058  11.937  0.00  0.00     0.190 HD
ENDROOT
BRANCH   2   5
ATOM      5  C15 ZIN A   1      18.234  -0.247  14.055  0.00  0.00     0.035 A 
ATOM      6  C25 ZIN A   1      18.295   1.009  14.663  0.00  0.00     0.044 A 
ATOM      7  C20 ZIN A   1      18.623   1.110  15.999  0.00  0.00     0.102 A 
ATOM      8  C18 ZIN A   1      18.901  -0.030  16.735  0.00  0.00     0.057 A 
ATOM      9  C17 ZIN A   1      18.848  -1.278  16.136  0.00  0.00     0.026 A 
ATOM     10 Cl19 ZIN A   1      19.318   0.106  18.415  0.00  0.00    -0.083 Cl
ATOM     11  C16 ZIN A   1      18.516  -1.392  14.803  0.00  0.00     0.019 A 
BRANCH   7  12
ATOM     12  S21 ZIN A   1      18.693   2.693  16.769  0.00  0.00     0.258 S 
ATOM     13  O23 ZIN A   1      17.889   2.606  17.938  0.00  0.00    -0.201 OA
ATOM     14  O24 ZIN A   1      20.063   3.067  16.794  0.00  0.00    -0.201 OA
BRANCH  12  15
ATOM     15  N22 ZIN A   1      17.934   3.764  15.759  0.00  0.00    -0.324 N 
ATOM     16  H38 ZIN A   1      17.024   3.594  15.468  0.00  0.00     0.169 HD
ATOM     17  H39 ZIN A   1      18.400   4.561  15.458  0.00  0.00     0.169 HD
ENDBRANCH  12  15
ENDBRANCH   7  12
ENDBRANCH   2   5
BRANCH   1  18
ATOM     18  N11 ZIN A   1      18.480  -0.273  10.325  0.00  0.00    -0.284 N 
ATOM     19  C2  ZIN A   1      17.960   0.817   9.495  0.00  0.00     0.109 A 
ATOM     20  C1  ZIN A   1      18.975   1.960   9.422  0.00  0.00     0.034 C 
ATOM     21  C4  ZIN A   1      17.749   0.201   8.102  0.00  0.00     0.067 A 
ATOM     22  C5  ZIN A   1      18.181  -1.239   8.255  0.00  0.00    -0.028 A 
ATOM     23  C10 ZIN A   1      18.591  -1.440   9.564  0.00  0.00     0.057 A 
ATOM     24  C6  ZIN A   1      18.216  -2.277   7.343  0.00  0.00     0.009 A 
ATOM     25  C9  ZIN A   1      19.039  -2.706   9.947  0.00  0.00     0.031 A 
ATOM     26  C8  ZIN A   1      19.069  -3.739   9.034  0.00  0.00     0.002 A 
ATOM     27  C7  ZIN A   1      18.659  -3.528   7.731  0.00  0.00     0.001 A 
ENDBRANCH   1  18
TORSDOF 4
ENDMDL
MODEL 6
REMARK VINA RESULT:      -8.4      4.756      7.467
REMARK  4 active torsions:
REMARK  status: ('A' for Active; 'I' for Inactive)
REMARK    1  A    between atoms: N11_10  and  N12_11 
REMARK       I    between atoms: N12_11  and  C13_12 
REMARK    2  A    between atoms: C13_12  and  C15_14 
REMARK    3  A    between atoms: C20_19  and  S21_20 
REMARK    4  A    between atoms: S21_20  and  N22_21 
ROOT
ATOM      1  N12 ZIN A   1      18.894  -0.044  11.728  0.00  0.00    -0.263 N 
ATOM      2  C13 ZIN A   1      18.029  -1.045  11.478  0.00  0.00     0.270 C 
ATOM      3  O14 ZIN A   1      16.863  -0.937  11.806  0.00  0.00    -0.266 OA
ATOM      4  H35 ZIN A   1      19.825  -0.130  11.466  0.00  0.00     0.190 HD
ENDROOT
BRANCH   2   5
ATOM      5  C15 ZIN A   1      18.496  -2.275  10.804  0.00  0.00     0.035 A 
ATOM      6  C25 ZIN A   1      18.440  -2.375   9.412  0.00  0.00     0.044 A 
ATOM      7  C20 ZIN A   1      18.882  -3.523   8.788  0.00  0.00     0.102 A 
ATOM      8  C18 ZIN A   1      19.371  -4.578   9.540  0.00  0.00     0.057 A 
ATOM      9  C17 ZIN A   1      19.423  -4.487  10.921  0.00  0.00     0.026 A 
ATOM     10 Cl19 ZIN A   1      19.920  -6.023   8.747  0.00  0.00    -0.083 Cl
ATOM     11  C16 ZIN A   1      18.989  -3.343  11.556  0.00  0.00     0.019 A 
BRANCH   7  12
ATOM     12  S21 ZIN A   1      18.819  -3.649   7.031  0.00  0.00     0.258 S 
ATOM     13  O23 ZIN A   1      20.164  -3.584   6.577  0.00  0.00    -0.201 OA
ATOM     14  O24 ZIN A   1      17.951  -4.734   6.738  0.00  0.00    -0.201 OA
BRANCH  12  15
ATOM     15  N22 ZIN A   1      18.069  -2.283   6.469  0.00  0.00    -0.324 N 
ATOM     16  H38 ZIN A   1      18.410  -1.408   6.711  0.00  0.00     0.169 HD
ATOM     17  H39 ZIN A   1      17.288  -2.359   5.897  0.00  0.00     0.169 HD
ENDBRANCH  12  15
ENDBRANCH   7  12
ENDBRANCH   2   5
BRANCH   1  18
ATOM     18  N11 ZIN A   1      18.451   1.122  12.366  0.00  0.00    -0.284 N 
ATOM     19  C2  ZIN A   1      18.199   1.250  13.804  0.00  0.00     0.109 A 
ATOM     20  C1  ZIN A   1      19.484   0.989  14.594  0.00  0.00     0.034 C 
ATOM     21  C4  ZIN A   1      17.735   2.702  14.006  0.00  0.00     0.067 A 
ATOM     22  C5  ZIN A   1      17.761   3.305  12.620  0.00  0.00    -0.028 A 
ATOM     23  C10 ZIN A   1      18.185   2.335  11.725  0.00  0.00     0.057 A 
ATOM     24  C6  ZIN A   1      17.448   4.576  12.178  0.00  0.00     0.009 A 
ATOM     25  C9  ZIN A   1      18.290   2.662  10.372  0.00  0.00     0.031 A 
ATOM     26  C8  ZIN A   1      17.974   3.930   9.935  0.00  0.00     0.002 A 
ATOM     27  C7  ZIN A   1      17.553   4.891  10.836  0.00  0.00     0.001 A 
ENDBRANCH   1  18
TORSDOF 4
ENDMDL
MODEL 7
REMARK VINA RESULT:      -8.2      4.948      8.453
REMARK  4 active torsions:
REMARK  status: ('A' for Active; 'I' for Inactive)
REMARK    1  A    between atoms: N11_10  and  N12_11 
REMARK       I    between atoms: N12_11  and  C13_12 
REMARK    2  A    between atoms: C13_12  and  C15_14 
REMARK    3  A    between atoms: C20_19  and  S21_20 
REMARK    4  A    between atoms: S21_20  and  N22_21 
ROOT
ATOM      1  N12 ZIN A   1      18.443  -0.087  11.020  0.00  0.00    -0.263 N 
ATOM      2  C13 ZIN A   1      19.487  -0.654  10.384  0.00  0.00     0.270 C 
ATOM      3  O14 ZIN A   1      20.618  -0.471  10.790  0.00  0.00    -0.266 OA
ATOM      4  H35 ZIN A   1      17.540  -0.233  10.696  0.00  0.00     0.190 HD
ENDROOT
BRANCH   2   5
ATOM      5  C15 ZIN A   1      19.256  -1.500   9.194  0.00  0.00     0.035 A 
ATOM      6  C25 ZIN A   1      19.158  -0.917   7.929  0.00  0.00     0.044 A 
ATOM      7  C20 ZIN A   1      18.948  -1.712   6.822  0.00  0.00     0.102 A 
ATOM      8  C18 ZIN A   1      18.824  -3.084   6.964  0.00  0.00     0.057 A 
ATOM      9  C17 ZIN A   1      18.915  -3.667   8.217  0.00  0.00     0.026 A 
ATOM     10 Cl19 ZIN A   1      18.554  -4.078   5.566  0.00  0.00    -0.083 Cl
ATOM     11  C16 ZIN A   1      19.130  -2.883   9.331  0.00  0.00     0.019 A 
BRANCH   7  12
ATOM     12  S21 ZIN A   1      18.831  -0.979   5.223  0.00  0.00     0.258 S 
ATOM     13  O23 ZIN A   1      20.000  -1.371   4.517  0.00  0.00    -0.201 OA
ATOM     14  O24 ZIN A   1      17.516  -1.243   4.757  0.00  0.00    -0.201 OA
BRANCH  12  15
ATOM     15  N22 ZIN A   1      18.935   0.661   5.427  0.00  0.00    -0.324 N 
ATOM     16  H38 ZIN A   1      19.693   1.044   5.895  0.00  0.00     0.169 HD
ATOM     17  H39 ZIN A   1      18.237   1.238   5.078  0.00  0.00     0.169 HD
ENDBRANCH  12  15
ENDBRANCH   7  12
ENDBRANCH   2   5
BRANCH   1  18
ATOM     18  N11 ZIN A   1      18.661   0.714  12.148  0.00  0.00    -0.284 N 
ATOM     19  C2  ZIN A   1      18.923   2.156  12.119  0.00  0.00     0.109 A 
ATOM     20  C1  ZIN A   1      17.741   2.898  11.494  0.00  0.00     0.034 C 
ATOM     21  C4  ZIN A   1      19.093   2.566  13.591  0.00  0.00     0.067 A 
ATOM     22  C5  ZIN A   1      18.906   1.282  14.367  0.00  0.00    -0.028 A 
ATOM     23  C10 ZIN A   1      18.660   0.256  13.469  0.00  0.00     0.057 A 
ATOM     24  C6  ZIN A   1      18.946   1.029  15.725  0.00  0.00     0.009 A 
ATOM     25  C9  ZIN A   1      18.454  -1.037  13.956  0.00  0.00     0.031 A 
ATOM     26  C8  ZIN A   1      18.496  -1.284  15.311  0.00  0.00     0.002 A 
ATOM     27  C7  ZIN A   1      18.742  -0.253  16.199  0.00  0.00     0.001 A 
ENDBRANCH   1  18
TORSDOF 4
ENDMDL
MODEL 8
REMARK VINA RESULT:      -8.1      2.015      3.618
REMARK  4 active torsions:
REMARK  status: ('A' for Active; 'I' for Inactive)
REMARK    1  A    between atoms: N11_10  and  N12_11 
REMARK       I    between atoms: N12_11  and  C13_12 
REMARK    2  A    between atoms: C13_12  and  C15_14 
REMARK    3  A    between atoms: C20_19  and  S21_20 
REMARK    4  A    between atoms: S21_20  and  N22_21 
ROOT
ATOM      1  N12 ZIN A   1      19.072   0.140  11.918  0.00  0.00    -0.263 N 
ATOM      2  C13 ZIN A   1      18.086   0.354  12.811  0.00  0.00     0.270 C 
ATOM      3  O14 ZIN A   1      17.002  -0.175  12.659  0.00  0.00    -0.266 OA
ATOM      4  H35 ZIN A   1      19.937   0.562  12.040  0.00  0.00     0.190 HD
ENDROOT
BRANCH   2   5
ATOM      5  C15 ZIN A   1      18.323   1.232  13.977  0.00  0.00     0.035 A 
ATOM      6  C25 ZIN A   1      18.403   0.686  15.260  0.00  0.00     0.044 A 
ATOM      7  C20 ZIN A   1      18.629   1.509  16.343  0.00  0.00     0.102 A 
ATOM      8  C18 ZIN A   1      18.766   2.876  16.161  0.00  0.00     0.057 A 
ATOM      9  C17 ZIN A   1      18.682   3.423  14.891  0.00  0.00     0.026 A 
ATOM     10 Cl19 ZIN A   1      19.045   3.906  17.530  0.00  0.00    -0.083 Cl
ATOM     11  C16 ZIN A   1      18.461   2.610  13.800  0.00  0.00     0.019 A 
BRANCH   7  12
ATOM     12  S21 ZIN A   1      18.737   0.822  17.962  0.00  0.00     0.258 S 
ATOM     13  O23 ZIN A   1      18.343  -0.538  17.846  0.00  0.00    -0.201 OA
ATOM     14  O24 ZIN A   1      19.995   1.225  18.485  0.00  0.00    -0.201 OA
BRANCH  12  15
ATOM     15  N22 ZIN A   1      17.584   1.566  18.888  0.00  0.00    -0.324 N 
ATOM     16  H38 ZIN A   1      17.171   2.389  18.581  0.00  0.00     0.169 HD
ATOM     17  H39 ZIN A   1      17.322   1.180  19.739  0.00  0.00     0.169 HD
ENDBRANCH  12  15
ENDBRANCH   7  12
ENDBRANCH   2   5
BRANCH   1  18
ATOM     18  N11 ZIN A   1      18.848  -0.692  10.814  0.00  0.00    -0.284 N 
ATOM     19  C2  ZIN A   1      18.252  -0.265   9.545  0.00  0.00     0.109 A 
ATOM     20  C1  ZIN A   1      19.115   0.816   8.890  0.00  0.00     0.034 C 
ATOM     21  C4  ZIN A   1      18.220  -1.527   8.667  0.00  0.00     0.067 A 
ATOM     22  C5  ZIN A   1      18.822  -2.608   9.535  0.00  0.00    -0.028 A 
ATOM     23  C10 ZIN A   1      19.161  -2.053  10.759  0.00  0.00     0.057 A 
ATOM     24  C6  ZIN A   1      19.053  -3.947   9.286  0.00  0.00     0.009 A 
ATOM     25  C9  ZIN A   1      19.740  -2.867  11.735  0.00  0.00     0.031 A 
ATOM     26  C8  ZIN A   1      19.966  -4.203  11.482  0.00  0.00     0.002 A 
ATOM     27  C7  ZIN A   1      19.625  -4.747  10.258  0.00  0.00     0.001 A 
ENDBRANCH   1  18
TORSDOF 4
ENDMDL
MODEL 9
REMARK VINA RESULT:      -8.1      2.748      4.154
REMARK  4 active torsions:
REMARK  status: ('A' for Active; 'I' for Inactive)
REMARK    1  A    between atoms: N11_10  and  N12_11 
REMARK       I    between atoms: N12_11  and  C13_12 
REMARK    2  A    between atoms: C13_12  and  C15_14 
REMARK    3  A    between atoms: C20_19  and  S21_20 
REMARK    4  A    between atoms: S21_20  and  N22_21 
ROOT
ATOM      1  N12 ZIN A   1      19.164   1.096  10.951  0.00  0.00    -0.263 N 
ATOM      2  C13 ZIN A   1      18.261   1.703  11.745  0.00  0.00     0.270 C 
ATOM      3  O14 ZIN A   1      17.101   1.337  11.738  0.00  0.00    -0.266 OA
ATOM      4  H35 ZIN A   1      20.089   1.388  10.956  0.00  0.00     0.190 HD
ENDROOT
BRANCH   2   5
ATOM      5  C15 ZIN A   1      18.680   2.813  12.627  0.00  0.00     0.035 A 
ATOM      6  C25 ZIN A   1      18.536   2.700  14.012  0.00  0.00     0.044 A 
ATOM      7  C20 ZIN A   1      18.933   3.737  14.829  0.00  0.00     0.102 A 
ATOM      8  C18 ZIN A   1      19.465   4.892  14.279  0.00  0.00     0.057 A 
ATOM      9  C17 ZIN A   1      19.604   5.011  12.907  0.00  0.00     0.026 A 
ATOM     10 Cl19 ZIN A   1      19.957   6.195  15.316  0.00  0.00    -0.083 Cl
ATOM     11  C16 ZIN A   1      19.215   3.980  12.079  0.00  0.00     0.019 A 
BRANCH   7  12
ATOM     12  S21 ZIN A   1      18.759   3.594  16.577  0.00  0.00     0.258 S 
ATOM     13  O23 ZIN A   1      20.074   3.476  17.102  0.00  0.00    -0.201 OA
ATOM     14  O24 ZIN A   1      17.852   4.613  16.974  0.00  0.00    -0.201 OA
BRANCH  12  15
ATOM     15  N22 ZIN A   1      18.004   2.151  16.878  0.00  0.00    -0.324 N 
ATOM     16  H38 ZIN A   1      17.548   1.683  16.161  0.00  0.00     0.169 HD
ATOM     17  H39 ZIN A   1      18.018   1.774  17.772  0.00  0.00     0.169 HD
ENDBRANCH  12  15
ENDBRANCH   7  12
ENDBRANCH   2   5
BRANCH   1  18
ATOM     18  N11 ZIN A   1      18.766   0.044  10.115  0.00  0.00    -0.284 N 
ATOM     19  C2  ZIN A   1      18.018   0.198   8.864  0.00  0.00     0.109 A 
ATOM     20  C1  ZIN A   1      18.819   1.039   7.867  0.00  0.00     0.034 C 
ATOM     21  C4  ZIN A   1      17.829  -1.230   8.327  0.00  0.00     0.067 A 
ATOM     22  C5  ZIN A   1      18.508  -2.113   9.349  0.00  0.00    -0.028 A 
ATOM     23  C10 ZIN A   1      19.026  -1.309  10.352  0.00  0.00     0.057 A 
ATOM     24  C6  ZIN A   1      18.661  -3.485   9.403  0.00  0.00     0.009 A 
ATOM     25  C9  ZIN A   1      19.705  -1.906  11.416  0.00  0.00     0.031 A 
ATOM     26  C8  ZIN A   1      19.853  -3.275  11.466  0.00  0.00     0.002 A 
ATOM     27  C7  ZIN A   1      19.333  -4.068  10.460  0.00  0.00     0.001 A 
ENDBRANCH   1  18
TORSDOF 4
ENDMDL
