MODEL 1
REMARK VINA RESULT:      -6.9      0.000      0.000
REMARK  20 active torsions:
REMARK  status: ('A' for Active; 'I' for Inactive)
REMARK    1  A    between atoms: C2_2  and  C4_4 
REMARK    2  A    between atoms: C4_4  and  N5_5 
REMARK    3  A    between atoms: N5_5  and  C6_6 
REMARK    4  A    between atoms: N5_5  and  C18_18 
REMARK    5  A    between atoms: C6_6  and  C7_7 
REMARK    6  A    between atoms: C7_7  and  N8_8 
REMARK    7  A    between atoms: N8_8  and  C10_10 
REMARK    8  A    between atoms: N8_8  and  C14_14 
REMARK    9  A    between atoms: C10_10  and  C11_11 
REMARK   10  A    between atoms: C14_14  and  C15_15 
REMARK   11  A    between atoms: C18_18  and  C19_19 
REMARK   12  A    between atoms: C19_19  and  N20_20 
REMARK   13  A    between atoms: N20_20  and  C22_22 
REMARK   14  A    between atoms: N20_20  and  C26_26 
REMARK   15  A    between atoms: C22_22  and  C23_23 
REMARK   16  A    between atoms: C26_26  and  C28_27 
REMARK   17  A    between atoms: C26_26  and  C37_36 
REMARK   18  A    between atoms: C28_27  and  O29_28 
REMARK   19  A    between atoms: O29_28  and  C30_29 
REMARK   20  A    between atoms: C30_29  and  C31_30 
ROOT
ATOM      1  C19 ZIN A   1      18.317   0.977   8.570  0.00  0.00     0.267 C 
ENDROOT
BRANCH   1   2
ATOM      2  C18 ZIN A   1      17.448  -0.172   8.053  0.00  0.00     0.300 C 
BRANCH   2   3
ATOM      3  N5  ZIN A   1      18.180  -0.913   7.018  0.00  0.00     0.101 N 
BRANCH   3   4
ATOM      4  C4  ZIN A   1      19.029  -0.012   6.227  0.00  0.00     0.385 C 
BRANCH   4   5
ATOM      5  C2  ZIN A   1      19.094  -0.503   4.804  0.00  0.00     0.202 C 
ATOM      6  O1  ZIN A   1      18.273  -0.117   3.987  0.00  0.00    -0.647 OA
ATOM      7  O3  ZIN A   1      19.969  -1.282   4.465  0.00  0.00    -0.647 OA
ENDBRANCH   4   5
ENDBRANCH   3   4
BRANCH   3   8
ATOM      8  C6  ZIN A   1      18.973  -1.999   7.610  0.00  0.00     0.300 C 
BRANCH   8   9
ATOM      9  C7  ZIN A   1      18.524  -3.337   7.022  0.00  0.00     0.266 C 
BRANCH   9  10
ATOM     10  N8  ZIN A   1      18.421  -4.334   8.097  0.00  0.00    -0.050 N 
ATOM     11  H9  ZIN A   1      19.244  -4.917   8.096  0.00  0.00     0.281 HD
BRANCH  10  12
ATOM     12  C10 ZIN A   1      18.308  -3.648   9.391  0.00  0.00     0.348 C 
BRANCH  12  13
ATOM     13  C11 ZIN A   1      19.396  -4.136  10.313  0.00  0.00     0.199 C 
ATOM     14  O12 ZIN A   1      19.647  -3.524  11.336  0.00  0.00    -0.647 OA
ATOM     15  O13 ZIN A   1      20.026  -5.143  10.035  0.00  0.00    -0.647 OA
ENDBRANCH  12  13
ENDBRANCH  10  12
BRANCH  10  16
ATOM     16  C14 ZIN A   1      17.231  -5.168   7.878  0.00  0.00     0.348 C 
BRANCH  16  17
ATOM     17  C15 ZIN A   1      17.587  -6.617   8.091  0.00  0.00     0.199 C 
ATOM     18  O16 ZIN A   1      16.823  -7.350   8.694  0.00  0.00    -0.647 OA
ATOM     19  O17 ZIN A   1      18.640  -7.055   7.659  0.00  0.00    -0.647 OA
ENDBRANCH  16  17
ENDBRANCH  10  16
ENDBRANCH   9  10
ENDBRANCH   8   9
ENDBRANCH   3   8
ENDBRANCH   2   3
ENDBRANCH   1   2
BRANCH   1  20
ATOM     20  N20 ZIN A   1      18.073   1.168  10.005  0.00  0.00    -0.044 N 
ATOM     21  H21 ZIN A   1      17.118   1.461  10.149  0.00  0.00     0.281 HD
BRANCH  20  22
ATOM     22  C22 ZIN A   1      18.983   2.197  10.525  0.00  0.00     0.348 C 
BRANCH  22  23
ATOM     23  C23 ZIN A   1      18.179   3.347  11.074  0.00  0.00     0.199 C 
ATOM     24  O24 ZIN A   1      18.734   4.235  11.699  0.00  0.00    -0.647 OA
ATOM     25  O25 ZIN A   1      16.974   3.391  10.893  0.00  0.00    -0.647 OA
ENDBRANCH  22  23
ENDBRANCH  20  22
BRANCH  20  26
ATOM     26  C26 ZIN A   1      18.309  -0.097  10.715  0.00  0.00     0.312 C 
BRANCH  26  27
ATOM     27  C28 ZIN A   1      19.429   0.093  11.739  0.00  0.00     0.212 C 
BRANCH  27  28
ATOM     28  O29 ZIN A   1      18.912  -0.113  13.054  0.00  0.00    -0.384 OA
BRANCH  28  29
ATOM     29  C30 ZIN A   1      19.128   0.987  13.942  0.00  0.00     0.206 C 
BRANCH  29  30
ATOM     30  C31 ZIN A   1      18.691   0.603  15.333  0.00  0.00    -0.035 A 
ATOM     31  C36 ZIN A   1      17.816  -0.453  15.515  0.00  0.00     0.009 A 
ATOM     32  C35 ZIN A   1      17.418  -0.807  16.792  0.00  0.00     0.001 A 
ATOM     33  C34 ZIN A   1      17.887  -0.101  17.883  0.00  0.00     0.000 A 
ATOM     34  C33 ZIN A   1      18.757   0.958  17.700  0.00  0.00     0.001 A 
ATOM     35  C32 ZIN A   1      19.158   1.310  16.424  0.00  0.00     0.009 A 
ENDBRANCH  29  30
ENDBRANCH  28  29
ENDBRANCH  27  28
ENDBRANCH  26  27
BRANCH  26  36
ATOM     36  C37 ZIN A   1      17.046  -0.518  11.424  0.00  0.00     0.207 C 
ATOM     37  O38 ZIN A   1      16.141   0.283  11.580  0.00  0.00    -0.646 OA
ATOM     38  O39 ZIN A   1      16.932  -1.658  11.840  0.00  0.00    -0.646 OA
ENDBRANCH  26  36
ENDBRANCH  20  26
ENDBRANCH   1  20
TORSDOF 20
ENDMDL
MODEL 2
REMARK VINA RESULT:      -6.8      2.782      5.734
REMARK  20 active torsions:
REMARK  status: ('A' for Active; 'I' for Inactive)
REMARK    1  A    between atoms: C2_2  and  C4_4 
REMARK    2  A    between atoms: C4_4  and  N5_5 
REMARK    3  A    between atoms: N5_5  and  C6_6 
REMARK    4  A    between atoms: N5_5  and  C18_18 
REMARK    5  A    between atoms: C6_6  and  C7_7 
REMARK    6  A    between atoms: C7_7  and  N8_8 
REMARK    7  A    between atoms: N8_8  and  C10_10 
REMARK    8  A    between atoms: N8_8  and  C14_14 
REMARK    9  A    between atoms: C10_10  and  C11_11 
REMARK   10  A    between atoms: C14_14  and  C15_15 
REMARK   11  A    between atoms: C18_18  and  C19_19 
REMARK   12  A    between atoms: C19_19  and  N20_20 
REMARK   13  A    between atoms: N20_20  and  C22_22 
REMARK   14  A    between atoms: N20_20  and  C26_26 
REMARK   15  A    between atoms: C22_22  and  C23_23 
REMARK   16  A    between atoms: C26_26  and  C28_27 
REMARK   17  A    between atoms: C26_26  and  C37_36 
REMARK   18  A    between atoms: C28_27  and  O29_28 
REMARK   19  A    between atoms: O29_28  and  C30_29 
REMARK   20  A    between atoms: C30_29  and  C31_30 
ROOT
ATOM      1  C19 ZIN A   1      19.433   1.020  14.027  0.00  0.00     0.267 C 
ENDROOT
BRANCH   1   2
ATOM      2  C18 ZIN A   1      19.736  -0.361  13.439  0.00  0.00     0.300 C 
BRANCH   2   3
ATOM      3  N5  ZIN A   1      18.641  -0.765  12.549  0.00  0.00     0.101 N 
BRANCH   3   4
ATOM      4  C4  ZIN A   1      18.843  -0.238  11.192  0.00  0.00     0.385 C 
BRANCH   4   5
ATOM      5  C2  ZIN A   1      17.569   0.404  10.708  0.00  0.00     0.202 C 
ATOM      6  O1  ZIN A   1      17.446   0.704   9.532  0.00  0.00    -0.647 OA
ATOM      7  O3  ZIN A   1      16.658   0.620  11.490  0.00  0.00    -0.647 OA
ENDBRANCH   4   5
ENDBRANCH   3   4
BRANCH   3   8
ATOM      8  C6  ZIN A   1      18.490  -2.226  12.529  0.00  0.00     0.300 C 
BRANCH   8   9
ATOM      9  C7  ZIN A   1      19.262  -2.802  11.340  0.00  0.00     0.266 C 
BRANCH   9  10
ATOM     10  N8  ZIN A   1      18.412  -3.763  10.624  0.00  0.00    -0.050 N 
ATOM     11  H9  ZIN A   1      18.965  -4.559  10.345  0.00  0.00     0.281 HD
BRANCH  10  12
ATOM     12  C10 ZIN A   1      17.325  -4.208  11.506  0.00  0.00     0.348 C 
BRANCH  12  13
ATOM     13  C11 ZIN A   1      17.331  -5.713  11.590  0.00  0.00     0.199 C 
ATOM     14  O12 ZIN A   1      17.394  -6.263  12.675  0.00  0.00    -0.647 OA
ATOM     15  O13 ZIN A   1      17.273  -6.380  10.570  0.00  0.00    -0.647 OA
ENDBRANCH  12  13
ENDBRANCH  10  12
BRANCH  10  16
ATOM     16  C14 ZIN A   1      17.843  -3.120   9.432  0.00  0.00     0.348 C 
BRANCH  16  17
ATOM     17  C15 ZIN A   1      18.914  -2.975   8.381  0.00  0.00     0.199 C 
ATOM     18  O16 ZIN A   1      19.270  -1.866   8.022  0.00  0.00    -0.647 OA
ATOM     19  O17 ZIN A   1      19.424  -3.968   7.889  0.00  0.00    -0.647 OA
ENDBRANCH  16  17
ENDBRANCH  10  16
ENDBRANCH   9  10
ENDBRANCH   8   9
ENDBRANCH   3   8
ENDBRANCH   2   3
ENDBRANCH   1   2
BRANCH   1  20
ATOM     20  N20 ZIN A   1      19.087   0.881  15.448  0.00  0.00    -0.044 N 
ATOM     21  H21 ZIN A   1      19.636   0.140  15.857  0.00  0.00     0.281 HD
BRANCH  20  22
ATOM     22  C22 ZIN A   1      17.660   0.559  15.575  0.00  0.00     0.348 C 
BRANCH  22  23
ATOM     23  C23 ZIN A   1      17.502  -0.734  16.332  0.00  0.00     0.199 C 
ATOM     24  O24 ZIN A   1      18.360  -1.598  16.249  0.00  0.00    -0.647 OA
ATOM     25  O25 ZIN A   1      16.518  -0.918  17.029  0.00  0.00    -0.647 OA
ENDBRANCH  22  23
ENDBRANCH  20  22
BRANCH  20  26
ATOM     26  C26 ZIN A   1      19.369   2.142  16.145  0.00  0.00     0.312 C 
BRANCH  26  27
ATOM     27  C28 ZIN A   1      18.454   3.242  15.602  0.00  0.00     0.212 C 
BRANCH  27  28
ATOM     28  O29 ZIN A   1      19.249   4.308  15.080  0.00  0.00    -0.384 OA
BRANCH  28  29
ATOM     29  C30 ZIN A   1      18.493   5.331  14.427  0.00  0.00     0.206 C 
BRANCH  29  30
ATOM     30  C31 ZIN A   1      18.183   4.903  13.016  0.00  0.00    -0.035 A 
ATOM     31  C36 ZIN A   1      16.955   5.205  12.456  0.00  0.00     0.009 A 
ATOM     32  C35 ZIN A   1      16.672   4.815  11.160  0.00  0.00     0.001 A 
ATOM     33  C34 ZIN A   1      17.613   4.117  10.427  0.00  0.00     0.000 A 
ATOM     34  C33 ZIN A   1      18.839   3.810  10.989  0.00  0.00     0.001 A 
ATOM     35  C32 ZIN A   1      19.123   4.203  12.284  0.00  0.00     0.009 A 
ENDBRANCH  29  30
ENDBRANCH  28  29
ENDBRANCH  27  28
ENDBRANCH  26  27
BRANCH  26  36
ATOM     36  C37 ZIN A   1      19.120   1.966  17.622  0.00  0.00     0.207 C 
ATOM     37  O38 ZIN A   1      19.808   1.194  18.267  0.00  0.00    -0.646 OA
ATOM     38  O39 ZIN A   1      18.230   2.595  18.169  0.00  0.00    -0.646 OA
ENDBRANCH  26  36
ENDBRANCH  20  26
ENDBRANCH   1  20
TORSDOF 20
ENDMDL
MODEL 3
REMARK VINA RESULT:      -6.8      3.505      8.775
REMARK  20 active torsions:
REMARK  status: ('A' for Active; 'I' for Inactive)
REMARK    1  A    between atoms: C2_2  and  C4_4 
REMARK    2  A    between atoms: C4_4  and  N5_5 
REMARK    3  A    between atoms: N5_5  and  C6_6 
REMARK    4  A    between atoms: N5_5  and  C18_18 
REMARK    5  A    between atoms: C6_6  and  C7_7 
REMARK    6  A    between atoms: C7_7  and  N8_8 
REMARK    7  A    between atoms: N8_8  and  C10_10 
REMARK    8  A    between atoms: N8_8  and  C14_14 
REMARK    9  A    between atoms: C10_10  and  C11_11 
REMARK   10  A    between atoms: C14_14  and  C15_15 
REMARK   11  A    between atoms: C18_18  and  C19_19 
REMARK   12  A    between atoms: C19_19  and  N20_20 
REMARK   13  A    between atoms: N20_20  and  C22_22 
REMARK   14  A    between atoms: N20_20  and  C26_26 
REMARK   15  A    between atoms: C22_22  and  C23_23 
REMARK   16  A    between atoms: C26_26  and  C28_27 
REMARK   17  A    between atoms: C26_26  and  C37_36 
REMARK   18  A    between atoms: C28_27  and  O29_28 
REMARK   19  A    between atoms: O29_28  and  C30_29 
REMARK   20  A    between atoms: C30_29  and  C31_30 
ROOT
ATOM      1  C19 ZIN A   1      19.332   2.684  12.640  0.00  0.00     0.267 C 
ENDROOT
BRANCH   1   2
ATOM      2  C18 ZIN A   1      18.205   2.908  13.651  0.00  0.00     0.300 C 
BRANCH   2   3
ATOM      3  N5  ZIN A   1      18.583   2.320  14.943  0.00  0.00     0.101 N 
BRANCH   3   4
ATOM      4  C4  ZIN A   1      19.375   1.097  14.753  0.00  0.00     0.385 C 
BRANCH   4   5
ATOM      5  C2  ZIN A   1      18.570  -0.096  15.199  0.00  0.00     0.202 C 
ATOM      6  O1  ZIN A   1      19.050  -1.216  15.132  0.00  0.00    -0.647 OA
ATOM      7  O3  ZIN A   1      17.441   0.057  15.633  0.00  0.00    -0.647 OA
ENDBRANCH   4   5
ENDBRANCH   3   4
BRANCH   3   8
ATOM      8  C6  ZIN A   1      19.308   3.293  15.771  0.00  0.00     0.300 C 
BRANCH   8   9
ATOM      9  C7  ZIN A   1      18.307   4.221  16.461  0.00  0.00     0.266 C 
BRANCH   9  10
ATOM     10  N8  ZIN A   1      17.967   3.679  17.784  0.00  0.00    -0.050 N 
ATOM     11  H9  ZIN A   1      17.233   2.993  17.688  0.00  0.00     0.281 HD
BRANCH  10  12
ATOM     12  C10 ZIN A   1      19.154   3.045  18.372  0.00  0.00     0.348 C 
BRANCH  12  13
ATOM     13  C11 ZIN A   1      18.908   1.566  18.530  0.00  0.00     0.199 C 
ATOM     14  O12 ZIN A   1      19.824   0.777  18.385  0.00  0.00    -0.647 OA
ATOM     15  O13 ZIN A   1      17.790   1.160  18.802  0.00  0.00    -0.647 OA
ENDBRANCH  12  13
ENDBRANCH  10  12
BRANCH  10  16
ATOM     16  C14 ZIN A   1      17.509   4.768  18.656  0.00  0.00     0.348 C 
BRANCH  16  17
ATOM     17  C15 ZIN A   1      16.093   4.499  19.094  0.00  0.00     0.199 C 
ATOM     18  O16 ZIN A   1      15.855   3.580  19.859  0.00  0.00    -0.647 OA
ATOM     19  O17 ZIN A   1      15.184   5.201  18.683  0.00  0.00    -0.647 OA
ENDBRANCH  16  17
ENDBRANCH  10  16
ENDBRANCH   9  10
ENDBRANCH   8   9
ENDBRANCH   3   8
ENDBRANCH   2   3
ENDBRANCH   1   2
BRANCH   1  20
ATOM     20  N20 ZIN A   1      18.760   2.527  11.296  0.00  0.00    -0.044 N 
ATOM     21  H21 ZIN A   1      19.361   2.974  10.619  0.00  0.00     0.281 HD
BRANCH  20  22
ATOM     22  C22 ZIN A   1      17.430   3.148  11.254  0.00  0.00     0.348 C 
BRANCH  22  23
ATOM     23  C23 ZIN A   1      17.491   4.412  10.435  0.00  0.00     0.199 C 
ATOM     24  O24 ZIN A   1      18.065   4.414   9.360  0.00  0.00    -0.647 OA
ATOM     25  O25 ZIN A   1      16.965   5.432  10.848  0.00  0.00    -0.647 OA
ENDBRANCH  22  23
ENDBRANCH  20  22
BRANCH  20  26
ATOM     26  C26 ZIN A   1      18.643   1.098  10.977  0.00  0.00     0.312 C 
BRANCH  26  27
ATOM     27  C28 ZIN A   1      17.167   0.731  10.810  0.00  0.00     0.212 C 
BRANCH  27  28
ATOM     28  O29 ZIN A   1      17.037  -0.688  10.716  0.00  0.00    -0.384 OA
BRANCH  28  29
ATOM     29  C30 ZIN A   1      17.382  -1.386  11.915  0.00  0.00     0.206 C 
BRANCH  29  30
ATOM     30  C31 ZIN A   1      18.196  -2.606  11.570  0.00  0.00    -0.035 A 
ATOM     31  C36 ZIN A   1      17.609  -3.659  10.892  0.00  0.00     0.009 A 
ATOM     32  C35 ZIN A   1      18.358  -4.777  10.572  0.00  0.00     0.001 A 
ATOM     33  C34 ZIN A   1      19.689  -4.846  10.938  0.00  0.00     0.000 A 
ATOM     34  C33 ZIN A   1      20.274  -3.796  11.621  0.00  0.00     0.001 A 
ATOM     35  C32 ZIN A   1      19.526  -2.676  11.937  0.00  0.00     0.009 A 
ENDBRANCH  29  30
ENDBRANCH  28  29
ENDBRANCH  27  28
ENDBRANCH  26  27
BRANCH  26  36
ATOM     36  C37 ZIN A   1      19.381   0.807   9.695  0.00  0.00     0.207 C 
ATOM     37  O38 ZIN A   1      20.224  -0.073   9.663  0.00  0.00    -0.646 OA
ATOM     38  O39 ZIN A   1      19.134   1.453   8.690  0.00  0.00    -0.646 OA
ENDBRANCH  26  36
ENDBRANCH  20  26
ENDBRANCH   1  20
TORSDOF 20
ENDMDL
MODEL 4
REMARK VINA RESULT:      -6.7      2.175      7.031
REMARK  20 active torsions:
REMARK  status: ('A' for Active; 'I' for Inactive)
REMARK    1  A    between atoms: C2_2  and  C4_4 
REMARK    2  A    between atoms: C4_4  and  N5_5 
REMARK    3  A    between atoms: N5_5  and  C6_6 
REMARK    4  A    between atoms: N5_5  and  C18_18 
REMARK    5  A    between atoms: C6_6  and  C7_7 
REMARK    6  A    between atoms: C7_7  and  N8_8 
REMARK    7  A    between atoms: N8_8  and  C10_10 
REMARK    8  A    between atoms: N8_8  and  C14_14 
REMARK    9  A    between atoms: C10_10  and  C11_11 
REMARK   10  A    between atoms: C14_14  and  C15_15 
REMARK   11  A    between atoms: C18_18  and  C19_19 
REMARK   12  A    between atoms: C19_19  and  N20_20 
REMARK   13  A    between atoms: N20_20  and  C22_22 
REMARK   14  A    between atoms: N20_20  and  C26_26 
REMARK   15  A    between atoms: C22_22  and  C23_23 
REMARK   16  A    between atoms: C26_26  and  C28_27 
REMARK   17  A    between atoms: C26_26  and  C37_36 
REMARK   18  A    between atoms: C28_27  and  O29_28 
REMARK   19  A    between atoms: O29_28  and  C30_29 
REMARK   20  A    between atoms: C30_29  and  C31_30 
ROOT
ATOM      1  C19 ZIN A   1      17.423  -1.253   9.099  0.00  0.00     0.267 C 
ENDROOT
BRANCH   1   2
ATOM      2  C18 ZIN A   1      18.500  -1.765  10.060  0.00  0.00     0.300 C 
BRANCH   2   3
ATOM      3  N5  ZIN A   1      17.859  -2.409  11.214  0.00  0.00     0.101 N 
BRANCH   3   4
ATOM      4  C4  ZIN A   1      18.703  -3.485  11.751  0.00  0.00     0.385 C 
BRANCH   4   5
ATOM      5  C2  ZIN A   1      18.811  -4.594  10.736  0.00  0.00     0.202 C 
ATOM      6  O1  ZIN A   1      17.811  -5.201  10.389  0.00  0.00    -0.647 OA
ATOM      7  O3  ZIN A   1      19.895  -4.880  10.258  0.00  0.00    -0.647 OA
ENDBRANCH   4   5
ENDBRANCH   3   4
BRANCH   3   8
ATOM      8  C6  ZIN A   1      17.536  -1.424  12.255  0.00  0.00     0.300 C 
BRANCH   8   9
ATOM      9  C7  ZIN A   1      18.805  -0.671  12.655  0.00  0.00     0.266 C 
BRANCH   9  10
ATOM     10  N8  ZIN A   1      18.740  -0.325  14.082  0.00  0.00    -0.050 N 
ATOM     11  H9  ZIN A   1      17.788  -0.102  14.331  0.00  0.00     0.281 HD
BRANCH  10  12
ATOM     12  C10 ZIN A   1      19.200  -1.466  14.884  0.00  0.00     0.348 C 
BRANCH  12  13
ATOM     13  C11 ZIN A   1      18.691  -1.326  16.296  0.00  0.00     0.199 C 
ATOM     14  O12 ZIN A   1      17.498  -1.190  16.502  0.00  0.00    -0.647 OA
ATOM     15  O13 ZIN A   1      19.474  -1.347  17.231  0.00  0.00    -0.647 OA
ENDBRANCH  12  13
ENDBRANCH  10  12
BRANCH  10  16
ATOM     16  C14 ZIN A   1      19.599   0.837  14.344  0.00  0.00     0.348 C 
BRANCH  16  17
ATOM     17  C15 ZIN A   1      18.759   1.976  14.862  0.00  0.00     0.199 C 
ATOM     18  O16 ZIN A   1      17.684   2.226  14.344  0.00  0.00    -0.647 OA
ATOM     19  O17 ZIN A   1      19.155   2.648  15.800  0.00  0.00    -0.647 OA
ENDBRANCH  16  17
ENDBRANCH  10  16
ENDBRANCH   9  10
ENDBRANCH   8   9
ENDBRANCH   3   8
ENDBRANCH   2   3
ENDBRANCH   1   2
BRANCH   1  20
ATOM     20  N20 ZIN A   1      17.904  -1.376   7.716  0.00  0.00    -0.044 N 
ATOM     21  H21 ZIN A   1      17.280  -1.974   7.195  0.00  0.00     0.281 HD
BRANCH  20  22
ATOM     22  C22 ZIN A   1      19.252  -1.959   7.716  0.00  0.00     0.348 C 
BRANCH  22  23
ATOM     23  C23 ZIN A   1      19.254  -3.219   6.890  0.00  0.00     0.199 C 
ATOM     24  O24 ZIN A   1      18.565  -4.168   7.224  0.00  0.00    -0.647 OA
ATOM     25  O25 ZIN A   1      19.944  -3.290   5.887  0.00  0.00    -0.647 OA
ENDBRANCH  22  23
ENDBRANCH  20  22
BRANCH  20  26
ATOM     26  C26 ZIN A   1      17.944  -0.047   7.092  0.00  0.00     0.312 C 
BRANCH  26  27
ATOM     27  C28 ZIN A   1      19.146   0.732   7.628  0.00  0.00     0.212 C 
BRANCH  27  28
ATOM     28  O29 ZIN A   1      18.696   1.728   8.549  0.00  0.00    -0.384 OA
BRANCH  28  29
ATOM     29  C30 ZIN A   1      19.571   1.930   9.661  0.00  0.00     0.206 C 
BRANCH  29  30
ATOM     30  C31 ZIN A   1      19.009   3.007  10.553  0.00  0.00    -0.035 A 
ATOM     31  C36 ZIN A   1      19.797   3.562  11.545  0.00  0.00     0.009 A 
ATOM     32  C35 ZIN A   1      19.282   4.553  12.361  0.00  0.00     0.001 A 
ATOM     33  C34 ZIN A   1      17.979   4.982  12.191  0.00  0.00     0.000 A 
ATOM     34  C33 ZIN A   1      17.190   4.422  11.202  0.00  0.00     0.001 A 
ATOM     35  C32 ZIN A   1      17.706   3.435  10.384  0.00  0.00     0.009 A 
ENDBRANCH  29  30
ENDBRANCH  28  29
ENDBRANCH  27  28
ENDBRANCH  26  27
BRANCH  26  36
ATOM     36  C37 ZIN A   1      18.070  -0.199   5.597  0.00  0.00     0.207 C 
ATOM     37  O38 ZIN A   1      18.968   0.371   5.001  0.00  0.00    -0.646 OA
ATOM     38  O39 ZIN A   1      17.275  -0.891   4.985  0.00  0.00    -0.646 OA
ENDBRANCH  26  36
ENDBRANCH  20  26
ENDBRANCH   1  20
TORSDOF 20
ENDMDL
MODEL 5
REMARK VINA RESULT:      -6.6      2.143      4.661
REMARK  20 active torsions:
REMARK  status: ('A' for Active; 'I' for Inactive)
REMARK    1  A    between atoms: C2_2  and  C4_4 
REMARK    2  A    between atoms: C4_4  and  N5_5 
REMARK    3  A    between atoms: N5_5  and  C6_6 
REMARK    4  A    between atoms: N5_5  and  C18_18 
REMARK    5  A    between atoms: C6_6  and  C7_7 
REMARK    6  A    between atoms: C7_7  and  N8_8 
REMARK    7  A    between atoms: N8_8  and  C10_10 
REMARK    8  A    between atoms: N8_8  and  C14_14 
REMARK    9  A    between atoms: C10_10  and  C11_11 
REMARK   10  A    between atoms: C14_14  and  C15_15 
REMARK   11  A    between atoms: C18_18  and  C19_19 
REMARK   12  A    between atoms: C19_19  and  N20_20 
REMARK   13  A    between atoms: N20_20  and  C22_22 
REMARK   14  A    between atoms: N20_20  and  C26_26 
REMARK   15  A    between atoms: C22_22  and  C23_23 
REMARK   16  A    between atoms: C26_26  and  C28_27 
REMARK   17  A    between atoms: C26_26  and  C37_36 
REMARK   18  A    between atoms: C28_27  and  O29_28 
REMARK   19  A    between atoms: O29_28  and  C30_29 
REMARK   20  A    between atoms: C30_29  and  C31_30 
ROOT
ATOM      1  C19 ZIN A   1      17.780  -1.629   8.509  0.00  0.00     0.267 C 
ENDROOT
BRANCH   1   2
ATOM      2  C18 ZIN A   1      19.095  -2.231   8.007  0.00  0.00     0.300 C 
BRANCH   2   3
ATOM      3  N5  ZIN A   1      18.946  -3.686   7.869  0.00  0.00     0.101 N 
BRANCH   3   4
ATOM      4  C4  ZIN A   1      18.332  -4.268   9.070  0.00  0.00     0.385 C 
BRANCH   4   5
ATOM      5  C2  ZIN A   1      18.697  -5.727   9.164  0.00  0.00     0.202 C 
ATOM      6  O1  ZIN A   1      17.912  -6.522   9.656  0.00  0.00    -0.647 OA
ATOM      7  O3  ZIN A   1      19.773  -6.115   8.743  0.00  0.00    -0.647 OA
ENDBRANCH   4   5
ENDBRANCH   3   4
BRANCH   3   8
ATOM      8  C6  ZIN A   1      18.174  -4.025   6.667  0.00  0.00     0.300 C 
BRANCH   8   9
ATOM      9  C7  ZIN A   1      19.048  -3.829   5.427  0.00  0.00     0.266 C 
BRANCH   9  10
ATOM     10  N8  ZIN A   1      18.213  -3.373   4.306  0.00  0.00    -0.050 N 
ATOM     11  H9  ZIN A   1      18.772  -3.330   3.467  0.00  0.00     0.281 HD
BRANCH  10  12
ATOM     12  C10 ZIN A   1      17.105  -4.316   4.108  0.00  0.00     0.348 C 
BRANCH  12  13
ATOM     13  C11 ZIN A   1      17.337  -5.105   2.844  0.00  0.00     0.199 C 
ATOM     14  O12 ZIN A   1      18.350  -4.925   2.191  0.00  0.00    -0.647 OA
ATOM     15  O13 ZIN A   1      16.511  -5.923   2.475  0.00  0.00    -0.647 OA
ENDBRANCH  12  13
ENDBRANCH  10  12
BRANCH  10  16
ATOM     16  C14 ZIN A   1      17.676  -2.040   4.607  0.00  0.00     0.348 C 
BRANCH  16  17
ATOM     17  C15 ZIN A   1      18.732  -1.000   4.336  0.00  0.00     0.199 C 
ATOM     18  O16 ZIN A   1      18.417   0.085   3.876  0.00  0.00    -0.647 OA
ATOM     19  O17 ZIN A   1      19.903  -1.243   4.577  0.00  0.00    -0.647 OA
ENDBRANCH  16  17
ENDBRANCH  10  16
ENDBRANCH   9  10
ENDBRANCH   8   9
ENDBRANCH   3   8
ENDBRANCH   2   3
ENDBRANCH   1   2
BRANCH   1  20
ATOM     20  N20 ZIN A   1      18.043  -0.319   9.120  0.00  0.00    -0.044 N 
ATOM     21  H21 ZIN A   1      17.313   0.327   8.859  0.00  0.00     0.281 HD
BRANCH  20  22
ATOM     22  C22 ZIN A   1      19.338   0.190   8.648  0.00  0.00     0.348 C 
BRANCH  22  23
ATOM     23  C23 ZIN A   1      19.129   1.493   7.919  0.00  0.00     0.199 C 
ATOM     24  O24 ZIN A   1      19.059   2.537   8.545  0.00  0.00    -0.647 OA
ATOM     25  O25 ZIN A   1      19.032   1.503   6.704  0.00  0.00    -0.647 OA
ENDBRANCH  22  23
ENDBRANCH  20  22
BRANCH  20  26
ATOM     26  C26 ZIN A   1      18.076  -0.458  10.582  0.00  0.00     0.312 C 
BRANCH  26  27
ATOM     27  C28 ZIN A   1      19.472  -0.106  11.097  0.00  0.00     0.212 C 
BRANCH  27  28
ATOM     28  O29 ZIN A   1      19.701  -0.766  12.343  0.00  0.00    -0.384 OA
BRANCH  28  29
ATOM     29  C30 ZIN A   1      19.953   0.121  13.435  0.00  0.00     0.206 C 
BRANCH  29  30
ATOM     30  C31 ZIN A   1      19.040  -0.223  14.583  0.00  0.00    -0.035 A 
ATOM     31  C36 ZIN A   1      18.049   0.662  14.966  0.00  0.00     0.009 A 
ATOM     32  C35 ZIN A   1      17.209   0.344  16.018  0.00  0.00     0.001 A 
ATOM     33  C34 ZIN A   1      17.366  -0.852  16.691  0.00  0.00     0.000 A 
ATOM     34  C33 ZIN A   1      18.361  -1.734  16.312  0.00  0.00     0.001 A 
ATOM     35  C32 ZIN A   1      19.198  -1.418  15.258  0.00  0.00     0.009 A 
ENDBRANCH  29  30
ENDBRANCH  28  29
ENDBRANCH  27  28
ENDBRANCH  26  27
BRANCH  26  36
ATOM     36  C37 ZIN A   1      17.063   0.474  11.197  0.00  0.00     0.207 C 
ATOM     37  O38 ZIN A   1      16.066   0.023  11.733  0.00  0.00    -0.646 OA
ATOM     38  O39 ZIN A   1      17.243   1.680  11.158  0.00  0.00    -0.646 OA
ENDBRANCH  26  36
ENDBRANCH  20  26
ENDBRANCH   1  20
TORSDOF 20
ENDMDL
MODEL 6
REMARK VINA RESULT:      -6.6      3.425      9.055
REMARK  20 active torsions:
REMARK  status: ('A' for Active; 'I' for Inactive)
REMARK    1  A    between atoms: C2_2  and  C4_4 
REMARK    2  A    between atoms: C4_4  and  N5_5 
REMARK    3  A    between atoms: N5_5  and  C6_6 
REMARK    4  A    between atoms: N5_5  and  C18_18 
REMARK    5  A    between atoms: C6_6  and  C7_7 
REMARK    6  A    between atoms: C7_7  and  N8_8 
REMARK    7  A    between atoms: N8_8  and  C10_10 
REMARK    8  A    between atoms: N8_8  and  C14_14 
REMARK    9  A    between atoms: C10_10  and  C11_11 
REMARK   10  A    between atoms: C14_14  and  C15_15 
REMARK   11  A    between atoms: C18_18  and  C19_19 
REMARK   12  A    between atoms: C19_19  and  N20_20 
REMARK   13  A    between atoms: N20_20  and  C22_22 
REMARK   14  A    between atoms: N20_20  and  C26_26 
REMARK   15  A    between atoms: C22_22  and  C23_23 
REMARK   16  A    between atoms: C26_26  and  C28_27 
REMARK   17  A    between atoms: C26_26  and  C37_36 
REMARK   18  A    between atoms: C28_27  and  O29_28 
REMARK   19  A    between atoms: O29_28  and  C30_29 
REMARK   20  A    between atoms: C30_29  and  C31_30 
ROOT
ATOM      1  C19 ZIN A   1      19.080   1.178  14.016  0.00  0.00     0.267 C 
ENDROOT
BRANCH   1   2
ATOM      2  C18 ZIN A   1      18.029   2.290  14.049  0.00  0.00     0.300 C 
BRANCH   2   3
ATOM      3  N5  ZIN A   1      18.523   3.453  13.301  0.00  0.00     0.101 N 
BRANCH   3   4
ATOM      4  C4  ZIN A   1      17.617   3.791  12.195  0.00  0.00     0.385 C 
BRANCH   4   5
ATOM      5  C2  ZIN A   1      18.381   3.777  10.897  0.00  0.00     0.202 C 
ATOM      6  O1  ZIN A   1      17.932   4.350   9.918  0.00  0.00    -0.647 OA
ATOM      7  O3  ZIN A   1      19.452   3.198  10.825  0.00  0.00    -0.647 OA
ENDBRANCH   4   5
ENDBRANCH   3   4
BRANCH   3   8
ATOM      8  C6  ZIN A   1      18.721   4.606  14.190  0.00  0.00     0.300 C 
BRANCH   8   9
ATOM      9  C7  ZIN A   1      17.751   4.514  15.368  0.00  0.00     0.266 C 
BRANCH   9  10
ATOM     10  N8  ZIN A   1      18.469   4.800  16.618  0.00  0.00    -0.050 N 
ATOM     11  H9  ZIN A   1      17.832   4.727  17.397  0.00  0.00     0.281 HD
BRANCH  10  12
ATOM     12  C10 ZIN A   1      19.562   3.833  16.787  0.00  0.00     0.348 C 
BRANCH  12  13
ATOM     13  C11 ZIN A   1      19.120   2.736  17.722  0.00  0.00     0.199 C 
ATOM     14  O12 ZIN A   1      19.638   2.626  18.820  0.00  0.00    -0.647 OA
ATOM     15  O13 ZIN A   1      18.245   1.958  17.380  0.00  0.00    -0.647 OA
ENDBRANCH  12  13
ENDBRANCH  10  12
BRANCH  10  16
ATOM     16  C14 ZIN A   1      19.022   6.160  16.564  0.00  0.00     0.348 C 
BRANCH  16  17
ATOM     17  C15 ZIN A   1      17.984   7.143  17.041  0.00  0.00     0.199 C 
ATOM     18  O16 ZIN A   1      17.037   6.757  17.704  0.00  0.00    -0.647 OA
ATOM     19  O17 ZIN A   1      18.091   8.326  16.763  0.00  0.00    -0.647 OA
ENDBRANCH  16  17
ENDBRANCH  10  16
ENDBRANCH   9  10
ENDBRANCH   8   9
ENDBRANCH   3   8
ENDBRANCH   2   3
ENDBRANCH   1   2
BRANCH   1  20
ATOM     20  N20 ZIN A   1      18.420  -0.113  13.780  0.00  0.00    -0.044 N 
ATOM     21  H21 ZIN A   1      17.468  -0.070  14.112  0.00  0.00     0.281 HD
BRANCH  20  22
ATOM     22  C22 ZIN A   1      19.141  -1.171  14.499  0.00  0.00     0.348 C 
BRANCH  22  23
ATOM     23  C23 ZIN A   1      18.619  -1.265  15.909  0.00  0.00     0.199 C 
ATOM     24  O24 ZIN A   1      19.382  -1.527  16.825  0.00  0.00    -0.647 OA
ATOM     25  O25 ZIN A   1      17.436  -1.079  16.136  0.00  0.00    -0.647 OA
ENDBRANCH  22  23
ENDBRANCH  20  22
BRANCH  20  26
ATOM     26  C26 ZIN A   1      18.423  -0.408  12.341  0.00  0.00     0.312 C 
BRANCH  26  27
ATOM     27  C28 ZIN A   1      19.447  -1.506  12.048  0.00  0.00     0.212 C 
BRANCH  27  28
ATOM     28  O29 ZIN A   1      20.119  -1.216  10.821  0.00  0.00    -0.384 OA
BRANCH  28  29
ATOM     29  C30 ZIN A   1      19.549  -1.861   9.679  0.00  0.00     0.206 C 
BRANCH  29  30
ATOM     30  C31 ZIN A   1      19.137  -0.821   8.668  0.00  0.00    -0.035 A 
ATOM     31  C36 ZIN A   1      18.242  -1.149   7.666  0.00  0.00     0.009 A 
ATOM     32  C35 ZIN A   1      17.862  -0.194   6.741  0.00  0.00     0.001 A 
ATOM     33  C34 ZIN A   1      18.383   1.084   6.812  0.00  0.00     0.000 A 
ATOM     34  C33 ZIN A   1      19.282   1.409   7.811  0.00  0.00     0.001 A 
ATOM     35  C32 ZIN A   1      19.660   0.456   8.738  0.00  0.00     0.009 A 
ENDBRANCH  29  30
ENDBRANCH  28  29
ENDBRANCH  27  28
ENDBRANCH  26  27
BRANCH  26  36
ATOM     36  C37 ZIN A   1      17.052  -0.875  11.921  0.00  0.00     0.207 C 
ATOM     37  O38 ZIN A   1      16.164  -0.062  11.730  0.00  0.00    -0.646 OA
ATOM     38  O39 ZIN A   1      16.833  -2.065  11.774  0.00  0.00    -0.646 OA
ENDBRANCH  26  36
ENDBRANCH  20  26
ENDBRANCH   1  20
TORSDOF 20
ENDMDL
MODEL 7
REMARK VINA RESULT:      -6.6      1.334      5.852
REMARK  20 active torsions:
REMARK  status: ('A' for Active; 'I' for Inactive)
REMARK    1  A    between atoms: C2_2  and  C4_4 
REMARK    2  A    between atoms: C4_4  and  N5_5 
REMARK    3  A    between atoms: N5_5  and  C6_6 
REMARK    4  A    between atoms: N5_5  and  C18_18 
REMARK    5  A    between atoms: C6_6  and  C7_7 
REMARK    6  A    between atoms: C7_7  and  N8_8 
REMARK    7  A    between atoms: N8_8  and  C10_10 
REMARK    8  A    between atoms: N8_8  and  C14_14 
REMARK    9  A    between atoms: C10_10  and  C11_11 
REMARK   10  A    between atoms: C14_14  and  C15_15 
REMARK   11  A    between atoms: C18_18  and  C19_19 
REMARK   12  A    between atoms: C19_19  and  N20_20 
REMARK   13  A    between atoms: N20_20  and  C22_22 
REMARK   14  A    between atoms: N20_20  and  C26_26 
REMARK   15  A    between atoms: C22_22  and  C23_23 
REMARK   16  A    between atoms: C26_26  and  C28_27 
REMARK   17  A    between atoms: C26_26  and  C37_36 
REMARK   18  A    between atoms: C28_27  and  O29_28 
REMARK   19  A    between atoms: O29_28  and  C30_29 
REMARK   20  A    between atoms: C30_29  and  C31_30 
ROOT
ATOM      1  C19 ZIN A   1      17.854  -2.438   8.818  0.00  0.00     0.267 C 
ENDROOT
BRANCH   1   2
ATOM      2  C18 ZIN A   1      19.097  -2.194   7.960  0.00  0.00     0.300 C 
BRANCH   2   3
ATOM      3  N5  ZIN A   1      19.219  -0.759   7.672  0.00  0.00     0.101 N 
BRANCH   3   4
ATOM      4  C4  ZIN A   1      17.998  -0.244   7.037  0.00  0.00     0.385 C 
BRANCH   4   5
ATOM      5  C2  ZIN A   1      18.110  -0.389   5.542  0.00  0.00     0.202 C 
ATOM      6  O1  ZIN A   1      18.970   0.225   4.931  0.00  0.00    -0.647 OA
ATOM      7  O3  ZIN A   1      17.346  -1.125   4.941  0.00  0.00    -0.647 OA
ENDBRANCH   4   5
ENDBRANCH   3   4
BRANCH   3   8
ATOM      8  C6  ZIN A   1      19.537  -0.003   8.891  0.00  0.00     0.300 C 
BRANCH   8   9
ATOM      9  C7  ZIN A   1      19.113   1.456   8.711  0.00  0.00     0.266 C 
BRANCH   9  10
ATOM     10  N8  ZIN A   1      18.416   1.915   9.921  0.00  0.00    -0.050 N 
ATOM     11  H9  ZIN A   1      17.452   2.117   9.698  0.00  0.00     0.281 HD
BRANCH  10  12
ATOM     12  C10 ZIN A   1      18.471   0.865  10.946  0.00  0.00     0.348 C 
BRANCH  12  13
ATOM     13  C11 ZIN A   1      17.084   0.611  11.479  0.00  0.00     0.199 C 
ATOM     14  O12 ZIN A   1      16.272   0.005  10.801  0.00  0.00    -0.647 OA
ATOM     15  O13 ZIN A   1      16.773   1.012  12.588  0.00  0.00    -0.647 OA
ENDBRANCH  12  13
ENDBRANCH  10  12
BRANCH  10  16
ATOM     16  C14 ZIN A   1      19.066   3.131  10.428  0.00  0.00     0.348 C 
BRANCH  16  17
ATOM     17  C15 ZIN A   1      18.038   4.007  11.097  0.00  0.00     0.199 C 
ATOM     18  O16 ZIN A   1      18.375   4.774  11.984  0.00  0.00    -0.647 OA
ATOM     19  O17 ZIN A   1      16.870   3.951  10.751  0.00  0.00    -0.647 OA
ENDBRANCH  16  17
ENDBRANCH  10  16
ENDBRANCH   9  10
ENDBRANCH   8   9
ENDBRANCH   3   8
ENDBRANCH   2   3
ENDBRANCH   1   2
BRANCH   1  20
ATOM     20  N20 ZIN A   1      18.073  -3.611   9.675  0.00  0.00    -0.044 N 
ATOM     21  H21 ZIN A   1      18.504  -4.347   9.135  0.00  0.00     0.281 HD
BRANCH  20  22
ATOM     22  C22 ZIN A   1      16.785  -4.081  10.202  0.00  0.00     0.348 C 
BRANCH  22  23
ATOM     23  C23 ZIN A   1      16.437  -5.404   9.569  0.00  0.00     0.199 C 
ATOM     24  O24 ZIN A   1      15.473  -5.490   8.827  0.00  0.00    -0.647 OA
ATOM     25  O25 ZIN A   1      17.119  -6.388   9.799  0.00  0.00    -0.647 OA
ENDBRANCH  22  23
ENDBRANCH  20  22
BRANCH  20  26
ATOM     26  C26 ZIN A   1      18.954  -3.244  10.791  0.00  0.00     0.312 C 
BRANCH  26  27
ATOM     27  C28 ZIN A   1      18.162  -3.280  12.100  0.00  0.00     0.212 C 
BRANCH  27  28
ATOM     28  O29 ZIN A   1      18.193  -1.990  12.712  0.00  0.00    -0.384 OA
BRANCH  28  29
ATOM     29  C30 ZIN A   1      19.291  -1.796  13.605  0.00  0.00     0.206 C 
BRANCH  29  30
ATOM     30  C31 ZIN A   1      18.842  -0.969  14.783  0.00  0.00    -0.035 A 
ATOM     31  C36 ZIN A   1      18.070  -1.544  15.776  0.00  0.00     0.009 A 
ATOM     32  C35 ZIN A   1      17.660  -0.786  16.857  0.00  0.00     0.001 A 
ATOM     33  C34 ZIN A   1      18.016   0.546  16.943  0.00  0.00     0.000 A 
ATOM     34  C33 ZIN A   1      18.783   1.122  15.947  0.00  0.00     0.001 A 
ATOM     35  C32 ZIN A   1      19.195   0.364  14.867  0.00  0.00     0.009 A 
ENDBRANCH  29  30
ENDBRANCH  28  29
ENDBRANCH  27  28
ENDBRANCH  26  27
BRANCH  26  36
ATOM     36  C37 ZIN A   1      20.099  -4.221  10.870  0.00  0.00     0.207 C 
ATOM     37  O38 ZIN A   1      20.205  -5.103  10.036  0.00  0.00    -0.646 OA
ATOM     38  O39 ZIN A   1      20.919  -4.128  11.768  0.00  0.00    -0.646 OA
ENDBRANCH  26  36
ENDBRANCH  20  26
ENDBRANCH   1  20
TORSDOF 20
ENDMDL
MODEL 8
REMARK VINA RESULT:      -6.5      1.580      2.723
REMARK  20 active torsions:
REMARK  status: ('A' for Active; 'I' for Inactive)
REMARK    1  A    between atoms: C2_2  and  C4_4 
REMARK    2  A    between atoms: C4_4  and  N5_5 
REMARK    3  A    between atoms: N5_5  and  C6_6 
REMARK    4  A    between atoms: N5_5  and  C18_18 
REMARK    5  A    between atoms: C6_6  and  C7_7 
REMARK    6  A    between atoms: C7_7  and  N8_8 
REMARK    7  A    between atoms: N8_8  and  C10_10 
REMARK    8  A    between atoms: N8_8  and  C14_14 
REMARK    9  A    between atoms: C10_10  and  C11_11 
REMARK   10  A    between atoms: C14_14  and  C15_15 
REMARK   11  A    between atoms: C18_18  and  C19_19 
REMARK   12  A    between atoms: C19_19  and  N20_20 
REMARK   13  A    between atoms: N20_20  and  C22_22 
REMARK   14  A    between atoms: N20_20  and  C26_26 
REMARK   15  A    between atoms: C22_22  and  C23_23 
REMARK   16  A    between atoms: C26_26  and  C28_27 
REMARK   17  A    between atoms: C26_26  and  C37_36 
REMARK   18  A    between atoms: C28_27  and  O29_28 
REMARK   19  A    between atoms: O29_28  and  C30_29 
REMARK   20  A    between atoms: C30_29  and  C31_30 
ROOT
ATOM      1  C19 ZIN A   1      19.100  -0.896   9.316  0.00  0.00     0.267 C 
ENDROOT
BRANCH   1   2
ATOM      2  C18 ZIN A   1      17.849  -0.895   8.435  0.00  0.00     0.300 C 
BRANCH   2   3
ATOM      3  N5  ZIN A   1      18.159  -1.525   7.144  0.00  0.00     0.101 N 
BRANCH   3   4
ATOM      4  C4  ZIN A   1      18.871  -0.591   6.261  0.00  0.00     0.385 C 
BRANCH   4   5
ATOM      5  C2  ZIN A   1      18.796  -1.087   4.840  0.00  0.00     0.202 C 
ATOM      6  O1  ZIN A   1      19.813  -1.425   4.257  0.00  0.00    -0.647 OA
ATOM      7  O3  ZIN A   1      17.718  -1.158   4.275  0.00  0.00    -0.647 OA
ENDBRANCH   4   5
ENDBRANCH   3   4
BRANCH   3   8
ATOM      8  C6  ZIN A   1      18.929  -2.761   7.333  0.00  0.00     0.300 C 
BRANCH   8   9
ATOM      9  C7  ZIN A   1      17.980  -3.961   7.313  0.00  0.00     0.266 C 
BRANCH   9  10
ATOM     10  N8  ZIN A   1      18.760  -5.201   7.205  0.00  0.00    -0.050 N 
ATOM     11  H9  ZIN A   1      18.626  -5.757   8.037  0.00  0.00     0.281 HD
BRANCH  10  12
ATOM     12  C10 ZIN A   1      18.312  -5.961   6.031  0.00  0.00     0.348 C 
BRANCH  12  13
ATOM     13  C11 ZIN A   1      17.785  -7.303   6.473  0.00  0.00     0.199 C 
ATOM     14  O12 ZIN A   1      17.642  -8.199   5.660  0.00  0.00    -0.647 OA
ATOM     15  O13 ZIN A   1      17.501  -7.490   7.644  0.00  0.00    -0.647 OA
ENDBRANCH  12  13
ENDBRANCH  10  12
BRANCH  10  16
ATOM     16  C14 ZIN A   1      20.185  -4.872   7.061  0.00  0.00     0.348 C 
BRANCH  16  17
ATOM     17  C15 ZIN A   1      21.000  -5.769   7.957  0.00  0.00     0.199 C 
ATOM     18  O16 ZIN A   1      22.172  -5.985   7.700  0.00  0.00    -0.647 OA
ATOM     19  O17 ZIN A   1      20.487  -6.280   8.939  0.00  0.00    -0.647 OA
ENDBRANCH  16  17
ENDBRANCH  10  16
ENDBRANCH   9  10
ENDBRANCH   8   9
ENDBRANCH   3   8
ENDBRANCH   2   3
ENDBRANCH   1   2
BRANCH   1  20
ATOM     20  N20 ZIN A   1      18.727  -0.557  10.696  0.00  0.00    -0.044 N 
ATOM     21  H21 ZIN A   1      17.722  -0.511  10.771  0.00  0.00     0.281 HD
BRANCH  20  22
ATOM     22  C22 ZIN A   1      19.304   0.746  11.054  0.00  0.00     0.348 C 
BRANCH  22  23
ATOM     23  C23 ZIN A   1      18.301   1.834  10.771  0.00  0.00     0.199 C 
ATOM     24  O24 ZIN A   1      18.636   2.823  10.141  0.00  0.00    -0.647 OA
ATOM     25  O25 ZIN A   1      17.154   1.725  11.170  0.00  0.00    -0.647 OA
ENDBRANCH  22  23
ENDBRANCH  20  22
BRANCH  20  26
ATOM     26  C26 ZIN A   1      19.240  -1.587  11.609  0.00  0.00     0.312 C 
BRANCH  26  27
ATOM     27  C28 ZIN A   1      19.466  -0.976  12.993  0.00  0.00     0.212 C 
BRANCH  27  28
ATOM     28  O29 ZIN A   1      18.324  -1.222  13.815  0.00  0.00    -0.384 OA
BRANCH  28  29
ATOM     29  C30 ZIN A   1      17.745  -0.041  14.375  0.00  0.00     0.206 C 
BRANCH  29  30
ATOM     30  C31 ZIN A   1      18.334   0.210  15.740  0.00  0.00    -0.035 A 
ATOM     31  C36 ZIN A   1      18.591  -0.852  16.587  0.00  0.00     0.009 A 
ATOM     32  C35 ZIN A   1      19.135  -0.622  17.838  0.00  0.00     0.001 A 
ATOM     33  C34 ZIN A   1      19.414   0.669  18.243  0.00  0.00     0.000 A 
ATOM     34  C33 ZIN A   1      19.153   1.732  17.397  0.00  0.00     0.001 A 
ATOM     35  C32 ZIN A   1      18.612   1.501  16.146  0.00  0.00     0.009 A 
ENDBRANCH  29  30
ENDBRANCH  28  29
ENDBRANCH  27  28
ENDBRANCH  26  27
BRANCH  26  36
ATOM     36  C37 ZIN A   1      18.239  -2.709  11.714  0.00  0.00     0.207 C 
ATOM     37  O38 ZIN A   1      18.619  -3.847  11.930  0.00  0.00    -0.646 OA
ATOM     38  O39 ZIN A   1      17.049  -2.479  11.581  0.00  0.00    -0.646 OA
ENDBRANCH  26  36
ENDBRANCH  20  26
ENDBRANCH   1  20
TORSDOF 20
ENDMDL
MODEL 9
REMARK VINA RESULT:      -6.5      1.982      3.420
REMARK  20 active torsions:
REMARK  status: ('A' for Active; 'I' for Inactive)
REMARK    1  A    between atoms: C2_2  and  C4_4 
REMARK    2  A    between atoms: C4_4  and  N5_5 
REMARK    3  A    between atoms: N5_5  and  C6_6 
REMARK    4  A    between atoms: N5_5  and  C18_18 
REMARK    5  A    between atoms: C6_6  and  C7_7 
REMARK    6  A    between atoms: C7_7  and  N8_8 
REMARK    7  A    between atoms: N8_8  and  C10_10 
REMARK    8  A    between atoms: N8_8  and  C14_14 
REMARK    9  A    between atoms: C10_10  and  C11_11 
REMARK   10  A    between atoms: C14_14  and  C15_15 
REMARK   11  A    between atoms: C18_18  and  C19_19 
REMARK   12  A    between atoms: C19_19  and  N20_20 
REMARK   13  A    between atoms: N20_20  and  C22_22 
REMARK   14  A    between atoms: N20_20  and  C26_26 
REMARK   15  A    between atoms: C22_22  and  C23_23 
REMARK   16  A    between atoms: C26_26  and  C28_27 
REMARK   17  A    between atoms: C26_26  and  C37_36 
REMARK   18  A    between atoms: C28_27  and  O29_28 
REMARK   19  A    between atoms: O29_28  and  C30_29 
REMARK   20  A    between atoms: C30_29  and  C31_30 
ROOT
ATOM      1  C19 ZIN A   1      19.205  -2.315   8.610  0.00  0.00     0.267 C 
ENDROOT
BRANCH   1   2
ATOM      2  C18 ZIN A   1      18.191  -3.396   8.228  0.00  0.00     0.300 C 
BRANCH   2   3
ATOM      3  N5  ZIN A   1      18.292  -3.675   6.790  0.00  0.00     0.101 N 
BRANCH   3   4
ATOM      4  C4  ZIN A   1      19.430  -2.963   6.194  0.00  0.00     0.385 C 
BRANCH   4   5
ATOM      5  C2  ZIN A   1      18.958  -2.164   5.007  0.00  0.00     0.202 C 
ATOM      6  O1  ZIN A   1      19.760  -1.535   4.336  0.00  0.00    -0.647 OA
ATOM      7  O3  ZIN A   1      17.775  -2.150   4.712  0.00  0.00    -0.647 OA
ENDBRANCH   4   5
ENDBRANCH   3   4
BRANCH   3   8
ATOM      8  C6  ZIN A   1      18.386  -5.119   6.539  0.00  0.00     0.300 C 
BRANCH   8   9
ATOM      9  C7  ZIN A   1      17.093  -5.608   5.883  0.00  0.00     0.266 C 
BRANCH   9  10
ATOM     10  N8  ZIN A   1      16.472  -6.636   6.730  0.00  0.00    -0.050 N 
ATOM     11  H9  ZIN A   1      15.914  -7.251   6.158  0.00  0.00     0.281 HD
BRANCH  10  12
ATOM     12  C10 ZIN A   1      17.521  -7.413   7.404  0.00  0.00     0.348 C 
BRANCH  12  13
ATOM     13  C11 ZIN A   1      17.250  -8.885   7.222  0.00  0.00     0.199 C 
ATOM     14  O12 ZIN A   1      16.299  -9.403   7.781  0.00  0.00    -0.647 OA
ATOM     15  O13 ZIN A   1      17.984  -9.557   6.517  0.00  0.00    -0.647 OA
ENDBRANCH  12  13
ENDBRANCH  10  12
BRANCH  10  16
ATOM     16  C14 ZIN A   1      15.617  -5.991   7.735  0.00  0.00     0.348 C 
BRANCH  16  17
ATOM     17  C15 ZIN A   1      14.183  -6.396   7.509  0.00  0.00     0.199 C 
ATOM     18  O16 ZIN A   1      13.885  -7.061   6.531  0.00  0.00    -0.647 OA
ATOM     19  O17 ZIN A   1      13.322  -6.059   8.303  0.00  0.00    -0.647 OA
ENDBRANCH  16  17
ENDBRANCH  10  16
ENDBRANCH   9  10
ENDBRANCH   8   9
ENDBRANCH   3   8
ENDBRANCH   2   3
ENDBRANCH   1   2
BRANCH   1  20
ATOM     20  N20 ZIN A   1      18.505  -1.188   9.240  0.00  0.00    -0.044 N 
ATOM     21  H21 ZIN A   1      17.517  -1.253   9.044  0.00  0.00     0.281 HD
BRANCH  20  22
ATOM     22  C22 ZIN A   1      19.027   0.075   8.703  0.00  0.00     0.348 C 
BRANCH  22  23
ATOM     23  C23 ZIN A   1      18.301   0.418   7.428  0.00  0.00     0.199 C 
ATOM     24  O24 ZIN A   1      18.861   1.071   6.564  0.00  0.00    -0.647 OA
ATOM     25  O25 ZIN A   1      17.153   0.041   7.260  0.00  0.00    -0.647 OA
ENDBRANCH  22  23
ENDBRANCH  20  22
BRANCH  20  26
ATOM     26  C26 ZIN A   1      18.719  -1.229  10.693  0.00  0.00     0.312 C 
BRANCH  26  27
ATOM     27  C28 ZIN A   1      19.216   0.136  11.174  0.00  0.00     0.212 C 
BRANCH  27  28
ATOM     28  O29 ZIN A   1      19.754   0.011  12.491  0.00  0.00    -0.384 OA
BRANCH  28  29
ATOM     29  C30 ZIN A   1      19.332   1.037  13.392  0.00  0.00     0.206 C 
BRANCH  29  30
ATOM     30  C31 ZIN A   1      18.996   0.427  14.728  0.00  0.00    -0.035 A 
ATOM     31  C36 ZIN A   1      19.080   1.191  15.878  0.00  0.00     0.009 A 
ATOM     32  C35 ZIN A   1      18.768   0.631  17.103  0.00  0.00     0.001 A 
ATOM     33  C34 ZIN A   1      18.380  -0.693  17.180  0.00  0.00     0.000 A 
ATOM     34  C33 ZIN A   1      18.302  -1.459  16.031  0.00  0.00     0.001 A 
ATOM     35  C32 ZIN A   1      18.610  -0.898  14.806  0.00  0.00     0.009 A 
ENDBRANCH  29  30
ENDBRANCH  28  29
ENDBRANCH  27  28
ENDBRANCH  26  27
BRANCH  26  36
ATOM     36  C37 ZIN A   1      17.421  -1.562  11.383  0.00  0.00     0.207 C 
ATOM     37  O38 ZIN A   1      16.636  -0.674  11.665  0.00  0.00    -0.646 OA
ATOM     38  O39 ZIN A   1      17.158  -2.720  11.659  0.00  0.00    -0.646 OA
ENDBRANCH  26  36
ENDBRANCH  20  26
ENDBRANCH   1  20
TORSDOF 20
ENDMDL
