MODEL 1
REMARK VINA RESULT:      -3.3      0.000      0.000
REMARK  2 active torsions:
REMARK  status: ('A' for Active; 'I' for Inactive)
REMARK    1  A    between atoms: C2_2  and  O4_3 
REMARK    2  A    between atoms: C2_2  and  C5_4 
ROOT
ATOM      1  C1  ZIN A   1      17.348  -0.311   5.889  0.00  0.00     0.050 C 
ATOM      2  C2  ZIN A   1      17.692  -1.147   4.655  0.00  0.00     0.214 C 
ENDROOT
BRANCH   2   3
ATOM      3  O4  ZIN A   1      16.854  -2.304   4.614  0.00  0.00    -0.385 OA
ATOM      4  H11 ZIN A   1      16.084  -2.211   4.038  0.00  0.00     0.210 HD
ENDBRANCH   2   3
BRANCH   2   5
ATOM      5  C5  ZIN A   1      19.136  -1.574   4.723  0.00  0.00     0.202 C 
ATOM      6  O6  ZIN A   1      20.023  -0.749   4.585  0.00  0.00    -0.646 OA
ATOM      7  O7  ZIN A   1      19.417  -2.745   4.917  0.00  0.00    -0.646 OA
ENDBRANCH   2   5
TORSDOF 2
ENDMDL
MODEL 2
REMARK VINA RESULT:      -3.3     12.568     13.021
REMARK  2 active torsions:
REMARK  status: ('A' for Active; 'I' for Inactive)
REMARK    1  A    between atoms: C2_2  and  O4_3 
REMARK    2  A    between atoms: C2_2  and  C5_4 
ROOT
ATOM      1  C1  ZIN A   1      17.237  -0.457  16.891  0.00  0.00     0.050 C 
ATOM      2  C2  ZIN A   1      17.789   0.812  17.543  0.00  0.00     0.214 C 
ENDROOT
BRANCH   2   3
ATOM      3  O4  ZIN A   1      17.909   1.840  16.557  0.00  0.00    -0.385 OA
ATOM      4  H11 ZIN A   1      17.063   2.201  16.260  0.00  0.00     0.210 HD
ENDBRANCH   2   3
BRANCH   2   5
ATOM      5  C5  ZIN A   1      19.144   0.525  18.137  0.00  0.00     0.202 C 
ATOM      6  O6  ZIN A   1      19.833   1.440  18.555  0.00  0.00    -0.646 OA
ATOM      7  O7  ZIN A   1      19.551  -0.623  18.199  0.00  0.00    -0.646 OA
ENDBRANCH   2   5
TORSDOF 2
ENDMDL
MODEL 3
REMARK VINA RESULT:      -3.2      1.597      1.918
REMARK  2 active torsions:
REMARK  status: ('A' for Active; 'I' for Inactive)
REMARK    1  A    between atoms: C2_2  and  O4_3 
REMARK    2  A    between atoms: C2_2  and  C5_4 
ROOT
ATOM      1  C1  ZIN A   1      18.761   1.050   6.760  0.00  0.00     0.050 C 
ATOM      2  C2  ZIN A   1      18.245   0.061   5.713  0.00  0.00     0.214 C 
ENDROOT
BRANCH   2   3
ATOM      3  O4  ZIN A   1      17.005  -0.497   6.155  0.00  0.00    -0.385 OA
ATOM      4  H11 ZIN A   1      16.925  -0.564   7.116  0.00  0.00     0.210 HD
ENDBRANCH   2   3
BRANCH   2   5
ATOM      5  C5  ZIN A   1      19.254  -1.042   5.522  0.00  0.00     0.202 C 
ATOM      6  O6  ZIN A   1      19.428  -1.868   6.403  0.00  0.00    -0.646 OA
ATOM      7  O7  ZIN A   1      19.896  -1.110   4.488  0.00  0.00    -0.646 OA
ENDBRANCH   2   5
TORSDOF 2
ENDMDL
MODEL 4
REMARK VINA RESULT:      -3.2     13.060     13.594
REMARK  2 active torsions:
REMARK  status: ('A' for Active; 'I' for Inactive)
REMARK    1  A    between atoms: C2_2  and  O4_3 
REMARK    2  A    between atoms: C2_2  and  C5_4 
ROOT
ATOM      1  C1  ZIN A   1      17.608  -0.468  17.095  0.00  0.00     0.050 C 
ATOM      2  C2  ZIN A   1      18.965   0.123  17.482  0.00  0.00     0.214 C 
ENDROOT
BRANCH   2   3
ATOM      3  O4  ZIN A   1      19.741  -0.868  18.159  0.00  0.00    -0.385 OA
ATOM      4  H11 ZIN A   1      20.482  -1.210  17.639  0.00  0.00     0.210 HD
ENDBRANCH   2   3
BRANCH   2   5
ATOM      5  C5  ZIN A   1      18.756   1.306  18.392  0.00  0.00     0.202 C 
ATOM      6  O6  ZIN A   1      17.639   1.569  18.804  0.00  0.00    -0.646 OA
ATOM      7  O7  ZIN A   1      19.705   1.999  18.718  0.00  0.00    -0.646 OA
ENDBRANCH   2   5
TORSDOF 2
ENDMDL
MODEL 5
REMARK VINA RESULT:      -3.2      1.517      1.903
REMARK  2 active torsions:
REMARK  status: ('A' for Active; 'I' for Inactive)
REMARK    1  A    between atoms: C2_2  and  O4_3 
REMARK    2  A    between atoms: C2_2  and  C5_4 
ROOT
ATOM      1  C1  ZIN A   1      17.318  -1.797   4.279  0.00  0.00     0.050 C 
ATOM      2  C2  ZIN A   1      17.879  -1.195   5.569  0.00  0.00     0.214 C 
ENDROOT
BRANCH   2   3
ATOM      3  O4  ZIN A   1      16.893  -0.354   6.171  0.00  0.00    -0.385 OA
ATOM      4  H11 ZIN A   1      16.221  -0.033   5.555  0.00  0.00     0.210 HD
ENDBRANCH   2   3
BRANCH   2   5
ATOM      5  C5  ZIN A   1      19.107  -0.382   5.251  0.00  0.00     0.202 C 
ATOM      6  O6  ZIN A   1      19.212   0.756   5.676  0.00  0.00    -0.646 OA
ATOM      7  O7  ZIN A   1      19.997  -0.862   4.569  0.00  0.00    -0.646 OA
ENDBRANCH   2   5
TORSDOF 2
ENDMDL
MODEL 6
REMARK VINA RESULT:      -3.1      6.486      7.415
REMARK  2 active torsions:
REMARK  status: ('A' for Active; 'I' for Inactive)
REMARK    1  A    between atoms: C2_2  and  O4_3 
REMARK    2  A    between atoms: C2_2  and  C5_4 
ROOT
ATOM      1  C1  ZIN A   1      18.913   1.843   8.790  0.00  0.00     0.050 C 
ATOM      2  C2  ZIN A   1      18.886   2.870   9.925  0.00  0.00     0.214 C 
ENDROOT
BRANCH   2   3
ATOM      3  O4  ZIN A   1      19.994   2.644  10.799  0.00  0.00    -0.385 OA
ATOM      4  H11 ZIN A   1      20.609   3.388  10.853  0.00  0.00     0.210 HD
ENDBRANCH   2   3
BRANCH   2   5
ATOM      5  C5  ZIN A   1      17.600   2.730  10.698  0.00  0.00     0.202 C 
ATOM      6  O6  ZIN A   1      17.219   1.627  11.053  0.00  0.00    -0.646 OA
ATOM      7  O7  ZIN A   1      16.940   3.719  10.968  0.00  0.00    -0.646 OA
ENDBRANCH   2   5
TORSDOF 2
ENDMDL
MODEL 7
REMARK VINA RESULT:      -3.0      6.028      6.665
REMARK  2 active torsions:
REMARK  status: ('A' for Active; 'I' for Inactive)
REMARK    1  A    between atoms: C2_2  and  O4_3 
REMARK    2  A    between atoms: C2_2  and  C5_4 
ROOT
ATOM      1  C1  ZIN A   1      19.934  -0.226   9.391  0.00  0.00     0.050 C 
ATOM      2  C2  ZIN A   1      20.298  -0.556  10.840  0.00  0.00     0.214 C 
ENDROOT
BRANCH   2   3
ATOM      3  O4  ZIN A   1      21.720  -0.615  10.973  0.00  0.00    -0.385 OA
ATOM      4  H11 ZIN A   1      22.121  -1.392  10.560  0.00  0.00     0.210 HD
ENDBRANCH   2   3
BRANCH   2   5
ATOM      5  C5  ZIN A   1      19.703  -1.889  11.216  0.00  0.00     0.202 C 
ATOM      6  O6  ZIN A   1      19.561  -2.184  12.391  0.00  0.00    -0.646 OA
ATOM      7  O7  ZIN A   1      19.362  -2.672  10.345  0.00  0.00    -0.646 OA
ENDBRANCH   2   5
TORSDOF 2
ENDMDL
MODEL 8
REMARK VINA RESULT:      -3.0      1.888      2.556
REMARK  2 active torsions:
REMARK  status: ('A' for Active; 'I' for Inactive)
REMARK    1  A    between atoms: C2_2  and  O4_3 
REMARK    2  A    between atoms: C2_2  and  C5_4 
ROOT
ATOM      1  C1  ZIN A   1      19.252  -1.656   7.855  0.00  0.00     0.050 C 
ATOM      2  C2  ZIN A   1      19.102  -2.169   6.421  0.00  0.00     0.214 C 
ENDROOT
BRANCH   2   3
ATOM      3  O4  ZIN A   1      20.054  -3.209   6.185  0.00  0.00    -0.385 OA
ATOM      4  H11 ZIN A   1      20.723  -2.987   5.524  0.00  0.00     0.210 HD
ENDBRANCH   2   3
BRANCH   2   5
ATOM      5  C5  ZIN A   1      19.343  -1.039   5.454  0.00  0.00     0.202 C 
ATOM      6  O6  ZIN A   1      19.804  -1.269   4.349  0.00  0.00    -0.646 OA
ATOM      7  O7  ZIN A   1      19.076   0.107   5.777  0.00  0.00    -0.646 OA
ENDBRANCH   2   5
TORSDOF 2
ENDMDL
MODEL 9
REMARK VINA RESULT:      -3.0      7.777      8.450
REMARK  2 active torsions:
REMARK  status: ('A' for Active; 'I' for Inactive)
REMARK    1  A    between atoms: C2_2  and  O4_3 
REMARK    2  A    between atoms: C2_2  and  C5_4 
ROOT
ATOM      1  C1  ZIN A   1      20.331  -0.651  10.804  0.00  0.00     0.050 C 
ATOM      2  C2  ZIN A   1      20.426   0.445  11.868  0.00  0.00     0.214 C 
ENDROOT
BRANCH   2   3
ATOM      3  O4  ZIN A   1      21.799   0.667  12.202  0.00  0.00    -0.385 OA
ATOM      4  H11 ZIN A   1      22.256  -0.120  12.527  0.00  0.00     0.210 HD
ENDBRANCH   2   3
BRANCH   2   5
ATOM      5  C5  ZIN A   1      19.673   0.015  13.100  0.00  0.00     0.202 C 
ATOM      6  O6  ZIN A   1      18.816  -0.849  13.021  0.00  0.00    -0.646 OA
ATOM      7  O7  ZIN A   1      19.920   0.532  14.177  0.00  0.00    -0.646 OA
ENDBRANCH   2   5
TORSDOF 2
ENDMDL
