MODEL 1
REMARK VINA RESULT:      -6.9      0.000      0.000
REMARK  6 active torsions:
REMARK  status: ('A' for Active; 'I' for Inactive)
REMARK    1  A    between atoms: O1_1  and  C2_2 
REMARK    2  A    between atoms: C2_2  and  C3_3 
REMARK    3  A    between atoms: C2_2  and  C9_9 
REMARK    4  A    between atoms: C2_2  and  C15_15 
REMARK    5  A    between atoms: C3_3  and  N4_4 
REMARK    6  A    between atoms: C9_9  and  N10_10 
ROOT
ATOM      1  C2  ZIN A   1      18.562   1.522  10.571  0.00  0.00     0.124 C 
ENDROOT
BRANCH   1   2
ATOM      2  O1  ZIN A   1      17.289   1.531  11.219  0.00  0.00    -0.381 OA
ATOM      3  H23 ZIN A   1      17.276   2.018  12.055  0.00  0.00     0.211 HD
ENDBRANCH   1   2
BRANCH   1   4
ATOM      4  C3  ZIN A   1      19.186   2.917  10.653  0.00  0.00     0.197 C 
BRANCH   4   5
ATOM      5  N4  ZIN A   1      18.264   3.824  11.341  0.00  0.00    -0.259 N 
ATOM      6  N8  ZIN A   1      17.031   4.295  10.861  0.00  0.00    -0.165 NA
ATOM      7  C7  ZIN A   1      16.538   5.074  11.787  0.00  0.00     0.256 A 
ATOM      8  N6  ZIN A   1      17.391   5.124  12.809  0.00  0.00    -0.234 NA
ATOM      9  C5  ZIN A   1      18.435   4.377  12.554  0.00  0.00     0.230 A 
ENDBRANCH   4   5
ENDBRANCH   1   4
BRANCH   1  10
ATOM     10  C9  ZIN A   1      19.479   0.512  11.263  0.00  0.00     0.197 C 
BRANCH  10  11
ATOM     11  N10 ZIN A   1      19.036   0.318  12.646  0.00  0.00    -0.259 N 
ATOM     12  N14 ZIN A   1      17.958  -0.468  13.083  0.00  0.00    -0.165 NA
ATOM     13  C13 ZIN A   1      17.916  -0.363  14.385  0.00  0.00     0.256 A 
ATOM     14  N12 ZIN A   1      18.896   0.446  14.785  0.00  0.00    -0.234 NA
ATOM     15  C11 ZIN A   1      19.578   0.863  13.750  0.00  0.00     0.230 A 
ENDBRANCH  10  11
ENDBRANCH   1  10
BRANCH   1  16
ATOM     16  C15 ZIN A   1      18.387   1.133   9.126  0.00  0.00     0.018 A 
ATOM     17  C21 ZIN A   1      17.531   0.100   8.785  0.00  0.00     0.128 A 
ATOM     18  C20 ZIN A   1      17.366  -0.253   7.457  0.00  0.00     0.085 A 
ATOM     19  F22 ZIN A   1      16.847  -0.556   9.749  0.00  0.00    -0.205 F 
ATOM     20  C18 ZIN A   1      18.066   0.421   6.471  0.00  0.00     0.119 A 
ATOM     21  C17 ZIN A   1      18.926   1.450   6.814  0.00  0.00     0.043 A 
ATOM     22  F19 ZIN A   1      17.911   0.073   5.175  0.00  0.00    -0.206 F 
ATOM     23  C16 ZIN A   1      19.086   1.805   8.141  0.00  0.00     0.016 A 
ENDBRANCH   1  16
TORSDOF 6
ENDMDL
MODEL 2
REMARK VINA RESULT:      -6.9      3.914      5.985
REMARK  6 active torsions:
REMARK  status: ('A' for Active; 'I' for Inactive)
REMARK    1  A    between atoms: O1_1  and  C2_2 
REMARK    2  A    between atoms: C2_2  and  C3_3 
REMARK    3  A    between atoms: C2_2  and  C9_9 
REMARK    4  A    between atoms: C2_2  and  C15_15 
REMARK    5  A    between atoms: C3_3  and  N4_4 
REMARK    6  A    between atoms: C9_9  and  N10_10 
ROOT
ATOM      1  C2  ZIN A   1      18.350  -0.717   8.702  0.00  0.00     0.124 C 
ENDROOT
BRANCH   1   2
ATOM      2  O1  ZIN A   1      19.712  -1.107   8.512  0.00  0.00    -0.381 OA
ATOM      3  H23 ZIN A   1      19.836  -1.781   7.828  0.00  0.00     0.211 HD
ENDBRANCH   1   2
BRANCH   1   4
ATOM      4  C3  ZIN A   1      17.660  -0.597   7.342  0.00  0.00     0.197 C 
BRANCH   4   5
ATOM      5  N4  ZIN A   1      18.415  -1.355   6.342  0.00  0.00    -0.259 N 
ATOM      6  N8  ZIN A   1      18.546  -2.751   6.265  0.00  0.00    -0.165 NA
ATOM      7  C7  ZIN A   1      19.298  -3.004   5.227  0.00  0.00     0.256 A 
ATOM      8  N6  ZIN A   1      19.649  -1.852   4.657  0.00  0.00    -0.234 NA
ATOM      9  C5  ZIN A   1      19.126  -0.851   5.317  0.00  0.00     0.230 A 
ENDBRANCH   4   5
ENDBRANCH   1   4
BRANCH   1  10
ATOM     10  C9  ZIN A   1      17.632  -1.771   9.547  0.00  0.00     0.197 C 
BRANCH  10  11
ATOM     11  N10 ZIN A   1      18.618  -2.679  10.137  0.00  0.00    -0.259 N 
ATOM     12  N14 ZIN A   1      19.532  -2.380  11.161  0.00  0.00    -0.165 NA
ATOM     13  C13 ZIN A   1      20.219  -3.470  11.384  0.00  0.00     0.256 A 
ATOM     14  N12 ZIN A   1      19.796  -4.425  10.558  0.00  0.00    -0.234 NA
ATOM     15  C11 ZIN A   1      18.833  -3.963   9.802  0.00  0.00     0.230 A 
ENDBRANCH  10  11
ENDBRANCH   1  10
BRANCH   1  16
ATOM     16  C15 ZIN A   1      18.303   0.613   9.410  0.00  0.00     0.018 A 
ATOM     17  C21 ZIN A   1      18.943   1.711   8.861  0.00  0.00     0.128 A 
ATOM     18  C20 ZIN A   1      18.895   2.934   9.508  0.00  0.00     0.085 A 
ATOM     19  F22 ZIN A   1      19.604   1.593   7.689  0.00  0.00    -0.205 F 
ATOM     20  C18 ZIN A   1      18.217   3.054  10.709  0.00  0.00     0.119 A 
ATOM     21  C17 ZIN A   1      17.583   1.952  11.258  0.00  0.00     0.043 A 
ATOM     22  F19 ZIN A   1      18.175   4.245  11.345  0.00  0.00    -0.206 F 
ATOM     23  C16 ZIN A   1      17.627   0.734  10.608  0.00  0.00     0.016 A 
ENDBRANCH   1  16
TORSDOF 6
ENDMDL
MODEL 3
REMARK VINA RESULT:      -6.8      1.799      3.912
REMARK  6 active torsions:
REMARK  status: ('A' for Active; 'I' for Inactive)
REMARK    1  A    between atoms: O1_1  and  C2_2 
REMARK    2  A    between atoms: C2_2  and  C3_3 
REMARK    3  A    between atoms: C2_2  and  C9_9 
REMARK    4  A    between atoms: C2_2  and  C15_15 
REMARK    5  A    between atoms: C3_3  and  N4_4 
REMARK    6  A    between atoms: C9_9  and  N10_10 
ROOT
ATOM      1  C2  ZIN A   1      19.088   0.413   9.586  0.00  0.00     0.124 C 
ENDROOT
BRANCH   1   2
ATOM      2  O1  ZIN A   1      19.969   1.500   9.877  0.00  0.00    -0.381 OA
ATOM      3  H23 ZIN A   1      20.000   2.177   9.187  0.00  0.00     0.211 HD
ENDBRANCH   1   2
BRANCH   1   4
ATOM      4  C3  ZIN A   1      19.556  -0.837  10.336  0.00  0.00     0.197 C 
BRANCH   4   5
ATOM      5  N4  ZIN A   1      19.630  -0.547  11.770  0.00  0.00    -0.259 N 
ATOM      6  N8  ZIN A   1      20.474   0.383  12.399  0.00  0.00    -0.165 NA
ATOM      7  C7  ZIN A   1      20.216   0.323  13.678  0.00  0.00     0.256 A 
ATOM      8  N6  ZIN A   1      19.268  -0.591  13.886  0.00  0.00    -0.234 NA
ATOM      9  C5  ZIN A   1      18.907  -1.123  12.747  0.00  0.00     0.230 A 
ENDBRANCH   4   5
ENDBRANCH   1   4
BRANCH   1  10
ATOM     10  C9  ZIN A   1      17.670   0.773  10.032  0.00  0.00     0.197 C 
BRANCH  10  11
ATOM     11  N10 ZIN A   1      17.687   2.071  10.712  0.00  0.00    -0.259 N 
ATOM     12  N14 ZIN A   1      17.818   3.334  10.113  0.00  0.00    -0.165 NA
ATOM     13  C13 ZIN A   1      17.782   4.216  11.078  0.00  0.00     0.256 A 
ATOM     14  N12 ZIN A   1      17.645   3.579  12.240  0.00  0.00    -0.234 NA
ATOM     15  C11 ZIN A   1      17.587   2.289  12.035  0.00  0.00     0.230 A 
ENDBRANCH  10  11
ENDBRANCH   1  10
BRANCH   1  16
ATOM     16  C15 ZIN A   1      19.096   0.142   8.104  0.00  0.00     0.018 A 
ATOM     17  C21 ZIN A   1      19.054   1.197   7.208  0.00  0.00     0.128 A 
ATOM     18  C20 ZIN A   1      19.067   0.948   5.847  0.00  0.00     0.085 A 
ATOM     19  F22 ZIN A   1      19.011   2.469   7.662  0.00  0.00    -0.205 F 
ATOM     20  C18 ZIN A   1      19.111  -0.355   5.382  0.00  0.00     0.119 A 
ATOM     21  C17 ZIN A   1      19.148  -1.408   6.280  0.00  0.00     0.043 A 
ATOM     22  F19 ZIN A   1      19.117  -0.599   4.053  0.00  0.00    -0.206 F 
ATOM     23  C16 ZIN A   1      19.140  -1.158   7.640  0.00  0.00     0.016 A 
ENDBRANCH   1  16
TORSDOF 6
ENDMDL
MODEL 4
REMARK VINA RESULT:      -6.6      3.447      5.918
REMARK  6 active torsions:
REMARK  status: ('A' for Active; 'I' for Inactive)
REMARK    1  A    between atoms: O1_1  and  C2_2 
REMARK    2  A    between atoms: C2_2  and  C3_3 
REMARK    3  A    between atoms: C2_2  and  C9_9 
REMARK    4  A    between atoms: C2_2  and  C15_15 
REMARK    5  A    between atoms: C3_3  and  N4_4 
REMARK    6  A    between atoms: C9_9  and  N10_10 
ROOT
ATOM      1  C2  ZIN A   1      18.002  -1.011  11.482  0.00  0.00     0.124 C 
ENDROOT
BRANCH   1   2
ATOM      2  O1  ZIN A   1      19.266  -0.910  10.824  0.00  0.00    -0.381 OA
ATOM      3  H23 ZIN A   1      19.203  -0.790   9.865  0.00  0.00     0.211 HD
ENDBRANCH   1   2
BRANCH   1   4
ATOM      4  C3  ZIN A   1      17.035   0.015  10.889  0.00  0.00     0.197 C 
BRANCH   4   5
ATOM      5  N4  ZIN A   1      17.787   1.005  10.114  0.00  0.00    -0.259 N 
ATOM      6  N8  ZIN A   1      18.341   0.828   8.836  0.00  0.00    -0.165 NA
ATOM      7  C7  ZIN A   1      18.921   1.955   8.516  0.00  0.00     0.256 A 
ATOM      8  N6  ZIN A   1      18.769   2.819   9.519  0.00  0.00    -0.234 NA
ATOM      9  C5  ZIN A   1      18.089   2.261  10.488  0.00  0.00     0.230 A 
ENDBRANCH   4   5
ENDBRANCH   1   4
BRANCH   1  10
ATOM     10  C9  ZIN A   1      17.436  -2.419  11.283  0.00  0.00     0.197 C 
BRANCH  10  11
ATOM     11  N10 ZIN A   1      18.132  -3.072  10.172  0.00  0.00    -0.259 N 
ATOM     12  N14 ZIN A   1      18.099  -2.695   8.819  0.00  0.00    -0.165 NA
ATOM     13  C13 ZIN A   1      18.855  -3.541   8.172  0.00  0.00     0.256 A 
ATOM     14  N12 ZIN A   1      19.351  -4.426   9.035  0.00  0.00    -0.234 NA
ATOM     15  C11 ZIN A   1      18.924  -4.156  10.242  0.00  0.00     0.230 A 
ENDBRANCH  10  11
ENDBRANCH   1  10
BRANCH   1  16
ATOM     16  C15 ZIN A   1      18.180  -0.744  12.954  0.00  0.00     0.018 A 
ATOM     17  C21 ZIN A   1      19.065  -1.508  13.695  0.00  0.00     0.128 A 
ATOM     18  C20 ZIN A   1      19.232  -1.259  15.046  0.00  0.00     0.085 A 
ATOM     19  F22 ZIN A   1      19.775  -2.490  13.097  0.00  0.00    -0.205 F 
ATOM     20  C18 ZIN A   1      18.505  -0.252  15.658  0.00  0.00     0.119 A 
ATOM     21  C17 ZIN A   1      17.616   0.507  14.916  0.00  0.00     0.043 A 
ATOM     22  F19 ZIN A   1      18.662  -0.012  16.978  0.00  0.00    -0.206 F 
ATOM     23  C16 ZIN A   1      17.454   0.260  13.566  0.00  0.00     0.016 A 
ENDBRANCH   1  16
TORSDOF 6
ENDMDL
MODEL 5
REMARK VINA RESULT:      -6.6      3.289      4.722
REMARK  6 active torsions:
REMARK  status: ('A' for Active; 'I' for Inactive)
REMARK    1  A    between atoms: O1_1  and  C2_2 
REMARK    2  A    between atoms: C2_2  and  C3_3 
REMARK    3  A    between atoms: C2_2  and  C9_9 
REMARK    4  A    between atoms: C2_2  and  C15_15 
REMARK    5  A    between atoms: C3_3  and  N4_4 
REMARK    6  A    between atoms: C9_9  and  N10_10 
ROOT
ATOM      1  C2  ZIN A   1      19.030   0.166  12.316  0.00  0.00     0.124 C 
ENDROOT
BRANCH   1   2
ATOM      2  O1  ZIN A   1      17.822  -0.382  12.847  0.00  0.00    -0.381 OA
ATOM      3  H23 ZIN A   1      17.040  -0.212  12.303  0.00  0.00     0.211 HD
ENDBRANCH   1   2
BRANCH   1   4
ATOM      4  C3  ZIN A   1      19.967   0.542  13.465  0.00  0.00     0.197 C 
BRANCH   4   5
ATOM      5  N4  ZIN A   1      19.439   0.006  14.722  0.00  0.00    -0.259 N 
ATOM      6  N8  ZIN A   1      19.301  -1.348  15.068  0.00  0.00    -0.165 NA
ATOM      7  C7  ZIN A   1      18.794  -1.381  16.272  0.00  0.00     0.256 A 
ATOM      8  N6  ZIN A   1      18.601  -0.131  16.694  0.00  0.00    -0.234 NA
ATOM      9  C5  ZIN A   1      18.984   0.713  15.771  0.00  0.00     0.230 A 
ENDBRANCH   4   5
ENDBRANCH   1   4
BRANCH   1  10
ATOM     10  C9  ZIN A   1      19.710  -0.872  11.422  0.00  0.00     0.197 C 
BRANCH  10  11
ATOM     11  N10 ZIN A   1      18.814  -2.015  11.231  0.00  0.00    -0.259 N 
ATOM     12  N14 ZIN A   1      18.513  -3.015  12.169  0.00  0.00    -0.165 NA
ATOM     13  C13 ZIN A   1      17.675  -3.835  11.592  0.00  0.00     0.256 A 
ATOM     14  N12 ZIN A   1      17.441  -3.412  10.351  0.00  0.00    -0.234 NA
ATOM     15  C11 ZIN A   1      18.120  -2.318  10.120  0.00  0.00     0.230 A 
ENDBRANCH  10  11
ENDBRANCH   1  10
BRANCH   1  16
ATOM     16  C15 ZIN A   1      18.710   1.395  11.505  0.00  0.00     0.018 A 
ATOM     17  C21 ZIN A   1      17.984   2.429  12.073  0.00  0.00     0.128 A 
ATOM     18  C20 ZIN A   1      17.695   3.561  11.331  0.00  0.00     0.085 A 
ATOM     19  F22 ZIN A   1      17.569   2.338  13.356  0.00  0.00    -0.205 F 
ATOM     20  C18 ZIN A   1      18.122   3.652  10.017  0.00  0.00     0.119 A 
ATOM     21  C17 ZIN A   1      18.842   2.615   9.449  0.00  0.00     0.043 A 
ATOM     22  F19 ZIN A   1      17.834   4.754   9.289  0.00  0.00    -0.206 F 
ATOM     23  C16 ZIN A   1      19.134   1.488  10.194  0.00  0.00     0.016 A 
ENDBRANCH   1  16
TORSDOF 6
ENDMDL
MODEL 6
REMARK VINA RESULT:      -6.5      3.149      6.825
REMARK  6 active torsions:
REMARK  status: ('A' for Active; 'I' for Inactive)
REMARK    1  A    between atoms: O1_1  and  C2_2 
REMARK    2  A    between atoms: C2_2  and  C3_3 
REMARK    3  A    between atoms: C2_2  and  C9_9 
REMARK    4  A    between atoms: C2_2  and  C15_15 
REMARK    5  A    between atoms: C3_3  and  N4_4 
REMARK    6  A    between atoms: C9_9  and  N10_10 
ROOT
ATOM      1  C2  ZIN A   1      18.933  -0.785  12.091  0.00  0.00     0.124 C 
ENDROOT
BRANCH   1   2
ATOM      2  O1  ZIN A   1      17.797  -0.637  11.238  0.00  0.00    -0.381 OA
ATOM      3  H23 ZIN A   1      16.960  -0.529  11.712  0.00  0.00     0.211 HD
ENDBRANCH   1   2
BRANCH   1   4
ATOM      4  C3  ZIN A   1      19.540  -2.176  11.894  0.00  0.00     0.197 C 
BRANCH   4   5
ATOM      5  N4  ZIN A   1      18.604  -3.015  11.141  0.00  0.00    -0.259 N 
ATOM      6  N8  ZIN A   1      18.421  -3.032   9.749  0.00  0.00    -0.165 NA
ATOM      7  C7  ZIN A   1      17.497  -3.922   9.500  0.00  0.00     0.256 A 
ATOM      8  N6  ZIN A   1      17.088  -4.455  10.651  0.00  0.00    -0.234 NA
ATOM      9  C5  ZIN A   1      17.745  -3.918  11.647  0.00  0.00     0.230 A 
ENDBRANCH   4   5
ENDBRANCH   1   4
BRANCH   1  10
ATOM     10  C9  ZIN A   1      19.975   0.279  11.743  0.00  0.00     0.197 C 
BRANCH  10  11
ATOM     11  N10 ZIN A   1      19.622   0.909  10.468  0.00  0.00    -0.259 N 
ATOM     12  N14 ZIN A   1      19.635   0.307   9.199  0.00  0.00    -0.165 NA
ATOM     13  C13 ZIN A   1      19.251   1.219   8.345  0.00  0.00     0.256 A 
ATOM     14  N12 ZIN A   1      19.007   2.351   9.001  0.00  0.00    -0.234 NA
ATOM     15  C11 ZIN A   1      19.226   2.180  10.280  0.00  0.00     0.230 A 
ENDBRANCH  10  11
ENDBRANCH   1  10
BRANCH   1  16
ATOM     16  C15 ZIN A   1      18.507  -0.622  13.528  0.00  0.00     0.018 A 
ATOM     17  C21 ZIN A   1      17.755   0.477  13.905  0.00  0.00     0.128 A 
ATOM     18  C20 ZIN A   1      17.359   0.625  15.223  0.00  0.00     0.085 A 
ATOM     19  F22 ZIN A   1      17.397   1.400  12.985  0.00  0.00    -0.205 F 
ATOM     20  C18 ZIN A   1      17.727  -0.321  16.165  0.00  0.00     0.119 A 
ATOM     21  C17 ZIN A   1      18.484  -1.417  15.786  0.00  0.00     0.043 A 
ATOM     22  F19 ZIN A   1      17.347  -0.175  17.454  0.00  0.00    -0.206 F 
ATOM     23  C16 ZIN A   1      18.873  -1.565  14.468  0.00  0.00     0.016 A 
ENDBRANCH   1  16
TORSDOF 6
ENDMDL
MODEL 7
REMARK VINA RESULT:      -6.5      4.532      6.619
REMARK  6 active torsions:
REMARK  status: ('A' for Active; 'I' for Inactive)
REMARK    1  A    between atoms: O1_1  and  C2_2 
REMARK    2  A    between atoms: C2_2  and  C3_3 
REMARK    3  A    between atoms: C2_2  and  C9_9 
REMARK    4  A    between atoms: C2_2  and  C15_15 
REMARK    5  A    between atoms: C3_3  and  N4_4 
REMARK    6  A    between atoms: C9_9  and  N10_10 
ROOT
ATOM      1  C2  ZIN A   1      18.663  -1.937   9.054  0.00  0.00     0.124 C 
ENDROOT
BRANCH   1   2
ATOM      2  O1  ZIN A   1      19.930  -1.919   8.393  0.00  0.00    -0.381 OA
ATOM      3  H23 ZIN A   1      19.893  -2.186   7.464  0.00  0.00     0.211 HD
ENDBRANCH   1   2
BRANCH   1   4
ATOM      4  C3  ZIN A   1      17.763  -0.851   8.460  0.00  0.00     0.197 C 
BRANCH   4   5
ATOM      5  N4  ZIN A   1      18.366  -0.337   7.228  0.00  0.00    -0.259 N 
ATOM      6  N8  ZIN A   1      18.632  -1.062   6.055  0.00  0.00    -0.165 NA
ATOM      7  C7  ZIN A   1      19.167  -0.224   5.206  0.00  0.00     0.256 A 
ATOM      8  N6  ZIN A   1      19.258   0.975   5.781  0.00  0.00    -0.234 NA
ATOM      9  C5  ZIN A   1      18.780   0.921   6.998  0.00  0.00     0.230 A 
ENDBRANCH   4   5
ENDBRANCH   1   4
BRANCH   1  10
ATOM     10  C9  ZIN A   1      18.006  -3.305   8.860  0.00  0.00     0.197 C 
BRANCH  10  11
ATOM     11  N10 ZIN A   1      19.013  -4.271   8.411  0.00  0.00    -0.259 N 
ATOM     12  N14 ZIN A   1      19.551  -4.388   7.120  0.00  0.00    -0.165 NA
ATOM     13  C13 ZIN A   1      20.412  -5.370   7.156  0.00  0.00     0.256 A 
ATOM     14  N12 ZIN A   1      20.438  -5.877   8.388  0.00  0.00    -0.234 NA
ATOM     15  C11 ZIN A   1      19.601  -5.225   9.154  0.00  0.00     0.230 A 
ENDBRANCH  10  11
ENDBRANCH   1  10
BRANCH   1  16
ATOM     16  C15 ZIN A   1      18.860  -1.678  10.525  0.00  0.00     0.018 A 
ATOM     17  C21 ZIN A   1      19.615  -0.595  10.942  0.00  0.00     0.128 A 
ATOM     18  C20 ZIN A   1      19.791  -0.354  12.294  0.00  0.00     0.085 A 
ATOM     19  F22 ZIN A   1      20.171   0.233  10.031  0.00  0.00    -0.205 F 
ATOM     20  C18 ZIN A   1      19.221  -1.203  13.227  0.00  0.00     0.119 A 
ATOM     21  C17 ZIN A   1      18.471  -2.289  12.807  0.00  0.00     0.043 A 
ATOM     22  F19 ZIN A   1      19.398  -0.973  14.547  0.00  0.00    -0.206 F 
ATOM     23  C16 ZIN A   1      18.292  -2.525  11.458  0.00  0.00     0.016 A 
ENDBRANCH   1  16
TORSDOF 6
ENDMDL
MODEL 8
REMARK VINA RESULT:      -6.4      3.376      6.235
REMARK  6 active torsions:
REMARK  status: ('A' for Active; 'I' for Inactive)
REMARK    1  A    between atoms: O1_1  and  C2_2 
REMARK    2  A    between atoms: C2_2  and  C3_3 
REMARK    3  A    between atoms: C2_2  and  C9_9 
REMARK    4  A    between atoms: C2_2  and  C15_15 
REMARK    5  A    between atoms: C3_3  and  N4_4 
REMARK    6  A    between atoms: C9_9  and  N10_10 
ROOT
ATOM      1  C2  ZIN A   1      18.911   0.280  13.282  0.00  0.00     0.124 C 
ENDROOT
BRANCH   1   2
ATOM      2  O1  ZIN A   1      19.987   1.133  12.887  0.00  0.00    -0.381 OA
ATOM      3  H23 ZIN A   1      20.088   1.220  11.928  0.00  0.00     0.211 HD
ENDBRANCH   1   2
BRANCH   1   4
ATOM      4  C3  ZIN A   1      17.580   0.910  12.864  0.00  0.00     0.197 C 
BRANCH   4   5
ATOM      5  N4  ZIN A   1      17.835   2.181  12.181  0.00  0.00    -0.259 N 
ATOM      6  N8  ZIN A   1      18.305   2.353  10.869  0.00  0.00    -0.165 NA
ATOM      7  C7  ZIN A   1      18.388   3.641  10.663  0.00  0.00     0.256 A 
ATOM      8  N6  ZIN A   1      18.005   4.281  11.767  0.00  0.00    -0.234 NA
ATOM      9  C5  ZIN A   1      17.671   3.415  12.690  0.00  0.00     0.230 A 
ENDBRANCH   4   5
ENDBRANCH   1   4
BRANCH   1  10
ATOM     10  C9  ZIN A   1      19.065  -1.082  12.603  0.00  0.00     0.197 C 
BRANCH  10  11
ATOM     11  N10 ZIN A   1      19.237  -0.891  11.160  0.00  0.00    -0.259 N 
ATOM     12  N14 ZIN A   1      20.360  -0.356  10.509  0.00  0.00    -0.165 NA
ATOM     13  C13 ZIN A   1      20.097  -0.368   9.229  0.00  0.00     0.256 A 
ATOM     14  N12 ZIN A   1      18.877  -0.870   9.043  0.00  0.00    -0.234 NA
ATOM     15  C11 ZIN A   1      18.347  -1.189  10.197  0.00  0.00     0.230 A 
ENDBRANCH  10  11
ENDBRANCH   1  10
BRANCH   1  16
ATOM     16  C15 ZIN A   1      18.935   0.102  14.778  0.00  0.00     0.018 A 
ATOM     17  C21 ZIN A   1      19.122   1.198  15.603  0.00  0.00     0.128 A 
ATOM     18  C20 ZIN A   1      19.138   1.035  16.977  0.00  0.00     0.085 A 
ATOM     19  F22 ZIN A   1      19.277   2.429  15.067  0.00  0.00    -0.205 F 
ATOM     20  C18 ZIN A   1      18.979  -0.227  17.525  0.00  0.00     0.119 A 
ATOM     21  C17 ZIN A   1      18.797  -1.322  16.698  0.00  0.00     0.043 A 
ATOM     22  F19 ZIN A   1      19.001  -0.388  18.866  0.00  0.00    -0.206 F 
ATOM     23  C16 ZIN A   1      18.776  -1.156  15.326  0.00  0.00     0.016 A 
ENDBRANCH   1  16
TORSDOF 6
ENDMDL
MODEL 9
REMARK VINA RESULT:      -6.4      2.917      5.129
REMARK  6 active torsions:
REMARK  status: ('A' for Active; 'I' for Inactive)
REMARK    1  A    between atoms: O1_1  and  C2_2 
REMARK    2  A    between atoms: C2_2  and  C3_3 
REMARK    3  A    between atoms: C2_2  and  C9_9 
REMARK    4  A    between atoms: C2_2  and  C15_15 
REMARK    5  A    between atoms: C3_3  and  N4_4 
REMARK    6  A    between atoms: C9_9  and  N10_10 
ROOT
ATOM      1  C2  ZIN A   1      18.584  -1.435   8.816  0.00  0.00     0.124 C 
ENDROOT
BRANCH   1   2
ATOM      2  O1  ZIN A   1      19.928  -1.539   9.290  0.00  0.00    -0.381 OA
ATOM      3  H23 ZIN A   1      20.104  -1.027  10.092  0.00  0.00     0.211 HD
ENDBRANCH   1   2
BRANCH   1   4
ATOM      4  C3  ZIN A   1      17.903  -2.803   8.911  0.00  0.00     0.197 C 
BRANCH   4   5
ATOM      5  N4  ZIN A   1      18.378  -3.503  10.107  0.00  0.00    -0.259 N 
ATOM      6  N8  ZIN A   1      19.615  -4.146  10.272  0.00  0.00    -0.165 NA
ATOM      7  C7  ZIN A   1      19.629  -4.635  11.483  0.00  0.00     0.256 A 
ATOM      8  N6  ZIN A   1      18.474  -4.343  12.081  0.00  0.00    -0.234 NA
ATOM      9  C5  ZIN A   1      17.711  -3.662  11.264  0.00  0.00     0.230 A 
ENDBRANCH   4   5
ENDBRANCH   1   4
BRANCH   1  10
ATOM     10  C9  ZIN A   1      17.819  -0.425   9.673  0.00  0.00     0.197 C 
BRANCH  10  11
ATOM     11  N10 ZIN A   1      18.733   0.187  10.640  0.00  0.00    -0.259 N 
ATOM     12  N14 ZIN A   1      19.287  -0.422  11.778  0.00  0.00    -0.165 NA
ATOM     13  C13 ZIN A   1      20.045   0.474  12.355  0.00  0.00     0.256 A 
ATOM     14  N12 ZIN A   1      19.991   1.604  11.652  0.00  0.00    -0.234 NA
ATOM     15  C11 ZIN A   1      19.206   1.446  10.617  0.00  0.00     0.230 A 
ENDBRANCH  10  11
ENDBRANCH   1  10
BRANCH   1  16
ATOM     16  C15 ZIN A   1      18.590  -0.975   7.382  0.00  0.00     0.018 A 
ATOM     17  C21 ZIN A   1      19.253  -1.718   6.419  0.00  0.00     0.128 A 
ATOM     18  C20 ZIN A   1      19.254  -1.298   5.101  0.00  0.00     0.085 A 
ATOM     19  F22 ZIN A   1      19.888  -2.859   6.765  0.00  0.00    -0.205 F 
ATOM     20  C18 ZIN A   1      18.602  -0.129   4.747  0.00  0.00     0.119 A 
ATOM     21  C17 ZIN A   1      17.945   0.616   5.712  0.00  0.00     0.043 A 
ATOM     22  F19 ZIN A   1      18.609   0.286   3.461  0.00  0.00    -0.206 F 
ATOM     23  C16 ZIN A   1      17.941   0.192   7.028  0.00  0.00     0.016 A 
ENDBRANCH   1  16
TORSDOF 6
ENDMDL
