MODEL 1
REMARK VINA RESULT:      -6.6      0.000      0.000
REMARK  5 active torsions:
REMARK  status: ('A' for Active; 'I' for Inactive)
REMARK    1  A    between atoms: C2_2  and  O4_4 
REMARK    2  A    between atoms: O4_4  and  C5_5 
REMARK    3  A    between atoms: C5_5  and  C6_6 
REMARK    4  A    between atoms: C25_23  and  C27_24 
REMARK    5  A    between atoms: C30_27  and  N31_28 
ROOT
ATOM      1  C5  ZIN A   1      18.498   3.033  11.858  0.00  0.00     0.138 C 
ATOM      2  C9  ZIN A   1      19.890   3.288  11.230  0.00  0.00     0.048 C 
ATOM      3  C10 ZIN A   1      20.646   1.934  11.280  0.00  0.00     0.009 C 
ATOM      4  C11 ZIN A   1      19.511   0.903  11.337  0.00  0.00     0.005 C 
ATOM      5  C13 ZIN A   1      19.905  -0.450  11.914  0.00  0.00     0.021 C 
ATOM      6  C15 ZIN A   1      20.880  -1.139  10.975  0.00  0.00     0.014 C 
ATOM      7  C16 ZIN A   1      21.021  -2.625  11.304  0.00  0.00     0.040 C 
ATOM      8  C17 ZIN A   1      19.650  -3.248  11.221  0.00  0.00    -0.048 C 
ATOM      9  C18 ZIN A   1      19.455  -4.452  10.638  0.00  0.00     0.057 C 
ATOM     10  C19 ZIN A   1      18.159  -4.973  10.487  0.00  0.00     0.150 C 
ATOM     11  O20 ZIN A   1      18.016  -6.116  10.102  0.00  0.00    -0.293 OA
ATOM     12  C21 ZIN A   1      16.944  -4.140  10.796  0.00  0.00     0.087 C 
ATOM     13  C22 ZIN A   1      17.219  -3.250  12.012  0.00  0.00     0.047 C 
ATOM     14  C23 ZIN A   1      18.522  -2.517  11.796  0.00  0.00    -0.048 C 
ATOM     15  C24 ZIN A   1      18.640  -1.240  12.127  0.00  0.00    -0.060 C 
ATOM     16  C25 ZIN A   1      17.447  -0.577  12.787  0.00  0.00     0.049 C 
ATOM     17  C36 ZIN A   1      17.224   0.834  12.220  0.00  0.00     0.026 C 
ATOM     18  C37 ZIN A   1      18.519   1.578  12.320  0.00  0.00     0.000 C 
ATOM     19  C38 ZIN A   1      19.065   1.484  13.747  0.00  0.00     0.019 C 
ENDROOT
BRANCH  16  20
ATOM     20  C27 ZIN A   1      17.692  -0.480  14.272  0.00  0.00    -0.050 A 
ATOM     21  C35 ZIN A   1      18.632  -1.299  14.869  0.00  0.00     0.010 A 
ATOM     22  C34 ZIN A   1      18.863  -1.210  16.228  0.00  0.00     0.030 A 
ATOM     23  C30 ZIN A   1      18.142  -0.304  16.996  0.00  0.00     0.029 A 
ATOM     24  C29 ZIN A   1      17.195   0.514  16.392  0.00  0.00     0.030 A 
ATOM     25  C28 ZIN A   1      16.972   0.423  15.032  0.00  0.00     0.010 A 
BRANCH  23  26
ATOM     26  N31 ZIN A   1      18.369  -0.215  18.371  0.00  0.00    -0.390 N 
ATOM     27  C32 ZIN A   1      19.148  -1.250  19.054  0.00  0.00     0.149 C 
ATOM     28  C33 ZIN A   1      17.828   0.914  19.131  0.00  0.00     0.149 C 
ENDBRANCH  23  26
ENDBRANCH  16  20
BRANCH   1  29
ATOM     29  O4  ZIN A   1      17.455   3.231  10.867  0.00  0.00    -0.302 OA
BRANCH  29  30
ATOM     30  C2  ZIN A   1      17.779   3.943   9.775  0.00  0.00     0.256 C 
ATOM     31  C1  ZIN A   1      18.438   3.265   8.602  0.00  0.00     0.126 C 
ATOM     32  O3  ZIN A   1      17.542   5.127   9.735  0.00  0.00    -0.266 OA
ENDBRANCH  29  30
ENDBRANCH   1  29
BRANCH   1  33
ATOM     33  C6  ZIN A   1      18.279   3.950  13.034  0.00  0.00     0.158 C 
ATOM     34  C7  ZIN A   1      19.385   4.865  13.492  0.00  0.00     0.094 C 
ATOM     35  O8  ZIN A   1      17.217   3.950  13.610  0.00  0.00    -0.295 OA
ENDBRANCH   1  33
TORSDOF 5
ENDMDL
MODEL 2
REMARK VINA RESULT:      -5.7      3.779      8.308
REMARK  5 active torsions:
REMARK  status: ('A' for Active; 'I' for Inactive)
REMARK    1  A    between atoms: C2_2  and  O4_4 
REMARK    2  A    between atoms: O4_4  and  C5_5 
REMARK    3  A    between atoms: C5_5  and  C6_6 
REMARK    4  A    between atoms: C25_23  and  C27_24 
REMARK    5  A    between atoms: C30_27  and  N31_28 
ROOT
ATOM      1  C5  ZIN A   1      18.573  -3.242  11.008  0.00  0.00     0.138 C 
ATOM      2  C9  ZIN A   1      19.965  -3.515  11.629  0.00  0.00     0.048 C 
ATOM      3  C10 ZIN A   1      20.717  -2.158  11.631  0.00  0.00     0.009 C 
ATOM      4  C11 ZIN A   1      19.578  -1.129  11.611  0.00  0.00     0.005 C 
ATOM      5  C13 ZIN A   1      19.969   0.245  11.085  0.00  0.00     0.021 C 
ATOM      6  C15 ZIN A   1      20.940   0.902  12.051  0.00  0.00     0.014 C 
ATOM      7  C16 ZIN A   1      21.077   2.400  11.777  0.00  0.00     0.040 C 
ATOM      8  C17 ZIN A   1      19.704   3.015  11.881  0.00  0.00    -0.048 C 
ATOM      9  C18 ZIN A   1      19.504   4.196  12.509  0.00  0.00     0.057 C 
ATOM     10  C19 ZIN A   1      18.206   4.707  12.676  0.00  0.00     0.150 C 
ATOM     11  O20 ZIN A   1      18.059   5.835  13.104  0.00  0.00    -0.293 OA
ATOM     12  C21 ZIN A   1      16.994   3.882  12.335  0.00  0.00     0.087 C 
ATOM     13  C22 ZIN A   1      17.274   3.039  11.087  0.00  0.00     0.047 C 
ATOM     14  C23 ZIN A   1      18.579   2.303  11.277  0.00  0.00    -0.048 C 
ATOM     15  C24 ZIN A   1      18.702   1.039  10.899  0.00  0.00    -0.060 C 
ATOM     16  C25 ZIN A   1      17.513   0.397  10.213  0.00  0.00     0.049 C 
ATOM     17  C36 ZIN A   1      17.293  -1.034  10.726  0.00  0.00     0.026 C 
ATOM     18  C37 ZIN A   1      18.590  -1.770  10.601  0.00  0.00     0.000 C 
ATOM     19  C38 ZIN A   1      19.138  -1.621   9.180  0.00  0.00     0.019 C 
ENDROOT
BRANCH  16  20
ATOM     20  C27 ZIN A   1      17.760   0.357   8.726  0.00  0.00    -0.050 A 
ATOM     21  C35 ZIN A   1      18.801   1.085   8.182  0.00  0.00     0.010 A 
ATOM     22  C34 ZIN A   1      19.035   1.046   6.821  0.00  0.00     0.030 A 
ATOM     23  C30 ZIN A   1      18.215   0.284   5.998  0.00  0.00     0.029 A 
ATOM     24  C29 ZIN A   1      17.166  -0.442   6.549  0.00  0.00     0.030 A 
ATOM     25  C28 ZIN A   1      16.941  -0.403   7.912  0.00  0.00     0.010 A 
BRANCH  23  26
ATOM     26  N31 ZIN A   1      18.444   0.247   4.621  0.00  0.00    -0.390 N 
ATOM     27  C32 ZIN A   1      19.140   1.356   3.964  0.00  0.00     0.149 C 
ATOM     28  C33 ZIN A   1      17.991  -0.901   3.833  0.00  0.00     0.149 C 
ENDBRANCH  23  26
ENDBRANCH  16  20
BRANCH   1  29
ATOM     29  O4  ZIN A   1      17.529  -3.479  11.990  0.00  0.00    -0.302 OA
BRANCH  29  30
ATOM     30  C2  ZIN A   1      16.916  -4.673  11.951  0.00  0.00     0.256 C 
ATOM     31  C1  ZIN A   1      17.608  -5.894  12.498  0.00  0.00     0.126 C 
ATOM     32  O3  ZIN A   1      15.809  -4.768  11.476  0.00  0.00    -0.266 OA
ENDBRANCH  29  30
ENDBRANCH   1  29
BRANCH   1  33
ATOM     33  C6  ZIN A   1      18.358  -4.114   9.798  0.00  0.00     0.158 C 
ATOM     34  C7  ZIN A   1      19.360  -5.187   9.457  0.00  0.00     0.094 C 
ATOM     35  O8  ZIN A   1      17.385  -3.953   9.102  0.00  0.00    -0.295 OA
ENDBRANCH   1  33
TORSDOF 5
ENDMDL
MODEL 3
REMARK VINA RESULT:      -5.4      3.400      7.904
REMARK  5 active torsions:
REMARK  status: ('A' for Active; 'I' for Inactive)
REMARK    1  A    between atoms: C2_2  and  O4_4 
REMARK    2  A    between atoms: O4_4  and  C5_5 
REMARK    3  A    between atoms: C5_5  and  C6_6 
REMARK    4  A    between atoms: C25_23  and  C27_24 
REMARK    5  A    between atoms: C30_27  and  N31_28 
ROOT
ATOM      1  C5  ZIN A   1      18.759  -1.616  13.097  0.00  0.00     0.138 C 
ATOM      2  C9  ZIN A   1      20.122  -1.480  13.820  0.00  0.00     0.048 C 
ATOM      3  C10 ZIN A   1      20.671  -0.075  13.458  0.00  0.00     0.009 C 
ATOM      4  C11 ZIN A   1      19.403   0.713  13.102  0.00  0.00     0.005 C 
ATOM      5  C13 ZIN A   1      19.635   1.930  12.217  0.00  0.00     0.021 C 
ATOM      6  C15 ZIN A   1      20.423   2.976  12.988  0.00  0.00     0.014 C 
ATOM      7  C16 ZIN A   1      20.366   4.340  12.300  0.00  0.00     0.040 C 
ATOM      8  C17 ZIN A   1      18.916   4.733  12.174  0.00  0.00    -0.048 C 
ATOM      9  C18 ZIN A   1      18.501   5.995  12.428  0.00  0.00     0.057 C 
ATOM     10  C19 ZIN A   1      17.134   6.320  12.395  0.00  0.00     0.150 C 
ATOM     11  O20 ZIN A   1      16.795   7.483  12.475  0.00  0.00    -0.293 OA
ATOM     12  C21 ZIN A   1      16.083   5.250  12.262  0.00  0.00     0.087 C 
ATOM     13  C22 ZIN A   1      16.578   4.149  11.320  0.00  0.00     0.047 C 
ATOM     14  C23 ZIN A   1      17.956   3.711  11.760  0.00  0.00    -0.048 C 
ATOM     15  C24 ZIN A   1      18.286   2.429  11.767  0.00  0.00    -0.060 C 
ATOM     16  C25 ZIN A   1      17.259   1.440  11.252  0.00  0.00     0.049 C 
ATOM     17  C36 ZIN A   1      17.205   0.193  12.147  0.00  0.00     0.026 C 
ATOM     18  C37 ZIN A   1      18.599  -0.333  12.285  0.00  0.00     0.000 C 
ATOM     19  C38 ZIN A   1      19.231  -0.501  10.901  0.00  0.00     0.019 C 
ENDROOT
BRANCH  16  20
ATOM     20  C27 ZIN A   1      17.627   1.028   9.849  0.00  0.00    -0.050 A 
ATOM     21  C35 ZIN A   1      18.560   1.759   9.139  0.00  0.00     0.010 A 
ATOM     22  C34 ZIN A   1      18.904   1.380   7.856  0.00  0.00     0.030 A 
ATOM     23  C30 ZIN A   1      18.303   0.270   7.276  0.00  0.00     0.029 A 
ATOM     24  C29 ZIN A   1      17.362  -0.459   7.992  0.00  0.00     0.030 A 
ATOM     25  C28 ZIN A   1      17.026  -0.078   9.276  0.00  0.00     0.010 A 
BRANCH  23  26
ATOM     26  N31 ZIN A   1      18.644  -0.112   5.976  0.00  0.00    -0.390 N 
ATOM     27  C32 ZIN A   1      19.552   0.719   5.183  0.00  0.00     0.149 C 
ATOM     28  C33 ZIN A   1      18.094  -1.345   5.407  0.00  0.00     0.149 C 
ENDBRANCH  23  26
ENDBRANCH  16  20
BRANCH   1  29
ATOM     29  O4  ZIN A   1      17.685  -1.733  14.068  0.00  0.00    -0.302 OA
BRANCH  29  30
ATOM     30  C2  ZIN A   1      17.963  -1.370  15.331  0.00  0.00     0.256 C 
ATOM     31  C1  ZIN A   1      17.490  -0.039  15.853  0.00  0.00     0.126 C 
ATOM     32  O3  ZIN A   1      18.592  -2.112  16.047  0.00  0.00    -0.266 OA
ENDBRANCH  29  30
ENDBRANCH   1  29
BRANCH   1  33
ATOM     33  C6  ZIN A   1      18.768  -2.813  12.183  0.00  0.00     0.158 C 
ATOM     34  C7  ZIN A   1      17.481  -3.303  11.571  0.00  0.00     0.094 C 
ATOM     35  O8  ZIN A   1      19.806  -3.382  11.942  0.00  0.00    -0.295 OA
ENDBRANCH   1  33
TORSDOF 5
ENDMDL
MODEL 4
REMARK VINA RESULT:      -5.4      1.478      2.050
REMARK  5 active torsions:
REMARK  status: ('A' for Active; 'I' for Inactive)
REMARK    1  A    between atoms: C2_2  and  O4_4 
REMARK    2  A    between atoms: O4_4  and  C5_5 
REMARK    3  A    between atoms: C5_5  and  C6_6 
REMARK    4  A    between atoms: C25_23  and  C27_24 
REMARK    5  A    between atoms: C30_27  and  N31_28 
ROOT
ATOM      1  C5  ZIN A   1      18.872   1.843  10.256  0.00  0.00     0.138 C 
ATOM      2  C9  ZIN A   1      20.255   1.725   9.570  0.00  0.00     0.048 C 
ATOM      3  C10 ZIN A   1      20.824   0.338   9.969  0.00  0.00     0.009 C 
ATOM      4  C11 ZIN A   1      19.565  -0.471  10.308  0.00  0.00     0.005 C 
ATOM      5  C13 ZIN A   1      19.800  -1.668  11.219  0.00  0.00     0.021 C 
ATOM      6  C15 ZIN A   1      20.629  -2.709  10.487  0.00  0.00     0.014 C 
ATOM      7  C16 ZIN A   1      20.584  -4.062  11.197  0.00  0.00     0.040 C 
ATOM      8  C17 ZIN A   1      19.140  -4.484  11.294  0.00  0.00    -0.048 C 
ATOM      9  C18 ZIN A   1      18.759  -5.759  11.052  0.00  0.00     0.057 C 
ATOM     10  C19 ZIN A   1      17.398  -6.112  11.057  0.00  0.00     0.150 C 
ATOM     11  O20 ZIN A   1      17.086  -7.284  10.989  0.00  0.00    -0.293 OA
ATOM     12  C21 ZIN A   1      16.322  -5.063  11.145  0.00  0.00     0.087 C 
ATOM     13  C22 ZIN A   1      16.770  -3.936  12.080  0.00  0.00     0.047 C 
ATOM     14  C23 ZIN A   1      18.148  -3.476  11.666  0.00  0.00    -0.048 C 
ATOM     15  C24 ZIN A   1      18.452  -2.187  11.645  0.00  0.00    -0.060 C 
ATOM     16  C25 ZIN A   1      17.391  -1.213  12.117  0.00  0.00     0.049 C 
ATOM     17  C36 ZIN A   1      17.333   0.018  11.199  0.00  0.00     0.026 C 
ATOM     18  C37 ZIN A   1      18.719   0.571  11.086  0.00  0.00     0.000 C 
ATOM     19  C38 ZIN A   1      19.312   0.776  12.482  0.00  0.00     0.019 C 
ENDROOT
BRANCH  16  20
ATOM     20  C27 ZIN A   1      17.715  -0.768  13.520  0.00  0.00    -0.050 A 
ATOM     21  C35 ZIN A   1      17.128   0.373  14.034  0.00  0.00     0.010 A 
ATOM     22  C34 ZIN A   1      17.418   0.781  15.321  0.00  0.00     0.030 A 
ATOM     23  C30 ZIN A   1      18.309   0.049  16.096  0.00  0.00     0.029 A 
ATOM     24  C29 ZIN A   1      18.900  -1.095  15.574  0.00  0.00     0.030 A 
ATOM     25  C28 ZIN A   1      18.602  -1.500  14.288  0.00  0.00     0.010 A 
BRANCH  23  26
ATOM     26  N31 ZIN A   1      18.610   0.461  17.397  0.00  0.00    -0.390 N 
ATOM     27  C32 ZIN A   1      18.182   1.781  17.863  0.00  0.00     0.149 C 
ATOM     28  C33 ZIN A   1      19.351  -0.428  18.294  0.00  0.00     0.149 C 
ENDBRANCH  23  26
ENDBRANCH  16  20
BRANCH   1  29
ATOM     29  O4  ZIN A   1      17.820   1.921   9.257  0.00  0.00    -0.302 OA
BRANCH  29  30
ATOM     30  C2  ZIN A   1      18.110   1.459   8.030  0.00  0.00     0.256 C 
ATOM     31  C1  ZIN A   1      17.535   0.147   7.563  0.00  0.00     0.126 C 
ATOM     32  O3  ZIN A   1      18.833   2.096   7.300  0.00  0.00    -0.266 OA
ENDBRANCH  29  30
ENDBRANCH   1  29
BRANCH   1  33
ATOM     33  C6  ZIN A   1      18.832   3.056  11.149  0.00  0.00     0.158 C 
ATOM     34  C7  ZIN A   1      20.117   3.672  11.640  0.00  0.00     0.094 C 
ATOM     35  O8  ZIN A   1      17.771   3.534  11.472  0.00  0.00    -0.295 OA
ENDBRANCH   1  33
TORSDOF 5
ENDMDL
MODEL 5
REMARK VINA RESULT:      -4.6      8.247     12.340
REMARK  5 active torsions:
REMARK  status: ('A' for Active; 'I' for Inactive)
REMARK    1  A    between atoms: C2_2  and  O4_4 
REMARK    2  A    between atoms: O4_4  and  C5_5 
REMARK    3  A    between atoms: C5_5  and  C6_6 
REMARK    4  A    between atoms: C25_23  and  C27_24 
REMARK    5  A    between atoms: C30_27  and  N31_28 
ROOT
ATOM      1  C5  ZIN A   1      14.321  -7.342   7.142  0.00  0.00     0.138 C 
ATOM      2  C9  ZIN A   1      14.977  -7.518   8.533  0.00  0.00     0.048 C 
ATOM      3  C10 ZIN A   1      16.388  -6.878   8.436  0.00  0.00     0.009 C 
ATOM      4  C11 ZIN A   1      16.236  -5.876   7.284  0.00  0.00     0.005 C 
ATOM      5  C13 ZIN A   1      17.541  -5.482   6.605  0.00  0.00     0.021 C 
ATOM      6  C15 ZIN A   1      18.399  -4.687   7.574  0.00  0.00     0.014 C 
ATOM      7  C16 ZIN A   1      19.532  -3.958   6.852  0.00  0.00     0.040 C 
ATOM      8  C17 ZIN A   1      18.913  -3.061   5.810  0.00  0.00    -0.048 C 
ATOM      9  C18 ZIN A   1      19.359  -1.801   5.607  0.00  0.00     0.057 C 
ATOM     10  C19 ZIN A   1      18.710  -0.950   4.696  0.00  0.00     0.150 C 
ATOM     11  O20 ZIN A   1      19.212   0.120   4.416  0.00  0.00    -0.293 OA
ATOM     12  C21 ZIN A   1      17.402  -1.341   4.060  0.00  0.00     0.087 C 
ATOM     13  C22 ZIN A   1      17.399  -2.843   3.761  0.00  0.00     0.047 C 
ATOM     14  C23 ZIN A   1      17.812  -3.591   5.007  0.00  0.00    -0.048 C 
ATOM     15  C24 ZIN A   1      17.191  -4.706   5.362  0.00  0.00    -0.060 C 
ATOM     16  C25 ZIN A   1      16.111  -5.228   4.435  0.00  0.00     0.049 C 
ATOM     17  C36 ZIN A   1      14.895  -5.721   5.236  0.00  0.00     0.026 C 
ATOM     18  C37 ZIN A   1      15.388  -6.686   6.268  0.00  0.00     0.000 C 
ATOM     19  C38 ZIN A   1      16.260  -7.755   5.607  0.00  0.00     0.019 C 
ENDROOT
BRANCH  16  20
ATOM     20  C27 ZIN A   1      16.664  -6.371   3.622  0.00  0.00    -0.050 A 
ATOM     21  C35 ZIN A   1      18.030  -6.568   3.552  0.00  0.00     0.010 A 
ATOM     22  C34 ZIN A   1      18.540  -7.617   2.813  0.00  0.00     0.030 A 
ATOM     23  C30 ZIN A   1      17.680  -8.468   2.131  0.00  0.00     0.029 A 
ATOM     24  C29 ZIN A   1      16.307  -8.263   2.201  0.00  0.00     0.030 A 
ATOM     25  C28 ZIN A   1      15.803  -7.215   2.946  0.00  0.00     0.010 A 
BRANCH  23  26
ATOM     26  N31 ZIN A   1      18.192  -9.527   1.378  0.00  0.00    -0.390 N 
ATOM     27  C32 ZIN A   1      19.603  -9.530   0.984  0.00  0.00     0.149 C 
ATOM     28  C33 ZIN A   1      17.320 -10.635   0.983  0.00  0.00     0.149 C 
ENDBRANCH  23  26
ENDBRANCH  16  20
BRANCH   1  29
ATOM     29  O4  ZIN A   1      13.155  -6.483   7.241  0.00  0.00    -0.302 OA
BRANCH  29  30
ATOM     30  C2  ZIN A   1      12.399  -6.605   8.344  0.00  0.00     0.256 C 
ATOM     31  C1  ZIN A   1      11.752  -7.926   8.671  0.00  0.00     0.126 C 
ATOM     32  O3  ZIN A   1      12.239  -5.656   9.075  0.00  0.00    -0.266 OA
ENDBRANCH  29  30
ENDBRANCH   1  29
BRANCH   1  33
ATOM     33  C6  ZIN A   1      13.934  -8.682   6.573  0.00  0.00     0.158 C 
ATOM     34  C7  ZIN A   1      12.992  -8.758   5.399  0.00  0.00     0.094 C 
ATOM     35  O8  ZIN A   1      14.377  -9.696   7.058  0.00  0.00    -0.295 OA
ENDBRANCH   1  33
TORSDOF 5
ENDMDL
MODEL 6
REMARK VINA RESULT:      -4.6      3.445      8.309
REMARK  5 active torsions:
REMARK  status: ('A' for Active; 'I' for Inactive)
REMARK    1  A    between atoms: C2_2  and  O4_4 
REMARK    2  A    between atoms: O4_4  and  C5_5 
REMARK    3  A    between atoms: C5_5  and  C6_6 
REMARK    4  A    between atoms: C25_23  and  C27_24 
REMARK    5  A    between atoms: C30_27  and  N31_28 
ROOT
ATOM      1  C5  ZIN A   1      18.335   0.669  16.633  0.00  0.00     0.138 C 
ATOM      2  C9  ZIN A   1      19.553   0.884  17.564  0.00  0.00     0.048 C 
ATOM      3  C10 ZIN A   1      20.240   2.193  17.092  0.00  0.00     0.009 C 
ATOM      4  C11 ZIN A   1      19.104   2.946  16.387  0.00  0.00     0.005 C 
ATOM      5  C13 ZIN A   1      19.561   3.992  15.379  0.00  0.00     0.021 C 
ATOM      6  C15 ZIN A   1      20.260   5.128  16.106  0.00  0.00     0.014 C 
ATOM      7  C16 ZIN A   1      20.407   6.359  15.212  0.00  0.00     0.040 C 
ATOM      8  C17 ZIN A   1      19.028   6.768  14.759  0.00  0.00    -0.048 C 
ATOM      9  C18 ZIN A   1      18.650   8.065  14.728  0.00  0.00     0.057 C 
ATOM     10  C19 ZIN A   1      17.332   8.419  14.391  0.00  0.00     0.150 C 
ATOM     11  O20 ZIN A   1      17.053   9.589  14.220  0.00  0.00    -0.293 OA
ATOM     12  C21 ZIN A   1      16.260   7.373  14.237  0.00  0.00     0.087 C 
ATOM     13  C22 ZIN A   1      16.849   6.117  13.590  0.00  0.00     0.047 C 
ATOM     14  C23 ZIN A   1      18.098   5.719  14.342  0.00  0.00    -0.048 C 
ATOM     15  C24 ZIN A   1      18.346   4.447  14.613  0.00  0.00    -0.060 C 
ATOM     16  C25 ZIN A   1      17.370   3.416  14.080  0.00  0.00     0.049 C 
ATOM     17  C36 ZIN A   1      17.084   2.338  15.136  0.00  0.00     0.026 C 
ATOM     18  C37 ZIN A   1      18.399   1.803  15.612  0.00  0.00     0.000 C 
ATOM     19  C38 ZIN A   1      19.256   1.388  14.414  0.00  0.00     0.019 C 
ENDROOT
BRANCH  16  20
ATOM     20  C27 ZIN A   1      17.957   2.765  12.854  0.00  0.00    -0.050 A 
ATOM     21  C35 ZIN A   1      19.041   3.342  12.219  0.00  0.00     0.010 A 
ATOM     22  C34 ZIN A   1      19.585   2.745  11.099  0.00  0.00     0.030 A 
ATOM     23  C30 ZIN A   1      19.034   1.570  10.603  0.00  0.00     0.029 A 
ATOM     24  C29 ZIN A   1      17.942   0.996  11.241  0.00  0.00     0.030 A 
ATOM     25  C28 ZIN A   1      17.406   1.595  12.364  0.00  0.00     0.010 A 
BRANCH  23  26
ATOM     26  N31 ZIN A   1      19.578   0.966   9.467  0.00  0.00    -0.390 N 
ATOM     27  C32 ZIN A   1      19.506   1.645   8.171  0.00  0.00     0.149 C 
ATOM     28  C33 ZIN A   1      20.221  -0.346   9.571  0.00  0.00     0.149 C 
ENDBRANCH  23  26
ENDBRANCH  16  20
BRANCH   1  29
ATOM     29  O4  ZIN A   1      17.101   0.747  17.394  0.00  0.00    -0.302 OA
BRANCH  29  30
ATOM     30  C2  ZIN A   1      17.201   1.110  18.683  0.00  0.00     0.256 C 
ATOM     31  C1  ZIN A   1      16.809   2.501  19.106  0.00  0.00     0.126 C 
ATOM     32  O3  ZIN A   1      17.606   0.320  19.503  0.00  0.00    -0.266 OA
ENDBRANCH  29  30
ENDBRANCH   1  29
BRANCH   1  33
ATOM     33  C6  ZIN A   1      18.436  -0.664  15.938  0.00  0.00     0.158 C 
ATOM     34  C7  ZIN A   1      19.382  -1.715  16.458  0.00  0.00     0.094 C 
ATOM     35  O8  ZIN A   1      17.759  -0.890  14.963  0.00  0.00    -0.295 OA
ENDBRANCH   1  33
TORSDOF 5
ENDMDL
MODEL 7
REMARK VINA RESULT:      -4.3      3.411      6.318
REMARK  5 active torsions:
REMARK  status: ('A' for Active; 'I' for Inactive)
REMARK    1  A    between atoms: C2_2  and  O4_4 
REMARK    2  A    between atoms: O4_4  and  C5_5 
REMARK    3  A    between atoms: C5_5  and  C6_6 
REMARK    4  A    between atoms: C25_23  and  C27_24 
REMARK    5  A    between atoms: C30_27  and  N31_28 
ROOT
ATOM      1  C5  ZIN A   1      18.602   0.806  16.829  0.00  0.00     0.138 C 
ATOM      2  C9  ZIN A   1      17.430  -0.197  16.966  0.00  0.00     0.048 C 
ATOM      3  C10 ZIN A   1      16.650  -0.144  15.625  0.00  0.00     0.009 C 
ATOM      4  C11 ZIN A   1      17.702   0.363  14.630  0.00  0.00     0.005 C 
ATOM      5  C13 ZIN A   1      17.134   1.014  13.376  0.00  0.00     0.021 C 
ATOM      6  C15 ZIN A   1      16.420  -0.034  12.539  0.00  0.00     0.014 C 
ATOM      7  C16 ZIN A   1      16.157   0.467  11.119  0.00  0.00     0.040 C 
ATOM      8  C17 ZIN A   1      17.485   0.841  10.509  0.00  0.00    -0.048 C 
ATOM      9  C18 ZIN A   1      17.792   0.517   9.233  0.00  0.00     0.057 C 
ATOM     10  C19 ZIN A   1      19.068   0.793   8.712  0.00  0.00     0.150 C 
ATOM     11  O20 ZIN A   1      19.275   0.635   7.525  0.00  0.00    -0.293 OA
ATOM     12  C21 ZIN A   1      20.182   1.281   9.599  0.00  0.00     0.087 C 
ATOM     13  C22 ZIN A   1      19.623   2.234  10.659  0.00  0.00     0.047 C 
ATOM     14  C23 ZIN A   1      18.442   1.576  11.334  0.00  0.00    -0.048 C 
ATOM     15  C24 ZIN A   1      18.277   1.668  12.645  0.00  0.00    -0.060 C 
ATOM     16  C25 ZIN A   1      19.273   2.510  13.417  0.00  0.00     0.049 C 
ATOM     17  C36 ZIN A   1      19.676   1.816  14.727  0.00  0.00     0.026 C 
ATOM     18  C37 ZIN A   1      18.421   1.460  15.460  0.00  0.00     0.000 C 
ATOM     19  C38 ZIN A   1      17.519   2.690  15.578  0.00  0.00     0.019 C 
ENDROOT
BRANCH  16  20
ATOM     20  C27 ZIN A   1      18.652   3.846  13.735  0.00  0.00    -0.050 A 
ATOM     21  C35 ZIN A   1      17.447   4.200  13.157  0.00  0.00     0.010 A 
ATOM     22  C34 ZIN A   1      16.871   5.421  13.451  0.00  0.00     0.030 A 
ATOM     23  C30 ZIN A   1      17.511   6.298  14.318  0.00  0.00     0.029 A 
ATOM     24  C29 ZIN A   1      18.724   5.940  14.893  0.00  0.00     0.030 A 
ATOM     25  C28 ZIN A   1      19.291   4.715  14.599  0.00  0.00     0.010 A 
BRANCH  23  26
ATOM     26  N31 ZIN A   1      16.934   7.536  14.613  0.00  0.00    -0.390 N 
ATOM     27  C32 ZIN A   1      15.524   7.613  15.001  0.00  0.00     0.149 C 
ATOM     28  C33 ZIN A   1      17.740   8.756  14.535  0.00  0.00     0.149 C 
ENDBRANCH  23  26
ENDBRANCH  16  20
BRANCH   1  29
ATOM     29  O4  ZIN A   1      19.872   0.105  16.886  0.00  0.00    -0.302 OA
BRANCH  29  30
ATOM     30  C2  ZIN A   1      19.845  -1.223  16.690  0.00  0.00     0.256 C 
ATOM     31  C1  ZIN A   1      19.872  -1.778  15.290  0.00  0.00     0.126 C 
ATOM     32  O3  ZIN A   1      19.798  -1.973  17.636  0.00  0.00    -0.266 OA
ENDBRANCH  29  30
ENDBRANCH   1  29
BRANCH   1  33
ATOM     33  C6  ZIN A   1      18.531   1.846  17.916  0.00  0.00     0.158 C 
ATOM     34  C7  ZIN A   1      17.332   1.903  18.827  0.00  0.00     0.094 C 
ATOM     35  O8  ZIN A   1      19.435   2.635  18.058  0.00  0.00    -0.295 OA
ENDBRANCH   1  33
TORSDOF 5
ENDMDL
MODEL 8
REMARK VINA RESULT:      -3.8      3.236      6.478
REMARK  5 active torsions:
REMARK  status: ('A' for Active; 'I' for Inactive)
REMARK    1  A    between atoms: C2_2  and  O4_4 
REMARK    2  A    between atoms: O4_4  and  C5_5 
REMARK    3  A    between atoms: C5_5  and  C6_6 
REMARK    4  A    between atoms: C25_23  and  C27_24 
REMARK    5  A    between atoms: C30_27  and  N31_28 
ROOT
ATOM      1  C5  ZIN A   1      19.361  -1.915  12.373  0.00  0.00     0.138 C 
ATOM      2  C9  ZIN A   1      18.146  -2.874  12.362  0.00  0.00     0.048 C 
ATOM      3  C10 ZIN A   1      17.208  -2.380  11.228  0.00  0.00     0.009 C 
ATOM      4  C11 ZIN A   1      18.161  -1.618  10.297  0.00  0.00     0.005 C 
ATOM      5  C13 ZIN A   1      17.487  -0.590   9.398  0.00  0.00     0.021 C 
ATOM      6  C15 ZIN A   1      16.599  -1.300   8.391  0.00  0.00     0.014 C 
ATOM      7  C16 ZIN A   1      16.196  -0.371   7.246  0.00  0.00     0.040 C 
ATOM      8  C17 ZIN A   1      17.459   0.136   6.597  0.00  0.00    -0.048 C 
ATOM      9  C18 ZIN A   1      17.578   0.221   5.252  0.00  0.00     0.057 C 
ATOM     10  C19 ZIN A   1      18.795   0.608   4.665  0.00  0.00     0.150 C 
ATOM     11  O20 ZIN A   1      18.838   0.824   3.470  0.00  0.00    -0.293 OA
ATOM     12  C21 ZIN A   1      20.045   0.759   5.490  0.00  0.00     0.087 C 
ATOM     13  C22 ZIN A   1      19.696   1.347   6.860  0.00  0.00     0.047 C 
ATOM     14  C23 ZIN A   1      18.565   0.546   7.461  0.00  0.00    -0.048 C 
ATOM     15  C24 ZIN A   1      18.574   0.226   8.747  0.00  0.00    -0.060 C 
ATOM     16  C25 ZIN A   1      19.718   0.754   9.589  0.00  0.00     0.049 C 
ATOM     17  C36 ZIN A   1      20.231  -0.328  10.552  0.00  0.00     0.026 C 
ATOM     18  C37 ZIN A   1      19.056  -0.859  11.312  0.00  0.00     0.000 C 
ATOM     19  C38 ZIN A   1      18.269   0.298  11.929  0.00  0.00     0.019 C 
ENDROOT
BRANCH  16  20
ATOM     20  C27 ZIN A   1      19.241   1.940  10.388  0.00  0.00    -0.050 A 
ATOM     21  C35 ZIN A   1      18.026   2.528  10.088  0.00  0.00     0.010 A 
ATOM     22  C34 ZIN A   1      17.583   3.612  10.821  0.00  0.00     0.030 A 
ATOM     23  C30 ZIN A   1      18.364   4.118  11.852  0.00  0.00     0.029 A 
ATOM     24  C29 ZIN A   1      19.587   3.527  12.146  0.00  0.00     0.030 A 
ATOM     25  C28 ZIN A   1      20.022   2.440  11.413  0.00  0.00     0.010 A 
BRANCH  23  26
ATOM     26  N31 ZIN A   1      17.922   5.217  12.592  0.00  0.00    -0.390 N 
ATOM     27  C32 ZIN A   1      18.723   5.718  13.710  0.00  0.00     0.149 C 
ATOM     28  C33 ZIN A   1      16.656   5.870  12.249  0.00  0.00     0.149 C 
ENDBRANCH  23  26
ENDBRANCH  16  20
BRANCH   1  29
ATOM     29  O4  ZIN A   1      20.574  -2.636  12.030  0.00  0.00    -0.302 OA
BRANCH  29  30
ATOM     30  C2  ZIN A   1      20.428  -3.884  11.557  0.00  0.00     0.256 C 
ATOM     31  C1  ZIN A   1      20.165  -4.107  10.090  0.00  0.00     0.126 C 
ATOM     32  O3  ZIN A   1      20.507  -4.828  12.307  0.00  0.00    -0.266 OA
ENDBRANCH  29  30
ENDBRANCH   1  29
BRANCH   1  33
ATOM     33  C6  ZIN A   1      19.504  -1.267  13.726  0.00  0.00     0.158 C 
ATOM     34  C7  ZIN A   1      18.542  -1.614  14.832  0.00  0.00     0.094 C 
ATOM     35  O8  ZIN A   1      20.389  -0.469  13.923  0.00  0.00    -0.295 OA
ENDBRANCH   1  33
TORSDOF 5
ENDMDL
