MODEL 1
REMARK VINA RESULT:      -8.4      0.000      0.000
REMARK  5 active torsions:
REMARK  status: ('A' for Active; 'I' for Inactive)
REMARK    1  A    between atoms: N4_4  and  N5_5 
REMARK    2  A    between atoms: N5_5  and  C6_6 
REMARK    3  A    between atoms: C6_6  and  C7_7 
REMARK    4  A    between atoms: C10_10  and  C11_11 
REMARK    5  A    between atoms: C14_14  and  N15_15 
ROOT
ATOM      1  C7  <0> d   1      17.962   2.278  12.340  0.00  0.00     0.095 A 
ATOM      2  C8  <0> d   1      17.714   3.561  11.664  0.00  0.00     0.041 A 
ATOM      3  C9  <0> d   1      17.784   3.310  10.332  0.00  0.00     0.041 A 
ATOM      4  C10 <0> d   1      18.065   1.931  10.171  0.00  0.00     0.086 A 
ATOM      5  O20 <0> d   1      18.168   1.351  11.379  0.00  0.00    -0.308 OA
ENDROOT
BRANCH   1   6
ATOM      6  C6  <0> d   1      17.986   2.062  13.710  0.00  0.00     0.176 C 
BRANCH   6   7
ATOM      7  N5  <0> d   1      18.299   0.863  14.189  0.00  0.00    -0.177 NA
BRANCH   7   8
ATOM      8  N4  <0> d   1      18.636   0.729  15.427  0.00  0.00    -0.209 N 
ATOM      9  C3  <0> d   1      19.046   1.803  16.347  0.00  0.00     0.261 A 
ATOM     10  C2  <0> d   1      19.319   1.073  17.647  0.00  0.00     0.267 A 
ATOM     11  O1  <0> d   1      19.687   1.558  18.696  0.00  0.00    -0.269 OA
ATOM     12  N23 <0> d   1      19.074  -0.227  17.393  0.00  0.00    -0.155 NA
ATOM     13  C21 <0> d   1      18.681  -0.417  16.128  0.00  0.00     0.368 A 
ATOM     14  O22 <0> d   1      18.399  -1.503  15.664  0.00  0.00    -0.243 OA
ENDBRANCH   7   8
ENDBRANCH   6   7
ENDBRANCH   1   6
BRANCH   4  15
ATOM     15  C11 <0> d   1      18.217   1.266   8.929  0.00  0.00    -0.002 A 
ATOM     16  C19 <0> d   1      17.574   0.034   8.700  0.00  0.00     0.017 A 
ATOM     17  C18 <0> d   1      17.724  -0.596   7.492  0.00  0.00     0.037 A 
ATOM     18  C14 <0> d   1      18.514  -0.032   6.502  0.00  0.00     0.102 A 
ATOM     19  C13 <0> d   1      19.156   1.178   6.718  0.00  0.00     0.037 A 
ATOM     20  C12 <0> d   1      19.017   1.830   7.916  0.00  0.00     0.017 A 
BRANCH  18  21
ATOM     21  N15 <0> d   1      18.673  -0.727   5.204  0.00  0.00    -0.116 N 
ATOM     22  O16 <0> d   1      19.878  -0.954   4.722  0.00  0.00    -0.532 OA
ATOM     23  O17 <0> d   1      17.611  -1.117   4.532  0.00  0.00    -0.532 OA
ENDBRANCH  18  21
ENDBRANCH   4  15
TORSDOF 5
ENDMDL
MODEL 2
REMARK VINA RESULT:      -8.2      1.378      2.230
REMARK  5 active torsions:
REMARK  status: ('A' for Active; 'I' for Inactive)
REMARK    1  A    between atoms: N4_4  and  N5_5 
REMARK    2  A    between atoms: N5_5  and  C6_6 
REMARK    3  A    between atoms: C6_6  and  C7_7 
REMARK    4  A    between atoms: C10_10  and  C11_11 
REMARK    5  A    between atoms: C14_14  and  N15_15 
ROOT
ATOM      1  C7  <0> d   1      18.118   2.144  12.133  0.00  0.00     0.095 A 
ATOM      2  C8  <0> d   1      18.030   3.447  11.457  0.00  0.00     0.041 A 
ATOM      3  C9  <0> d   1      18.097   3.191  10.126  0.00  0.00     0.041 A 
ATOM      4  C10 <0> d   1      18.223   1.788   9.966  0.00  0.00     0.086 A 
ATOM      5  O20 <0> d   1      18.237   1.200  11.174  0.00  0.00    -0.308 OA
ENDROOT
BRANCH   1   6
ATOM      6  C6  <0> d   1      18.091   1.925  13.503  0.00  0.00     0.176 C 
BRANCH   6   7
ATOM      7  N5  <0> d   1      18.243   2.944  14.343  0.00  0.00    -0.177 NA
BRANCH   7   8
ATOM      8  N4  <0> d   1      18.744   2.746  15.514  0.00  0.00    -0.209 N 
ATOM      9  C3  <0> d   1      18.658   1.510  16.310  0.00  0.00     0.261 A 
ATOM     10  C2  <0> d   1      19.415   1.850  17.579  0.00  0.00     0.267 A 
ATOM     11  O1  <0> d   1      19.605   1.127  18.534  0.00  0.00    -0.269 OA
ATOM     12  N23 <0> d   1      19.826   3.124  17.427  0.00  0.00    -0.155 NA
ATOM     13  C21 <0> d   1      19.445   3.628  16.248  0.00  0.00     0.368 A 
ATOM     14  O22 <0> d   1      19.701   4.757  15.882  0.00  0.00    -0.243 OA
ENDBRANCH   7   8
ENDBRANCH   6   7
ENDBRANCH   1   6
BRANCH   4  15
ATOM     15  C11 <0> d   1      18.323   1.112   8.725  0.00  0.00    -0.002 A 
ATOM     16  C19 <0> d   1      19.022   1.698   7.652  0.00  0.00     0.017 A 
ATOM     17  C18 <0> d   1      19.117   1.032   6.458  0.00  0.00     0.037 A 
ATOM     18  C14 <0> d   1      18.517  -0.208   6.299  0.00  0.00     0.102 A 
ATOM     19  C13 <0> d   1      17.821  -0.793   7.347  0.00  0.00     0.037 A 
ATOM     20  C12 <0> d   1      17.718  -0.148   8.553  0.00  0.00     0.017 A 
BRANCH  18  21
ATOM     21  N15 <0> d   1      18.621  -0.914   5.002  0.00  0.00    -0.116 N 
ATOM     22  O16 <0> d   1      17.530  -1.288   4.367  0.00  0.00    -0.532 OA
ATOM     23  O17 <0> d   1      19.804  -1.169   4.484  0.00  0.00    -0.532 OA
ENDBRANCH  18  21
ENDBRANCH   4  15
TORSDOF 5
ENDMDL
MODEL 3
REMARK VINA RESULT:      -8.0      2.533      9.464
REMARK  5 active torsions:
REMARK  status: ('A' for Active; 'I' for Inactive)
REMARK    1  A    between atoms: N4_4  and  N5_5 
REMARK    2  A    between atoms: N5_5  and  C6_6 
REMARK    3  A    between atoms: C6_6  and  C7_7 
REMARK    4  A    between atoms: C10_10  and  C11_11 
REMARK    5  A    between atoms: C14_14  and  N15_15 
ROOT
ATOM      1  C7  <0> d   1      19.193  -1.511  10.619  0.00  0.00     0.095 A 
ATOM      2  C8  <0> d   1      18.838  -2.834  11.155  0.00  0.00     0.041 A 
ATOM      3  C9  <0> d   1      18.696  -2.676  12.496  0.00  0.00     0.041 A 
ATOM      4  C10 <0> d   1      18.951  -1.315  12.795  0.00  0.00     0.086 A 
ATOM      5  O20 <0> d   1      19.246  -0.655  11.663  0.00  0.00    -0.308 OA
ENDROOT
BRANCH   1   6
ATOM      6  C6  <0> d   1      19.435  -1.202   9.288  0.00  0.00     0.176 C 
BRANCH   6   7
ATOM      7  N5  <0> d   1      18.951  -1.979   8.326  0.00  0.00    -0.177 NA
BRANCH   7   8
ATOM      8  N4  <0> d   1      19.141  -1.668   7.088  0.00  0.00    -0.209 N 
ATOM      9  C3  <0> d   1      18.843  -0.375   6.450  0.00  0.00     0.261 A 
ATOM     10  C2  <0> d   1      19.262  -0.584   5.009  0.00  0.00     0.267 A 
ATOM     11  O1  <0> d   1      19.199   0.221   4.104  0.00  0.00    -0.269 OA
ATOM     12  N23 <0> d   1      19.715  -1.851   4.941  0.00  0.00    -0.155 NA
ATOM     13  C21 <0> d   1      19.648  -2.463   6.129  0.00  0.00     0.368 A 
ATOM     14  O22 <0> d   1      20.002  -3.609   6.320  0.00  0.00    -0.243 OA
ENDBRANCH   7   8
ENDBRANCH   6   7
ENDBRANCH   1   6
BRANCH   4  15
ATOM     15  C11 <0> d   1      18.904  -0.739  14.089  0.00  0.00    -0.002 A 
ATOM     16  C19 <0> d   1      18.621  -1.541  15.213  0.00  0.00     0.017 A 
ATOM     17  C18 <0> d   1      18.584  -0.974  16.460  0.00  0.00     0.037 A 
ATOM     18  C14 <0> d   1      18.813   0.384  16.618  0.00  0.00     0.102 A 
ATOM     19  C13 <0> d   1      19.088   1.185  15.519  0.00  0.00     0.037 A 
ATOM     20  C12 <0> d   1      19.135   0.640  14.262  0.00  0.00     0.017 A 
BRANCH  18  21
ATOM     21  N15 <0> d   1      18.765   0.985  17.970  0.00  0.00    -0.116 N 
ATOM     22  O16 <0> d   1      19.879   1.356  18.567  0.00  0.00    -0.532 OA
ATOM     23  O17 <0> d   1      17.608   1.149  18.576  0.00  0.00    -0.532 OA
ENDBRANCH  18  21
ENDBRANCH   4  15
TORSDOF 5
ENDMDL
MODEL 4
REMARK VINA RESULT:      -8.0      3.664      9.469
REMARK  5 active torsions:
REMARK  status: ('A' for Active; 'I' for Inactive)
REMARK    1  A    between atoms: N4_4  and  N5_5 
REMARK    2  A    between atoms: N5_5  and  C6_6 
REMARK    3  A    between atoms: C6_6  and  C7_7 
REMARK    4  A    between atoms: C10_10  and  C11_11 
REMARK    5  A    between atoms: C14_14  and  N15_15 
ROOT
ATOM      1  C7  <0> d   1      18.922  -2.982  11.830  0.00  0.00     0.095 A 
ATOM      2  C8  <0> d   1      17.758  -2.209  11.373  0.00  0.00     0.041 A 
ATOM      3  C9  <0> d   1      17.481  -1.318  12.357  0.00  0.00     0.041 A 
ATOM      4  C10 <0> d   1      18.427  -1.517  13.393  0.00  0.00     0.086 A 
ATOM      5  O20 <0> d   1      19.262  -2.512  13.050  0.00  0.00    -0.308 OA
ENDROOT
BRANCH   1   6
ATOM      6  C6  <0> d   1      19.552  -4.008  11.140  0.00  0.00     0.176 C 
BRANCH   6   7
ATOM      7  N5  <0> d   1      18.910  -4.645  10.166  0.00  0.00    -0.177 NA
BRANCH   7   8
ATOM      8  N4  <0> d   1      19.316  -4.535   8.946  0.00  0.00    -0.209 N 
ATOM      9  C3  <0> d   1      19.121  -3.379   8.055  0.00  0.00     0.261 A 
ATOM     10  C2  <0> d   1      19.796  -3.805   6.767  0.00  0.00     0.267 A 
ATOM     11  O1  <0> d   1      19.886  -3.164   5.741  0.00  0.00    -0.269 OA
ATOM     12  N23 <0> d   1      20.271  -5.044   6.996  0.00  0.00    -0.155 NA
ATOM     13  C21 <0> d   1      19.999  -5.454   8.241  0.00  0.00     0.368 A 
ATOM     14  O22 <0> d   1      20.329  -6.536   8.683  0.00  0.00    -0.243 OA
ENDBRANCH   7   8
ENDBRANCH   6   7
ENDBRANCH   1   6
BRANCH   4  15
ATOM     15  C11 <0> d   1      18.482  -0.782  14.604  0.00  0.00    -0.002 A 
ATOM     16  C19 <0> d   1      18.866   0.573  14.595  0.00  0.00     0.017 A 
ATOM     17  C18 <0> d   1      18.910   1.275  15.771  0.00  0.00     0.037 A 
ATOM     18  C14 <0> d   1      18.590   0.653  16.968  0.00  0.00     0.102 A 
ATOM     19  C13 <0> d   1      18.215  -0.682  16.990  0.00  0.00     0.037 A 
ATOM     20  C12 <0> d   1      18.159  -1.403  15.826  0.00  0.00     0.017 A 
BRANCH  18  21
ATOM     21  N15 <0> d   1      18.647   1.421  18.233  0.00  0.00    -0.116 N 
ATOM     22  O16 <0> d   1      17.543   1.657  18.911  0.00  0.00    -0.532 OA
ATOM     23  O17 <0> d   1      19.802   1.867  18.680  0.00  0.00    -0.532 OA
ENDBRANCH  18  21
ENDBRANCH   4  15
TORSDOF 5
ENDMDL
MODEL 5
REMARK VINA RESULT:      -7.9      1.405      1.769
REMARK  5 active torsions:
REMARK  status: ('A' for Active; 'I' for Inactive)
REMARK    1  A    between atoms: N4_4  and  N5_5 
REMARK    2  A    between atoms: N5_5  and  C6_6 
REMARK    3  A    between atoms: C6_6  and  C7_7 
REMARK    4  A    between atoms: C10_10  and  C11_11 
REMARK    5  A    between atoms: C14_14  and  N15_15 
ROOT
ATOM      1  C7  <0> d   1      19.322   1.576  12.391  0.00  0.00     0.095 A 
ATOM      2  C8  <0> d   1      20.391   0.578  12.546  0.00  0.00     0.041 A 
ATOM      3  C9  <0> d   1      20.511  -0.043  11.346  0.00  0.00     0.041 A 
ATOM      4  C10 <0> d   1      19.560   0.534  10.469  0.00  0.00     0.086 A 
ATOM      5  O20 <0> d   1      18.870   1.486  11.121  0.00  0.00    -0.308 OA
ENDROOT
BRANCH   1   6
ATOM      6  C6  <0> d   1      18.859   2.445  13.369  0.00  0.00     0.176 C 
BRANCH   6   7
ATOM      7  N5  <0> d   1      17.968   2.026  14.261  0.00  0.00    -0.177 NA
BRANCH   7   8
ATOM      8  N4  <0> d   1      18.363   1.556  15.396  0.00  0.00    -0.209 N 
ATOM      9  C3  <0> d   1      19.045   2.301  16.467  0.00  0.00     0.261 A 
ATOM     10  C2  <0> d   1      19.265   1.256  17.543  0.00  0.00     0.267 A 
ATOM     11  O1  <0> d   1      19.798   1.415  18.620  0.00  0.00    -0.269 OA
ATOM     12  N23 <0> d   1      18.749   0.113  17.051  0.00  0.00    -0.155 NA
ATOM     13  C21 <0> d   1      18.232   0.290  15.830  0.00  0.00     0.368 A 
ATOM     14  O22 <0> d   1      17.708  -0.594  15.183  0.00  0.00    -0.243 OA
ENDBRANCH   7   8
ENDBRANCH   6   7
ENDBRANCH   1   6
BRANCH   4  15
ATOM     15  C11 <0> d   1      19.364   0.163   9.116  0.00  0.00    -0.002 A 
ATOM     16  C19 <0> d   1      19.370  -1.196   8.744  0.00  0.00     0.017 A 
ATOM     17  C18 <0> d   1      19.174  -1.543   7.433  0.00  0.00     0.037 A 
ATOM     18  C14 <0> d   1      18.981  -0.563   6.472  0.00  0.00     0.102 A 
ATOM     19  C13 <0> d   1      18.978   0.779   6.824  0.00  0.00     0.037 A 
ATOM     20  C12 <0> d   1      19.167   1.150   8.130  0.00  0.00     0.017 A 
BRANCH  18  21
ATOM     21  N15 <0> d   1      18.777  -0.951   5.058  0.00  0.00    -0.116 N 
ATOM     22  O16 <0> d   1      17.562  -0.970   4.549  0.00  0.00    -0.532 OA
ATOM     23  O17 <0> d   1      19.809  -1.278   4.309  0.00  0.00    -0.532 OA
ENDBRANCH  18  21
ENDBRANCH   4  15
TORSDOF 5
ENDMDL
MODEL 6
REMARK VINA RESULT:      -7.9      1.682      1.972
REMARK  5 active torsions:
REMARK  status: ('A' for Active; 'I' for Inactive)
REMARK    1  A    between atoms: N4_4  and  N5_5 
REMARK    2  A    between atoms: N5_5  and  C6_6 
REMARK    3  A    between atoms: C6_6  and  C7_7 
REMARK    4  A    between atoms: C10_10  and  C11_11 
REMARK    5  A    between atoms: C14_14  and  N15_15 
ROOT
ATOM      1  C7  <0> d   1      18.534  -0.034  12.701  0.00  0.00     0.095 A 
ATOM      2  C8  <0> d   1      17.116   0.234  12.420  0.00  0.00     0.041 A 
ATOM      3  C9  <0> d   1      16.973   0.162  11.073  0.00  0.00     0.041 A 
ATOM      4  C10 <0> d   1      18.245  -0.137  10.524  0.00  0.00     0.086 A 
ATOM      5  O20 <0> d   1      19.146  -0.241  11.514  0.00  0.00    -0.308 OA
ENDROOT
BRANCH   1   6
ATOM      6  C6  <0> d   1      19.134  -0.061  13.952  0.00  0.00     0.176 C 
BRANCH   6   7
ATOM      7  N5  <0> d   1      18.402  -0.296  15.035  0.00  0.00    -0.177 NA
BRANCH   7   8
ATOM      8  N4  <0> d   1      18.799   0.128  16.187  0.00  0.00    -0.209 N 
ATOM      9  C3  <0> d   1      18.811   1.525  16.653  0.00  0.00     0.261 A 
ATOM     10  C2  <0> d   1      19.371   1.427  18.058  0.00  0.00     0.267 A 
ATOM     11  O1  <0> d   1      19.564   2.337  18.835  0.00  0.00    -0.269 OA
ATOM     12  N23 <0> d   1      19.615   0.117  18.262  0.00  0.00    -0.155 NA
ATOM     13  C21 <0> d   1      19.283  -0.619  17.195  0.00  0.00     0.368 A 
ATOM     14  O22 <0> d   1      19.409  -1.825  17.141  0.00  0.00    -0.243 OA
ENDBRANCH   7   8
ENDBRANCH   6   7
ENDBRANCH   1   6
BRANCH   4  15
ATOM     15  C11 <0> d   1      18.523  -0.297   9.143  0.00  0.00    -0.002 A 
ATOM     16  C19 <0> d   1      18.470   0.812   8.276  0.00  0.00     0.017 A 
ATOM     17  C18 <0> d   1      18.747   0.646   6.944  0.00  0.00     0.037 A 
ATOM     18  C14 <0> d   1      19.066  -0.608   6.447  0.00  0.00     0.102 A 
ATOM     19  C13 <0> d   1      19.117  -1.708   7.290  0.00  0.00     0.037 A 
ATOM     20  C12 <0> d   1      18.849  -1.566   8.628  0.00  0.00     0.017 A 
BRANCH  18  21
ATOM     21  N15 <0> d   1      19.357  -0.775   5.005  0.00  0.00    -0.116 N 
ATOM     22  O16 <0> d   1      19.196   0.239   4.179  0.00  0.00    -0.532 OA
ATOM     23  O17 <0> d   1      19.775  -1.936   4.547  0.00  0.00    -0.532 OA
ENDBRANCH  18  21
ENDBRANCH   4  15
TORSDOF 5
ENDMDL
MODEL 7
REMARK VINA RESULT:      -7.6      2.932      9.427
REMARK  5 active torsions:
REMARK  status: ('A' for Active; 'I' for Inactive)
REMARK    1  A    between atoms: N4_4  and  N5_5 
REMARK    2  A    between atoms: N5_5  and  C6_6 
REMARK    3  A    between atoms: C6_6  and  C7_7 
REMARK    4  A    between atoms: C10_10  and  C11_11 
REMARK    5  A    between atoms: C14_14  and  N15_15 
ROOT
ATOM      1  C7  <0> d   1      19.274  -1.509  10.650  0.00  0.00     0.095 A 
ATOM      2  C8  <0> d   1      19.536  -2.827  11.249  0.00  0.00     0.041 A 
ATOM      3  C9  <0> d   1      19.489  -2.651  12.594  0.00  0.00     0.041 A 
ATOM      4  C10 <0> d   1      19.210  -1.283  12.836  0.00  0.00     0.086 A 
ATOM      5  O20 <0> d   1      19.094  -0.636  11.665  0.00  0.00    -0.308 OA
ENDROOT
BRANCH   1   6
ATOM      6  C6  <0> d   1      19.228  -1.217   9.294  0.00  0.00     0.176 C 
BRANCH   6   7
ATOM      7  N5  <0> d   1      18.418  -1.901   8.494  0.00  0.00    -0.177 NA
BRANCH   7   8
ATOM      8  N4  <0> d   1      18.895  -2.822   7.727  0.00  0.00    -0.209 N 
ATOM      9  C3  <0> d   1      18.913  -4.269   7.998  0.00  0.00     0.261 A 
ATOM     10  C2  <0> d   1      19.584  -4.853   6.770  0.00  0.00     0.267 A 
ATOM     11  O1  <0> d   1      19.817  -6.022   6.549  0.00  0.00    -0.269 OA
ATOM     12  N23 <0> d   1      19.871  -3.801   5.978  0.00  0.00    -0.155 NA
ATOM     13  C21 <0> d   1      19.473  -2.647   6.526  0.00  0.00     0.368 A 
ATOM     14  O22 <0> d   1      19.620  -1.563   5.999  0.00  0.00    -0.243 OA
ENDBRANCH   7   8
ENDBRANCH   6   7
ENDBRANCH   1   6
BRANCH   4  15
ATOM     15  C11 <0> d   1      19.078  -0.689  14.116  0.00  0.00    -0.002 A 
ATOM     16  C19 <0> d   1      19.368   0.677  14.298  0.00  0.00     0.017 A 
ATOM     17  C18 <0> d   1      19.231   1.242  15.539  0.00  0.00     0.037 A 
ATOM     18  C14 <0> d   1      18.821   0.471  16.616  0.00  0.00     0.102 A 
ATOM     19  C13 <0> d   1      18.538  -0.877  16.451  0.00  0.00     0.037 A 
ATOM     20  C12 <0> d   1      18.662  -1.462  15.217  0.00  0.00     0.017 A 
BRANCH  18  21
ATOM     21  N15 <0> d   1      18.683   1.091  17.954  0.00  0.00    -0.116 N 
ATOM     22  O16 <0> d   1      19.749   1.538  18.585  0.00  0.00    -0.532 OA
ATOM     23  O17 <0> d   1      17.496   1.197  18.512  0.00  0.00    -0.532 OA
ENDBRANCH  18  21
ENDBRANCH   4  15
TORSDOF 5
ENDMDL
MODEL 8
REMARK VINA RESULT:      -7.5      2.441      9.161
REMARK  5 active torsions:
REMARK  status: ('A' for Active; 'I' for Inactive)
REMARK    1  A    between atoms: N4_4  and  N5_5 
REMARK    2  A    between atoms: N5_5  and  C6_6 
REMARK    3  A    between atoms: C6_6  and  C7_7 
REMARK    4  A    between atoms: C10_10  and  C11_11 
REMARK    5  A    between atoms: C14_14  and  N15_15 
ROOT
ATOM      1  C7  <0> d   1      19.332  -1.856  10.572  0.00  0.00     0.095 A 
ATOM      2  C8  <0> d   1      20.295  -0.760  10.391  0.00  0.00     0.041 A 
ATOM      3  C9  <0> d   1      20.363  -0.111  11.581  0.00  0.00     0.041 A 
ATOM      4  C10 <0> d   1      19.482  -0.767  12.476  0.00  0.00     0.086 A 
ATOM      5  O20 <0> d   1      18.885  -1.792  11.845  0.00  0.00    -0.308 OA
ENDROOT
BRANCH   1   6
ATOM      6  C6  <0> d   1      18.950  -2.782   9.612  0.00  0.00     0.176 C 
BRANCH   6   7
ATOM      7  N5  <0> d   1      18.018  -2.467   8.719  0.00  0.00    -0.177 NA
BRANCH   7   8
ATOM      8  N4  <0> d   1      18.344  -1.842   7.639  0.00  0.00    -0.209 N 
ATOM      9  C3  <0> d   1      19.277  -2.310   6.599  0.00  0.00     0.261 A 
ATOM     10  C2  <0> d   1      19.273  -1.185   5.584  0.00  0.00     0.267 A 
ATOM     11  O1  <0> d   1      19.901  -1.130   4.549  0.00  0.00    -0.269 OA
ATOM     12  N23 <0> d   1      18.430  -0.255   6.074  0.00  0.00    -0.155 NA
ATOM     13  C21 <0> d   1      17.900  -0.636   7.242  0.00  0.00     0.368 A 
ATOM     14  O22 <0> d   1      17.109   0.033   7.876  0.00  0.00    -0.243 OA
ENDBRANCH   7   8
ENDBRANCH   6   7
ENDBRANCH   1   6
BRANCH   4  15
ATOM     15  C11 <0> d   1      19.262  -0.397  13.826  0.00  0.00    -0.002 A 
ATOM     16  C19 <0> d   1      19.305   0.959  14.206  0.00  0.00     0.017 A 
ATOM     17  C18 <0> d   1      19.085   1.306  15.514  0.00  0.00     0.037 A 
ATOM     18  C14 <0> d   1      18.832   0.328  16.463  0.00  0.00     0.102 A 
ATOM     19  C13 <0> d   1      18.792  -1.011  16.102  0.00  0.00     0.037 A 
ATOM     20  C12 <0> d   1      19.004  -1.382  14.799  0.00  0.00     0.017 A 
BRANCH  18  21
ATOM     21  N15 <0> d   1      18.603   0.715  17.874  0.00  0.00    -0.116 N 
ATOM     22  O16 <0> d   1      18.203   1.936  18.165  0.00  0.00    -0.532 OA
ATOM     23  O17 <0> d   1      18.798  -0.161  18.837  0.00  0.00    -0.532 OA
ENDBRANCH  18  21
ENDBRANCH   4  15
TORSDOF 5
ENDMDL
MODEL 9
REMARK VINA RESULT:      -7.4      3.632      9.001
REMARK  5 active torsions:
REMARK  status: ('A' for Active; 'I' for Inactive)
REMARK    1  A    between atoms: N4_4  and  N5_5 
REMARK    2  A    between atoms: N5_5  and  C6_6 
REMARK    3  A    between atoms: C6_6  and  C7_7 
REMARK    4  A    between atoms: C10_10  and  C11_11 
REMARK    5  A    between atoms: C14_14  and  N15_15 
ROOT
ATOM      1  C7  <0> d   1      18.614   0.163   8.384  0.00  0.00     0.095 A 
ATOM      2  C8  <0> d   1      19.103   1.219   7.485  0.00  0.00     0.041 A 
ATOM      3  C9  <0> d   1      19.120   2.364   8.214  0.00  0.00     0.041 A 
ATOM      4  C10 <0> d   1      18.661   2.047   9.517  0.00  0.00     0.086 A 
ATOM      5  O20 <0> d   1      18.367   0.738   9.582  0.00  0.00    -0.308 OA
ENDROOT
BRANCH   1   6
ATOM      6  C6  <0> d   1      18.434  -1.174   8.061  0.00  0.00     0.176 C 
BRANCH   6   7
ATOM      7  N5  <0> d   1      19.368  -1.823   7.374  0.00  0.00    -0.177 NA
BRANCH   7   8
ATOM      8  N4  <0> d   1      19.045  -2.490   6.318  0.00  0.00    -0.209 N 
ATOM      9  C3  <0> d   1      18.354  -3.790   6.276  0.00  0.00     0.261 A 
ATOM     10  C2  <0> d   1      18.243  -4.087   4.793  0.00  0.00     0.267 A 
ATOM     11  O1  <0> d   1      17.740  -5.062   4.277  0.00  0.00    -0.269 OA
ATOM     12  N23 <0> d   1      18.824  -3.044   4.169  0.00  0.00    -0.155 NA
ATOM     13  C21 <0> d   1      19.275  -2.135   5.041  0.00  0.00     0.368 A 
ATOM     14  O22 <0> d   1      19.833  -1.106   4.717  0.00  0.00    -0.243 OA
ENDBRANCH   7   8
ENDBRANCH   6   7
ENDBRANCH   1   6
BRANCH   4  15
ATOM     15  C11 <0> d   1      18.531   2.969  10.585  0.00  0.00    -0.002 A 
ATOM     16  C19 <0> d   1      19.627   3.241  11.426  0.00  0.00     0.017 A 
ATOM     17  C18 <0> d   1      19.490   4.139  12.453  0.00  0.00     0.037 A 
ATOM     18  C14 <0> d   1      18.276   4.770  12.672  0.00  0.00     0.102 A 
ATOM     19  C13 <0> d   1      17.187   4.507  11.854  0.00  0.00     0.037 A 
ATOM     20  C12 <0> d   1      17.301   3.616  10.818  0.00  0.00     0.017 A 
BRANCH  18  21
ATOM     21  N15 <0> d   1      18.139   5.733  13.788  0.00  0.00    -0.116 N 
ATOM     22  O16 <0> d   1      19.011   5.726  14.775  0.00  0.00    -0.532 OA
ATOM     23  O17 <0> d   1      17.146   6.598  13.794  0.00  0.00    -0.532 OA
ENDBRANCH  18  21
ENDBRANCH   4  15
TORSDOF 5
ENDMDL
