MODEL 1
REMARK VINA RESULT:      -8.9      0.000      0.000
REMARK  10 active torsions:
REMARK  status: ('A' for Active; 'I' for Inactive)
REMARK    1  A    between atoms: C2_2  and  O3_3 
REMARK    2  A    between atoms: O3_3  and  C4_4 
REMARK    3  A    between atoms: C4_4  and  C6_6 
REMARK    4  A    between atoms: C6_6  and  C8_7 
REMARK    5  A    between atoms: C6_6  and  N16_15 
REMARK    6  A    between atoms: C8_7  and  C9_8 
REMARK    7  A    between atoms: C9_8  and  C10_9 
REMARK    8  A    between atoms: N16_15  and  C17_16 
REMARK    9  A    between atoms: C17_16  and  C20_18 
REMARK       I    between atoms: C20_18  and  N22_20 
REMARK   10  A    between atoms: C31_29  and  C33_30 
ROOT
ATOM      1  C17 ZIN A   1      18.575  -3.630   7.731  0.00  0.00     0.308 C 
ATOM      2  C19 ZIN A   1      19.713  -4.632   7.525  0.00  0.00     0.053 C 
ENDROOT
BRANCH   1   3
ATOM      3  N16 ZIN A   1      17.287  -4.295   7.486  0.00  0.00     0.111 N 
ATOM      4  H50 ZIN A   1      17.127  -4.419   6.498  0.00  0.00     0.318 HD
BRANCH   3   5
ATOM      5  C6  ZIN A   1      17.214  -5.577   8.198  0.00  0.00     0.320 C 
BRANCH   5   6
ATOM      6  C4  ZIN A   1      16.499  -6.589   7.339  0.00  0.00     0.292 C 
ATOM      7  O5  ZIN A   1      17.062  -7.079   6.389  0.00  0.00    -0.263 OA
BRANCH   6   8
ATOM      8  O3  ZIN A   1      15.238  -6.944   7.630  0.00  0.00    -0.320 OA
BRANCH   8   9
ATOM      9  C2  ZIN A   1      14.197  -6.469   6.736  0.00  0.00     0.174 C 
ATOM     10  C1  ZIN A   1      12.871  -6.388   7.495  0.00  0.00     0.034 C 
ENDBRANCH   8   9
ENDBRANCH   6   8
ENDBRANCH   5   6
BRANCH   5  11
ATOM     11  C8  ZIN A   1      16.446  -5.390   9.509  0.00  0.00     0.051 C 
BRANCH  11  12
ATOM     12  C9  ZIN A   1      17.336  -5.805  10.684  0.00  0.00     0.041 C 
BRANCH  12  13
ATOM     13  C10 ZIN A   1      18.102  -4.607  11.181  0.00  0.00    -0.058 A 
ATOM     14  C15 ZIN A   1      19.483  -4.635  11.215  0.00  0.00     0.007 A 
ATOM     15  C14 ZIN A   1      20.187  -3.534  11.667  0.00  0.00     0.001 A 
ATOM     16  C13 ZIN A   1      19.508  -2.408  12.093  0.00  0.00     0.000 A 
ATOM     17  C12 ZIN A   1      18.126  -2.381  12.063  0.00  0.00     0.001 A 
ATOM     18  C11 ZIN A   1      17.423  -3.481  11.607  0.00  0.00     0.007 A 
ENDBRANCH  12  13
ENDBRANCH  11  12
ENDBRANCH   5  11
ENDBRANCH   3   5
ENDBRANCH   1   3
BRANCH   1  19
ATOM     19  C20 ZIN A   1      18.738  -2.481   6.771  0.00  0.00     0.254 C 
ATOM     20  O21 ZIN A   1      19.365  -2.633   5.744  0.00  0.00    -0.271 OA
ATOM     21  N22 ZIN A   1      18.186  -1.284   7.052  0.00  0.00    -0.331 N 
ATOM     22  C31 ZIN A   1      18.225  -0.176   6.083  0.00  0.00     0.192 C 
ATOM     23  C23 ZIN A   1      17.528  -1.031   8.338  0.00  0.00     0.166 C 
ATOM     24  C30 ZIN A   1      19.058   0.950   6.682  0.00  0.00     0.075 C 
ATOM     25  C29 ZIN A   1      18.644   1.225   8.103  0.00  0.00    -0.048 A 
ATOM     26  C24 ZIN A   1      17.955   0.313   8.871  0.00  0.00    -0.034 A 
ATOM     27  C28 ZIN A   1      18.993   2.454   8.650  0.00  0.00     0.008 A 
ATOM     28  C25 ZIN A   1      17.630   0.622  10.185  0.00  0.00     0.009 A 
ATOM     29  C26 ZIN A   1      17.984   1.841  10.726  0.00  0.00     0.001 A 
ATOM     30  C27 ZIN A   1      18.667   2.761   9.954  0.00  0.00     0.001 A 
BRANCH  22  31
ATOM     31  C33 ZIN A   1      18.853  -0.645   4.795  0.00  0.00     0.197 C 
ATOM     32  O34 ZIN A   1      18.154  -1.118   3.915  0.00  0.00    -0.646 OA
ATOM     33  O35 ZIN A   1      20.057  -0.553   4.635  0.00  0.00    -0.646 OA
ENDBRANCH  22  31
ENDBRANCH   1  19
TORSDOF 10
ENDMDL
MODEL 2
REMARK VINA RESULT:      -8.3      7.249     11.207
REMARK  10 active torsions:
REMARK  status: ('A' for Active; 'I' for Inactive)
REMARK    1  A    between atoms: C2_2  and  O3_3 
REMARK    2  A    between atoms: O3_3  and  C4_4 
REMARK    3  A    between atoms: C4_4  and  C6_6 
REMARK    4  A    between atoms: C6_6  and  C8_7 
REMARK    5  A    between atoms: C6_6  and  N16_15 
REMARK    6  A    between atoms: C8_7  and  C9_8 
REMARK    7  A    between atoms: C9_8  and  C10_9 
REMARK    8  A    between atoms: N16_15  and  C17_16 
REMARK    9  A    between atoms: C17_16  and  C20_18 
REMARK       I    between atoms: C20_18  and  N22_20 
REMARK   10  A    between atoms: C31_29  and  C33_30 
ROOT
ATOM      1  C17 ZIN A   1      18.830   3.823  15.875  0.00  0.00     0.308 C 
ATOM      2  C19 ZIN A   1      20.122   4.587  16.176  0.00  0.00     0.053 C 
ENDROOT
BRANCH   1   3
ATOM      3  N16 ZIN A   1      17.679   4.604  16.348  0.00  0.00     0.111 N 
ATOM      4  H50 ZIN A   1      17.878   5.038  17.237  0.00  0.00     0.318 HD
BRANCH   3   5
ATOM      5  C6  ZIN A   1      17.275   5.603  15.352  0.00  0.00     0.320 C 
BRANCH   5   6
ATOM      6  C4  ZIN A   1      16.173   6.462  15.919  0.00  0.00     0.292 C 
ATOM      7  O5  ZIN A   1      15.021   6.113  15.814  0.00  0.00    -0.263 OA
BRANCH   6   8
ATOM      8  O3  ZIN A   1      16.472   7.613  16.539  0.00  0.00    -0.320 OA
BRANCH   8   9
ATOM      9  C2  ZIN A   1      17.578   8.385  16.000  0.00  0.00     0.174 C 
ATOM     10  C1  ZIN A   1      17.104   9.166  14.772  0.00  0.00     0.034 C 
ENDBRANCH   8   9
ENDBRANCH   6   8
ENDBRANCH   5   6
BRANCH   5  11
ATOM     11  C8  ZIN A   1      16.770   4.894  14.093  0.00  0.00     0.051 C 
BRANCH  11  12
ATOM     12  C9  ZIN A   1      17.362   5.571  12.855  0.00  0.00     0.041 C 
BRANCH  12  13
ATOM     13  C10 ZIN A   1      18.050   4.539  12.000  0.00  0.00    -0.058 A 
ATOM     14  C15 ZIN A   1      19.334   4.130  12.307  0.00  0.00     0.007 A 
ATOM     15  C14 ZIN A   1      19.964   3.180  11.525  0.00  0.00     0.001 A 
ATOM     16  C13 ZIN A   1      19.313   2.646  10.429  0.00  0.00     0.000 A 
ATOM     17  C12 ZIN A   1      18.030   3.058  10.118  0.00  0.00     0.001 A 
ATOM     18  C11 ZIN A   1      17.399   4.005  10.903  0.00  0.00     0.007 A 
ENDBRANCH  12  13
ENDBRANCH  11  12
ENDBRANCH   5  11
ENDBRANCH   3   5
ENDBRANCH   1   3
BRANCH   1  19
ATOM     19  C20 ZIN A   1      18.859   2.491  16.578  0.00  0.00     0.254 C 
ATOM     20  O21 ZIN A   1      19.442   2.376  17.635  0.00  0.00    -0.271 OA
ATOM     21  N22 ZIN A   1      18.236   1.427  16.033  0.00  0.00    -0.331 N 
ATOM     22  C31 ZIN A   1      18.144   0.144  16.748  0.00  0.00     0.192 C 
ATOM     23  C23 ZIN A   1      17.629   1.500  14.700  0.00  0.00     0.166 C 
ATOM     24  C30 ZIN A   1      18.921  -0.899  15.956  0.00  0.00     0.075 C 
ATOM     25  C29 ZIN A   1      18.562  -0.840  14.495  0.00  0.00    -0.048 A 
ATOM     26  C24 ZIN A   1      17.982   0.264  13.912  0.00  0.00    -0.034 A 
ATOM     27  C28 ZIN A   1      18.848  -1.954  13.716  0.00  0.00     0.008 A 
ATOM     28  C25 ZIN A   1      17.704   0.261  12.552  0.00  0.00     0.009 A 
ATOM     29  C26 ZIN A   1      17.995  -0.845  11.780  0.00  0.00     0.001 A 
ATOM     30  C27 ZIN A   1      18.568  -1.958  12.366  0.00  0.00     0.001 A 
BRANCH  22  31
ATOM     31  C33 ZIN A   1      18.736   0.285  18.127  0.00  0.00     0.197 C 
ATOM     32  O34 ZIN A   1      18.037   0.650  19.056  0.00  0.00    -0.646 OA
ATOM     33  O35 ZIN A   1      19.914   0.033  18.313  0.00  0.00    -0.646 OA
ENDBRANCH  22  31
ENDBRANCH   1  19
TORSDOF 10
ENDMDL
MODEL 3
REMARK VINA RESULT:      -8.2      3.870      6.523
REMARK  10 active torsions:
REMARK  status: ('A' for Active; 'I' for Inactive)
REMARK    1  A    between atoms: C2_2  and  O3_3 
REMARK    2  A    between atoms: O3_3  and  C4_4 
REMARK    3  A    between atoms: C4_4  and  C6_6 
REMARK    4  A    between atoms: C6_6  and  C8_7 
REMARK    5  A    between atoms: C6_6  and  N16_15 
REMARK    6  A    between atoms: C8_7  and  C9_8 
REMARK    7  A    between atoms: C9_8  and  C10_9 
REMARK    8  A    between atoms: N16_15  and  C17_16 
REMARK    9  A    between atoms: C17_16  and  C20_18 
REMARK       I    between atoms: C20_18  and  N22_20 
REMARK   10  A    between atoms: C31_29  and  C33_30 
ROOT
ATOM      1  C17 ZIN A   1      19.570   0.372  10.451  0.00  0.00     0.308 C 
ATOM      2  C19 ZIN A   1      20.773  -0.398  11.001  0.00  0.00     0.053 C 
ENDROOT
BRANCH   1   3
ATOM      3  N16 ZIN A   1      19.868   0.837   9.089  0.00  0.00     0.111 N 
ATOM      4  H50 ZIN A   1      20.864   0.876   8.931  0.00  0.00     0.318 HD
BRANCH   3   5
ATOM      5  C6  ZIN A   1      19.208  -0.009   8.088  0.00  0.00     0.320 C 
BRANCH   5   6
ATOM      6  C4  ZIN A   1      18.812   0.832   6.901  0.00  0.00     0.292 C 
ATOM      7  O5  ZIN A   1      18.886   2.036   6.963  0.00  0.00    -0.263 OA
BRANCH   6   8
ATOM      8  O3  ZIN A   1      18.376   0.243   5.777  0.00  0.00    -0.320 OA
BRANCH   8   9
ATOM      9  C2  ZIN A   1      19.381  -0.351   4.912  0.00  0.00     0.174 C 
ATOM     10  C1  ZIN A   1      19.017  -1.812   4.638  0.00  0.00     0.034 C 
ENDBRANCH   8   9
ENDBRANCH   6   8
ENDBRANCH   5   6
BRANCH   5  11
ATOM     11  C8  ZIN A   1      17.958  -0.645   8.701  0.00  0.00     0.051 C 
BRANCH  11  12
ATOM     12  C9  ZIN A   1      17.889  -2.121   8.303  0.00  0.00     0.041 C 
BRANCH  12  13
ATOM     13  C10 ZIN A   1      18.273  -2.977   9.481  0.00  0.00    -0.058 A 
ATOM     14  C15 ZIN A   1      19.224  -3.969   9.336  0.00  0.00     0.007 A 
ATOM     15  C14 ZIN A   1      19.580  -4.752  10.418  0.00  0.00     0.001 A 
ATOM     16  C13 ZIN A   1      18.976  -4.548  11.645  0.00  0.00     0.000 A 
ATOM     17  C12 ZIN A   1      18.022  -3.559  11.791  0.00  0.00     0.001 A 
ATOM     18  C11 ZIN A   1      17.670  -2.774  10.708  0.00  0.00     0.007 A 
ENDBRANCH  12  13
ENDBRANCH  11  12
ENDBRANCH   5  11
ENDBRANCH   3   5
ENDBRANCH   1   3
BRANCH   1  19
ATOM     19  C20 ZIN A   1      19.286   1.557  11.336  0.00  0.00     0.254 C 
ATOM     20  O21 ZIN A   1      19.688   2.658  11.024  0.00  0.00    -0.271 OA
ATOM     21  N22 ZIN A   1      18.582   1.395  12.475  0.00  0.00    -0.331 N 
ATOM     22  C31 ZIN A   1      18.185   2.548  13.301  0.00  0.00     0.192 C 
ATOM     23  C23 ZIN A   1      18.187   0.063  12.943  0.00  0.00     0.166 C 
ATOM     24  C30 ZIN A   1      18.888   2.432  14.647  0.00  0.00     0.075 C 
ATOM     25  C29 ZIN A   1      18.751   1.041  15.205  0.00  0.00    -0.048 A 
ATOM     26  C24 ZIN A   1      18.444  -0.052  14.424  0.00  0.00    -0.034 A 
ATOM     27  C28 ZIN A   1      18.961   0.870  16.568  0.00  0.00     0.008 A 
ATOM     28  C25 ZIN A   1      18.363  -1.312  15.001  0.00  0.00     0.009 A 
ATOM     29  C26 ZIN A   1      18.577  -1.478  16.354  0.00  0.00     0.001 A 
ATOM     30  C27 ZIN A   1      18.876  -0.382  17.140  0.00  0.00     0.001 A 
BRANCH  22  31
ATOM     31  C33 ZIN A   1      18.594   3.829  12.620  0.00  0.00     0.197 C 
ATOM     32  O34 ZIN A   1      17.868   4.329  11.777  0.00  0.00    -0.646 OA
ATOM     33  O35 ZIN A   1      19.649   4.364  12.910  0.00  0.00    -0.646 OA
ENDBRANCH  22  31
ENDBRANCH   1  19
TORSDOF 10
ENDMDL
MODEL 4
REMARK VINA RESULT:      -8.0      4.069      7.480
REMARK  10 active torsions:
REMARK  status: ('A' for Active; 'I' for Inactive)
REMARK    1  A    between atoms: C2_2  and  O3_3 
REMARK    2  A    between atoms: O3_3  and  C4_4 
REMARK    3  A    between atoms: C4_4  and  C6_6 
REMARK    4  A    between atoms: C6_6  and  C8_7 
REMARK    5  A    between atoms: C6_6  and  N16_15 
REMARK    6  A    between atoms: C8_7  and  C9_8 
REMARK    7  A    between atoms: C9_8  and  C10_9 
REMARK    8  A    between atoms: N16_15  and  C17_16 
REMARK    9  A    between atoms: C17_16  and  C20_18 
REMARK       I    between atoms: C20_18  and  N22_20 
REMARK   10  A    between atoms: C31_29  and  C33_30 
ROOT
ATOM      1  C17 ZIN A   1      19.632  -0.633  11.808  0.00  0.00     0.308 C 
ATOM      2  C19 ZIN A   1      21.008  -0.075  11.436  0.00  0.00     0.053 C 
ENDROOT
BRANCH   1   3
ATOM      3  N16 ZIN A   1      19.624  -1.006  13.230  0.00  0.00     0.111 N 
ATOM      4  H50 ZIN A   1      20.519  -1.377  13.511  0.00  0.00     0.318 HD
BRANCH   3   5
ATOM      5  C6  ZIN A   1      19.238   0.135  14.070  0.00  0.00     0.320 C 
BRANCH   5   6
ATOM      6  C4  ZIN A   1      18.679  -0.369  15.377  0.00  0.00     0.292 C 
ATOM      7  O5  ZIN A   1      18.678  -1.554  15.615  0.00  0.00    -0.263 OA
BRANCH   6   8
ATOM      8  O3  ZIN A   1      18.184   0.497  16.273  0.00  0.00    -0.320 OA
BRANCH   8   9
ATOM      9  C2  ZIN A   1      19.087   0.958  17.313  0.00  0.00     0.174 C 
ATOM     10  C1  ZIN A   1      18.738   0.269  18.634  0.00  0.00     0.034 C 
ENDBRANCH   8   9
ENDBRANCH   6   8
ENDBRANCH   5   6
BRANCH   5  11
ATOM     11  C8  ZIN A   1      18.173   0.964  13.348  0.00  0.00     0.051 C 
BRANCH  11  12
ATOM     12  C9  ZIN A   1      18.426   2.452  13.602  0.00  0.00     0.041 C 
BRANCH  12  13
ATOM     13  C10 ZIN A   1      18.105   3.235  12.357  0.00  0.00    -0.058 A 
ATOM     14  C15 ZIN A   1      17.311   4.364  12.435  0.00  0.00     0.007 A 
ATOM     15  C14 ZIN A   1      17.019   5.086  11.293  0.00  0.00     0.001 A 
ATOM     16  C13 ZIN A   1      17.514   4.674  10.070  0.00  0.00     0.000 A 
ATOM     17  C12 ZIN A   1      18.304   3.542   9.990  0.00  0.00     0.001 A 
ATOM     18  C11 ZIN A   1      18.599   2.823  11.133  0.00  0.00     0.007 A 
ENDBRANCH  12  13
ENDBRANCH  11  12
ENDBRANCH   5  11
ENDBRANCH   3   5
ENDBRANCH   1   3
BRANCH   1  19
ATOM     19  C20 ZIN A   1      19.340  -1.849  10.968  0.00  0.00     0.254 C 
ATOM     20  O21 ZIN A   1      19.678  -2.948  11.353  0.00  0.00    -0.271 OA
ATOM     21  N22 ZIN A   1      18.701  -1.716   9.789  0.00  0.00    -0.331 N 
ATOM     22  C31 ZIN A   1      18.295  -2.891   9.000  0.00  0.00     0.192 C 
ATOM     23  C23 ZIN A   1      18.389  -0.393   9.236  0.00  0.00     0.166 C 
ATOM     24  C30 ZIN A   1      19.068  -2.872   7.688  0.00  0.00     0.075 C 
ATOM     25  C29 ZIN A   1      19.020  -1.507   7.056  0.00  0.00    -0.048 A 
ATOM     26  C24 ZIN A   1      18.723  -0.365   7.766  0.00  0.00    -0.034 A 
ATOM     27  C28 ZIN A   1      19.304  -1.414   5.699  0.00  0.00     0.008 A 
ATOM     28  C25 ZIN A   1      18.725   0.867   7.126  0.00  0.00     0.009 A 
ATOM     29  C26 ZIN A   1      19.013   0.956   5.780  0.00  0.00     0.001 A 
ATOM     30  C27 ZIN A   1      19.302  -0.190   5.063  0.00  0.00     0.001 A 
BRANCH  22  31
ATOM     31  C33 ZIN A   1      18.614  -4.152   9.762  0.00  0.00     0.197 C 
ATOM     32  O34 ZIN A   1      19.664  -4.736   9.561  0.00  0.00    -0.646 OA
ATOM     33  O35 ZIN A   1      17.821  -4.586  10.579  0.00  0.00    -0.646 OA
ENDBRANCH  22  31
ENDBRANCH   1  19
TORSDOF 10
ENDMDL
MODEL 5
REMARK VINA RESULT:      -8.0      4.839      7.684
REMARK  10 active torsions:
REMARK  status: ('A' for Active; 'I' for Inactive)
REMARK    1  A    between atoms: C2_2  and  O3_3 
REMARK    2  A    between atoms: O3_3  and  C4_4 
REMARK    3  A    between atoms: C4_4  and  C6_6 
REMARK    4  A    between atoms: C6_6  and  C8_7 
REMARK    5  A    between atoms: C6_6  and  N16_15 
REMARK    6  A    between atoms: C8_7  and  C9_8 
REMARK    7  A    between atoms: C9_8  and  C10_9 
REMARK    8  A    between atoms: N16_15  and  C17_16 
REMARK    9  A    between atoms: C17_16  and  C20_18 
REMARK       I    between atoms: C20_18  and  N22_20 
REMARK   10  A    between atoms: C31_29  and  C33_30 
ROOT
ATOM      1  C17 ZIN A   1      19.516   0.612  11.868  0.00  0.00     0.308 C 
ATOM      2  C19 ZIN A   1      21.015   0.326  11.978  0.00  0.00     0.053 C 
ENDROOT
BRANCH   1   3
ATOM      3  N16 ZIN A   1      19.133   0.676  10.451  0.00  0.00     0.111 N 
ATOM      4  H50 ZIN A   1      19.722   0.078   9.890  0.00  0.00     0.318 HD
BRANCH   3   5
ATOM      5  C6  ZIN A   1      17.715   0.338  10.273  0.00  0.00     0.320 C 
BRANCH   5   6
ATOM      6  C4  ZIN A   1      17.437  -1.006  10.895  0.00  0.00     0.292 C 
ATOM      7  O5  ZIN A   1      16.709  -1.087  11.856  0.00  0.00    -0.263 OA
BRANCH   6   8
ATOM      8  O3  ZIN A   1      17.998  -2.112  10.384  0.00  0.00    -0.320 OA
BRANCH   8   9
ATOM      9  C2  ZIN A   1      18.224  -3.220  11.296  0.00  0.00     0.174 C 
ATOM     10  C1  ZIN A   1      19.650  -3.144  11.846  0.00  0.00     0.034 C 
ENDBRANCH   8   9
ENDBRANCH   6   8
ENDBRANCH   5   6
BRANCH   5  11
ATOM     11  C8  ZIN A   1      17.387   0.285   8.779  0.00  0.00     0.051 C 
BRANCH  11  12
ATOM     12  C9  ZIN A   1      18.621   0.694   7.971  0.00  0.00     0.041 C 
BRANCH  12  13
ATOM     13  C10 ZIN A   1      18.764  -0.215   6.778  0.00  0.00    -0.058 A 
ATOM     14  C15 ZIN A   1      18.529   0.271   5.506  0.00  0.00     0.007 A 
ATOM     15  C14 ZIN A   1      18.664  -0.562   4.411  0.00  0.00     0.001 A 
ATOM     16  C13 ZIN A   1      19.026  -1.884   4.590  0.00  0.00     0.000 A 
ATOM     17  C12 ZIN A   1      19.257  -2.372   5.862  0.00  0.00     0.001 A 
ATOM     18  C11 ZIN A   1      19.126  -1.537   6.957  0.00  0.00     0.007 A 
ENDBRANCH  12  13
ENDBRANCH  11  12
ENDBRANCH   5  11
ENDBRANCH   3   5
ENDBRANCH   1   3
BRANCH   1  19
ATOM     19  C20 ZIN A   1      19.205   1.927  12.533  0.00  0.00     0.254 C 
ATOM     20  O21 ZIN A   1      19.534   2.967  12.003  0.00  0.00    -0.271 OA
ATOM     21  N22 ZIN A   1      18.561   1.949  13.717  0.00  0.00    -0.331 N 
ATOM     22  C31 ZIN A   1      18.138   3.216  14.337  0.00  0.00     0.192 C 
ATOM     23  C23 ZIN A   1      18.260   0.710  14.443  0.00  0.00     0.166 C 
ATOM     24  C30 ZIN A   1      18.903   3.385  15.642  0.00  0.00     0.075 C 
ATOM     25  C29 ZIN A   1      18.867   2.118  16.454  0.00  0.00    -0.048 A 
ATOM     26  C24 ZIN A   1      18.586   0.886  15.905  0.00  0.00    -0.034 A 
ATOM     27  C28 ZIN A   1      19.143   2.214  17.812  0.00  0.00     0.008 A 
ATOM     28  C25 ZIN A   1      18.599  -0.246  16.707  0.00  0.00     0.009 A 
ATOM     29  C26 ZIN A   1      18.880  -0.147  18.055  0.00  0.00     0.001 A 
ATOM     30  C27 ZIN A   1      19.151   1.089  18.609  0.00  0.00     0.001 A 
BRANCH  22  31
ATOM     31  C33 ZIN A   1      18.447   4.364  13.410  0.00  0.00     0.197 C 
ATOM     32  O34 ZIN A   1      17.645   4.684  12.549  0.00  0.00    -0.646 OA
ATOM     33  O35 ZIN A   1      19.496   4.973  13.522  0.00  0.00    -0.646 OA
ENDBRANCH  22  31
ENDBRANCH   1  19
TORSDOF 10
ENDMDL
MODEL 6
REMARK VINA RESULT:      -7.9      3.446      6.083
REMARK  10 active torsions:
REMARK  status: ('A' for Active; 'I' for Inactive)
REMARK    1  A    between atoms: C2_2  and  O3_3 
REMARK    2  A    between atoms: O3_3  and  C4_4 
REMARK    3  A    between atoms: C4_4  and  C6_6 
REMARK    4  A    between atoms: C6_6  and  C8_7 
REMARK    5  A    between atoms: C6_6  and  N16_15 
REMARK    6  A    between atoms: C8_7  and  C9_8 
REMARK    7  A    between atoms: C9_8  and  C10_9 
REMARK    8  A    between atoms: N16_15  and  C17_16 
REMARK    9  A    between atoms: C17_16  and  C20_18 
REMARK       I    between atoms: C20_18  and  N22_20 
REMARK   10  A    between atoms: C31_29  and  C33_30 
ROOT
ATOM      1  C17 ZIN A   1      18.851  -3.404  11.246  0.00  0.00     0.308 C 
ATOM      2  C19 ZIN A   1      17.396  -3.738  11.585  0.00  0.00     0.053 C 
ENDROOT
BRANCH   1   3
ATOM      3  N16 ZIN A   1      19.002  -1.948  11.120  0.00  0.00     0.111 N 
ATOM      4  H50 ZIN A   1      18.737  -1.636  10.197  0.00  0.00     0.318 HD
BRANCH   3   5
ATOM      5  C6  ZIN A   1      18.231  -1.247  12.154  0.00  0.00     0.320 C 
BRANCH   5   6
ATOM      6  C4  ZIN A   1      17.651   0.019  11.578  0.00  0.00     0.292 C 
ATOM      7  O5  ZIN A   1      16.492   0.298  11.779  0.00  0.00    -0.263 OA
BRANCH   6   8
ATOM      8  O3  ZIN A   1      18.420   0.836  10.843  0.00  0.00    -0.320 OA
BRANCH   8   9
ATOM      9  C2  ZIN A   1      17.829   2.092  10.417  0.00  0.00     0.174 C 
ATOM     10  C1  ZIN A   1      18.754   2.774   9.406  0.00  0.00     0.034 C 
ENDBRANCH   8   9
ENDBRANCH   6   8
ENDBRANCH   5   6
BRANCH   5  11
ATOM     11  C8  ZIN A   1      19.150  -0.898  13.327  0.00  0.00     0.051 C 
BRANCH  11  12
ATOM     12  C9  ZIN A   1      18.594  -1.518  14.612  0.00  0.00     0.041 C 
BRANCH  12  13
ATOM     13  C10 ZIN A   1      18.821  -0.575  15.764  0.00  0.00    -0.058 A 
ATOM     14  C15 ZIN A   1      19.059  -1.073  17.030  0.00  0.00     0.007 A 
ATOM     15  C14 ZIN A   1      19.272  -0.208  18.087  0.00  0.00     0.001 A 
ATOM     16  C13 ZIN A   1      19.239   1.158  17.877  0.00  0.00     0.000 A 
ATOM     17  C12 ZIN A   1      18.997   1.658  16.611  0.00  0.00     0.001 A 
ATOM     18  C11 ZIN A   1      18.788   0.791  15.554  0.00  0.00     0.007 A 
ENDBRANCH  12  13
ENDBRANCH  11  12
ENDBRANCH   5  11
ENDBRANCH   3   5
ENDBRANCH   1   3
BRANCH   1  19
ATOM     19  C20 ZIN A   1      19.227  -4.064   9.945  0.00  0.00     0.254 C 
ATOM     20  O21 ZIN A   1      20.009  -4.991   9.939  0.00  0.00    -0.271 OA
ATOM     21  N22 ZIN A   1      18.694  -3.625   8.787  0.00  0.00    -0.331 N 
ATOM     22  C31 ZIN A   1      18.948  -4.321   7.515  0.00  0.00     0.192 C 
ATOM     23  C23 ZIN A   1      17.843  -2.431   8.744  0.00  0.00     0.166 C 
ATOM     24  C30 ZIN A   1      19.721  -3.377   6.604  0.00  0.00     0.075 C 
ATOM     25  C29 ZIN A   1      19.089  -2.011   6.585  0.00  0.00    -0.048 A 
ATOM     26  C24 ZIN A   1      18.238  -1.568   7.573  0.00  0.00    -0.034 A 
ATOM     27  C28 ZIN A   1      19.401  -1.171   5.523  0.00  0.00     0.008 A 
ATOM     28  C25 ZIN A   1      17.714  -0.284   7.509  0.00  0.00     0.009 A 
ATOM     29  C26 ZIN A   1      18.030   0.549   6.456  0.00  0.00     0.001 A 
ATOM     30  C27 ZIN A   1      18.876   0.103   5.458  0.00  0.00     0.001 A 
BRANCH  22  31
ATOM     31  C33 ZIN A   1      19.759  -5.566   7.767  0.00  0.00     0.197 C 
ATOM     32  O34 ZIN A   1      20.962  -5.559   7.571  0.00  0.00    -0.646 OA
ATOM     33  O35 ZIN A   1      19.212  -6.579   8.166  0.00  0.00    -0.646 OA
ENDBRANCH  22  31
ENDBRANCH   1  19
TORSDOF 10
ENDMDL
MODEL 7
REMARK VINA RESULT:      -7.8      4.435      8.387
REMARK  10 active torsions:
REMARK  status: ('A' for Active; 'I' for Inactive)
REMARK    1  A    between atoms: C2_2  and  O3_3 
REMARK    2  A    between atoms: O3_3  and  C4_4 
REMARK    3  A    between atoms: C4_4  and  C6_6 
REMARK    4  A    between atoms: C6_6  and  C8_7 
REMARK    5  A    between atoms: C6_6  and  N16_15 
REMARK    6  A    between atoms: C8_7  and  C9_8 
REMARK    7  A    between atoms: C9_8  and  C10_9 
REMARK    8  A    between atoms: N16_15  and  C17_16 
REMARK    9  A    between atoms: C17_16  and  C20_18 
REMARK       I    between atoms: C20_18  and  N22_20 
REMARK   10  A    between atoms: C31_29  and  C33_30 
ROOT
ATOM      1  C17 ZIN A   1      19.560   1.597  11.267  0.00  0.00     0.308 C 
ATOM      2  C19 ZIN A   1      20.358   2.724  11.926  0.00  0.00     0.053 C 
ENDROOT
BRANCH   1   3
ATOM      3  N16 ZIN A   1      18.292   2.133  10.751  0.00  0.00     0.111 N 
ATOM      4  H50 ZIN A   1      17.661   2.356  11.506  0.00  0.00     0.318 HD
BRANCH   3   5
ATOM      5  C6  ZIN A   1      18.524   3.302   9.894  0.00  0.00     0.320 C 
BRANCH   5   6
ATOM      6  C4  ZIN A   1      17.508   4.368  10.212  0.00  0.00     0.292 C 
ATOM      7  O5  ZIN A   1      17.497   5.399   9.582  0.00  0.00    -0.263 OA
BRANCH   6   8
ATOM      8  O3  ZIN A   1      16.615   4.173  11.194  0.00  0.00    -0.320 OA
BRANCH   8   9
ATOM      9  C2  ZIN A   1      16.507   5.213  12.203  0.00  0.00     0.174 C 
ATOM     10  C1  ZIN A   1      17.745   5.183  13.100  0.00  0.00     0.034 C 
ENDBRANCH   8   9
ENDBRANCH   6   8
ENDBRANCH   5   6
BRANCH   5  11
ATOM     11  C8  ZIN A   1      18.391   2.893   8.425  0.00  0.00     0.051 C 
BRANCH  11  12
ATOM     12  C9  ZIN A   1      19.362   1.748   8.125  0.00  0.00     0.041 C 
BRANCH  12  13
ATOM     13  C10 ZIN A   1      18.827   0.923   6.984  0.00  0.00    -0.058 A 
ATOM     14  C15 ZIN A   1      19.539   0.830   5.804  0.00  0.00     0.007 A 
ATOM     15  C14 ZIN A   1      19.051   0.069   4.758  0.00  0.00     0.001 A 
ATOM     16  C13 ZIN A   1      17.844  -0.593   4.890  0.00  0.00     0.000 A 
ATOM     17  C12 ZIN A   1      17.129  -0.497   6.070  0.00  0.00     0.001 A 
ATOM     18  C11 ZIN A   1      17.620   0.261   7.116  0.00  0.00     0.007 A 
ENDBRANCH  12  13
ENDBRANCH  11  12
ENDBRANCH   5  11
ENDBRANCH   3   5
ENDBRANCH   1   3
BRANCH   1  19
ATOM     19  C20 ZIN A   1      19.276   0.522  12.283  0.00  0.00     0.254 C 
ATOM     20  O21 ZIN A   1      19.585   0.688  13.443  0.00  0.00    -0.271 OA
ATOM     21  N22 ZIN A   1      18.679  -0.625  11.902  0.00  0.00    -0.331 N 
ATOM     22  C31 ZIN A   1      18.281  -1.645  12.886  0.00  0.00     0.192 C 
ATOM     23  C23 ZIN A   1      18.405  -0.909  10.489  0.00  0.00     0.166 C 
ATOM     24  C30 ZIN A   1      19.096  -2.903  12.622  0.00  0.00     0.075 C 
ATOM     25  C29 ZIN A   1      19.090  -3.249  11.157  0.00  0.00    -0.048 A 
ATOM     26  C24 ZIN A   1      18.788  -2.333  10.174  0.00  0.00    -0.034 A 
ATOM     27  C28 ZIN A   1      19.420  -4.551  10.800  0.00  0.00     0.008 A 
ATOM     28  C25 ZIN A   1      18.831  -2.712   8.840  0.00  0.00     0.009 A 
ATOM     29  C26 ZIN A   1      19.164  -4.004   8.489  0.00  0.00     0.001 A 
ATOM     30  C27 ZIN A   1      19.458  -4.927   9.474  0.00  0.00     0.001 A 
BRANCH  22  31
ATOM     31  C33 ZIN A   1      18.554  -1.142  14.281  0.00  0.00     0.197 C 
ATOM     32  O34 ZIN A   1      17.723  -0.461  14.856  0.00  0.00    -0.646 OA
ATOM     33  O35 ZIN A   1      19.605  -1.417  14.833  0.00  0.00    -0.646 OA
ENDBRANCH  22  31
ENDBRANCH   1  19
TORSDOF 10
ENDMDL
MODEL 8
REMARK VINA RESULT:      -7.8      4.051      6.928
REMARK  10 active torsions:
REMARK  status: ('A' for Active; 'I' for Inactive)
REMARK    1  A    between atoms: C2_2  and  O3_3 
REMARK    2  A    between atoms: O3_3  and  C4_4 
REMARK    3  A    between atoms: C4_4  and  C6_6 
REMARK    4  A    between atoms: C6_6  and  C8_7 
REMARK    5  A    between atoms: C6_6  and  N16_15 
REMARK    6  A    between atoms: C8_7  and  C9_8 
REMARK    7  A    between atoms: C9_8  and  C10_9 
REMARK    8  A    between atoms: N16_15  and  C17_16 
REMARK    9  A    between atoms: C17_16  and  C20_18 
REMARK       I    between atoms: C20_18  and  N22_20 
REMARK   10  A    between atoms: C31_29  and  C33_30 
ROOT
ATOM      1  C17 ZIN A   1      19.459  -0.535  11.081  0.00  0.00     0.308 C 
ATOM      2  C19 ZIN A   1      20.983  -0.407  11.099  0.00  0.00     0.053 C 
ENDROOT
BRANCH   1   3
ATOM      3  N16 ZIN A   1      18.949  -0.497  12.459  0.00  0.00     0.111 N 
ATOM      4  H50 ZIN A   1      19.645  -0.132  13.092  0.00  0.00     0.318 HD
BRANCH   3   5
ATOM      5  C6  ZIN A   1      17.704   0.277  12.538  0.00  0.00     0.320 C 
BRANCH   5   6
ATOM      6  C4  ZIN A   1      17.968   1.699  12.111  0.00  0.00     0.292 C 
ATOM      7  O5  ZIN A   1      18.840   2.339  12.650  0.00  0.00    -0.263 OA
BRANCH   6   8
ATOM      8  O3  ZIN A   1      17.236   2.252  11.133  0.00  0.00    -0.320 OA
BRANCH   8   9
ATOM      9  C2  ZIN A   1      17.801   3.410  10.461  0.00  0.00     0.174 C 
ATOM     10  C1  ZIN A   1      16.982   4.653  10.814  0.00  0.00     0.034 C 
ENDBRANCH   8   9
ENDBRANCH   6   8
ENDBRANCH   5   6
BRANCH   5  11
ATOM     11  C8  ZIN A   1      17.187   0.267  13.979  0.00  0.00     0.051 C 
BRANCH  11  12
ATOM     12  C9  ZIN A   1      18.095  -0.616  14.839  0.00  0.00     0.041 C 
BRANCH  12  13
ATOM     13  C10 ZIN A   1      18.451   0.116  16.107  0.00  0.00    -0.058 A 
ATOM     14  C15 ZIN A   1      18.903   1.421  16.049  0.00  0.00     0.007 A 
ATOM     15  C14 ZIN A   1      19.226   2.094  17.212  0.00  0.00     0.001 A 
ATOM     16  C13 ZIN A   1      19.104   1.459  18.434  0.00  0.00     0.000 A 
ATOM     17  C12 ZIN A   1      18.655   0.153  18.493  0.00  0.00     0.001 A 
ATOM     18  C11 ZIN A   1      18.329  -0.519  17.329  0.00  0.00     0.007 A 
ENDBRANCH  12  13
ENDBRANCH  11  12
ENDBRANCH   5  11
ENDBRANCH   3   5
ENDBRANCH   1   3
BRANCH   1  19
ATOM     19  C20 ZIN A   1      19.072  -1.841  10.437  0.00  0.00     0.254 C 
ATOM     20  O21 ZIN A   1      19.351  -2.890  10.978  0.00  0.00    -0.271 OA
ATOM     21  N22 ZIN A   1      18.415  -1.844   9.260  0.00  0.00    -0.331 N 
ATOM     22  C31 ZIN A   1      17.919  -3.095   8.663  0.00  0.00     0.192 C 
ATOM     23  C23 ZIN A   1      18.172  -0.601   8.520  0.00  0.00     0.166 C 
ATOM     24  C30 ZIN A   1      18.661  -3.322   7.352  0.00  0.00     0.075 C 
ATOM     25  C29 ZIN A   1      18.683  -2.066   6.523  0.00  0.00    -0.048 A 
ATOM     26  C24 ZIN A   1      18.473  -0.814   7.058  0.00  0.00    -0.034 A 
ATOM     27  C28 ZIN A   1      18.940  -2.194   5.164  0.00  0.00     0.008 A 
ATOM     28  C25 ZIN A   1      18.537   0.306   6.240  0.00  0.00     0.009 A 
ATOM     29  C26 ZIN A   1      18.798   0.175   4.892  0.00  0.00     0.001 A 
ATOM     30  C27 ZIN A   1      18.998  -1.081   4.352  0.00  0.00     0.001 A 
BRANCH  22  31
ATOM     31  C33 ZIN A   1      18.177  -4.246   9.601  0.00  0.00     0.197 C 
ATOM     32  O34 ZIN A   1      19.189  -4.915   9.481  0.00  0.00    -0.646 OA
ATOM     33  O35 ZIN A   1      17.374  -4.508  10.479  0.00  0.00    -0.646 OA
ENDBRANCH  22  31
ENDBRANCH   1  19
TORSDOF 10
ENDMDL
MODEL 9
REMARK VINA RESULT:      -7.6      6.438      9.178
REMARK  10 active torsions:
REMARK  status: ('A' for Active; 'I' for Inactive)
REMARK    1  A    between atoms: C2_2  and  O3_3 
REMARK    2  A    between atoms: O3_3  and  C4_4 
REMARK    3  A    between atoms: C4_4  and  C6_6 
REMARK    4  A    between atoms: C6_6  and  C8_7 
REMARK    5  A    between atoms: C6_6  and  N16_15 
REMARK    6  A    between atoms: C8_7  and  C9_8 
REMARK    7  A    between atoms: C9_8  and  C10_9 
REMARK    8  A    between atoms: N16_15  and  C17_16 
REMARK    9  A    between atoms: C17_16  and  C20_18 
REMARK       I    between atoms: C20_18  and  N22_20 
REMARK   10  A    between atoms: C31_29  and  C33_30 
ROOT
ATOM      1  C17 ZIN A   1      18.687   1.258  14.164  0.00  0.00     0.308 C 
ATOM      2  C19 ZIN A   1      17.261   0.927  13.719  0.00  0.00     0.053 C 
ENDROOT
BRANCH   1   3
ATOM      3  N16 ZIN A   1      19.593   0.177  13.750  0.00  0.00     0.111 N 
ATOM      4  H50 ZIN A   1      19.555  -0.594  14.400  0.00  0.00     0.318 HD
BRANCH   3   5
ATOM      5  C6  ZIN A   1      19.290  -0.269  12.384  0.00  0.00     0.320 C 
BRANCH   5   6
ATOM      6  C4  ZIN A   1      19.259  -1.775  12.342  0.00  0.00     0.292 C 
ATOM      7  O5  ZIN A   1      18.586  -2.387  13.138  0.00  0.00    -0.263 OA
BRANCH   6   8
ATOM      8  O3  ZIN A   1      19.978  -2.436  11.422  0.00  0.00    -0.320 OA
BRANCH   8   9
ATOM      9  C2  ZIN A   1      19.240  -3.207  10.437  0.00  0.00     0.174 C 
ATOM     10  C1  ZIN A   1      19.608  -4.686  10.568  0.00  0.00     0.034 C 
ENDBRANCH   8   9
ENDBRANCH   6   8
ENDBRANCH   5   6
BRANCH   5  11
ATOM     11  C8  ZIN A   1      20.369   0.245  11.428  0.00  0.00     0.051 C 
BRANCH  11  12
ATOM     12  C9  ZIN A   1      19.708   0.997  10.270  0.00  0.00     0.041 C 
BRANCH  12  13
ATOM     13  C10 ZIN A   1      19.177   2.316  10.767  0.00  0.00    -0.058 A 
ATOM     14  C15 ZIN A   1      19.999   3.170  11.476  0.00  0.00     0.007 A 
ATOM     15  C14 ZIN A   1      19.514   4.383  11.928  0.00  0.00     0.001 A 
ATOM     16  C13 ZIN A   1      18.201   4.738  11.677  0.00  0.00     0.000 A 
ATOM     17  C12 ZIN A   1      17.377   3.882  10.971  0.00  0.00     0.001 A 
ATOM     18  C11 ZIN A   1      17.865   2.671  10.516  0.00  0.00     0.007 A 
ENDBRANCH  12  13
ENDBRANCH  11  12
ENDBRANCH   5  11
ENDBRANCH   3   5
ENDBRANCH   1   3
BRANCH   1  19
ATOM     19  C20 ZIN A   1      18.726   1.400  15.663  0.00  0.00     0.254 C 
ATOM     20  O21 ZIN A   1      18.437   0.458  16.369  0.00  0.00    -0.271 OA
ATOM     21  N22 ZIN A   1      19.082   2.575  16.220  0.00  0.00    -0.331 N 
ATOM     22  C31 ZIN A   1      19.244   2.713  17.677  0.00  0.00     0.192 C 
ATOM     23  C23 ZIN A   1      19.318   3.767  15.400  0.00  0.00     0.166 C 
ATOM     24  C30 ZIN A   1      18.193   3.693  18.181  0.00  0.00     0.075 C 
ATOM     25  C29 ZIN A   1      18.155   4.928  17.321  0.00  0.00    -0.048 A 
ATOM     26  C24 ZIN A   1      18.657   4.962  16.039  0.00  0.00    -0.034 A 
ATOM     27  C28 ZIN A   1      17.572   6.070  17.858  0.00  0.00     0.008 A 
ATOM     28  C25 ZIN A   1      18.562   6.128  15.291  0.00  0.00     0.009 A 
ATOM     29  C26 ZIN A   1      17.977   7.257  15.825  0.00  0.00     0.001 A 
ATOM     30  C27 ZIN A   1      17.482   7.228  17.115  0.00  0.00     0.001 A 
BRANCH  22  31
ATOM     31  C33 ZIN A   1      19.054   1.374  18.342  0.00  0.00     0.197 C 
ATOM     32  O34 ZIN A   1      17.954   1.050  18.755  0.00  0.00    -0.646 OA
ATOM     33  O35 ZIN A   1      19.999   0.615  18.465  0.00  0.00    -0.646 OA
ENDBRANCH  22  31
ENDBRANCH   1  19
TORSDOF 10
ENDMDL
