MODEL 1
REMARK VINA RESULT:      -8.4      0.000      0.000
REMARK  4 active torsions:
REMARK  status: ('A' for Active; 'I' for Inactive)
REMARK    1  A    between atoms: C3_3  and  C4_4 
REMARK       I    between atoms: C4_4  and  N6_6 
REMARK    2  A    between atoms: N6_6  and  C7_7 
REMARK    3  A    between atoms: C18_16  and  C20_17 
REMARK    4  A    between atoms: C23_20  and  C24_21 
ROOT
ATOM      1  C4  ZIN A   1      19.017  -2.047  10.593  0.00  0.00     0.257 C 
ATOM      2  O5  ZIN A   1      20.187  -2.032  10.927  0.00  0.00    -0.267 OA
ATOM      3  N6  ZIN A   1      18.535  -3.081   9.875  0.00  0.00    -0.342 N 
ATOM      4  H35 ZIN A   1      17.603  -3.094   9.609  0.00  0.00     0.163 HD
ENDROOT
BRANCH   3   5
ATOM      5  C7  ZIN A   1      19.420  -4.185   9.497  0.00  0.00     0.199 C 
ATOM      6  C12 ZIN A   1      18.768  -5.567   9.616  0.00  0.00     0.160 C 
ATOM      7  N11 ZIN A   1      18.754  -5.600   8.135  0.00  0.00    -0.219 NA
ATOM      8  S14 ZIN A   1      17.005  -5.545  10.109  0.00  0.00    -0.135 SA
ATOM      9  C9  ZIN A   1      19.471  -4.443   8.005  0.00  0.00     0.227 C 
ATOM     10  C18 ZIN A   1      17.417  -5.612   7.534  0.00  0.00     0.186 C 
ATOM     11  O10 ZIN A   1      19.958  -3.853   7.064  0.00  0.00    -0.277 OA
ATOM     12  C15 ZIN A   1      16.395  -6.256   8.522  0.00  0.00     0.029 C 
ATOM     13  C16 ZIN A   1      16.491  -7.783   8.522  0.00  0.00     0.029 C 
ATOM     14  C17 ZIN A   1      14.970  -5.793   8.216  0.00  0.00     0.029 C 
BRANCH  10  15
ATOM     15  C20 ZIN A   1      17.462  -6.422   6.265  0.00  0.00     0.193 C 
ATOM     16  O21 ZIN A   1      16.583  -6.296   5.429  0.00  0.00    -0.647 OA
ATOM     17  O22 ZIN A   1      18.376  -7.206   6.074  0.00  0.00    -0.647 OA
ENDBRANCH  10  15
ENDBRANCH   3   5
BRANCH   1  18
ATOM     18  C3  ZIN A   1      18.128  -0.937  10.973  0.00  0.00     0.095 A 
ATOM     19  C2  ZIN A   1      17.600  -0.646  12.206  0.00  0.00     0.093 A 
ATOM     20  C1  ZIN A   1      17.816  -1.417  13.483  0.00  0.00     0.080 C 
ATOM     21  O31 ZIN A   1      16.853   0.450  12.052  0.00  0.00    -0.217 OA
ATOM     22  N30 ZIN A   1      16.853   0.874  10.923  0.00  0.00    -0.127 NA
ATOM     23  C23 ZIN A   1      17.583   0.141  10.120  0.00  0.00     0.113 A 
BRANCH  23  24
ATOM     24  C24 ZIN A   1      17.814   0.347   8.671  0.00  0.00    -0.004 A 
ATOM     25  C29 ZIN A   1      18.829   1.199   8.238  0.00  0.00     0.014 A 
ATOM     26  C28 ZIN A   1      19.044   1.383   6.887  0.00  0.00     0.001 A 
ATOM     27  C27 ZIN A   1      18.247   0.732   5.963  0.00  0.00     0.000 A 
ATOM     28  C26 ZIN A   1      17.235  -0.110   6.386  0.00  0.00     0.001 A 
ATOM     29  C25 ZIN A   1      17.015  -0.307   7.734  0.00  0.00     0.014 A 
ENDBRANCH  23  24
ENDBRANCH   1  18
TORSDOF 4
ENDMDL
MODEL 2
REMARK VINA RESULT:      -8.3      2.651      7.282
REMARK  4 active torsions:
REMARK  status: ('A' for Active; 'I' for Inactive)
REMARK    1  A    between atoms: C3_3  and  C4_4 
REMARK       I    between atoms: C4_4  and  N6_6 
REMARK    2  A    between atoms: N6_6  and  C7_7 
REMARK    3  A    between atoms: C18_16  and  C20_17 
REMARK    4  A    between atoms: C23_20  and  C24_21 
ROOT
ATOM      1  C4  ZIN A   1      17.860  -0.922   8.004  0.00  0.00     0.257 C 
ATOM      2  O5  ZIN A   1      16.847  -0.547   7.445  0.00  0.00    -0.267 OA
ATOM      3  N6  ZIN A   1      18.221  -0.375   9.182  0.00  0.00    -0.342 N 
ATOM      4  H35 ZIN A   1      19.028  -0.673   9.627  0.00  0.00     0.163 HD
ENDROOT
BRANCH   3   5
ATOM      5  C7  ZIN A   1      17.392   0.670   9.788  0.00  0.00     0.199 C 
ATOM      6  C12 ZIN A   1      16.834   0.293  11.165  0.00  0.00     0.160 C 
ATOM      7  N11 ZIN A   1      17.785   1.278  11.731  0.00  0.00    -0.219 NA
ATOM      8  S14 ZIN A   1      17.392  -1.330  11.803  0.00  0.00    -0.135 SA
ATOM      9  C9  ZIN A   1      18.188   1.739  10.508  0.00  0.00     0.227 C 
ATOM     10  C18 ZIN A   1      18.826   0.703  12.589  0.00  0.00     0.186 C 
ATOM     11  O10 ZIN A   1      18.903   2.648  10.143  0.00  0.00    -0.277 OA
ATOM     12  C15 ZIN A   1      18.313  -0.621  13.234  0.00  0.00     0.029 C 
ATOM     13  C16 ZIN A   1      17.381  -0.352  14.417  0.00  0.00     0.029 C 
ATOM     14  C17 ZIN A   1      19.480  -1.520  13.645  0.00  0.00     0.029 C 
BRANCH  10  15
ATOM     15  C20 ZIN A   1      19.160   1.691  13.676  0.00  0.00     0.193 C 
ATOM     16  O21 ZIN A   1      18.668   2.807  13.658  0.00  0.00    -0.647 OA
ATOM     17  O22 ZIN A   1      19.923   1.376  14.573  0.00  0.00    -0.647 OA
ENDBRANCH  10  15
ENDBRANCH   3   5
BRANCH   1  18
ATOM     18  C3  ZIN A   1      18.692  -1.971   7.394  0.00  0.00     0.095 A 
ATOM     19  C2  ZIN A   1      19.376  -1.939   6.204  0.00  0.00     0.093 A 
ATOM     20  C1  ZIN A   1      19.430  -0.793   5.227  0.00  0.00     0.080 C 
ATOM     21  O31 ZIN A   1      19.978  -3.125   6.079  0.00  0.00    -0.217 OA
ATOM     22  N30 ZIN A   1      19.775  -3.865   7.009  0.00  0.00    -0.127 NA
ATOM     23  C23 ZIN A   1      18.999  -3.322   7.912  0.00  0.00     0.113 A 
BRANCH  23  24
ATOM     24  C24 ZIN A   1      18.530  -3.928   9.181  0.00  0.00    -0.004 A 
ATOM     25  C29 ZIN A   1      19.414  -4.097  10.245  0.00  0.00     0.014 A 
ATOM     26  C28 ZIN A   1      18.970  -4.657  11.426  0.00  0.00     0.001 A 
ATOM     27  C27 ZIN A   1      17.653  -5.060  11.551  0.00  0.00     0.000 A 
ATOM     28  C26 ZIN A   1      16.773  -4.901  10.497  0.00  0.00     0.001 A 
ATOM     29  C25 ZIN A   1      17.203  -4.337   9.313  0.00  0.00     0.014 A 
ENDBRANCH  23  24
ENDBRANCH   1  18
TORSDOF 4
ENDMDL
MODEL 3
REMARK VINA RESULT:      -8.0      5.652     10.692
REMARK  4 active torsions:
REMARK  status: ('A' for Active; 'I' for Inactive)
REMARK    1  A    between atoms: C3_3  and  C4_4 
REMARK       I    between atoms: C4_4  and  N6_6 
REMARK    2  A    between atoms: N6_6  and  C7_7 
REMARK    3  A    between atoms: C18_16  and  C20_17 
REMARK    4  A    between atoms: C23_20  and  C24_21 
ROOT
ATOM      1  C4  ZIN A   1      19.051   2.104  12.627  0.00  0.00     0.257 C 
ATOM      2  O5  ZIN A   1      20.171   2.184  12.160  0.00  0.00    -0.267 OA
ATOM      3  N6  ZIN A   1      18.629   3.017  13.525  0.00  0.00    -0.342 N 
ATOM      4  H35 ZIN A   1      17.736   2.953  13.898  0.00  0.00     0.163 HD
ENDROOT
BRANCH   3   5
ATOM      5  C7  ZIN A   1      19.520   4.104  13.938  0.00  0.00     0.199 C 
ATOM      6  C12 ZIN A   1      18.931   5.501  13.718  0.00  0.00     0.160 C 
ATOM      7  N11 ZIN A   1      18.797   5.589  15.191  0.00  0.00    -0.219 NA
ATOM      8  S14 ZIN A   1      17.214   5.521  13.081  0.00  0.00    -0.135 SA
ATOM      9  C9  ZIN A   1      19.458   4.414  15.419  0.00  0.00     0.227 C 
ATOM     10  C18 ZIN A   1      17.416   5.668  15.677  0.00  0.00     0.186 C 
ATOM     11  O10 ZIN A   1      19.844   3.844  16.417  0.00  0.00    -0.277 OA
ATOM     12  C15 ZIN A   1      16.503   6.309  14.587  0.00  0.00     0.029 C 
ATOM     13  C16 ZIN A   1      16.654   7.831  14.542  0.00  0.00     0.029 C 
ATOM     14  C17 ZIN A   1      15.041   5.906  14.788  0.00  0.00     0.029 C 
BRANCH  10  15
ATOM     15  C20 ZIN A   1      17.386   6.523  16.918  0.00  0.00     0.193 C 
ATOM     16  O21 ZIN A   1      16.432   6.466  17.676  0.00  0.00    -0.647 OA
ATOM     17  O22 ZIN A   1      18.315   7.273  17.164  0.00  0.00    -0.647 OA
ENDBRANCH  10  15
ENDBRANCH   3   5
BRANCH   1  18
ATOM     18  C3  ZIN A   1      18.156   1.011  12.212  0.00  0.00     0.095 A 
ATOM     19  C2  ZIN A   1      17.604   0.779  10.978  0.00  0.00     0.093 A 
ATOM     20  C1  ZIN A   1      17.792   1.611   9.735  0.00  0.00     0.080 C 
ATOM     21  O31 ZIN A   1      16.861  -0.325  11.095  0.00  0.00    -0.217 OA
ATOM     22  N30 ZIN A   1      16.885  -0.803  12.201  0.00  0.00    -0.127 NA
ATOM     23  C23 ZIN A   1      17.630  -0.108  13.023  0.00  0.00     0.113 A 
BRANCH  23  24
ATOM     24  C24 ZIN A   1      17.891  -0.383  14.457  0.00  0.00    -0.004 A 
ATOM     25  C29 ZIN A   1      18.825  -1.349  14.825  0.00  0.00     0.014 A 
ATOM     26  C28 ZIN A   1      19.069  -1.597  16.161  0.00  0.00     0.001 A 
ATOM     27  C27 ZIN A   1      18.380  -0.896  17.133  0.00  0.00     0.000 A 
ATOM     28  C26 ZIN A   1      17.448   0.060  16.774  0.00  0.00     0.001 A 
ATOM     29  C25 ZIN A   1      17.200   0.321  15.442  0.00  0.00     0.014 A 
ENDBRANCH  23  24
ENDBRANCH   1  18
TORSDOF 4
ENDMDL
MODEL 4
REMARK VINA RESULT:      -8.0      2.039      2.771
REMARK  4 active torsions:
REMARK  status: ('A' for Active; 'I' for Inactive)
REMARK    1  A    between atoms: C3_3  and  C4_4 
REMARK       I    between atoms: C4_4  and  N6_6 
REMARK    2  A    between atoms: N6_6  and  C7_7 
REMARK    3  A    between atoms: C18_16  and  C20_17 
REMARK    4  A    between atoms: C23_20  and  C24_21 
ROOT
ATOM      1  C4  ZIN A   1      18.398  -3.750   8.933  0.00  0.00     0.257 C 
ATOM      2  O5  ZIN A   1      19.513  -4.225   9.027  0.00  0.00    -0.267 OA
ATOM      3  N6  ZIN A   1      17.639  -4.020   7.853  0.00  0.00    -0.342 N 
ATOM      4  H35 ZIN A   1      16.749  -3.641   7.778  0.00  0.00     0.163 HD
ENDROOT
BRANCH   3   5
ATOM      5  C7  ZIN A   1      18.159  -4.886   6.792  0.00  0.00     0.199 C 
ATOM      6  C12 ZIN A   1      17.539  -6.287   6.780  0.00  0.00     0.160 C 
ATOM      7  N11 ZIN A   1      16.829  -5.877   5.547  0.00  0.00    -0.219 NA
ATOM      8  S14 ZIN A   1      16.221  -6.556   8.022  0.00  0.00    -0.135 SA
ATOM      9  C9  ZIN A   1      17.484  -4.680   5.451  0.00  0.00     0.227 C 
ATOM     10  C18 ZIN A   1      15.369  -5.815   5.671  0.00  0.00     0.186 C 
ATOM     11  O10 ZIN A   1      17.513  -3.798   4.618  0.00  0.00    -0.277 OA
ATOM     12  C15 ZIN A   1      14.887  -6.805   6.776  0.00  0.00     0.029 C 
ATOM     13  C16 ZIN A   1      14.859  -8.249   6.272  0.00  0.00     0.029 C 
ATOM     14  C17 ZIN A   1      13.523  -6.388   7.330  0.00  0.00     0.029 C 
BRANCH  10  15
ATOM     15  C20 ZIN A   1      14.753  -6.202   4.351  0.00  0.00     0.193 C 
ATOM     16  O21 ZIN A   1      15.386  -6.878   3.557  0.00  0.00    -0.647 OA
ATOM     17  O22 ZIN A   1      13.623  -5.838   4.076  0.00  0.00    -0.647 OA
ENDBRANCH  10  15
ENDBRANCH   3   5
BRANCH   1  18
ATOM     18  C3  ZIN A   1      17.876  -2.880  10.000  0.00  0.00     0.095 A 
ATOM     19  C2  ZIN A   1      17.386  -3.235  11.232  0.00  0.00     0.093 A 
ATOM     20  C1  ZIN A   1      17.267  -4.632  11.786  0.00  0.00     0.080 C 
ATOM     21  O31 ZIN A   1      17.028  -2.102  11.841  0.00  0.00    -0.217 OA
ATOM     22  N30 ZIN A   1      17.233  -1.116  11.178  0.00  0.00    -0.127 NA
ATOM     23  C23 ZIN A   1      17.750  -1.407  10.010  0.00  0.00     0.113 A 
BRANCH  23  24
ATOM     24  C24 ZIN A   1      18.127  -0.463   8.930  0.00  0.00    -0.004 A 
ATOM     25  C29 ZIN A   1      17.459  -0.496   7.707  0.00  0.00     0.014 A 
ATOM     26  C28 ZIN A   1      17.811   0.388   6.708  0.00  0.00     0.001 A 
ATOM     27  C27 ZIN A   1      18.830   1.299   6.914  0.00  0.00     0.000 A 
ATOM     28  C26 ZIN A   1      19.500   1.333   8.123  0.00  0.00     0.001 A 
ATOM     29  C25 ZIN A   1      19.154   0.458   9.132  0.00  0.00     0.014 A 
ENDBRANCH  23  24
ENDBRANCH   1  18
TORSDOF 4
ENDMDL
MODEL 5
REMARK VINA RESULT:      -7.8      3.098      7.059
REMARK  4 active torsions:
REMARK  status: ('A' for Active; 'I' for Inactive)
REMARK    1  A    between atoms: C3_3  and  C4_4 
REMARK       I    between atoms: C4_4  and  N6_6 
REMARK    2  A    between atoms: N6_6  and  C7_7 
REMARK    3  A    between atoms: C18_16  and  C20_17 
REMARK    4  A    between atoms: C23_20  and  C24_21 
ROOT
ATOM      1  C4  ZIN A   1      19.044  -2.931  11.748  0.00  0.00     0.257 C 
ATOM      2  O5  ZIN A   1      20.172  -3.369  11.874  0.00  0.00    -0.267 OA
ATOM      3  N6  ZIN A   1      18.676  -1.818  12.413  0.00  0.00    -0.342 N 
ATOM      4  H35 ZIN A   1      17.777  -1.469  12.314  0.00  0.00     0.163 HD
ENDROOT
BRANCH   3   5
ATOM      5  C7  ZIN A   1      19.635  -1.136  13.286  0.00  0.00     0.199 C 
ATOM      6  C12 ZIN A   1      20.258   0.115  12.660  0.00  0.00     0.160 C 
ATOM      7  N11 ZIN A   1      19.441   0.903  13.611  0.00  0.00    -0.219 NA
ATOM      8  S14 ZIN A   1      19.612   0.549  11.002  0.00  0.00    -0.135 SA
ATOM      9  C9  ZIN A   1      18.989  -0.198  14.285  0.00  0.00     0.227 C 
ATOM     10  C18 ZIN A   1      18.420   1.751  12.987  0.00  0.00     0.186 C 
ATOM     11  O10 ZIN A   1      18.330  -0.360  15.291  0.00  0.00    -0.277 OA
ATOM     12  C15 ZIN A   1      18.864   2.144  11.544  0.00  0.00     0.029 C 
ATOM     13  C16 ZIN A   1      19.902   3.269  11.556  0.00  0.00     0.029 C 
ATOM     14  C17 ZIN A   1      17.658   2.516  10.681  0.00  0.00     0.029 C 
BRANCH  10  15
ATOM     15  C20 ZIN A   1      18.255   2.999  13.815  0.00  0.00     0.193 C 
ATOM     16  O21 ZIN A   1      19.020   3.225  14.738  0.00  0.00    -0.647 OA
ATOM     17  O22 ZIN A   1      17.355   3.782  13.565  0.00  0.00    -0.647 OA
ENDBRANCH  10  15
ENDBRANCH   3   5
BRANCH   1  18
ATOM     18  C3  ZIN A   1      18.081  -3.616  10.870  0.00  0.00     0.095 A 
ATOM     19  C2  ZIN A   1      17.393  -4.781  11.099  0.00  0.00     0.093 A 
ATOM     20  C1  ZIN A   1      17.469  -5.646  12.331  0.00  0.00     0.080 C 
ATOM     21  O31 ZIN A   1      16.648  -5.003  10.013  0.00  0.00    -0.217 OA
ATOM     22  N30 ZIN A   1      16.769  -4.151   9.168  0.00  0.00    -0.127 NA
ATOM     23  C23 ZIN A   1      17.617  -3.219   9.524  0.00  0.00     0.113 A 
BRANCH  23  24
ATOM     24  C24 ZIN A   1      18.023  -2.025   8.746  0.00  0.00    -0.004 A 
ATOM     25  C29 ZIN A   1      17.205  -0.896   8.718  0.00  0.00     0.014 A 
ATOM     26  C28 ZIN A   1      17.591   0.215   7.997  0.00  0.00     0.001 A 
ATOM     27  C27 ZIN A   1      18.782   0.208   7.295  0.00  0.00     0.000 A 
ATOM     28  C26 ZIN A   1      19.596  -0.910   7.315  0.00  0.00     0.001 A 
ATOM     29  C25 ZIN A   1      19.223  -2.026   8.037  0.00  0.00     0.014 A 
ENDBRANCH  23  24
ENDBRANCH   1  18
TORSDOF 4
ENDMDL
MODEL 6
REMARK VINA RESULT:      -7.8      4.152      6.657
REMARK  4 active torsions:
REMARK  status: ('A' for Active; 'I' for Inactive)
REMARK    1  A    between atoms: C3_3  and  C4_4 
REMARK       I    between atoms: C4_4  and  N6_6 
REMARK    2  A    between atoms: N6_6  and  C7_7 
REMARK    3  A    between atoms: C18_16  and  C20_17 
REMARK    4  A    between atoms: C23_20  and  C24_21 
ROOT
ATOM      1  C4  ZIN A   1      18.000   0.963  15.272  0.00  0.00     0.257 C 
ATOM      2  O5  ZIN A   1      17.001   0.506  15.793  0.00  0.00    -0.267 OA
ATOM      3  N6  ZIN A   1      18.448   0.450  14.109  0.00  0.00    -0.342 N 
ATOM      4  H35 ZIN A   1      19.245   0.814  13.693  0.00  0.00     0.163 HD
ENDROOT
BRANCH   3   5
ATOM      5  C7  ZIN A   1      17.730  -0.657  13.473  0.00  0.00     0.199 C 
ATOM      6  C12 ZIN A   1      17.067  -0.279  12.144  0.00  0.00     0.160 C 
ATOM      7  N11 ZIN A   1      18.106  -1.101  11.482  0.00  0.00    -0.219 NA
ATOM      8  S14 ZIN A   1      17.386   1.435  11.585  0.00  0.00    -0.135 SA
ATOM      9  C9  ZIN A   1      18.620  -1.573  12.658  0.00  0.00     0.227 C 
ATOM     10  C18 ZIN A   1      19.026  -0.350  10.622  0.00  0.00     0.186 C 
ATOM     11  O10 ZIN A   1      19.460  -2.402  12.940  0.00  0.00    -0.277 OA
ATOM     12  C15 ZIN A   1      18.321   0.931  10.079  0.00  0.00     0.029 C 
ATOM     13  C16 ZIN A   1      17.376   0.611   8.919  0.00  0.00     0.029 C 
ATOM     14  C17 ZIN A   1      19.345   1.994   9.678  0.00  0.00     0.029 C 
BRANCH  10  15
ATOM     15  C20 ZIN A   1      19.431  -1.225   9.464  0.00  0.00     0.193 C 
ATOM     16  O21 ZIN A   1      20.209  -0.803   8.624  0.00  0.00    -0.647 OA
ATOM     17  O22 ZIN A   1      18.980  -2.353   9.365  0.00  0.00    -0.647 OA
ENDBRANCH  10  15
ENDBRANCH   3   5
BRANCH   1  18
ATOM     18  C3  ZIN A   1      18.721   2.076  15.912  0.00  0.00     0.095 A 
ATOM     19  C2  ZIN A   1      19.382   2.089  17.115  0.00  0.00     0.093 A 
ATOM     20  C1  ZIN A   1      19.522   0.939  18.079  0.00  0.00     0.080 C 
ATOM     21  O31 ZIN A   1      19.870   3.322  17.268  0.00  0.00    -0.217 OA
ATOM     22  N30 ZIN A   1      19.619   4.055  16.343  0.00  0.00    -0.127 NA
ATOM     23  C23 ZIN A   1      18.913   3.456  15.417  0.00  0.00     0.113 A 
BRANCH  23  24
ATOM     24  C24 ZIN A   1      18.415   4.035  14.147  0.00  0.00    -0.004 A 
ATOM     25  C29 ZIN A   1      17.086   4.439  14.036  0.00  0.00     0.014 A 
ATOM     26  C28 ZIN A   1      16.628   4.983  12.853  0.00  0.00     0.001 A 
ATOM     27  C27 ZIN A   1      17.484   5.118  11.775  0.00  0.00     0.000 A 
ATOM     28  C26 ZIN A   1      18.802   4.714  11.877  0.00  0.00     0.001 A 
ATOM     29  C25 ZIN A   1      19.273   4.174  13.056  0.00  0.00     0.014 A 
ENDBRANCH  23  24
ENDBRANCH   1  18
TORSDOF 4
ENDMDL
MODEL 7
REMARK VINA RESULT:      -7.8      6.700     11.476
REMARK  4 active torsions:
REMARK  status: ('A' for Active; 'I' for Inactive)
REMARK    1  A    between atoms: C3_3  and  C4_4 
REMARK       I    between atoms: C4_4  and  N6_6 
REMARK    2  A    between atoms: N6_6  and  C7_7 
REMARK    3  A    between atoms: C18_16  and  C20_17 
REMARK    4  A    between atoms: C23_20  and  C24_21 
ROOT
ATOM      1  C4  ZIN A   1      18.456   3.799  13.611  0.00  0.00     0.257 C 
ATOM      2  O5  ZIN A   1      19.585   4.235  13.487  0.00  0.00    -0.267 OA
ATOM      3  N6  ZIN A   1      17.712   4.150  14.679  0.00  0.00    -0.342 N 
ATOM      4  H35 ZIN A   1      16.812   3.803  14.778  0.00  0.00     0.163 HD
ENDROOT
BRANCH   3   5
ATOM      5  C7  ZIN A   1      18.263   5.057  15.689  0.00  0.00     0.199 C 
ATOM      6  C12 ZIN A   1      17.599   6.437  15.706  0.00  0.00     0.160 C 
ATOM      7  N11 ZIN A   1      16.975   6.034  16.987  0.00  0.00    -0.219 NA
ATOM      8  S14 ZIN A   1      16.204   6.635  14.537  0.00  0.00    -0.135 SA
ATOM      9  C9  ZIN A   1      17.673   4.861  17.071  0.00  0.00     0.227 C 
ATOM     10  C18 ZIN A   1      15.513   5.923  16.949  0.00  0.00     0.186 C 
ATOM     11  O10 ZIN A   1      17.779   4.001  17.919  0.00  0.00    -0.277 OA
ATOM     12  C15 ZIN A   1      14.936   6.871  15.853  0.00  0.00     0.029 C 
ATOM     13  C16 ZIN A   1      14.889   8.325  16.327  0.00  0.00     0.029 C 
ATOM     14  C17 ZIN A   1      13.557   6.398  15.389  0.00  0.00     0.029 C 
BRANCH  10  15
ATOM     15  C20 ZIN A   1      14.961   6.321  18.294  0.00  0.00     0.193 C 
ATOM     16  O21 ZIN A   1      13.852   5.943  18.634  0.00  0.00    -0.647 OA
ATOM     17  O22 ZIN A   1      15.621   7.022  19.041  0.00  0.00    -0.647 OA
ENDBRANCH  10  15
ENDBRANCH   3   5
BRANCH   1  18
ATOM     18  C3  ZIN A   1      17.903   2.888  12.596  0.00  0.00     0.095 A 
ATOM     19  C2  ZIN A   1      17.425   3.189  11.345  0.00  0.00     0.093 A 
ATOM     20  C1  ZIN A   1      17.355   4.555  10.712  0.00  0.00     0.080 C 
ATOM     21  O31 ZIN A   1      17.027   2.036  10.802  0.00  0.00    -0.217 OA
ATOM     22  N30 ZIN A   1      17.198   1.083  11.521  0.00  0.00    -0.127 NA
ATOM     23  C23 ZIN A   1      17.726   1.422  12.671  0.00  0.00     0.113 A 
BRANCH  23  24
ATOM     24  C24 ZIN A   1      18.071   0.529  13.803  0.00  0.00    -0.004 A 
ATOM     25  C29 ZIN A   1      17.340   0.588  14.988  0.00  0.00     0.014 A 
ATOM     26  C28 ZIN A   1      17.662  -0.249  16.038  0.00  0.00     0.001 A 
ATOM     27  C27 ZIN A   1      18.715  -1.138  15.918  0.00  0.00     0.000 A 
ATOM     28  C26 ZIN A   1      19.447  -1.197  14.746  0.00  0.00     0.001 A 
ATOM     29  C25 ZIN A   1      19.131  -0.369  13.689  0.00  0.00     0.014 A 
ENDBRANCH  23  24
ENDBRANCH   1  18
TORSDOF 4
ENDMDL
MODEL 8
REMARK VINA RESULT:      -7.7      2.218      3.138
REMARK  4 active torsions:
REMARK  status: ('A' for Active; 'I' for Inactive)
REMARK    1  A    between atoms: C3_3  and  C4_4 
REMARK       I    between atoms: C4_4  and  N6_6 
REMARK    2  A    between atoms: N6_6  and  C7_7 
REMARK    3  A    between atoms: C18_16  and  C20_17 
REMARK    4  A    between atoms: C23_20  and  C24_21 
ROOT
ATOM      1  C4  ZIN A   1      17.918  -0.578  10.709  0.00  0.00     0.257 C 
ATOM      2  O5  ZIN A   1      16.796  -0.763  11.143  0.00  0.00    -0.267 OA
ATOM      3  N6  ZIN A   1      18.759  -1.620  10.552  0.00  0.00    -0.342 N 
ATOM      4  H35 ZIN A   1      19.653  -1.473  10.206  0.00  0.00     0.163 HD
ENDROOT
BRANCH   3   5
ATOM      5  C7  ZIN A   1      18.322  -2.973  10.903  0.00  0.00     0.199 C 
ATOM      6  C12 ZIN A   1      17.766  -3.769   9.717  0.00  0.00     0.160 C 
ATOM      7  N11 ZIN A   1      19.003  -4.582   9.785  0.00  0.00    -0.219 NA
ATOM      8  S14 ZIN A   1      17.851  -2.906   8.104  0.00  0.00    -0.135 SA
ATOM      9  C9  ZIN A   1      19.447  -3.988  10.934  0.00  0.00     0.227 C 
ATOM     10  C18 ZIN A   1      19.876  -4.470   8.612  0.00  0.00     0.186 C 
ATOM     11  O10 ZIN A   1      20.377  -4.193  11.685  0.00  0.00    -0.277 OA
ATOM     12  C15 ZIN A   1      19.031  -4.105   7.352  0.00  0.00     0.029 C 
ATOM     13  C16 ZIN A   1      18.299  -5.324   6.787  0.00  0.00     0.029 C 
ATOM     14  C17 ZIN A   1      19.898  -3.438   6.284  0.00  0.00     0.029 C 
BRANCH  10  15
ATOM     15  C20 ZIN A   1      20.559  -5.794   8.388  0.00  0.00     0.193 C 
ATOM     16  O21 ZIN A   1      21.588  -5.846   7.733  0.00  0.00    -0.647 OA
ATOM     17  O22 ZIN A   1      20.084  -6.813   8.858  0.00  0.00    -0.647 OA
ENDBRANCH  10  15
ENDBRANCH   3   5
BRANCH   1  18
ATOM     18  C3  ZIN A   1      18.356   0.782  10.356  0.00  0.00     0.095 A 
ATOM     19  C2  ZIN A   1      18.716   1.809  11.192  0.00  0.00     0.093 A 
ATOM     20  C1  ZIN A   1      18.745   1.777  12.699  0.00  0.00     0.080 C 
ATOM     21  O31 ZIN A   1      19.030   2.845  10.409  0.00  0.00    -0.217 OA
ATOM     22  N30 ZIN A   1      18.926   2.604   9.232  0.00  0.00    -0.127 NA
ATOM     23  C23 ZIN A   1      18.517   1.380   9.013  0.00  0.00     0.113 A 
BRANCH  23  24
ATOM     24  C24 ZIN A   1      18.269   0.732   7.703  0.00  0.00    -0.004 A 
ATOM     25  C29 ZIN A   1      17.002   0.241   7.394  0.00  0.00     0.014 A 
ATOM     26  C28 ZIN A   1      16.775  -0.356   6.170  0.00  0.00     0.001 A 
ATOM     27  C27 ZIN A   1      17.805  -0.477   5.256  0.00  0.00     0.000 A 
ATOM     28  C26 ZIN A   1      19.066   0.002   5.559  0.00  0.00     0.001 A 
ATOM     29  C25 ZIN A   1      19.304   0.607   6.777  0.00  0.00     0.014 A 
ENDBRANCH  23  24
ENDBRANCH   1  18
TORSDOF 4
ENDMDL
MODEL 9
REMARK VINA RESULT:      -7.6      3.575      8.367
REMARK  4 active torsions:
REMARK  status: ('A' for Active; 'I' for Inactive)
REMARK    1  A    between atoms: C3_3  and  C4_4 
REMARK       I    between atoms: C4_4  and  N6_6 
REMARK    2  A    between atoms: N6_6  and  C7_7 
REMARK    3  A    between atoms: C18_16  and  C20_17 
REMARK    4  A    between atoms: C23_20  and  C24_21 
ROOT
ATOM      1  C4  ZIN A   1      19.355  -0.717  10.780  0.00  0.00     0.257 C 
ATOM      2  O5  ZIN A   1      20.418  -1.213  11.100  0.00  0.00    -0.267 OA
ATOM      3  N6  ZIN A   1      18.712   0.106  11.632  0.00  0.00    -0.342 N 
ATOM      4  H35 ZIN A   1      17.864   0.502  11.377  0.00  0.00     0.163 HD
ENDROOT
BRANCH   3   5
ATOM      5  C7  ZIN A   1      19.296   0.404  12.942  0.00  0.00     0.199 C 
ATOM      6  C12 ZIN A   1      20.005   1.760  13.008  0.00  0.00     0.160 C 
ATOM      7  N11 ZIN A   1      18.878   2.220  13.851  0.00  0.00    -0.219 NA
ATOM      8  S14 ZIN A   1      19.896   2.760  11.478  0.00  0.00    -0.135 SA
ATOM      9  C9  ZIN A   1      18.306   0.981  13.933  0.00  0.00     0.227 C 
ATOM     10  C18 ZIN A   1      18.058   3.280  13.255  0.00  0.00     0.186 C 
ATOM     11  O10 ZIN A   1      17.372   0.522  14.557  0.00  0.00    -0.277 OA
ATOM     12  C15 ZIN A   1      18.914   4.114  12.252  0.00  0.00     0.029 C 
ATOM     13  C16 ZIN A   1      19.819   5.115  12.973  0.00  0.00     0.029 C 
ATOM     14  C17 ZIN A   1      18.026   4.816  11.223  0.00  0.00     0.029 C 
BRANCH  10  15
ATOM     15  C20 ZIN A   1      17.557   4.182  14.353  0.00  0.00     0.193 C 
ATOM     16  O21 ZIN A   1      16.621   4.936  14.143  0.00  0.00    -0.647 OA
ATOM     17  O22 ZIN A   1      18.088   4.160  15.450  0.00  0.00    -0.647 OA
ENDBRANCH  10  15
ENDBRANCH   3   5
BRANCH   1  18
ATOM     18  C3  ZIN A   1      18.769  -1.017   9.463  0.00  0.00     0.095 A 
ATOM     19  C2  ZIN A   1      18.720  -0.220   8.347  0.00  0.00     0.093 A 
ATOM     20  C1  ZIN A   1      19.268   1.178   8.212  0.00  0.00     0.080 C 
ATOM     21  O31 ZIN A   1      18.086  -0.923   7.405  0.00  0.00    -0.217 OA
ATOM     22  N30 ZIN A   1      17.752  -2.022   7.771  0.00  0.00    -0.127 NA
ATOM     23  C23 ZIN A   1      18.088  -2.251   9.015  0.00  0.00     0.113 A 
BRANCH  23  24
ATOM     24  C24 ZIN A   1      17.840  -3.480   9.806  0.00  0.00    -0.004 A 
ATOM     25  C29 ZIN A   1      17.415  -3.387  11.130  0.00  0.00     0.014 A 
ATOM     26  C28 ZIN A   1      17.180  -4.534  11.860  0.00  0.00     0.001 A 
ATOM     27  C27 ZIN A   1      17.375  -5.775  11.282  0.00  0.00     0.000 A 
ATOM     28  C26 ZIN A   1      17.802  -5.875   9.971  0.00  0.00     0.001 A 
ATOM     29  C25 ZIN A   1      18.034  -4.735   9.229  0.00  0.00     0.014 A 
ENDBRANCH  23  24
ENDBRANCH   1  18
TORSDOF 4
ENDMDL
