MODEL 1
REMARK VINA RESULT:      -6.8      0.000      0.000
REMARK  10 active torsions:
REMARK  status: ('A' for Active; 'I' for Inactive)
REMARK    1  A    between atoms: C2_2  and  N3_3 
REMARK    2  A    between atoms: N3_3  and  C5_5 
REMARK    3  A    between atoms: N3_3  and  C8_8 
REMARK    4  A    between atoms: C5_5  and  C6_6 
REMARK    5  A    between atoms: C6_6  and  O7_7 
REMARK    6  A    between atoms: C8_8  and  C9_9 
REMARK    7  A    between atoms: C9_9  and  C10_10 
REMARK    8  A    between atoms: C10_10  and  C11_11 
REMARK    9  A    between atoms: C11_11  and  N14_13 
REMARK   10  A    between atoms: N14_13  and  C15_14 
ROOT
ATOM      1  N14 ZIN A   1      19.612   1.473  10.889  0.00  0.00    -0.385 N 
ATOM      2  H46 ZIN A   1      20.308   2.126  11.060  0.00  0.00     0.160 HD
ENDROOT
BRANCH   1   3
ATOM      3  C11 ZIN A   1      18.521   1.789   9.965  0.00  0.00     0.077 C 
ATOM      4  C13 ZIN A   1      17.753   3.010  10.480  0.00  0.00     0.032 C 
BRANCH   3   5
ATOM      5  C10 ZIN A   1      19.097   2.097   8.581  0.00  0.00     0.026 C 
BRANCH   5   6
ATOM      6  C9  ZIN A   1      19.008   0.847   7.703  0.00  0.00     0.030 C 
BRANCH   6   7
ATOM      7  C8  ZIN A   1      17.717   0.090   8.023  0.00  0.00     0.235 C 
BRANCH   7   8
ATOM      8  N3  ZIN A   1      17.576  -1.046   7.102  0.00  0.00    -0.069 N 
ATOM      9  H4  ZIN A   1      16.628  -1.389   7.134  0.00  0.00     0.279 HD
BRANCH   8  10
ATOM     10  C2  ZIN A   1      18.497  -2.118   7.504  0.00  0.00     0.230 C 
ATOM     11  C1  ZIN A   1      17.849  -2.962   8.603  0.00  0.00     0.034 C 
ENDBRANCH   8  10
BRANCH   8  12
ATOM     12  C5  ZIN A   1      17.895  -0.613   5.736  0.00  0.00     0.260 C 
BRANCH  12  13
ATOM     13  C6  ZIN A   1      18.735  -1.687   5.044  0.00  0.00     0.192 C 
BRANCH  13  14
ATOM     14  O7  ZIN A   1      19.892  -1.086   4.461  0.00  0.00    -0.399 OA
ATOM     15  H36 ZIN A   1      20.110  -0.216   4.824  0.00  0.00     0.209 HD
ENDBRANCH  13  14
ENDBRANCH  12  13
ENDBRANCH   8  12
ENDBRANCH   7   8
ENDBRANCH   6   7
ENDBRANCH   5   6
ENDBRANCH   3   5
ENDBRANCH   1   3
BRANCH   1  16
ATOM     16  C15 ZIN A   1      19.650   0.238  11.519  0.00  0.00     0.042 A 
ATOM     17  C26 ZIN A   1      19.905  -0.922  10.804  0.00  0.00     0.047 A 
ATOM     18  C25 ZIN A   1      19.940  -2.143  11.464  0.00  0.00     0.090 A 
ATOM     19  N23 ZIN A   1      19.729  -2.237  12.756  0.00  0.00    -0.365 N 
ATOM     20  C22 ZIN A   1      19.472  -1.161  13.508  0.00  0.00     0.046 A 
ATOM     21  H24 ZIN A   1      19.760  -3.111  13.177  0.00  0.00     0.165 HD
ATOM     22  C16 ZIN A   1      19.424   0.122  12.912  0.00  0.00     0.017 A 
ATOM     23  C21 ZIN A   1      19.248  -1.280  14.890  0.00  0.00     0.054 A 
ATOM     24  C17 ZIN A   1      19.153   1.247  13.703  0.00  0.00     0.018 A 
ATOM     25  C18 ZIN A   1      18.940   1.095  15.039  0.00  0.00     0.025 A 
ATOM     26  C19 ZIN A   1      18.987  -0.166  15.631  0.00  0.00     0.036 A 
ATOM     27 Cl20 ZIN A   1      18.711  -0.322  17.337  0.00  0.00    -0.084 Cl
ENDBRANCH   1  16
TORSDOF 10
ENDMDL
MODEL 2
REMARK VINA RESULT:      -6.6      1.376      3.360
REMARK  10 active torsions:
REMARK  status: ('A' for Active; 'I' for Inactive)
REMARK    1  A    between atoms: C2_2  and  N3_3 
REMARK    2  A    between atoms: N3_3  and  C5_5 
REMARK    3  A    between atoms: N3_3  and  C8_8 
REMARK    4  A    between atoms: C5_5  and  C6_6 
REMARK    5  A    between atoms: C6_6  and  O7_7 
REMARK    6  A    between atoms: C8_8  and  C9_9 
REMARK    7  A    between atoms: C9_9  and  C10_10 
REMARK    8  A    between atoms: C10_10  and  C11_11 
REMARK    9  A    between atoms: C11_11  and  N14_13 
REMARK   10  A    between atoms: N14_13  and  C15_14 
ROOT
ATOM      1  N14 ZIN A   1      19.587  -2.267  12.726  0.00  0.00    -0.385 N 
ATOM      2  H46 ZIN A   1      19.651  -2.933  13.428  0.00  0.00     0.160 HD
ENDROOT
BRANCH   1   3
ATOM      3  C11 ZIN A   1      19.512  -2.686  11.325  0.00  0.00     0.077 C 
ATOM      4  C13 ZIN A   1      20.080  -4.100  11.183  0.00  0.00     0.032 C 
BRANCH   3   5
ATOM      5  C10 ZIN A   1      18.052  -2.675  10.867  0.00  0.00     0.026 C 
BRANCH   5   6
ATOM      6  C9  ZIN A   1      17.858  -1.588   9.807  0.00  0.00     0.030 C 
BRANCH   6   7
ATOM      7  C8  ZIN A   1      18.914  -1.752   8.710  0.00  0.00     0.235 C 
BRANCH   7   8
ATOM      8  N3  ZIN A   1      19.154  -0.454   8.065  0.00  0.00    -0.069 N 
ATOM      9  H4  ZIN A   1      20.139  -0.243   8.091  0.00  0.00     0.279 HD
BRANCH   8  10
ATOM     10  C2  ZIN A   1      18.410   0.592   8.780  0.00  0.00     0.230 C 
ATOM     11  C1  ZIN A   1      19.248   1.870   8.831  0.00  0.00     0.034 C 
ENDBRANCH   8  10
BRANCH   8  12
ATOM     12  C5  ZIN A   1      18.701  -0.510   6.669  0.00  0.00     0.260 C 
BRANCH  12  13
ATOM     13  C6  ZIN A   1      19.309  -1.736   5.985  0.00  0.00     0.192 C 
BRANCH  13  14
ATOM     14  O7  ZIN A   1      19.800  -1.368   4.695  0.00  0.00    -0.399 OA
ATOM     15  H36 ZIN A   1      19.461  -0.522   4.371  0.00  0.00     0.209 HD
ENDBRANCH  13  14
ENDBRANCH  12  13
ENDBRANCH   8  12
ENDBRANCH   7   8
ENDBRANCH   6   7
ENDBRANCH   5   6
ENDBRANCH   3   5
ENDBRANCH   1   3
BRANCH   1  16
ATOM     16  C15 ZIN A   1      19.567  -0.918  13.049  0.00  0.00     0.042 A 
ATOM     17  C26 ZIN A   1      20.029   0.037  12.157  0.00  0.00     0.047 A 
ATOM     18  C25 ZIN A   1      19.992   1.380  12.507  0.00  0.00     0.090 A 
ATOM     19  N23 ZIN A   1      19.536   1.779  13.672  0.00  0.00    -0.365 N 
ATOM     20  C22 ZIN A   1      19.078   0.912  14.582  0.00  0.00     0.046 A 
ATOM     21  H24 ZIN A   1      19.530   2.727  13.877  0.00  0.00     0.165 HD
ATOM     22  C16 ZIN A   1      19.077  -0.475  14.300  0.00  0.00     0.017 A 
ATOM     23  C21 ZIN A   1      18.593   1.356  15.824  0.00  0.00     0.054 A 
ATOM     24  C17 ZIN A   1      18.598  -1.379  15.258  0.00  0.00     0.018 A 
ATOM     25  C18 ZIN A   1      18.136  -0.914  16.452  0.00  0.00     0.025 A 
ATOM     26  C19 ZIN A   1      18.133   0.451  16.733  0.00  0.00     0.036 A 
ATOM     27 Cl20 ZIN A   1      17.537   1.007  18.265  0.00  0.00    -0.084 Cl
ENDBRANCH   1  16
TORSDOF 10
ENDMDL
MODEL 3
REMARK VINA RESULT:      -6.5      4.253      7.985
REMARK  10 active torsions:
REMARK  status: ('A' for Active; 'I' for Inactive)
REMARK    1  A    between atoms: C2_2  and  N3_3 
REMARK    2  A    between atoms: N3_3  and  C5_5 
REMARK    3  A    between atoms: N3_3  and  C8_8 
REMARK    4  A    between atoms: C5_5  and  C6_6 
REMARK    5  A    between atoms: C6_6  and  O7_7 
REMARK    6  A    between atoms: C8_8  and  C9_9 
REMARK    7  A    between atoms: C9_9  and  C10_10 
REMARK    8  A    between atoms: C10_10  and  C11_11 
REMARK    9  A    between atoms: C11_11  and  N14_13 
REMARK   10  A    between atoms: N14_13  and  C15_14 
ROOT
ATOM      1  N14 ZIN A   1      19.436  -0.611  11.474  0.00  0.00    -0.385 N 
ATOM      2  H46 ZIN A   1      20.275  -1.095  11.486  0.00  0.00     0.160 HD
ENDROOT
BRANCH   1   3
ATOM      3  C11 ZIN A   1      18.336  -1.030  12.347  0.00  0.00     0.077 C 
ATOM      4  C13 ZIN A   1      17.640  -2.251  11.740  0.00  0.00     0.032 C 
BRANCH   3   5
ATOM      5  C10 ZIN A   1      18.889  -1.393  13.726  0.00  0.00     0.026 C 
BRANCH   5   6
ATOM      6  C9  ZIN A   1      19.550  -0.161  14.350  0.00  0.00     0.030 C 
BRANCH   6   7
ATOM      7  C8  ZIN A   1      18.543   0.556  15.252  0.00  0.00     0.235 C 
BRANCH   7   8
ATOM      8  N3  ZIN A   1      19.255   1.494  16.131  0.00  0.00    -0.069 N 
ATOM      9  H4  ZIN A   1      20.243   1.295  16.105  0.00  0.00     0.279 HD
BRANCH   8  10
ATOM     10  C2  ZIN A   1      18.762   1.344  17.507  0.00  0.00     0.230 C 
ATOM     11  C1  ZIN A   1      19.286   0.035  18.097  0.00  0.00     0.034 C 
ENDBRANCH   8  10
BRANCH   8  12
ATOM     12  C5  ZIN A   1      19.019   2.869  15.673  0.00  0.00     0.260 C 
BRANCH  12  13
ATOM     13  C6  ZIN A   1      19.593   3.852  16.695  0.00  0.00     0.192 C 
BRANCH  13  14
ATOM     14  O7  ZIN A   1      20.954   4.138  16.370  0.00  0.00    -0.399 OA
ATOM     15  H36 ZIN A   1      21.091   4.414  15.454  0.00  0.00     0.209 HD
ENDBRANCH  13  14
ENDBRANCH  12  13
ENDBRANCH   8  12
ENDBRANCH   7   8
ENDBRANCH   6   7
ENDBRANCH   5   6
ENDBRANCH   3   5
ENDBRANCH   1   3
BRANCH   1  16
ATOM     16  C15 ZIN A   1      19.275   0.479  10.632  0.00  0.00     0.042 A 
ATOM     17  C26 ZIN A   1      19.191   1.767  11.138  0.00  0.00     0.047 A 
ATOM     18  C25 ZIN A   1      19.033   2.838  10.268  0.00  0.00     0.090 A 
ATOM     19  N23 ZIN A   1      18.952   2.669   8.969  0.00  0.00    -0.365 N 
ATOM     20  C22 ZIN A   1      19.021   1.455   8.412  0.00  0.00     0.046 A 
ATOM     21  H24 ZIN A   1      18.840   3.445   8.398  0.00  0.00     0.165 HD
ATOM     22  C16 ZIN A   1      19.186   0.311   9.229  0.00  0.00     0.017 A 
ATOM     23  C21 ZIN A   1      18.932   1.291   7.019  0.00  0.00     0.054 A 
ATOM     24  C17 ZIN A   1      19.256  -0.960   8.641  0.00  0.00     0.018 A 
ATOM     25  C18 ZIN A   1      19.166  -1.082   7.288  0.00  0.00     0.025 A 
ATOM     26  C19 ZIN A   1      19.005   0.042   6.479  0.00  0.00     0.036 A 
ATOM     27 Cl20 ZIN A   1      18.894  -0.152   4.758  0.00  0.00    -0.084 Cl
ENDBRANCH   1  16
TORSDOF 10
ENDMDL
MODEL 4
REMARK VINA RESULT:      -6.5      3.573      6.045
REMARK  10 active torsions:
REMARK  status: ('A' for Active; 'I' for Inactive)
REMARK    1  A    between atoms: C2_2  and  N3_3 
REMARK    2  A    between atoms: N3_3  and  C5_5 
REMARK    3  A    between atoms: N3_3  and  C8_8 
REMARK    4  A    between atoms: C5_5  and  C6_6 
REMARK    5  A    between atoms: C6_6  and  O7_7 
REMARK    6  A    between atoms: C8_8  and  C9_9 
REMARK    7  A    between atoms: C9_9  and  C10_10 
REMARK    8  A    between atoms: C10_10  and  C11_11 
REMARK    9  A    between atoms: C11_11  and  N14_13 
REMARK   10  A    between atoms: N14_13  and  C15_14 
ROOT
ATOM      1  N14 ZIN A   1      18.162   0.967  10.518  0.00  0.00    -0.385 N 
ATOM      2  H46 ZIN A   1      17.221   1.002  10.289  0.00  0.00     0.160 HD
ENDROOT
BRANCH   1   3
ATOM      3  C11 ZIN A   1      19.062   2.038  10.085  0.00  0.00     0.077 C 
ATOM      4  C13 ZIN A   1      19.172   2.026   8.558  0.00  0.00     0.032 C 
BRANCH   3   5
ATOM      5  C10 ZIN A   1      18.508   3.388  10.546  0.00  0.00     0.026 C 
BRANCH   5   6
ATOM      6  C9  ZIN A   1      19.278   3.860  11.781  0.00  0.00     0.030 C 
BRANCH   6   7
ATOM      7  C8  ZIN A   1      18.375   4.755  12.633  0.00  0.00     0.235 C 
BRANCH   7   8
ATOM      8  N3  ZIN A   1      18.585   4.450  14.055  0.00  0.00    -0.069 N 
ATOM      9  H4  ZIN A   1      18.737   3.459  14.168  0.00  0.00     0.279 HD
BRANCH   8  10
ATOM     10  C2  ZIN A   1      17.398   4.853  14.822  0.00  0.00     0.230 C 
ATOM     11  C1  ZIN A   1      16.421   5.586  13.902  0.00  0.00     0.034 C 
ENDBRANCH   8  10
BRANCH   8  12
ATOM     12  C5  ZIN A   1      19.758   5.184  14.546  0.00  0.00     0.260 C 
BRANCH  12  13
ATOM     13  C6  ZIN A   1      19.798   5.118  16.073  0.00  0.00     0.192 C 
BRANCH  13  14
ATOM     14  O7  ZIN A   1      20.954   4.388  16.488  0.00  0.00    -0.399 OA
ATOM     15  H36 ZIN A   1      21.755   4.600  15.989  0.00  0.00     0.209 HD
ENDBRANCH  13  14
ENDBRANCH  12  13
ENDBRANCH   8  12
ENDBRANCH   7   8
ENDBRANCH   6   7
ENDBRANCH   5   6
ENDBRANCH   3   5
ENDBRANCH   1   3
BRANCH   1  16
ATOM     16  C15 ZIN A   1      18.657  -0.098  11.257  0.00  0.00     0.042 A 
ATOM     17  C26 ZIN A   1      19.386  -1.110  10.653  0.00  0.00     0.047 A 
ATOM     18  C25 ZIN A   1      19.871  -2.160  11.421  0.00  0.00     0.090 A 
ATOM     19  N23 ZIN A   1      19.652  -2.231  12.714  0.00  0.00    -0.365 N 
ATOM     20  C22 ZIN A   1      18.953  -1.293  13.361  0.00  0.00     0.046 A 
ATOM     21  H24 ZIN A   1      20.007  -2.984  13.212  0.00  0.00     0.165 HD
ATOM     22  C16 ZIN A   1      18.428  -0.186  12.651  0.00  0.00     0.017 A 
ATOM     23  C21 ZIN A   1      18.728  -1.384  14.746  0.00  0.00     0.054 A 
ATOM     24  C17 ZIN A   1      17.695   0.794  13.334  0.00  0.00     0.018 A 
ATOM     25  C18 ZIN A   1      17.495   0.674  14.676  0.00  0.00     0.025 A 
ATOM     26  C19 ZIN A   1      18.011  -0.413  15.379  0.00  0.00     0.036 A 
ATOM     27 Cl20 ZIN A   1      17.737  -0.534  17.089  0.00  0.00    -0.084 Cl
ENDBRANCH   1  16
TORSDOF 10
ENDMDL
MODEL 5
REMARK VINA RESULT:      -6.5      2.965      4.544
REMARK  10 active torsions:
REMARK  status: ('A' for Active; 'I' for Inactive)
REMARK    1  A    between atoms: C2_2  and  N3_3 
REMARK    2  A    between atoms: N3_3  and  C5_5 
REMARK    3  A    between atoms: N3_3  and  C8_8 
REMARK    4  A    between atoms: C5_5  and  C6_6 
REMARK    5  A    between atoms: C6_6  and  O7_7 
REMARK    6  A    between atoms: C8_8  and  C9_9 
REMARK    7  A    between atoms: C9_9  and  C10_10 
REMARK    8  A    between atoms: C10_10  and  C11_11 
REMARK    9  A    between atoms: C11_11  and  N14_13 
REMARK   10  A    between atoms: N14_13  and  C15_14 
ROOT
ATOM      1  N14 ZIN A   1      17.941   3.871  12.730  0.00  0.00    -0.385 N 
ATOM      2  H46 ZIN A   1      17.000   3.644  12.676  0.00  0.00     0.160 HD
ENDROOT
BRANCH   1   3
ATOM      3  C11 ZIN A   1      18.732   4.014  11.505  0.00  0.00     0.077 C 
ATOM      4  C13 ZIN A   1      20.050   3.251  11.656  0.00  0.00     0.032 C 
BRANCH   3   5
ATOM      5  C10 ZIN A   1      17.946   3.445  10.321  0.00  0.00     0.026 C 
BRANCH   5   6
ATOM      6  C9  ZIN A   1      18.739   2.300   9.687  0.00  0.00     0.030 C 
BRANCH   6   7
ATOM      7  C8  ZIN A   1      17.816   1.097   9.475  0.00  0.00     0.235 C 
BRANCH   7   8
ATOM      8  N3  ZIN A   1      18.467  -0.115   9.990  0.00  0.00    -0.069 N 
ATOM      9  H4  ZIN A   1      18.149  -0.916   9.467  0.00  0.00     0.279 HD
BRANCH   8  10
ATOM     10  C2  ZIN A   1      18.123  -0.289  11.408  0.00  0.00     0.230 C 
ATOM     11  C1  ZIN A   1      16.650   0.058  11.623  0.00  0.00     0.034 C 
ENDBRANCH   8  10
BRANCH   8  12
ATOM     12  C5  ZIN A   1      19.923   0.014   9.852  0.00  0.00     0.260 C 
BRANCH  12  13
ATOM     13  C6  ZIN A   1      20.612  -0.741  10.989  0.00  0.00     0.192 C 
BRANCH  13  14
ATOM     14  O7  ZIN A   1      21.619   0.088  11.571  0.00  0.00    -0.399 OA
ATOM     15  H36 ZIN A   1      22.513  -0.093  11.250  0.00  0.00     0.209 HD
ENDBRANCH  13  14
ENDBRANCH  12  13
ENDBRANCH   8  12
ENDBRANCH   7   8
ENDBRANCH   6   7
ENDBRANCH   5   6
ENDBRANCH   3   5
ENDBRANCH   1   3
BRANCH   1  16
ATOM     16  C15 ZIN A   1      18.541   4.060  13.967  0.00  0.00     0.042 A 
ATOM     17  C26 ZIN A   1      19.089   5.284  14.315  0.00  0.00     0.047 A 
ATOM     18  C25 ZIN A   1      19.679   5.443  15.562  0.00  0.00     0.090 A 
ATOM     19  N23 ZIN A   1      19.742   4.458  16.428  0.00  0.00    -0.365 N 
ATOM     20  C22 ZIN A   1      19.238   3.249  16.157  0.00  0.00     0.046 A 
ATOM     21  H24 ZIN A   1      20.165   4.612  17.288  0.00  0.00     0.165 HD
ATOM     22  C16 ZIN A   1      18.616   3.007  14.909  0.00  0.00     0.017 A 
ATOM     23  C21 ZIN A   1      19.314   2.206  17.096  0.00  0.00     0.054 A 
ATOM     24  C17 ZIN A   1      18.090   1.738  14.629  0.00  0.00     0.018 A 
ATOM     25  C18 ZIN A   1      18.182   0.750  15.561  0.00  0.00     0.025 A 
ATOM     26  C19 ZIN A   1      18.792   0.984  16.792  0.00  0.00     0.036 A 
ATOM     27 Cl20 ZIN A   1      18.891  -0.299  17.956  0.00  0.00    -0.084 Cl
ENDBRANCH   1  16
TORSDOF 10
ENDMDL
MODEL 6
REMARK VINA RESULT:      -6.5      2.443      3.674
REMARK  10 active torsions:
REMARK  status: ('A' for Active; 'I' for Inactive)
REMARK    1  A    between atoms: C2_2  and  N3_3 
REMARK    2  A    between atoms: N3_3  and  C5_5 
REMARK    3  A    between atoms: N3_3  and  C8_8 
REMARK    4  A    between atoms: C5_5  and  C6_6 
REMARK    5  A    between atoms: C6_6  and  O7_7 
REMARK    6  A    between atoms: C8_8  and  C9_9 
REMARK    7  A    between atoms: C9_9  and  C10_10 
REMARK    8  A    between atoms: C10_10  and  C11_11 
REMARK    9  A    between atoms: C11_11  and  N14_13 
REMARK   10  A    between atoms: N14_13  and  C15_14 
ROOT
ATOM      1  N14 ZIN A   1      19.685   1.103  10.198  0.00  0.00    -0.385 N 
ATOM      2  H46 ZIN A   1      20.512   0.639   9.999  0.00  0.00     0.160 HD
ENDROOT
BRANCH   1   3
ATOM      3  C11 ZIN A   1      18.623   1.172   9.191  0.00  0.00     0.077 C 
ATOM      4  C13 ZIN A   1      19.206   1.675   7.868  0.00  0.00     0.032 C 
BRANCH   3   5
ATOM      5  C10 ZIN A   1      18.023  -0.221   8.986  0.00  0.00     0.026 C 
BRANCH   5   6
ATOM      6  C9  ZIN A   1      19.148  -1.258   8.941  0.00  0.00     0.030 C 
BRANCH   6   7
ATOM      7  C8  ZIN A   1      18.567  -2.652   9.189  0.00  0.00     0.235 C 
BRANCH   7   8
ATOM      8  N3  ZIN A   1      19.590  -3.666   8.905  0.00  0.00    -0.069 N 
ATOM      9  H4  ZIN A   1      20.499  -3.229   8.878  0.00  0.00     0.279 HD
BRANCH   8  10
ATOM     10  C2  ZIN A   1      19.310  -4.292   7.606  0.00  0.00     0.230 C 
ATOM     11  C1  ZIN A   1      18.215  -5.347   7.773  0.00  0.00     0.034 C 
ENDBRANCH   8  10
BRANCH   8  12
ATOM     12  C5  ZIN A   1      19.571  -4.691   9.957  0.00  0.00     0.260 C 
BRANCH  12  13
ATOM     13  C6  ZIN A   1      19.689  -4.018  11.325  0.00  0.00     0.192 C 
BRANCH  13  14
ATOM     14  O7  ZIN A   1      21.009  -3.495  11.487  0.00  0.00    -0.399 OA
ATOM     15  H36 ZIN A   1      21.693  -4.003  11.029  0.00  0.00     0.209 HD
ENDBRANCH  13  14
ENDBRANCH  12  13
ENDBRANCH   8  12
ENDBRANCH   7   8
ENDBRANCH   6   7
ENDBRANCH   5   6
ENDBRANCH   3   5
ENDBRANCH   1   3
BRANCH   1  16
ATOM     16  C15 ZIN A   1      19.504   1.702  11.436  0.00  0.00     0.042 A 
ATOM     17  C26 ZIN A   1      19.446   3.081  11.562  0.00  0.00     0.047 A 
ATOM     18  C25 ZIN A   1      19.261   3.649  12.815  0.00  0.00     0.090 A 
ATOM     19  N23 ZIN A   1      19.148   2.916  13.898  0.00  0.00    -0.365 N 
ATOM     20  C22 ZIN A   1      19.200   1.581  13.852  0.00  0.00     0.046 A 
ATOM     21  H24 ZIN A   1      19.022   3.355  14.754  0.00  0.00     0.165 HD
ATOM     22  C16 ZIN A   1      19.381   0.923  12.612  0.00  0.00     0.017 A 
ATOM     23  C21 ZIN A   1      19.077   0.810  15.021  0.00  0.00     0.054 A 
ATOM     24  C17 ZIN A   1      19.437  -0.477  12.568  0.00  0.00     0.018 A 
ATOM     25  C18 ZIN A   1      19.314  -1.192  13.721  0.00  0.00     0.025 A 
ATOM     26  C19 ZIN A   1      19.135  -0.549  14.944  0.00  0.00     0.036 A 
ATOM     27 Cl20 ZIN A   1      18.983  -1.493  16.393  0.00  0.00    -0.084 Cl
ENDBRANCH   1  16
TORSDOF 10
ENDMDL
MODEL 7
REMARK VINA RESULT:      -6.5      3.514      5.988
REMARK  10 active torsions:
REMARK  status: ('A' for Active; 'I' for Inactive)
REMARK    1  A    between atoms: C2_2  and  N3_3 
REMARK    2  A    between atoms: N3_3  and  C5_5 
REMARK    3  A    between atoms: N3_3  and  C8_8 
REMARK    4  A    between atoms: C5_5  and  C6_6 
REMARK    5  A    between atoms: C6_6  and  O7_7 
REMARK    6  A    between atoms: C8_8  and  C9_9 
REMARK    7  A    between atoms: C9_9  and  C10_10 
REMARK    8  A    between atoms: C10_10  and  C11_11 
REMARK    9  A    between atoms: C11_11  and  N14_13 
REMARK   10  A    between atoms: N14_13  and  C15_14 
ROOT
ATOM      1  N14 ZIN A   1      17.903  -0.684  11.200  0.00  0.00    -0.385 N 
ATOM      2  H46 ZIN A   1      17.157  -1.248  10.943  0.00  0.00     0.160 HD
ENDROOT
BRANCH   1   3
ATOM      3  C11 ZIN A   1      18.653  -0.973  12.424  0.00  0.00     0.077 C 
ATOM      4  C13 ZIN A   1      17.794  -0.627  13.643  0.00  0.00     0.032 C 
BRANCH   3   5
ATOM      5  C10 ZIN A   1      19.015  -2.460  12.461  0.00  0.00     0.026 C 
BRANCH   5   6
ATOM      6  C9  ZIN A   1      19.999  -2.773  11.332  0.00  0.00     0.030 C 
BRANCH   6   7
ATOM      7  C8  ZIN A   1      19.897  -4.254  10.963  0.00  0.00     0.235 C 
BRANCH   7   8
ATOM      8  N3  ZIN A   1      19.502  -4.381   9.554  0.00  0.00    -0.069 N 
ATOM      9  H4  ZIN A   1      19.809  -3.567   9.044  0.00  0.00     0.279 HD
BRANCH   8  10
ATOM     10  C2  ZIN A   1      18.040  -4.492   9.464  0.00  0.00     0.230 C 
ATOM     11  C1  ZIN A   1      17.600  -5.869   9.963  0.00  0.00     0.034 C 
ENDBRANCH   8  10
BRANCH   8  12
ATOM     12  C5  ZIN A   1      20.120  -5.582   8.977  0.00  0.00     0.260 C 
BRANCH  12  13
ATOM     13  C6  ZIN A   1      20.438  -5.333   7.502  0.00  0.00     0.192 C 
BRANCH  13  14
ATOM     14  O7  ZIN A   1      21.854  -5.287   7.321  0.00  0.00    -0.399 OA
ATOM     15  H36 ZIN A   1      22.357  -5.703   8.034  0.00  0.00     0.209 HD
ENDBRANCH  13  14
ENDBRANCH  12  13
ENDBRANCH   8  12
ENDBRANCH   7   8
ENDBRANCH   6   7
ENDBRANCH   5   6
ENDBRANCH   3   5
ENDBRANCH   1   3
BRANCH   1  16
ATOM     16  C15 ZIN A   1      18.260   0.398  10.408  0.00  0.00     0.042 A 
ATOM     17  C26 ZIN A   1      18.408   1.664  10.951  0.00  0.00     0.047 A 
ATOM     18  C25 ZIN A   1      18.770   2.725  10.133  0.00  0.00     0.090 A 
ATOM     19  N23 ZIN A   1      18.970   2.569   8.845  0.00  0.00    -0.365 N 
ATOM     20  C22 ZIN A   1      18.839   1.377   8.252  0.00  0.00     0.046 A 
ATOM     21  H24 ZIN A   1      19.219   3.339   8.309  0.00  0.00     0.165 HD
ATOM     22  C16 ZIN A   1      18.478   0.243   9.018  0.00  0.00     0.017 A 
ATOM     23  C21 ZIN A   1      19.057   1.227   6.872  0.00  0.00     0.054 A 
ATOM     24  C17 ZIN A   1      18.341  -1.004   8.392  0.00  0.00     0.018 A 
ATOM     25  C18 ZIN A   1      18.559  -1.113   7.052  0.00  0.00     0.025 A 
ATOM     26  C19 ZIN A   1      18.916   0.001   6.294  0.00  0.00     0.036 A 
ATOM     27 Cl20 ZIN A   1      19.186  -0.175   4.589  0.00  0.00    -0.084 Cl
ENDBRANCH   1  16
TORSDOF 10
ENDMDL
MODEL 8
REMARK VINA RESULT:      -6.3      1.696      2.979
REMARK  10 active torsions:
REMARK  status: ('A' for Active; 'I' for Inactive)
REMARK    1  A    between atoms: C2_2  and  N3_3 
REMARK    2  A    between atoms: N3_3  and  C5_5 
REMARK    3  A    between atoms: N3_3  and  C8_8 
REMARK    4  A    between atoms: C5_5  and  C6_6 
REMARK    5  A    between atoms: C6_6  and  O7_7 
REMARK    6  A    between atoms: C8_8  and  C9_9 
REMARK    7  A    between atoms: C9_9  and  C10_10 
REMARK    8  A    between atoms: C10_10  and  C11_11 
REMARK    9  A    between atoms: C11_11  and  N14_13 
REMARK   10  A    between atoms: N14_13  and  C15_14 
ROOT
ATOM      1  N14 ZIN A   1      19.483   1.531  10.744  0.00  0.00    -0.385 N 
ATOM      2  H46 ZIN A   1      20.325   1.095  10.539  0.00  0.00     0.160 HD
ENDROOT
BRANCH   1   3
ATOM      3  C11 ZIN A   1      18.471   1.698   9.699  0.00  0.00     0.077 C 
ATOM      4  C13 ZIN A   1      19.158   2.021   8.369  0.00  0.00     0.032 C 
BRANCH   3   5
ATOM      5  C10 ZIN A   1      17.667   0.404   9.556  0.00  0.00     0.026 C 
BRANCH   5   6
ATOM      6  C9  ZIN A   1      17.588   0.015   8.077  0.00  0.00     0.030 C 
BRANCH   6   7
ATOM      7  C8  ZIN A   1      18.191  -1.378   7.884  0.00  0.00     0.235 C 
BRANCH   7   8
ATOM      8  N3  ZIN A   1      19.173  -1.339   6.792  0.00  0.00    -0.069 N 
ATOM      9  H4  ZIN A   1      20.089  -1.152   7.170  0.00  0.00     0.279 HD
BRANCH   8  10
ATOM     10  C2  ZIN A   1      18.808  -0.276   5.845  0.00  0.00     0.230 C 
ATOM     11  C1  ZIN A   1      18.908  -0.810   4.416  0.00  0.00     0.034 C 
ENDBRANCH   8  10
BRANCH   8  12
ATOM     12  C5  ZIN A   1      19.184  -2.632   6.096  0.00  0.00     0.260 C 
BRANCH  12  13
ATOM     13  C6  ZIN A   1      19.636  -3.727   7.064  0.00  0.00     0.192 C 
BRANCH  13  14
ATOM     14  O7  ZIN A   1      20.962  -4.141   6.731  0.00  0.00    -0.399 OA
ATOM     15  H36 ZIN A   1      21.000  -4.904   6.138  0.00  0.00     0.209 HD
ENDBRANCH  13  14
ENDBRANCH  12  13
ENDBRANCH   8  12
ENDBRANCH   7   8
ENDBRANCH   6   7
ENDBRANCH   5   6
ENDBRANCH   3   5
ENDBRANCH   1   3
BRANCH   1  16
ATOM     16  C15 ZIN A   1      19.238   1.996  12.027  0.00  0.00     0.042 A 
ATOM     17  C26 ZIN A   1      19.029   3.345  12.271  0.00  0.00     0.047 A 
ATOM     18  C25 ZIN A   1      18.782   3.779  13.566  0.00  0.00     0.090 A 
ATOM     19  N23 ZIN A   1      18.747   2.946  14.581  0.00  0.00    -0.365 N 
ATOM     20  C22 ZIN A   1      18.944   1.633  14.420  0.00  0.00     0.046 A 
ATOM     21  H24 ZIN A   1      18.573   3.293  15.470  0.00  0.00     0.165 HD
ATOM     22  C16 ZIN A   1      19.198   1.110  13.130  0.00  0.00     0.017 A 
ATOM     23  C21 ZIN A   1      18.904   0.755  15.517  0.00  0.00     0.054 A 
ATOM     24  C17 ZIN A   1      19.405  -0.267  12.966  0.00  0.00     0.018 A 
ATOM     25  C18 ZIN A   1      19.360  -1.089  14.051  0.00  0.00     0.025 A 
ATOM     26  C19 ZIN A   1      19.109  -0.578  15.323  0.00  0.00     0.036 A 
ATOM     27 Cl20 ZIN A   1      19.059  -1.656  16.683  0.00  0.00    -0.084 Cl
ENDBRANCH   1  16
TORSDOF 10
ENDMDL
MODEL 9
REMARK VINA RESULT:      -6.3      1.874      3.060
REMARK  10 active torsions:
REMARK  status: ('A' for Active; 'I' for Inactive)
REMARK    1  A    between atoms: C2_2  and  N3_3 
REMARK    2  A    between atoms: N3_3  and  C5_5 
REMARK    3  A    between atoms: N3_3  and  C8_8 
REMARK    4  A    between atoms: C5_5  and  C6_6 
REMARK    5  A    between atoms: C6_6  and  O7_7 
REMARK    6  A    between atoms: C8_8  and  C9_9 
REMARK    7  A    between atoms: C9_9  and  C10_10 
REMARK    8  A    between atoms: C10_10  and  C11_11 
REMARK    9  A    between atoms: C11_11  and  N14_13 
REMARK   10  A    between atoms: N14_13  and  C15_14 
ROOT
ATOM      1  N14 ZIN A   1      19.059   3.209  11.690  0.00  0.00    -0.385 N 
ATOM      2  H46 ZIN A   1      19.905   3.185  11.217  0.00  0.00     0.160 HD
ENDROOT
BRANCH   1   3
ATOM      3  C11 ZIN A   1      17.800   3.189  10.941  0.00  0.00     0.077 C 
ATOM      4  C13 ZIN A   1      17.627   4.518  10.199  0.00  0.00     0.032 C 
BRANCH   3   5
ATOM      5  C10 ZIN A   1      17.827   2.041   9.929  0.00  0.00     0.026 C 
BRANCH   5   6
ATOM      6  C9  ZIN A   1      19.145   2.079   9.151  0.00  0.00     0.030 C 
BRANCH   6   7
ATOM      7  C8  ZIN A   1      19.518   0.660   8.714  0.00  0.00     0.235 C 
BRANCH   7   8
ATOM      8  N3  ZIN A   1      18.588   0.209   7.671  0.00  0.00    -0.069 N 
ATOM      9  H4  ZIN A   1      17.664   0.564   7.867  0.00  0.00     0.279 HD
BRANCH   8  10
ATOM     10  C2  ZIN A   1      18.553  -1.259   7.648  0.00  0.00     0.230 C 
ATOM     11  C1  ZIN A   1      18.877  -1.799   9.042  0.00  0.00     0.034 C 
ENDBRANCH   8  10
BRANCH   8  12
ATOM     12  C5  ZIN A   1      19.037   0.708   6.364  0.00  0.00     0.260 C 
BRANCH  12  13
ATOM     13  C6  ZIN A   1      18.861  -0.388   5.312  0.00  0.00     0.192 C 
BRANCH  13  14
ATOM     14  O7  ZIN A   1      20.062  -0.513   4.548  0.00  0.00    -0.399 OA
ATOM     15  H36 ZIN A   1      20.313   0.293   4.075  0.00  0.00     0.209 HD
ENDBRANCH  13  14
ENDBRANCH  12  13
ENDBRANCH   8  12
ENDBRANCH   7   8
ENDBRANCH   6   7
ENDBRANCH   5   6
ENDBRANCH   3   5
ENDBRANCH   1   3
BRANCH   1  16
ATOM     16  C15 ZIN A   1      19.039   3.261  13.076  0.00  0.00     0.042 A 
ATOM     17  C26 ZIN A   1      19.054   4.474  13.746  0.00  0.00     0.047 A 
ATOM     18  C25 ZIN A   1      19.030   4.492  15.134  0.00  0.00     0.090 A 
ATOM     19  N23 ZIN A   1      19.002   3.386  15.841  0.00  0.00    -0.365 N 
ATOM     20  C22 ZIN A   1      18.990   2.181  15.261  0.00  0.00     0.046 A 
ATOM     21  H24 ZIN A   1      18.988   3.445  16.809  0.00  0.00     0.165 HD
ATOM     22  C16 ZIN A   1      19.008   2.076  13.849  0.00  0.00     0.017 A 
ATOM     23  C21 ZIN A   1      18.959   1.006  16.032  0.00  0.00     0.054 A 
ATOM     24  C17 ZIN A   1      18.998   0.811  13.246  0.00  0.00     0.018 A 
ATOM     25  C18 ZIN A   1      18.968  -0.307  14.024  0.00  0.00     0.025 A 
ATOM     26  C19 ZIN A   1      18.949  -0.208  15.414  0.00  0.00     0.036 A 
ATOM     27 Cl20 ZIN A   1      18.912  -1.654  16.373  0.00  0.00    -0.084 Cl
ENDBRANCH   1  16
TORSDOF 10
ENDMDL
