MODEL 1
REMARK VINA RESULT:      -5.2      0.000      0.000
REMARK  0 active torsions:
REMARK  status: ('A' for Active; 'I' for Inactive)
ROOT
ATOM      1  C1  <0> d   1      19.485  -1.245   9.920  0.00  0.00     0.016 C 
ATOM      2  C2  <0> d   1      19.257   0.235  10.235  0.00  0.00    -0.029 C 
ATOM      3  C3  <0> d   1      20.053   0.682  11.463  0.00  0.00     0.016 C 
ATOM      4  C4  <0> d   1      19.528   1.152   8.989  0.00  0.00     0.001 C 
ATOM      5  C6  <0> d   1      18.450   0.615   7.998  0.00  0.00     0.007 C 
ATOM      6  C7  <0> d   1      17.253   0.234   8.898  0.00  0.00     0.018 C 
ATOM      7  C8  <0> d   1      17.733   0.585  10.359  0.00  0.00     0.024 C 
ATOM      8  C9  <0> d   1      16.975  -0.105  11.495  0.00  0.00     0.024 C 
ATOM      9  C10 <0> d   1      17.767   2.120  10.394  0.00  0.00     0.136 C 
ATOM     10  O11 <0> d   1      17.026   2.855  11.000  0.00  0.00    -0.297 OA
ATOM     11  C12 <0> d   1      18.960   2.506   9.513  0.00  0.00     0.084 C 
ENDROOT
TORSDOF 0
ENDMDL
MODEL 2
REMARK VINA RESULT:      -5.0      1.664      2.261
REMARK  0 active torsions:
REMARK  status: ('A' for Active; 'I' for Inactive)
ROOT
ATOM      1  C1  <0> d   1      20.181   1.057  11.781  0.00  0.00     0.016 C 
ATOM      2  C2  <0> d   1      19.470   2.333  11.327  0.00  0.00    -0.029 C 
ATOM      3  C3  <0> d   1      20.234   3.589  11.752  0.00  0.00     0.016 C 
ATOM      4  C4  <0> d   1      19.160   2.321   9.789  0.00  0.00     0.001 C 
ATOM      5  C6  <0> d   1      18.212   1.085   9.697  0.00  0.00     0.007 C 
ATOM      6  C7  <0> d   1      17.418   1.108  11.022  0.00  0.00     0.018 C 
ATOM      7  C8  <0> d   1      17.971   2.370  11.789  0.00  0.00     0.024 C 
ATOM      8  C9  <0> d   1      17.734   2.390  13.300  0.00  0.00     0.024 C 
ATOM      9  C10 <0> d   1      17.430   3.569  10.997  0.00  0.00     0.136 C 
ATOM     10  O11 <0> d   1      16.581   4.353  11.345  0.00  0.00    -0.297 OA
ATOM     11  C12 <0> d   1      18.221   3.561   9.685  0.00  0.00     0.084 C 
ENDROOT
TORSDOF 0
ENDMDL
MODEL 3
REMARK VINA RESULT:      -5.0      2.259      3.960
REMARK  0 active torsions:
REMARK  status: ('A' for Active; 'I' for Inactive)
ROOT
ATOM      1  C1  <0> d   1      20.455   0.429  13.277  0.00  0.00     0.016 C 
ATOM      2  C2  <0> d   1      19.304  -0.094  12.416  0.00  0.00    -0.029 C 
ATOM      3  C3  <0> d   1      19.620   0.012  10.922  0.00  0.00     0.016 C 
ATOM      4  C4  <0> d   1      18.871  -1.546  12.827  0.00  0.00     0.001 C 
ATOM      5  C6  <0> d   1      18.408  -1.301  14.297  0.00  0.00     0.007 C 
ATOM      6  C7  <0> d   1      17.788   0.114  14.276  0.00  0.00     0.018 C 
ATOM      7  C8  <0> d   1      17.937   0.586  12.779  0.00  0.00     0.024 C 
ATOM      8  C9  <0> d   1      17.855   2.095  12.544  0.00  0.00     0.024 C 
ATOM      9  C10 <0> d   1      16.939  -0.282  12.000  0.00  0.00     0.136 C 
ATOM     10  O11 <0> d   1      15.908   0.073  11.483  0.00  0.00    -0.297 OA
ATOM     11  C12 <0> d   1      17.553  -1.686  12.006  0.00  0.00     0.084 C 
ENDROOT
TORSDOF 0
ENDMDL
MODEL 4
REMARK VINA RESULT:      -4.9      1.897      3.356
REMARK  0 active torsions:
REMARK  status: ('A' for Active; 'I' for Inactive)
ROOT
ATOM      1  C1  <0> d   1      17.500   3.245  10.699  0.00  0.00     0.016 C 
ATOM      2  C2  <0> d   1      18.613   2.234  10.983  0.00  0.00    -0.029 C 
ATOM      3  C3  <0> d   1      19.914   2.925  11.399  0.00  0.00     0.016 C 
ATOM      4  C4  <0> d   1      18.168   1.141  12.018  0.00  0.00     0.001 C 
ATOM      5  C6  <0> d   1      16.988   0.476  11.242  0.00  0.00     0.007 C 
ATOM      6  C7  <0> d   1      17.417   0.539   9.759  0.00  0.00     0.018 C 
ATOM      7  C8  <0> d   1      18.829   1.241   9.788  0.00  0.00     0.024 C 
ATOM      8  C9  <0> d   1      19.291   1.866   8.470  0.00  0.00     0.024 C 
ATOM      9  C10 <0> d   1      19.765   0.197  10.414  0.00  0.00     0.136 C 
ATOM     10  O11 <0> d   1      20.642  -0.423   9.864  0.00  0.00    -0.297 OA
ATOM     11  C12 <0> d   1      19.354   0.137  11.889  0.00  0.00     0.084 C 
ENDROOT
TORSDOF 0
ENDMDL
MODEL 5
REMARK VINA RESULT:      -4.8      1.705      3.343
REMARK  0 active torsions:
REMARK  status: ('A' for Active; 'I' for Inactive)
ROOT
ATOM      1  C1  <0> d   1      20.292   3.316  11.602  0.00  0.00     0.016 C 
ATOM      2  C2  <0> d   1      19.388   2.083  11.541  0.00  0.00    -0.029 C 
ATOM      3  C3  <0> d   1      20.180   0.790  11.747  0.00  0.00     0.016 C 
ATOM      4  C4  <0> d   1      18.171   2.195  12.526  0.00  0.00     0.001 C 
ATOM      5  C6  <0> d   1      17.448   3.451  11.947  0.00  0.00     0.007 C 
ATOM      6  C7  <0> d   1      17.681   3.362  10.422  0.00  0.00     0.018 C 
ATOM      7  C8  <0> d   1      18.527   2.045  10.230  0.00  0.00     0.024 C 
ATOM      8  C9  <0> d   1      19.306   1.938   8.918  0.00  0.00     0.024 C 
ATOM      9  C10 <0> d   1      17.543   0.907  10.535  0.00  0.00     0.136 C 
ATOM     10  O11 <0> d   1      17.070   0.119   9.753  0.00  0.00    -0.297 OA
ATOM     11  C12 <0> d   1      17.316   0.981  12.049  0.00  0.00     0.084 C 
ENDROOT
TORSDOF 0
ENDMDL
MODEL 6
REMARK VINA RESULT:      -4.8      4.110      5.812
REMARK  0 active torsions:
REMARK  status: ('A' for Active; 'I' for Inactive)
ROOT
ATOM      1  C1  <0> d   1      17.700  -5.693  11.999  0.00  0.00     0.016 C 
ATOM      2  C2  <0> d   1      17.629  -4.698  10.839  0.00  0.00    -0.029 C 
ATOM      3  C3  <0> d   1      16.484  -5.027   9.880  0.00  0.00     0.016 C 
ATOM      4  C4  <0> d   1      17.572  -3.211  11.340  0.00  0.00     0.001 C 
ATOM      5  C6  <0> d   1      18.937  -3.108  12.088  0.00  0.00     0.007 C 
ATOM      6  C7  <0> d   1      19.895  -4.002  11.268  0.00  0.00     0.018 C 
ATOM      7  C8  <0> d   1      19.003  -4.559  10.094  0.00  0.00     0.024 C 
ATOM      8  C9  <0> d   1      19.522  -5.822   9.402  0.00  0.00     0.024 C 
ATOM      9  C10 <0> d   1      18.748  -3.343   9.193  0.00  0.00     0.136 C 
ATOM     10  O11 <0> d   1      19.193  -3.143   8.089  0.00  0.00    -0.297 OA
ATOM     11  C12 <0> d   1      17.789  -2.456   9.994  0.00  0.00     0.084 C 
ENDROOT
TORSDOF 0
ENDMDL
MODEL 7
REMARK VINA RESULT:      -4.8      0.992      2.851
REMARK  0 active torsions:
REMARK  status: ('A' for Active; 'I' for Inactive)
ROOT
ATOM      1  C1  <0> d   1      19.434  -0.970   8.658  0.00  0.00     0.016 C 
ATOM      2  C2  <0> d   1      18.271  -0.222   9.312  0.00  0.00    -0.029 C 
ATOM      3  C3  <0> d   1      17.098  -0.042   8.346  0.00  0.00     0.016 C 
ATOM      4  C4  <0> d   1      17.827  -0.886  10.664  0.00  0.00     0.001 C 
ATOM      5  C6  <0> d   1      19.135  -0.735  11.500  0.00  0.00     0.007 C 
ATOM      6  C7  <0> d   1      19.741   0.607  11.031  0.00  0.00     0.018 C 
ATOM      7  C8  <0> d   1      18.726   1.139   9.948  0.00  0.00     0.024 C 
ATOM      8  C9  <0> d   1      19.274   2.184   8.975  0.00  0.00     0.024 C 
ATOM      9  C10 <0> d   1      17.481   1.540  10.751  0.00  0.00     0.136 C 
ATOM     10  O11 <0> d   1      17.070   2.656  10.957  0.00  0.00    -0.297 OA
ATOM     11  C12 <0> d   1      16.867   0.213  11.211  0.00  0.00     0.084 C 
ENDROOT
TORSDOF 0
ENDMDL
MODEL 8
REMARK VINA RESULT:      -4.6      2.671      4.222
REMARK  0 active torsions:
REMARK  status: ('A' for Active; 'I' for Inactive)
ROOT
ATOM      1  C1  <0> d   1      17.236  -3.653  11.513  0.00  0.00     0.016 C 
ATOM      2  C2  <0> d   1      18.043  -2.524  10.868  0.00  0.00    -0.029 C 
ATOM      3  C3  <0> d   1      18.177  -2.717   9.356  0.00  0.00     0.016 C 
ATOM      4  C4  <0> d   1      17.475  -1.108  11.236  0.00  0.00     0.001 C 
ATOM      5  C6  <0> d   1      17.660  -1.118  12.785  0.00  0.00     0.007 C 
ATOM      6  C7  <0> d   1      18.959  -1.923  13.013  0.00  0.00     0.018 C 
ATOM      7  C8  <0> d   1      19.435  -2.321  11.563  0.00  0.00     0.024 C 
ATOM      8  C9  <0> d   1      20.406  -3.500  11.479  0.00  0.00     0.024 C 
ATOM      9  C10 <0> d   1      19.906  -1.001  10.937  0.00  0.00     0.136 C 
ATOM     10  O11 <0> d   1      21.040  -0.678  10.678  0.00  0.00    -0.297 OA
ATOM     11  C12 <0> d   1      18.622  -0.201  10.696  0.00  0.00     0.084 C 
ENDROOT
TORSDOF 0
ENDMDL
MODEL 9
REMARK VINA RESULT:      -4.6      2.588      4.140
REMARK  0 active torsions:
REMARK  status: ('A' for Active; 'I' for Inactive)
ROOT
ATOM      1  C1  <0> d   1      17.434   0.524  14.892  0.00  0.00     0.016 C 
ATOM      2  C2  <0> d   1      18.381   0.798  13.722  0.00  0.00    -0.029 C 
ATOM      3  C3  <0> d   1      18.363   2.272  13.313  0.00  0.00     0.016 C 
ATOM      4  C4  <0> d   1      19.836   0.281  14.006  0.00  0.00     0.001 C 
ATOM      5  C6  <0> d   1      19.569  -1.248  14.169  0.00  0.00     0.007 C 
ATOM      6  C7  <0> d   1      18.423  -1.548  13.177  0.00  0.00     0.018 C 
ATOM      7  C8  <0> d   1      18.110  -0.156  12.506  0.00  0.00     0.024 C 
ATOM      8  C9  <0> d   1      16.736  -0.027  11.844  0.00  0.00     0.024 C 
ATOM      9  C10 <0> d   1      19.327   0.124  11.613  0.00  0.00     0.136 C 
ATOM     10  O11 <0> d   1      19.367   0.117  10.406  0.00  0.00    -0.297 OA
ATOM     11  C12 <0> d   1      20.466   0.434  12.589  0.00  0.00     0.084 C 
ENDROOT
TORSDOF 0
ENDMDL
