MODEL 1
REMARK VINA RESULT:      -8.7      0.000      0.000
REMARK  6 active torsions:
REMARK  status: ('A' for Active; 'I' for Inactive)
REMARK    1  A    between atoms: C2_2  and  N4_4 
REMARK    2  A    between atoms: N4_4  and  C5_5 
REMARK    3  A    between atoms: C10_10  and  N11_11 
REMARK       I    between atoms: N14_14  and  C15_15 
REMARK    4  A    between atoms: C15_15  and  C17_17 
REMARK    5  A    between atoms: C21_21  and  N22_22 
REMARK    6  A    between atoms: N22_22  and  S23_23 
ROOT
ATOM      1  N11 ZIN A   1      17.994   3.898  15.025  0.00  0.00    -0.263 NA
ATOM      2  C12 ZIN A   1      19.222   3.262  15.520  0.00  0.00     0.117 C 
ATOM      3  C13 ZIN A   1      19.178   1.762  15.211  0.00  0.00     0.141 C 
ATOM      4  N14 ZIN A   1      18.925   1.588  13.773  0.00  0.00    -0.344 N 
ATOM      5  C15 ZIN A   1      19.713   0.794  13.022  0.00  0.00     0.270 C 
ATOM      6  O16 ZIN A   1      20.641   0.198  13.536  0.00  0.00    -0.266 OA
ATOM      7  C31 ZIN A   1      17.789   2.306  13.174  0.00  0.00     0.141 C 
ATOM      8  C32 ZIN A   1      17.889   3.785  13.564  0.00  0.00     0.117 C 
ENDROOT
BRANCH   5   9
ATOM      9  C17 ZIN A   1      19.453   0.647  11.582  0.00  0.00     0.102 A 
ATOM     10  N30 ZIN A   1      19.690   1.613  10.624  0.00  0.00    -0.351 N 
ATOM     11  C29 ZIN A   1      19.325   1.114   9.393  0.00  0.00     0.043 A 
ATOM     12  H56 ZIN A   1      20.054   2.496  10.790  0.00  0.00     0.166 HD
ATOM     13  C19 ZIN A   1      18.840  -0.193   9.596  0.00  0.00    -0.005 A 
ATOM     14  C28 ZIN A   1      19.352   1.646   8.107  0.00  0.00     0.033 A 
ATOM     15  C18 ZIN A   1      18.933  -0.457  10.984  0.00  0.00     0.049 A 
ATOM     16  C20 ZIN A   1      18.389  -0.944   8.504  0.00  0.00     0.043 A 
ATOM     17  C21 ZIN A   1      18.425  -0.397   7.237  0.00  0.00     0.043 A 
ATOM     18  C27 ZIN A   1      18.906   0.897   7.042  0.00  0.00     0.032 A 
BRANCH  17  19
ATOM     19  N22 ZIN A   1      17.975  -1.144   6.143  0.00  0.00    -0.285 N 
ATOM     20  H50 ZIN A   1      17.040  -1.114   5.886  0.00  0.00     0.178 HD
BRANCH  19  21
ATOM     21  S23 ZIN A   1      19.038  -2.082   5.286  0.00  0.00     0.227 S 
ATOM     22  C24 ZIN A   1      17.982  -3.197   4.321  0.00  0.00     0.186 C 
ATOM     23  O25 ZIN A   1      19.706  -1.163   4.431  0.00  0.00    -0.206 OA
ATOM     24  O26 ZIN A   1      19.748  -2.805   6.281  0.00  0.00    -0.206 OA
ENDBRANCH  19  21
ENDBRANCH  17  19
ENDBRANCH   5   9
BRANCH   1  25
ATOM     25  C10 ZIN A   1      17.922   5.228  15.430  0.00  0.00     0.131 A 
ATOM     26  C5  ZIN A   1      17.388   5.543  16.682  0.00  0.00     0.069 A 
ATOM     27  C6  ZIN A   1      17.324   6.875  17.070  0.00  0.00     0.034 A 
ATOM     28  C7  ZIN A   1      17.791   7.843  16.189  0.00  0.00     0.022 A 
ATOM     29  C8  ZIN A   1      18.300   7.457  14.967  0.00  0.00     0.118 A 
ATOM     30  N9  ZIN A   1      18.350   6.183  14.622  0.00  0.00    -0.246 NA
BRANCH  26  31
ATOM     31  N4  ZIN A   1      16.931   4.532  17.535  0.00  0.00    -0.383 N 
ATOM     32  H40 ZIN A   1      16.245   3.916  17.234  0.00  0.00     0.160 HD
BRANCH  31  33
ATOM     33  C2  ZIN A   1      17.489   4.403  18.884  0.00  0.00     0.073 C 
ATOM     34  C1  ZIN A   1      16.374   4.029  19.864  0.00  0.00     0.031 C 
ATOM     35  C3  ZIN A   1      18.561   3.312  18.891  0.00  0.00     0.031 C 
ENDBRANCH  31  33
ENDBRANCH  26  31
ENDBRANCH   1  25
TORSDOF 6
ENDMDL
MODEL 2
REMARK VINA RESULT:      -8.7      2.070      3.593
REMARK  6 active torsions:
REMARK  status: ('A' for Active; 'I' for Inactive)
REMARK    1  A    between atoms: C2_2  and  N4_4 
REMARK    2  A    between atoms: N4_4  and  C5_5 
REMARK    3  A    between atoms: C10_10  and  N11_11 
REMARK       I    between atoms: N14_14  and  C15_15 
REMARK    4  A    between atoms: C15_15  and  C17_17 
REMARK    5  A    between atoms: C21_21  and  N22_22 
REMARK    6  A    between atoms: N22_22  and  S23_23 
ROOT
ATOM      1  N11 ZIN A   1      19.143   1.915  14.721  0.00  0.00    -0.263 NA
ATOM      2  C12 ZIN A   1      18.018   2.849  14.588  0.00  0.00     0.117 C 
ATOM      3  C13 ZIN A   1      18.225   3.720  13.344  0.00  0.00     0.141 C 
ATOM      4  N14 ZIN A   1      18.441   2.839  12.187  0.00  0.00    -0.344 N 
ATOM      5  C15 ZIN A   1      17.723   2.991  11.057  0.00  0.00     0.270 C 
ATOM      6  O16 ZIN A   1      16.891   3.876  10.980  0.00  0.00    -0.266 OA
ATOM      7  C31 ZIN A   1      19.462   1.785  12.296  0.00  0.00     0.141 C 
ATOM      8  C32 ZIN A   1      19.205   0.990  13.581  0.00  0.00     0.117 C 
ENDROOT
BRANCH   5   9
ATOM      9  C17 ZIN A   1      17.943   2.088   9.918  0.00  0.00     0.102 A 
ATOM     10  N30 ZIN A   1      18.742   2.359   8.825  0.00  0.00    -0.351 N 
ATOM     11  C29 ZIN A   1      18.704   1.281   7.970  0.00  0.00     0.043 A 
ATOM     12  H56 ZIN A   1      19.249   3.175   8.684  0.00  0.00     0.166 HD
ATOM     13  C19 ZIN A   1      17.851   0.319   8.543  0.00  0.00    -0.005 A 
ATOM     14  C28 ZIN A   1      19.312   1.018   6.744  0.00  0.00     0.033 A 
ATOM     15  C18 ZIN A   1      17.387   0.857   9.769  0.00  0.00     0.049 A 
ATOM     16  C20 ZIN A   1      17.620  -0.892   7.878  0.00  0.00     0.043 A 
ATOM     17  C21 ZIN A   1      18.233  -1.131   6.665  0.00  0.00     0.043 A 
ATOM     18  C27 ZIN A   1      19.076  -0.175   6.101  0.00  0.00     0.032 A 
BRANCH  17  19
ATOM     19  N22 ZIN A   1      18.004  -2.340   5.996  0.00  0.00    -0.285 N 
ATOM     20  H50 ZIN A   1      17.393  -2.370   5.243  0.00  0.00     0.178 HD
BRANCH  19  21
ATOM     21  S23 ZIN A   1      18.777  -3.719   6.490  0.00  0.00     0.227 S 
ATOM     22  C24 ZIN A   1      18.186  -5.001   5.353  0.00  0.00     0.186 C 
ATOM     23  O25 ZIN A   1      20.154  -3.448   6.265  0.00  0.00    -0.206 OA
ATOM     24  O26 ZIN A   1      18.280  -3.948   7.801  0.00  0.00    -0.206 OA
ENDBRANCH  19  21
ENDBRANCH  17  19
ENDBRANCH   5   9
BRANCH   1  25
ATOM     25  C10 ZIN A   1      19.075   1.219  15.925  0.00  0.00     0.131 A 
ATOM     26  C5  ZIN A   1      19.235   1.906  17.132  0.00  0.00     0.069 A 
ATOM     27  C6  ZIN A   1      19.164   1.196  18.323  0.00  0.00     0.034 A 
ATOM     28  C7  ZIN A   1      18.941  -0.174  18.265  0.00  0.00     0.022 A 
ATOM     29  C8  ZIN A   1      18.798  -0.784  17.036  0.00  0.00     0.118 A 
ATOM     30  N9  ZIN A   1      18.869  -0.087  15.917  0.00  0.00    -0.246 NA
BRANCH  26  31
ATOM     31  N4  ZIN A   1      19.458   3.288  17.140  0.00  0.00    -0.383 N 
ATOM     32  H40 ZIN A   1      20.352   3.636  16.998  0.00  0.00     0.160 HD
BRANCH  31  33
ATOM     33  C2  ZIN A   1      18.341   4.208  17.363  0.00  0.00     0.073 C 
ATOM     34  C1  ZIN A   1      18.005   4.252  18.855  0.00  0.00     0.031 C 
ATOM     35  C3  ZIN A   1      18.731   5.609  16.887  0.00  0.00     0.031 C 
ENDBRANCH  31  33
ENDBRANCH  26  31
ENDBRANCH   1  25
TORSDOF 6
ENDMDL
MODEL 3
REMARK VINA RESULT:      -8.4      3.966     11.454
REMARK  6 active torsions:
REMARK  status: ('A' for Active; 'I' for Inactive)
REMARK    1  A    between atoms: C2_2  and  N4_4 
REMARK    2  A    between atoms: N4_4  and  C5_5 
REMARK    3  A    between atoms: C10_10  and  N11_11 
REMARK       I    between atoms: N14_14  and  C15_15 
REMARK    4  A    between atoms: C15_15  and  C17_17 
REMARK    5  A    between atoms: C21_21  and  N22_22 
REMARK    6  A    between atoms: N22_22  and  S23_23 
ROOT
ATOM      1  N11 ZIN A   1      17.966  -3.681   8.181  0.00  0.00    -0.263 NA
ATOM      2  C12 ZIN A   1      19.269  -3.150   7.758  0.00  0.00     0.117 C 
ATOM      3  C13 ZIN A   1      19.338  -1.653   8.081  0.00  0.00     0.141 C 
ATOM      4  N14 ZIN A   1      19.025  -1.469   9.506  0.00  0.00    -0.344 N 
ATOM      5  C15 ZIN A   1      19.839  -0.751  10.306  0.00  0.00     0.270 C 
ATOM      6  O16 ZIN A   1      20.840  -0.234   9.848  0.00  0.00    -0.266 OA
ATOM      7  C31 ZIN A   1      17.802  -2.090  10.037  0.00  0.00     0.141 C 
ATOM      8  C32 ZIN A   1      17.794  -3.569   9.636  0.00  0.00     0.117 C 
ENDROOT
BRANCH   5   9
ATOM      9  C17 ZIN A   1      19.516  -0.593  11.732  0.00  0.00     0.102 A 
ATOM     10  N30 ZIN A   1      19.742  -1.538  12.713  0.00  0.00    -0.351 N 
ATOM     11  C29 ZIN A   1      19.315  -1.033  13.921  0.00  0.00     0.043 A 
ATOM     12  H56 ZIN A   1      20.138  -2.412  12.574  0.00  0.00     0.166 HD
ATOM     13  C19 ZIN A   1      18.801   0.256  13.680  0.00  0.00    -0.005 A 
ATOM     14  C28 ZIN A   1      19.305  -1.547  15.215  0.00  0.00     0.033 A 
ATOM     15  C18 ZIN A   1      18.942   0.504  12.293  0.00  0.00     0.049 A 
ATOM     16  C20 ZIN A   1      18.285   1.009  14.742  0.00  0.00     0.043 A 
ATOM     17  C21 ZIN A   1      18.286   0.480  16.017  0.00  0.00     0.043 A 
ATOM     18  C27 ZIN A   1      18.795  -0.797  16.250  0.00  0.00     0.032 A 
BRANCH  17  19
ATOM     19  N22 ZIN A   1      17.771   1.229  17.082  0.00  0.00    -0.285 N 
ATOM     20  H50 ZIN A   1      16.826   1.183  17.295  0.00  0.00     0.178 HD
BRANCH  19  21
ATOM     21  S23 ZIN A   1      18.776   2.194  17.978  0.00  0.00     0.227 S 
ATOM     22  C24 ZIN A   1      19.523   3.318  16.766  0.00  0.00     0.186 C 
ATOM     23  O25 ZIN A   1      17.899   2.905  18.842  0.00  0.00    -0.206 OA
ATOM     24  O26 ZIN A   1      19.750   1.300  18.496  0.00  0.00    -0.206 OA
ENDBRANCH  19  21
ENDBRANCH  17  19
ENDBRANCH   5   9
BRANCH   1  25
ATOM     25  C10 ZIN A   1      17.802  -4.997   7.758  0.00  0.00     0.131 A 
ATOM     26  C5  ZIN A   1      17.403  -5.257   6.444  0.00  0.00     0.069 A 
ATOM     27  C6  ZIN A   1      17.244  -6.575   6.039  0.00  0.00     0.034 A 
ATOM     28  C7  ZIN A   1      17.483  -7.585   6.963  0.00  0.00     0.022 A 
ATOM     29  C8  ZIN A   1      17.869  -7.251   8.244  0.00  0.00     0.118 A 
ATOM     30  N9  ZIN A   1      18.013  -5.989   8.605  0.00  0.00    -0.246 NA
BRANCH  26  31
ATOM     31  N4  ZIN A   1      17.174  -4.205   5.549  0.00  0.00    -0.383 N 
ATOM     32  H40 ZIN A   1      16.398  -3.634   5.659  0.00  0.00     0.160 HD
BRANCH  31  33
ATOM     33  C2  ZIN A   1      18.107  -3.968   4.444  0.00  0.00     0.073 C 
ATOM     34  C1  ZIN A   1      17.462  -4.408   3.128  0.00  0.00     0.031 C 
ATOM     35  C3  ZIN A   1      18.445  -2.477   4.373  0.00  0.00     0.031 C 
ENDBRANCH  31  33
ENDBRANCH  26  31
ENDBRANCH   1  25
TORSDOF 6
ENDMDL
MODEL 4
REMARK VINA RESULT:      -8.4      3.010      4.378
REMARK  6 active torsions:
REMARK  status: ('A' for Active; 'I' for Inactive)
REMARK    1  A    between atoms: C2_2  and  N4_4 
REMARK    2  A    between atoms: N4_4  and  C5_5 
REMARK    3  A    between atoms: C10_10  and  N11_11 
REMARK       I    between atoms: N14_14  and  C15_15 
REMARK    4  A    between atoms: C15_15  and  C17_17 
REMARK    5  A    between atoms: C21_21  and  N22_22 
REMARK    6  A    between atoms: N22_22  and  S23_23 
ROOT
ATOM      1  N11 ZIN A   1      18.320   0.312  12.777  0.00  0.00    -0.263 NA
ATOM      2  C12 ZIN A   1      19.339  -0.596  13.321  0.00  0.00     0.117 C 
ATOM      3  C13 ZIN A   1      18.988  -2.039  12.945  0.00  0.00     0.141 C 
ATOM      4  N14 ZIN A   1      18.806  -2.110  11.487  0.00  0.00    -0.344 N 
ATOM      5  C15 ZIN A   1      19.452  -3.039  10.753  0.00  0.00     0.270 C 
ATOM      6  O16 ZIN A   1      20.187  -3.841  11.298  0.00  0.00    -0.266 OA
ATOM      7  C31 ZIN A   1      17.902  -1.141  10.849  0.00  0.00     0.141 C 
ATOM      8  C32 ZIN A   1      18.297   0.267  11.309  0.00  0.00     0.117 C 
ENDROOT
BRANCH   5   9
ATOM      9  C17 ZIN A   1      19.269  -3.082   9.295  0.00  0.00     0.102 A 
ATOM     10  N30 ZIN A   1      19.550  -2.050   8.422  0.00  0.00    -0.351 N 
ATOM     11  C29 ZIN A   1      19.255  -2.460   7.141  0.00  0.00     0.043 A 
ATOM     12  H56 ZIN A   1      19.901  -1.180   8.670  0.00  0.00     0.166 HD
ATOM     13  C19 ZIN A   1      18.767  -3.778   7.223  0.00  0.00    -0.005 A 
ATOM     14  C28 ZIN A   1      19.347  -1.836   5.899  0.00  0.00     0.033 A 
ATOM     15  C18 ZIN A   1      18.788  -4.141   8.592  0.00  0.00     0.049 A 
ATOM     16  C20 ZIN A   1      18.379  -4.451   6.058  0.00  0.00     0.043 A 
ATOM     17  C21 ZIN A   1      18.479  -3.814   4.837  0.00  0.00     0.043 A 
ATOM     18  C27 ZIN A   1      18.962  -2.508   4.761  0.00  0.00     0.032 A 
BRANCH  17  19
ATOM     19  N22 ZIN A   1      18.092  -4.482   3.670  0.00  0.00    -0.285 N 
ATOM     20  H50 ZIN A   1      18.765  -4.807   3.051  0.00  0.00     0.178 HD
BRANCH  19  21
ATOM     21  S23 ZIN A   1      16.486  -4.717   3.343  0.00  0.00     0.227 S 
ATOM     22  C24 ZIN A   1      16.410  -4.889   1.540  0.00  0.00     0.186 C 
ATOM     23  O25 ZIN A   1      16.177  -5.952   3.975  0.00  0.00    -0.206 OA
ATOM     24  O26 ZIN A   1      15.864  -3.508   3.756  0.00  0.00    -0.206 OA
ENDBRANCH  19  21
ENDBRANCH  17  19
ENDBRANCH   5   9
BRANCH   1  25
ATOM     25  C10 ZIN A   1      18.514   1.612  13.235  0.00  0.00     0.131 A 
ATOM     26  C5  ZIN A   1      18.032   1.983  14.493  0.00  0.00     0.069 A 
ATOM     27  C6  ZIN A   1      18.234   3.284  14.933  0.00  0.00     0.034 A 
ATOM     28  C7  ZIN A   1      18.906   4.169  14.098  0.00  0.00     0.022 A 
ATOM     29  C8  ZIN A   1      19.349   3.732  12.867  0.00  0.00     0.118 A 
ATOM     30  N9  ZIN A   1      19.144   2.489  12.471  0.00  0.00    -0.246 NA
BRANCH  26  31
ATOM     31  N4  ZIN A   1      17.360   1.057  15.299  0.00  0.00    -0.383 N 
ATOM     32  H40 ZIN A   1      16.424   0.860  15.136  0.00  0.00     0.160 HD
BRANCH  31  33
ATOM     33  C2  ZIN A   1      18.071   0.383  16.388  0.00  0.00     0.073 C 
ATOM     34  C1  ZIN A   1      17.802   1.118  17.704  0.00  0.00     0.031 C 
ATOM     35  C3  ZIN A   1      17.580  -1.061  16.502  0.00  0.00     0.031 C 
ENDBRANCH  31  33
ENDBRANCH  26  31
ENDBRANCH   1  25
TORSDOF 6
ENDMDL
MODEL 5
REMARK VINA RESULT:      -8.2      3.733     10.754
REMARK  6 active torsions:
REMARK  status: ('A' for Active; 'I' for Inactive)
REMARK    1  A    between atoms: C2_2  and  N4_4 
REMARK    2  A    between atoms: N4_4  and  C5_5 
REMARK    3  A    between atoms: C10_10  and  N11_11 
REMARK       I    between atoms: N14_14  and  C15_15 
REMARK    4  A    between atoms: C15_15  and  C17_17 
REMARK    5  A    between atoms: C21_21  and  N22_22 
REMARK    6  A    between atoms: N22_22  and  S23_23 
ROOT
ATOM      1  N11 ZIN A   1      18.214  -2.363   8.300  0.00  0.00    -0.263 NA
ATOM      2  C12 ZIN A   1      19.215  -1.673   7.475  0.00  0.00     0.117 C 
ATOM      3  C13 ZIN A   1      18.722  -0.258   7.154  0.00  0.00     0.141 C 
ATOM      4  N14 ZIN A   1      18.386   0.417   8.417  0.00  0.00    -0.344 N 
ATOM      5  C15 ZIN A   1      18.883   1.637   8.704  0.00  0.00     0.270 C 
ATOM      6  O16 ZIN A   1      19.609   2.200   7.906  0.00  0.00    -0.266 OA
ATOM      7  C31 ZIN A   1      17.494  -0.275   9.361  0.00  0.00     0.141 C 
ATOM      8  C32 ZIN A   1      18.037  -1.689   9.594  0.00  0.00     0.117 C 
ENDROOT
BRANCH   5   9
ATOM      9  C17 ZIN A   1      18.547   2.287   9.979  0.00  0.00     0.102 A 
ATOM     10  N30 ZIN A   1      17.716   3.379  10.126  0.00  0.00    -0.351 N 
ATOM     11  C29 ZIN A   1      17.640   3.702  11.463  0.00  0.00     0.043 A 
ATOM     12  H56 ZIN A   1      17.259   3.842   9.406  0.00  0.00     0.166 HD
ATOM     13  C19 ZIN A   1      18.455   2.790  12.162  0.00  0.00    -0.005 A 
ATOM     14  C28 ZIN A   1      16.958   4.693  12.163  0.00  0.00     0.033 A 
ATOM     15  C18 ZIN A   1      19.012   1.913  11.200  0.00  0.00     0.049 A 
ATOM     16  C20 ZIN A   1      18.572   2.888  13.554  0.00  0.00     0.043 A 
ATOM     17  C21 ZIN A   1      17.886   3.878  14.229  0.00  0.00     0.043 A 
ATOM     18  C27 ZIN A   1      17.081   4.778  13.531  0.00  0.00     0.032 A 
BRANCH  17  19
ATOM     19  N22 ZIN A   1      18.001   3.980  15.620  0.00  0.00    -0.285 N 
ATOM     20  H50 ZIN A   1      17.338   3.564  16.193  0.00  0.00     0.178 HD
BRANCH  19  21
ATOM     21  S23 ZIN A   1      19.268   4.811  16.288  0.00  0.00     0.227 S 
ATOM     22  C24 ZIN A   1      19.989   5.730  14.901  0.00  0.00     0.186 C 
ATOM     23  O25 ZIN A   1      18.655   5.701  17.211  0.00  0.00    -0.206 OA
ATOM     24  O26 ZIN A   1      20.158   3.796  16.730  0.00  0.00    -0.206 OA
ENDBRANCH  19  21
ENDBRANCH  17  19
ENDBRANCH   5   9
BRANCH   1  25
ATOM     25  C10 ZIN A   1      18.550  -3.702   8.476  0.00  0.00     0.131 A 
ATOM     26  C5  ZIN A   1      18.131  -4.650   7.538  0.00  0.00     0.069 A 
ATOM     27  C6  ZIN A   1      18.474  -5.982   7.729  0.00  0.00     0.034 A 
ATOM     28  C7  ZIN A   1      19.218  -6.319   8.854  0.00  0.00     0.022 A 
ATOM     29  C8  ZIN A   1      19.591  -5.329   9.739  0.00  0.00     0.118 A 
ATOM     30  N9  ZIN A   1      19.252  -4.069   9.534  0.00  0.00    -0.246 NA
BRANCH  26  31
ATOM     31  N4  ZIN A   1      17.383  -4.262   6.420  0.00  0.00    -0.383 N 
ATOM     32  H40 ZIN A   1      16.559  -3.765   6.537  0.00  0.00     0.160 HD
BRANCH  31  33
ATOM     33  C2  ZIN A   1      17.845  -4.609   5.074  0.00  0.00     0.073 C 
ATOM     34  C1  ZIN A   1      16.749  -5.389   4.344  0.00  0.00     0.031 C 
ATOM     35  C3  ZIN A   1      18.162  -3.329   4.298  0.00  0.00     0.031 C 
ENDBRANCH  31  33
ENDBRANCH  26  31
ENDBRANCH   1  25
TORSDOF 6
ENDMDL
MODEL 6
REMARK VINA RESULT:      -8.2      3.392      4.838
REMARK  6 active torsions:
REMARK  status: ('A' for Active; 'I' for Inactive)
REMARK    1  A    between atoms: C2_2  and  N4_4 
REMARK    2  A    between atoms: N4_4  and  C5_5 
REMARK    3  A    between atoms: C10_10  and  N11_11 
REMARK       I    between atoms: N14_14  and  C15_15 
REMARK    4  A    between atoms: C15_15  and  C17_17 
REMARK    5  A    between atoms: C21_21  and  N22_22 
REMARK    6  A    between atoms: N22_22  and  S23_23 
ROOT
ATOM      1  N11 ZIN A   1      18.997   1.392  14.755  0.00  0.00    -0.263 NA
ATOM      2  C12 ZIN A   1      18.143   2.228  13.901  0.00  0.00     0.117 C 
ATOM      3  C13 ZIN A   1      18.552   2.043  12.436  0.00  0.00     0.141 C 
ATOM      4  N14 ZIN A   1      18.529   0.607  12.122  0.00  0.00    -0.344 N 
ATOM      5  C15 ZIN A   1      17.863   0.143  11.045  0.00  0.00     0.270 C 
ATOM      6  O16 ZIN A   1      17.281   0.920  10.311  0.00  0.00    -0.266 OA
ATOM      7  C31 ZIN A   1      19.252  -0.313  13.014  0.00  0.00     0.141 C 
ATOM      8  C32 ZIN A   1      18.815  -0.035  14.456  0.00  0.00     0.117 C 
ENDROOT
BRANCH   5   9
ATOM      9  C17 ZIN A   1      17.839  -1.298  10.759  0.00  0.00     0.102 A 
ATOM     10  N30 ZIN A   1      17.277  -2.266  11.569  0.00  0.00    -0.351 N 
ATOM     11  C29 ZIN A   1      17.446  -3.495  10.972  0.00  0.00     0.043 A 
ATOM     12  H56 ZIN A   1      16.835  -2.105  12.417  0.00  0.00     0.166 HD
ATOM     13  C19 ZIN A   1      18.140  -3.285   9.765  0.00  0.00    -0.005 A 
ATOM     14  C28 ZIN A   1      17.080  -4.787  11.339  0.00  0.00     0.033 A 
ATOM     15  C18 ZIN A   1      18.374  -1.892   9.660  0.00  0.00     0.049 A 
ATOM     16  C20 ZIN A   1      18.457  -4.375   8.945  0.00  0.00     0.043 A 
ATOM     17  C21 ZIN A   1      18.084  -5.648   9.329  0.00  0.00     0.043 A 
ATOM     18  C27 ZIN A   1      17.398  -5.851  10.525  0.00  0.00     0.032 A 
BRANCH  17  19
ATOM     19  N22 ZIN A   1      18.399  -6.741   8.513  0.00  0.00    -0.285 N 
ATOM     20  H50 ZIN A   1      19.198  -7.263   8.688  0.00  0.00     0.178 HD
BRANCH  19  21
ATOM     21  S23 ZIN A   1      17.409  -7.144   7.248  0.00  0.00     0.227 S 
ATOM     22  C24 ZIN A   1      16.670  -8.726   7.737  0.00  0.00     0.186 C 
ATOM     23  O25 ZIN A   1      16.425  -6.118   7.234  0.00  0.00    -0.206 OA
ATOM     24  O26 ZIN A   1      18.295  -7.325   6.153  0.00  0.00    -0.206 OA
ENDBRANCH  19  21
ENDBRANCH  17  19
ENDBRANCH   5   9
BRANCH   1  25
ATOM     25  C10 ZIN A   1      18.766   1.654  16.102  0.00  0.00     0.131 A 
ATOM     26  C5  ZIN A   1      19.331   2.787  16.694  0.00  0.00     0.069 A 
ATOM     27  C6  ZIN A   1      19.089   3.034  18.039  0.00  0.00     0.034 A 
ATOM     28  C7  ZIN A   1      18.298   2.136  18.745  0.00  0.00     0.022 A 
ATOM     29  C8  ZIN A   1      17.779   1.036  18.094  0.00  0.00     0.118 A 
ATOM     30  N9  ZIN A   1      18.023   0.824  16.814  0.00  0.00    -0.246 NA
BRANCH  26  31
ATOM     31  N4  ZIN A   1      20.122   3.664  15.942  0.00  0.00    -0.383 N 
ATOM     32  H40 ZIN A   1      20.776   3.313  15.318  0.00  0.00     0.160 HD
BRANCH  31  33
ATOM     33  C2  ZIN A   1      19.962   5.112  16.098  0.00  0.00     0.073 C 
ATOM     34  C1  ZIN A   1      21.196   5.824  15.539  0.00  0.00     0.031 C 
ATOM     35  C3  ZIN A   1      18.718   5.573  15.336  0.00  0.00     0.031 C 
ENDBRANCH  31  33
ENDBRANCH  26  31
ENDBRANCH   1  25
TORSDOF 6
ENDMDL
MODEL 7
REMARK VINA RESULT:      -8.2      4.417     10.470
REMARK  6 active torsions:
REMARK  status: ('A' for Active; 'I' for Inactive)
REMARK    1  A    between atoms: C2_2  and  N4_4 
REMARK    2  A    between atoms: N4_4  and  C5_5 
REMARK    3  A    between atoms: C10_10  and  N11_11 
REMARK       I    between atoms: N14_14  and  C15_15 
REMARK    4  A    between atoms: C15_15  and  C17_17 
REMARK    5  A    between atoms: C21_21  and  N22_22 
REMARK    6  A    between atoms: N22_22  and  S23_23 
ROOT
ATOM      1  N11 ZIN A   1      18.222  -1.617   9.507  0.00  0.00    -0.263 NA
ATOM      2  C12 ZIN A   1      19.107  -0.907   8.573  0.00  0.00     0.117 C 
ATOM      3  C13 ZIN A   1      18.432   0.392   8.120  0.00  0.00     0.141 C 
ATOM      4  N14 ZIN A   1      18.047   1.158   9.315  0.00  0.00    -0.344 N 
ATOM      5  C15 ZIN A   1      18.394   2.454   9.448  0.00  0.00     0.270 C 
ATOM      6  O16 ZIN A   1      19.023   3.008   8.566  0.00  0.00    -0.266 OA
ATOM      7  C31 ZIN A   1      17.273   0.474  10.362  0.00  0.00     0.141 C 
ATOM      8  C32 ZIN A   1      17.995  -0.829  10.726  0.00  0.00     0.117 C 
ENDROOT
BRANCH   5   9
ATOM      9  C17 ZIN A   1      18.012   3.198  10.657  0.00  0.00     0.102 A 
ATOM     10  N30 ZIN A   1      18.327   2.835  11.952  0.00  0.00    -0.351 N 
ATOM     11  C29 ZIN A   1      17.804   3.773  12.814  0.00  0.00     0.043 A 
ATOM     12  H56 ZIN A   1      18.835   2.051  12.211  0.00  0.00     0.166 HD
ATOM     13  C19 ZIN A   1      17.138   4.737  12.033  0.00  0.00    -0.005 A 
ATOM     14  C28 ZIN A   1      17.822   3.903  14.200  0.00  0.00     0.033 A 
ATOM     15  C18 ZIN A   1      17.287   4.347  10.680  0.00  0.00     0.049 A 
ATOM     16  C20 ZIN A   1      16.500   5.817  12.656  0.00  0.00     0.043 A 
ATOM     17  C21 ZIN A   1      16.531   5.927  14.032  0.00  0.00     0.043 A 
ATOM     18  C27 ZIN A   1      17.191   4.969  14.800  0.00  0.00     0.032 A 
BRANCH  17  19
ATOM     19  N22 ZIN A   1      15.894   7.004  14.658  0.00  0.00    -0.285 N 
ATOM     20  H50 ZIN A   1      16.341   7.863  14.721  0.00  0.00     0.178 HD
BRANCH  19  21
ATOM     21  S23 ZIN A   1      14.376   6.814  15.293  0.00  0.00     0.227 S 
ATOM     22  C24 ZIN A   1      14.664   6.298  17.008  0.00  0.00     0.186 C 
ATOM     23  O25 ZIN A   1      13.814   8.119  15.253  0.00  0.00    -0.206 OA
ATOM     24  O26 ZIN A   1      13.812   5.750  14.540  0.00  0.00    -0.206 OA
ENDBRANCH  19  21
ENDBRANCH  17  19
ENDBRANCH   5   9
BRANCH   1  25
ATOM     25  C10 ZIN A   1      18.727  -2.877   9.814  0.00  0.00     0.131 A 
ATOM     26  C5  ZIN A   1      18.506  -3.944   8.938  0.00  0.00     0.069 A 
ATOM     27  C6  ZIN A   1      19.017  -5.194   9.260  0.00  0.00     0.034 A 
ATOM     28  C7  ZIN A   1      19.725  -5.334  10.448  0.00  0.00     0.022 A 
ATOM     29  C8  ZIN A   1      19.898  -4.237  11.265  0.00  0.00     0.118 A 
ATOM     30  N9  ZIN A   1      19.402  -3.058  10.936  0.00  0.00    -0.246 NA
BRANCH  26  31
ATOM     31  N4  ZIN A   1      17.787  -3.754   7.753  0.00  0.00    -0.383 N 
ATOM     32  H40 ZIN A   1      16.933  -3.295   7.772  0.00  0.00     0.160 HD
BRANCH  31  33
ATOM     33  C2  ZIN A   1      18.324  -4.248   6.483  0.00  0.00     0.073 C 
ATOM     34  C1  ZIN A   1      17.313  -5.196   5.835  0.00  0.00     0.031 C 
ATOM     35  C3  ZIN A   1      18.589  -3.068   5.546  0.00  0.00     0.031 C 
ENDBRANCH  31  33
ENDBRANCH  26  31
ENDBRANCH   1  25
TORSDOF 6
ENDMDL
MODEL 8
REMARK VINA RESULT:      -7.9      4.733     11.435
REMARK  6 active torsions:
REMARK  status: ('A' for Active; 'I' for Inactive)
REMARK    1  A    between atoms: C2_2  and  N4_4 
REMARK    2  A    between atoms: N4_4  and  C5_5 
REMARK    3  A    between atoms: C10_10  and  N11_11 
REMARK       I    between atoms: N14_14  and  C15_15 
REMARK    4  A    between atoms: C15_15  and  C17_17 
REMARK    5  A    between atoms: C21_21  and  N22_22 
REMARK    6  A    between atoms: N22_22  and  S23_23 
ROOT
ATOM      1  N11 ZIN A   1      17.475  -4.876   8.281  0.00  0.00    -0.263 NA
ATOM      2  C12 ZIN A   1      18.326  -5.879   8.934  0.00  0.00     0.117 C 
ATOM      3  C13 ZIN A   1      19.660  -5.236   9.329  0.00  0.00     0.141 C 
ATOM      4  N14 ZIN A   1      19.380  -4.038  10.135  0.00  0.00    -0.344 N 
ATOM      5  C15 ZIN A   1      19.978  -3.851  11.328  0.00  0.00     0.270 C 
ATOM      6  O16 ZIN A   1      20.773  -4.674  11.745  0.00  0.00    -0.266 OA
ATOM      7  C31 ZIN A   1      18.428  -3.049   9.606  0.00  0.00     0.141 C 
ATOM      8  C32 ZIN A   1      17.143  -3.780   9.201  0.00  0.00     0.117 C 
ENDROOT
BRANCH   5   9
ATOM      9  C17 ZIN A   1      19.672  -2.655  12.126  0.00  0.00     0.102 A 
ATOM     10  N30 ZIN A   1      20.129  -1.379  11.862  0.00  0.00    -0.351 N 
ATOM     11  C29 ZIN A   1      19.633  -0.524  12.821  0.00  0.00     0.043 A 
ATOM     12  H56 ZIN A   1      20.703  -1.126  11.122  0.00  0.00     0.166 HD
ATOM     13  C19 ZIN A   1      18.856  -1.293  13.709  0.00  0.00    -0.005 A 
ATOM     14  C28 ZIN A   1      19.770   0.845  13.035  0.00  0.00     0.033 A 
ATOM     15  C18 ZIN A   1      18.901  -2.630  13.244  0.00  0.00     0.049 A 
ATOM     16  C20 ZIN A   1      18.229  -0.676  14.798  0.00  0.00     0.043 A 
ATOM     17  C21 ZIN A   1      18.377   0.684  14.991  0.00  0.00     0.043 A 
ATOM     18  C27 ZIN A   1      19.148   1.440  14.109  0.00  0.00     0.032 A 
BRANCH  17  19
ATOM     19  N22 ZIN A   1      17.752   1.305  16.078  0.00  0.00    -0.285 N 
ATOM     20  H50 ZIN A   1      16.836   1.617  15.999  0.00  0.00     0.178 HD
BRANCH  19  21
ATOM     21  S23 ZIN A   1      18.574   1.508  17.501  0.00  0.00     0.227 S 
ATOM     22  C24 ZIN A   1      19.252  -0.133  17.871  0.00  0.00     0.186 C 
ATOM     23  O25 ZIN A   1      19.617   2.417  17.176  0.00  0.00    -0.206 OA
ATOM     24  O26 ZIN A   1      17.567   1.855  18.441  0.00  0.00    -0.206 OA
ENDBRANCH  19  21
ENDBRANCH  17  19
ENDBRANCH   5   9
BRANCH   1  25
ATOM     25  C10 ZIN A   1      16.322  -5.460   7.763  0.00  0.00     0.131 A 
ATOM     26  C5  ZIN A   1      16.257  -5.776   6.403  0.00  0.00     0.069 A 
ATOM     27  C6  ZIN A   1      15.100  -6.358   5.903  0.00  0.00     0.034 A 
ATOM     28  C7  ZIN A   1      14.048  -6.597   6.779  0.00  0.00     0.022 A 
ATOM     29  C8  ZIN A   1      14.183  -6.253   8.108  0.00  0.00     0.118 A 
ATOM     30  N9  ZIN A   1      15.294  -5.701   8.559  0.00  0.00    -0.246 NA
BRANCH  26  31
ATOM     31  N4  ZIN A   1      17.343  -5.516   5.559  0.00  0.00    -0.383 N 
ATOM     32  H40 ZIN A   1      18.107  -6.113   5.555  0.00  0.00     0.160 HD
BRANCH  31  33
ATOM     33  C2  ZIN A   1      17.326  -4.342   4.683  0.00  0.00     0.073 C 
ATOM     34  C1  ZIN A   1      18.537  -3.458   4.991  0.00  0.00     0.031 C 
ATOM     35  C3  ZIN A   1      17.382  -4.794   3.223  0.00  0.00     0.031 C 
ENDBRANCH  31  33
ENDBRANCH  26  31
ENDBRANCH   1  25
TORSDOF 6
ENDMDL
MODEL 9
REMARK VINA RESULT:      -7.8      3.749      5.783
REMARK  6 active torsions:
REMARK  status: ('A' for Active; 'I' for Inactive)
REMARK    1  A    between atoms: C2_2  and  N4_4 
REMARK    2  A    between atoms: N4_4  and  C5_5 
REMARK    3  A    between atoms: C10_10  and  N11_11 
REMARK       I    between atoms: N14_14  and  C15_15 
REMARK    4  A    between atoms: C15_15  and  C17_17 
REMARK    5  A    between atoms: C21_21  and  N22_22 
REMARK    6  A    between atoms: N22_22  and  S23_23 
ROOT
ATOM      1  N11 ZIN A   1      18.380  -0.218  12.089  0.00  0.00    -0.263 NA
ATOM      2  C12 ZIN A   1      19.671  -0.886  12.305  0.00  0.00     0.117 C 
ATOM      3  C13 ZIN A   1      19.432  -2.369  12.606  0.00  0.00     0.141 C 
ATOM      4  N14 ZIN A   1      18.612  -2.938  11.526  0.00  0.00    -0.344 N 
ATOM      5  C15 ZIN A   1      18.990  -4.065  10.889  0.00  0.00     0.270 C 
ATOM      6  O16 ZIN A   1      20.016  -4.632  11.215  0.00  0.00    -0.266 OA
ATOM      7  C31 ZIN A   1      17.368  -2.245  11.158  0.00  0.00     0.141 C 
ATOM      8  C32 ZIN A   1      17.688  -0.767  10.914  0.00  0.00     0.117 C 
ENDROOT
BRANCH   5   9
ATOM      9  C17 ZIN A   1      18.164  -4.608   9.801  0.00  0.00     0.102 A 
ATOM     10  N30 ZIN A   1      16.886  -5.113   9.943  0.00  0.00    -0.351 N 
ATOM     11  C29 ZIN A   1      16.433  -5.524   8.709  0.00  0.00     0.043 A 
ATOM     12  H56 ZIN A   1      16.389  -5.167  10.774  0.00  0.00     0.166 HD
ATOM     13  C19 ZIN A   1      17.462  -5.277   7.780  0.00  0.00    -0.005 A 
ATOM     14  C28 ZIN A   1      15.239  -6.096   8.278  0.00  0.00     0.033 A 
ATOM     15  C18 ZIN A   1      18.538  -4.700   8.498  0.00  0.00     0.049 A 
ATOM     16  C20 ZIN A   1      17.276  -5.607   6.432  0.00  0.00     0.043 A 
ATOM     17  C21 ZIN A   1      16.084  -6.173   6.026  0.00  0.00     0.043 A 
ATOM     18  C27 ZIN A   1      15.069  -6.416   6.950  0.00  0.00     0.032 A 
BRANCH  17  19
ATOM     19  N22 ZIN A   1      15.894  -6.505   4.679  0.00  0.00    -0.285 N 
ATOM     20  H50 ZIN A   1      16.216  -7.355   4.339  0.00  0.00     0.178 HD
BRANCH  19  21
ATOM     21  S23 ZIN A   1      15.121  -5.448   3.666  0.00  0.00     0.227 S 
ATOM     22  C24 ZIN A   1      15.603  -5.981   2.001  0.00  0.00     0.186 C 
ATOM     23  O25 ZIN A   1      13.739  -5.696   3.888  0.00  0.00    -0.206 OA
ATOM     24  O26 ZIN A   1      15.697  -4.185   3.971  0.00  0.00    -0.206 OA
ENDBRANCH  19  21
ENDBRANCH  17  19
ENDBRANCH   5   9
BRANCH   1  25
ATOM     25  C10 ZIN A   1      18.543   1.160  11.974  0.00  0.00     0.131 A 
ATOM     26  C5  ZIN A   1      18.356   1.974  13.094  0.00  0.00     0.069 A 
ATOM     27  C6  ZIN A   1      18.523   3.346  12.962  0.00  0.00     0.034 A 
ATOM     28  C7  ZIN A   1      18.864   3.855  11.715  0.00  0.00     0.022 A 
ATOM     29  C8  ZIN A   1      19.026   2.989  10.653  0.00  0.00     0.118 A 
ATOM     30  N9  ZIN A   1      18.862   1.687  10.805  0.00  0.00    -0.246 NA
BRANCH  26  31
ATOM     31  N4  ZIN A   1      18.013   1.416  14.331  0.00  0.00    -0.383 N 
ATOM     32  H40 ZIN A   1      17.091   1.184  14.519  0.00  0.00     0.160 HD
BRANCH  31  33
ATOM     33  C2  ZIN A   1      19.048   1.181  15.341  0.00  0.00     0.073 C 
ATOM     34  C1  ZIN A   1      18.969   2.269  16.415  0.00  0.00     0.031 C 
ATOM     35  C3  ZIN A   1      18.830  -0.189  15.987  0.00  0.00     0.031 C 
ENDBRANCH  31  33
ENDBRANCH  26  31
ENDBRANCH   1  25
TORSDOF 6
ENDMDL
