MODEL 1
REMARK VINA RESULT:      -8.6      0.000      0.000
REMARK  4 active torsions:
REMARK  status: ('A' for Active; 'I' for Inactive)
REMARK    1  A    between atoms: O2_2  and  C3_3 
REMARK    2  A    between atoms: C4_4  and  N5_5 
REMARK    3  A    between atoms: N18_17  and  C19_18 
REMARK    4  A    between atoms: C23_22  and  C24_23 
ROOT
ATOM      1  C3  <0> d   1      18.731  -0.635  10.234  0.00  0.00     0.125 A 
ATOM      2  C4  <0> d   1      18.903   0.680   9.821  0.00  0.00     0.105 A 
ATOM      3  C13 <0> d   1      19.223   0.969   8.493  0.00  0.00     0.146 A 
ATOM      4  F14 <0> d   1      19.388   2.253   8.106  0.00  0.00    -0.204 F 
ATOM      5  C15 <0> d   1      19.369  -0.040   7.583  0.00  0.00     0.062 A 
ATOM      6  C16 <0> d   1      19.199  -1.369   7.982  0.00  0.00     0.048 A 
ATOM      7  C17 <0> d   1      18.883  -1.673   9.318  0.00  0.00     0.085 A 
ATOM      8  N18 <0> d   1      18.714  -2.986   9.712  0.00  0.00    -0.348 N 
ATOM      9  C22 <0> d   1      18.838  -4.017   8.868  0.00  0.00     0.114 A 
ATOM     10  C23 <0> d   1      19.145  -3.841   7.532  0.00  0.00     0.107 A 
ATOM     11  C27 <0> d   1      19.351  -2.475   7.022  0.00  0.00     0.203 A 
ATOM     12  O28 <0> d   1      19.623  -2.268   5.852  0.00  0.00    -0.286 OA
ENDROOT
BRANCH   2  13
ATOM     13  N5  <0> d   1      18.756   1.720  10.740  0.00  0.00    -0.372 N 
ATOM     14  C12 <0> d   1      17.565   2.582  10.721  0.00  0.00     0.158 C 
ATOM     15  C9  <0> d   1      18.015   4.042  10.708  0.00  0.00     0.234 C 
ATOM     16  N8  <0> d   1      18.937   4.279  11.827  0.00  0.00     0.090 N 
ATOM     17  C11 <0> d   1      16.797   4.956  10.847  0.00  0.00     0.044 C 
ATOM     18  C7  <0> d   1      20.157   3.473  11.693  0.00  0.00     0.289 C 
ATOM     19  H36 <0> d   1      18.484   4.105  12.712  0.00  0.00     0.316 HD
ATOM     20  C6  <0> d   1      19.792   1.986  11.751  0.00  0.00     0.153 C 
ENDBRANCH   2  13
BRANCH   1  21
ATOM     21  O2  <0> d   1      18.420  -0.908  11.531  0.00  0.00    -0.351 OA
ATOM     22  C1  <0> d   1      17.091  -0.605  11.957  0.00  0.00     0.210 C 
ENDBRANCH   1  21
BRANCH   8  23
ATOM     23  C19 <0> d   1      18.386  -3.261  11.113  0.00  0.00     0.090 A 
ATOM     24  C21 <0> d   1      18.607  -4.685  11.624  0.00  0.00     0.028 A 
ATOM     25  C20 <0> d   1      17.186  -4.169  11.392  0.00  0.00     0.028 A 
ENDBRANCH   8  23
BRANCH  10  26
ATOM     26  C24 <0> d   1      19.271  -4.997   6.638  0.00  0.00     0.214 C 
ATOM     27  O25 <0> d   1      20.190  -5.791   6.792  0.00  0.00    -0.644 OA
ATOM     28  O26 <0> d   1      18.459  -5.168   5.739  0.00  0.00    -0.644 OA
ENDBRANCH  10  26
TORSDOF 4
ENDMDL
MODEL 2
REMARK VINA RESULT:      -8.2      1.277      1.572
REMARK  4 active torsions:
REMARK  status: ('A' for Active; 'I' for Inactive)
REMARK    1  A    between atoms: O2_2  and  C3_3 
REMARK    2  A    between atoms: C4_4  and  N5_5 
REMARK    3  A    between atoms: N18_17  and  C19_18 
REMARK    4  A    between atoms: C23_22  and  C24_23 
ROOT
ATOM      1  C3  <0> d   1      18.853   0.433  10.795  0.00  0.00     0.125 A 
ATOM      2  C4  <0> d   1      18.760   1.796  10.542  0.00  0.00     0.105 A 
ATOM      3  C13 <0> d   1      18.770   2.274   9.230  0.00  0.00     0.146 A 
ATOM      4  F14 <0> d   1      18.680   3.602   8.998  0.00  0.00    -0.204 F 
ATOM      5  C15 <0> d   1      18.872   1.406   8.179  0.00  0.00     0.062 A 
ATOM      6  C16 <0> d   1      18.965   0.032   8.417  0.00  0.00     0.048 A 
ATOM      7  C17 <0> d   1      18.962  -0.462   9.734  0.00  0.00     0.085 A 
ATOM      8  N18 <0> d   1      19.054  -1.820   9.969  0.00  0.00    -0.348 N 
ATOM      9  C22 <0> d   1      19.149  -2.720   8.984  0.00  0.00     0.114 A 
ATOM     10  C23 <0> d   1      19.161  -2.354   7.651  0.00  0.00     0.107 A 
ATOM     11  C27 <0> d   1      19.075  -0.925   7.304  0.00  0.00     0.203 A 
ATOM     12  O28 <0> d   1      19.082  -0.553   6.144  0.00  0.00    -0.286 OA
ENDROOT
BRANCH   2  13
ATOM     13  N5  <0> d   1      18.656   2.693  11.605  0.00  0.00    -0.372 N 
ATOM     14  C12 <0> d   1      17.363   3.297  11.961  0.00  0.00     0.158 C 
ATOM     15  C9  <0> d   1      17.536   4.811  12.053  0.00  0.00     0.234 C 
ATOM     16  N8  <0> d   1      18.640   5.122  12.971  0.00  0.00     0.090 N 
ATOM     17  C11 <0> d   1      16.245   5.445  12.574  0.00  0.00     0.044 C 
ATOM     18  C7  <0> d   1      19.916   4.594  12.468  0.00  0.00     0.289 C 
ATOM     19  H36 <0> d   1      18.447   4.778  13.899  0.00  0.00     0.316 HD
ATOM     20  C6  <0> d   1      19.839   3.065  12.398  0.00  0.00     0.153 C 
ENDBRANCH   2  13
BRANCH   1  21
ATOM     21  O2  <0> d   1      18.842  -0.024  12.077  0.00  0.00    -0.351 OA
ATOM     22  C1  <0> d   1      17.582  -0.039  12.750  0.00  0.00     0.210 C 
ENDBRANCH   1  21
BRANCH   8  23
ATOM     23  C19 <0> d   1      19.047  -2.293  11.355  0.00  0.00     0.090 A 
ATOM     24  C21 <0> d   1      19.691  -3.651  11.641  0.00  0.00     0.028 A 
ATOM     25  C20 <0> d   1      18.169  -3.503  11.683  0.00  0.00     0.028 A 
ENDBRANCH   8  23
BRANCH  10  26
ATOM     26  C24 <0> d   1      19.266  -3.371   6.600  0.00  0.00     0.214 C 
ATOM     27  O25 <0> d   1      18.256  -3.774   6.036  0.00  0.00    -0.644 OA
ATOM     28  O26 <0> d   1      20.361  -3.817   6.285  0.00  0.00    -0.644 OA
ENDBRANCH  10  26
TORSDOF 4
ENDMDL
MODEL 3
REMARK VINA RESULT:      -7.7      3.257      4.751
REMARK  4 active torsions:
REMARK  status: ('A' for Active; 'I' for Inactive)
REMARK    1  A    between atoms: O2_2  and  C3_3 
REMARK    2  A    between atoms: C4_4  and  N5_5 
REMARK    3  A    between atoms: N18_17  and  C19_18 
REMARK    4  A    between atoms: C23_22  and  C24_23 
ROOT
ATOM      1  C3  <0> d   1      18.005   1.852  13.541  0.00  0.00     0.125 A 
ATOM      2  C4  <0> d   1      17.876   2.914  12.655  0.00  0.00     0.105 A 
ATOM      3  C13 <0> d   1      17.737   2.679  11.285  0.00  0.00     0.146 A 
ATOM      4  F14 <0> d   1      17.613   3.722  10.434  0.00  0.00    -0.204 F 
ATOM      5  C15 <0> d   1      17.726   1.401  10.801  0.00  0.00     0.062 A 
ATOM      6  C16 <0> d   1      17.854   0.322  11.679  0.00  0.00     0.048 A 
ATOM      7  C17 <0> d   1      18.001   0.545  13.060  0.00  0.00     0.085 A 
ATOM      8  N18 <0> d   1      18.126  -0.522  13.928  0.00  0.00    -0.348 N 
ATOM      9  C22 <0> d   1      18.116  -1.795  13.517  0.00  0.00     0.114 A 
ATOM     10  C23 <0> d   1      17.978  -2.137  12.185  0.00  0.00     0.107 A 
ATOM     11  C27 <0> d   1      17.845  -1.065  11.184  0.00  0.00     0.203 A 
ATOM     12  O28 <0> d   1      17.720  -1.315   9.998  0.00  0.00    -0.286 OA
ENDROOT
BRANCH   2  13
ATOM     13  N5  <0> d   1      17.886   4.223  13.136  0.00  0.00    -0.372 N 
ATOM     14  C12 <0> d   1      19.127   5.013  13.152  0.00  0.00     0.158 C 
ATOM     15  C9  <0> d   1      19.320   5.596  14.550  0.00  0.00     0.234 C 
ATOM     16  N8  <0> d   1      18.111   6.331  14.944  0.00  0.00     0.090 N 
ATOM     17  C11 <0> d   1      20.518   6.548  14.548  0.00  0.00     0.044 C 
ATOM     18  C7  <0> d   1      16.948   5.438  15.031  0.00  0.00     0.289 C 
ATOM     19  H36 <0> d   1      17.931   7.098  14.313  0.00  0.00     0.316 HD
ATOM     20  C6  <0> d   1      16.656   4.850  13.646  0.00  0.00     0.153 C 
ENDBRANCH   2  13
BRANCH   1  21
ATOM     21  O2  <0> d   1      18.140   2.089  14.874  0.00  0.00    -0.351 OA
ATOM     22  C1  <0> d   1      19.462   2.325  15.360  0.00  0.00     0.210 C 
ENDBRANCH   1  21
BRANCH   8  23
ATOM     23  C19 <0> d   1      18.277  -0.247  15.359  0.00  0.00     0.090 A 
ATOM     24  C21 <0> d   1      18.788  -1.383  16.246  0.00  0.00     0.028 A 
ATOM     25  C20 <0> d   1      17.321  -0.958  16.319  0.00  0.00     0.028 A 
ENDBRANCH   8  23
BRANCH  10  26
ATOM     26  C24 <0> d   1      17.971  -3.545  11.774  0.00  0.00     0.214 C 
ATOM     27  O25 <0> d   1      16.911  -4.099  11.511  0.00  0.00    -0.644 OA
ATOM     28  O26 <0> d   1      19.023  -4.165  11.692  0.00  0.00    -0.644 OA
ENDBRANCH  10  26
TORSDOF 4
ENDMDL
MODEL 4
REMARK VINA RESULT:      -7.7      3.698      8.478
REMARK  4 active torsions:
REMARK  status: ('A' for Active; 'I' for Inactive)
REMARK    1  A    between atoms: O2_2  and  C3_3 
REMARK    2  A    between atoms: C4_4  and  N5_5 
REMARK    3  A    between atoms: N18_17  and  C19_18 
REMARK    4  A    between atoms: C23_22  and  C24_23 
ROOT
ATOM      1  C3  <0> d   1      18.427   0.800  12.368  0.00  0.00     0.125 A 
ATOM      2  C4  <0> d   1      18.844  -0.453  12.797  0.00  0.00     0.105 A 
ATOM      3  C13 <0> d   1      19.275  -0.644  14.111  0.00  0.00     0.146 A 
ATOM      4  F14 <0> d   1      19.679  -1.869  14.515  0.00  0.00    -0.204 F 
ATOM      5  C15 <0> d   1      19.290   0.401  14.992  0.00  0.00     0.062 A 
ATOM      6  C16 <0> d   1      18.872   1.668  14.577  0.00  0.00     0.048 A 
ATOM      7  C17 <0> d   1      18.443   1.875  13.254  0.00  0.00     0.085 A 
ATOM      8  N18 <0> d   1      18.030   3.127  12.844  0.00  0.00    -0.348 N 
ATOM      9  C22 <0> d   1      18.015   4.188  13.660  0.00  0.00     0.114 A 
ATOM     10  C23 <0> d   1      18.414   4.106  14.980  0.00  0.00     0.107 A 
ATOM     11  C27 <0> d   1      18.879   2.811  15.505  0.00  0.00     0.203 A 
ATOM     12  O28 <0> d   1      19.241   2.688  16.662  0.00  0.00    -0.286 OA
ENDROOT
BRANCH   2  13
ATOM     13  N5  <0> d   1      18.834  -1.529  11.908  0.00  0.00    -0.372 N 
ATOM     14  C12 <0> d   1      17.597  -2.282  11.649  0.00  0.00     0.158 C 
ATOM     15  C9  <0> d   1      17.883  -3.772  11.829  0.00  0.00     0.234 C 
ATOM     16  N8  <0> d   1      19.030  -4.154  10.995  0.00  0.00     0.090 N 
ATOM     17  C11 <0> d   1      16.656  -4.584  11.411  0.00  0.00     0.044 C 
ATOM     18  C7  <0> d   1      20.251  -3.450  11.412  0.00  0.00     0.289 C 
ATOM     19  H36 <0> d   1      18.837  -3.994  10.018  0.00  0.00     0.316 HD
ATOM     20  C6  <0> d   1      20.061  -1.943  11.210  0.00  0.00     0.153 C 
ENDBRANCH   2  13
BRANCH   1  21
ATOM     21  O2  <0> d   1      18.009   0.978  11.085  0.00  0.00    -0.351 OA
ATOM     22  C1  <0> d   1      19.017   1.016  10.074  0.00  0.00     0.210 C 
ENDBRANCH   1  21
BRANCH   8  23
ATOM     23  C19 <0> d   1      17.589   3.301  11.458  0.00  0.00     0.090 A 
ATOM     24  C21 <0> d   1      18.165   4.483  10.677  0.00  0.00     0.028 A 
ATOM     25  C20 <0> d   1      16.709   4.512  11.144  0.00  0.00     0.028 A 
ENDBRANCH   8  23
BRANCH  10  26
ATOM     26  C24 <0> d   1      18.383   5.292  15.843  0.00  0.00     0.214 C 
ATOM     27  O25 <0> d   1      17.386   5.536  16.510  0.00  0.00    -0.644 OA
ATOM     28  O26 <0> d   1      19.353   6.036  15.897  0.00  0.00    -0.644 OA
ENDBRANCH  10  26
TORSDOF 4
ENDMDL
MODEL 5
REMARK VINA RESULT:      -7.5      2.591      6.707
REMARK  4 active torsions:
REMARK  status: ('A' for Active; 'I' for Inactive)
REMARK    1  A    between atoms: O2_2  and  C3_3 
REMARK    2  A    between atoms: C4_4  and  N5_5 
REMARK    3  A    between atoms: N18_17  and  C19_18 
REMARK    4  A    between atoms: C23_22  and  C24_23 
ROOT
ATOM      1  C3  <0> d   1      18.847  -2.030   9.957  0.00  0.00     0.125 A 
ATOM      2  C4  <0> d   1      18.900  -2.405   8.620  0.00  0.00     0.105 A 
ATOM      3  C13 <0> d   1      19.023  -1.440   7.619  0.00  0.00     0.146 A 
ATOM      4  F14 <0> d   1      19.073  -1.819   6.323  0.00  0.00    -0.204 F 
ATOM      5  C15 <0> d   1      19.094  -0.114   7.943  0.00  0.00     0.062 A 
ATOM      6  C16 <0> d   1      19.043   0.280   9.282  0.00  0.00     0.048 A 
ATOM      7  C17 <0> d   1      18.912  -0.682  10.300  0.00  0.00     0.085 A 
ATOM      8  N18 <0> d   1      18.862  -0.292  11.624  0.00  0.00    -0.348 N 
ATOM      9  C22 <0> d   1      18.933   0.988  12.005  0.00  0.00     0.114 A 
ATOM     10  C23 <0> d   1      19.062   2.020  11.096  0.00  0.00     0.107 A 
ATOM     11  C27 <0> d   1      19.116   1.701   9.659  0.00  0.00     0.203 A 
ATOM     12  O28 <0> d   1      19.231   2.576   8.818  0.00  0.00    -0.286 OA
ENDROOT
BRANCH   2  13
ATOM     13  N5  <0> d   1      18.829  -3.756   8.276  0.00  0.00    -0.372 N 
ATOM     14  C12 <0> d   1      17.550  -4.480   8.322  0.00  0.00     0.158 C 
ATOM     15  C9  <0> d   1      17.740  -5.762   9.131  0.00  0.00     0.234 C 
ATOM     16  N8  <0> d   1      18.867  -6.525   8.579  0.00  0.00     0.090 N 
ATOM     17  C11 <0> d   1      16.467  -6.608   9.059  0.00  0.00     0.044 C 
ATOM     18  C7  <0> d   1      20.126  -5.777   8.696  0.00  0.00     0.289 C 
ATOM     19  H36 <0> d   1      18.692  -6.789   7.621  0.00  0.00     0.316 HD
ATOM     20  C6  <0> d   1      20.032  -4.494   7.863  0.00  0.00     0.153 C 
ENDBRANCH   2  13
BRANCH   1  21
ATOM     21  O2  <0> d   1      18.726  -2.977  10.927  0.00  0.00    -0.351 OA
ATOM     22  C1  <0> d   1      19.918  -3.659  11.319  0.00  0.00     0.210 C 
ENDBRANCH   1  21
BRANCH   8  23
ATOM     23  C19 <0> d   1      18.726  -1.325  12.654  0.00  0.00     0.090 A 
ATOM     24  C21 <0> d   1      18.057  -0.926  13.970  0.00  0.00     0.028 A 
ATOM     25  C20 <0> d   1      19.566  -1.172  13.923  0.00  0.00     0.028 A 
ENDBRANCH   8  23
BRANCH  10  26
ATOM     26  C24 <0> d   1      19.137   3.412  11.553  0.00  0.00     0.214 C 
ATOM     27  O25 <0> d   1      18.115   4.077  11.657  0.00  0.00    -0.644 OA
ATOM     28  O26 <0> d   1      20.221   3.908  11.831  0.00  0.00    -0.644 OA
ENDBRANCH  10  26
TORSDOF 4
ENDMDL
MODEL 6
REMARK VINA RESULT:      -7.4      3.891      6.072
REMARK  4 active torsions:
REMARK  status: ('A' for Active; 'I' for Inactive)
REMARK    1  A    between atoms: O2_2  and  C3_3 
REMARK    2  A    between atoms: C4_4  and  N5_5 
REMARK    3  A    between atoms: N18_17  and  C19_18 
REMARK    4  A    between atoms: C23_22  and  C24_23 
ROOT
ATOM      1  C3  <0> d   1      18.689   2.714  13.716  0.00  0.00     0.125 A 
ATOM      2  C4  <0> d   1      18.829   3.120  15.037  0.00  0.00     0.105 A 
ATOM      3  C13 <0> d   1      19.064   2.183  16.045  0.00  0.00     0.146 A 
ATOM      4  F14 <0> d   1      19.197   2.592  17.326  0.00  0.00    -0.204 F 
ATOM      5  C15 <0> d   1      19.161   0.853  15.742  0.00  0.00     0.062 A 
ATOM      6  C16 <0> d   1      19.024   0.428  14.418  0.00  0.00     0.048 A 
ATOM      7  C17 <0> d   1      18.780   1.361  13.395  0.00  0.00     0.085 A 
ATOM      8  N18 <0> d   1      18.645   0.941  12.087  0.00  0.00    -0.348 N 
ATOM      9  C22 <0> d   1      18.736  -0.344  11.726  0.00  0.00     0.114 A 
ATOM     10  C23 <0> d   1      18.974  -1.350  12.643  0.00  0.00     0.107 A 
ATOM     11  C27 <0> d   1      19.124  -0.998  14.065  0.00  0.00     0.203 A 
ATOM     12  O28 <0> d   1      19.335  -1.849  14.911  0.00  0.00    -0.286 OA
ENDROOT
BRANCH   2  13
ATOM     13  N5  <0> d   1      18.732   4.474  15.360  0.00  0.00    -0.372 N 
ATOM     14  C12 <0> d   1      17.424   5.146  15.414  0.00  0.00     0.158 C 
ATOM     15  C9  <0> d   1      17.488   6.415  14.567  0.00  0.00     0.234 C 
ATOM     16  N8  <0> d   1      18.627   7.235  15.001  0.00  0.00     0.090 N 
ATOM     17  C11 <0> d   1      16.193   7.211  14.735  0.00  0.00     0.044 C 
ATOM     18  C7  <0> d   1      19.901   6.535  14.786  0.00  0.00     0.289 C 
ATOM     19  H36 <0> d   1      18.526   7.514  15.965  0.00  0.00     0.316 HD
ATOM     20  C6  <0> d   1      19.935   5.269  15.649  0.00  0.00     0.153 C 
ENDBRANCH   2  13
BRANCH   1  21
ATOM     21  O2  <0> d   1      18.459   3.634  12.740  0.00  0.00    -0.351 OA
ATOM     22  C1  <0> d   1      19.587   4.366  12.260  0.00  0.00     0.210 C 
ENDBRANCH   1  21
BRANCH   8  23
ATOM     23  C19 <0> d   1      18.392   1.945  11.051  0.00  0.00     0.090 A 
ATOM     24  C21 <0> d   1      17.793   1.461   9.729  0.00  0.00     0.028 A 
ATOM     25  C20 <0> d   1      19.258   1.894   9.791  0.00  0.00     0.028 A 
ENDBRANCH   8  23
BRANCH  10  26
ATOM     26  C24 <0> d   1      19.067  -2.748  12.208  0.00  0.00     0.214 C 
ATOM     27  O25 <0> d   1      18.066  -3.453  12.197  0.00  0.00    -0.644 OA
ATOM     28  O26 <0> d   1      20.145  -3.210  11.857  0.00  0.00    -0.644 OA
ENDBRANCH  10  26
TORSDOF 4
ENDMDL
MODEL 7
REMARK VINA RESULT:      -7.3      2.880      7.546
REMARK  4 active torsions:
REMARK  status: ('A' for Active; 'I' for Inactive)
REMARK    1  A    between atoms: O2_2  and  C3_3 
REMARK    2  A    between atoms: C4_4  and  N5_5 
REMARK    3  A    between atoms: N18_17  and  C19_18 
REMARK    4  A    between atoms: C23_22  and  C24_23 
ROOT
ATOM      1  C3  <0> d   1      18.020  -2.318   8.530  0.00  0.00     0.125 A 
ATOM      2  C4  <0> d   1      17.742  -3.480   9.238  0.00  0.00     0.105 A 
ATOM      3  C13 <0> d   1      17.458  -3.425  10.604  0.00  0.00     0.146 A 
ATOM      4  F14 <0> d   1      17.190  -4.564  11.281  0.00  0.00    -0.204 F 
ATOM      5  C15 <0> d   1      17.450  -2.227  11.261  0.00  0.00     0.062 A 
ATOM      6  C16 <0> d   1      17.727  -1.048  10.563  0.00  0.00     0.048 A 
ATOM      7  C17 <0> d   1      18.021  -1.090   9.188  0.00  0.00     0.085 A 
ATOM      8  N18 <0> d   1      18.294   0.074   8.498  0.00  0.00    -0.348 N 
ATOM      9  C22 <0> d   1      18.295   1.279   9.082  0.00  0.00     0.114 A 
ATOM     10  C23 <0> d   1      18.020   1.445  10.426  0.00  0.00     0.107 A 
ATOM     11  C27 <0> d   1      17.725   0.257  11.245  0.00  0.00     0.203 A 
ATOM     12  O28 <0> d   1      17.476   0.351  12.434  0.00  0.00    -0.286 OA
ENDROOT
BRANCH   2  13
ATOM     13  N5  <0> d   1      17.747  -4.711   8.581  0.00  0.00    -0.372 N 
ATOM     14  C12 <0> d   1      16.521  -5.244   7.967  0.00  0.00     0.158 C 
ATOM     15  C9  <0> d   1      16.311  -6.676   8.456  0.00  0.00     0.234 C 
ATOM     16  N8  <0> d   1      17.525  -7.462   8.203  0.00  0.00     0.090 N 
ATOM     17  C11 <0> d   1      15.132  -7.304   7.711  0.00  0.00     0.044 C 
ATOM     18  C7  <0> d   1      18.669  -6.936   8.961  0.00  0.00     0.289 C 
ATOM     19  H36 <0> d   1      17.733  -7.502   7.217  0.00  0.00     0.316 HD
ATOM     20  C6  <0> d   1      18.978  -5.512   8.487  0.00  0.00     0.153 C 
ENDBRANCH   2  13
BRANCH   1  21
ATOM     21  O2  <0> d   1      18.297  -2.380   7.199  0.00  0.00    -0.351 OA
ATOM     22  C1  <0> d   1      19.615  -2.785   6.828  0.00  0.00     0.210 C 
ENDBRANCH   1  21
BRANCH   8  23
ATOM     23  C19 <0> d   1      18.595  -0.012   7.068  0.00  0.00     0.090 A 
ATOM     24  C21 <0> d   1      18.925   1.289   6.335  0.00  0.00     0.028 A 
ATOM     25  C20 <0> d   1      17.583   0.596   6.095  0.00  0.00     0.028 A 
ENDBRANCH   8  23
BRANCH  10  26
ATOM     26  C24 <0> d   1      18.030   2.781  11.030  0.00  0.00     0.214 C 
ATOM     27  O25 <0> d   1      19.082   3.263  11.430  0.00  0.00    -0.644 OA
ATOM     28  O26 <0> d   1      16.988   3.415  11.133  0.00  0.00    -0.644 OA
ENDBRANCH  10  26
TORSDOF 4
ENDMDL
MODEL 8
REMARK VINA RESULT:      -7.2      1.884      3.350
REMARK  4 active torsions:
REMARK  status: ('A' for Active; 'I' for Inactive)
REMARK    1  A    between atoms: O2_2  and  C3_3 
REMARK    2  A    between atoms: C4_4  and  N5_5 
REMARK    3  A    between atoms: N18_17  and  C19_18 
REMARK    4  A    between atoms: C23_22  and  C24_23 
ROOT
ATOM      1  C3  <0> d   1      18.636  -0.088   9.581  0.00  0.00     0.125 A 
ATOM      2  C4  <0> d   1      18.799   0.061  10.953  0.00  0.00     0.105 A 
ATOM      3  C13 <0> d   1      18.982  -1.057  11.769  0.00  0.00     0.146 A 
ATOM      4  F14 <0> d   1      19.138  -0.898  13.102  0.00  0.00    -0.204 F 
ATOM      5  C15 <0> d   1      19.005  -2.312  11.227  0.00  0.00     0.062 A 
ATOM      6  C16 <0> d   1      18.844  -2.478   9.849  0.00  0.00     0.048 A 
ATOM      7  C17 <0> d   1      18.652  -1.361   9.017  0.00  0.00     0.085 A 
ATOM      8  N18 <0> d   1      18.494  -1.526   7.655  0.00  0.00    -0.348 N 
ATOM      9  C22 <0> d   1      18.512  -2.727   7.064  0.00  0.00     0.114 A 
ATOM     10  C23 <0> d   1      18.694  -3.895   7.778  0.00  0.00     0.107 A 
ATOM     11  C27 <0> d   1      18.864  -3.819   9.239  0.00  0.00     0.203 A 
ATOM     12  O28 <0> d   1      19.027  -4.821   9.913  0.00  0.00    -0.286 OA
ENDROOT
BRANCH   2  13
ATOM     13  N5  <0> d   1      18.778   1.336  11.519  0.00  0.00    -0.372 N 
ATOM     14  C12 <0> d   1      17.545   2.138  11.528  0.00  0.00     0.158 C 
ATOM     15  C9  <0> d   1      17.855   3.522  10.963  0.00  0.00     0.234 C 
ATOM     16  N8  <0> d   1      18.983   4.109  11.698  0.00  0.00     0.090 N 
ATOM     17  C11 <0> d   1      16.627   4.423  11.109  0.00  0.00     0.044 C 
ATOM     18  C7  <0> d   1      20.205   3.313  11.523  0.00  0.00     0.289 C 
ATOM     19  H36 <0> d   1      18.761   4.219  12.676  0.00  0.00     0.316 HD
ATOM     20  C6  <0> d   1      19.990   1.917  12.117  0.00  0.00     0.153 C 
ENDBRANCH   2  13
BRANCH   1  21
ATOM     21  O2  <0> d   1      18.458   1.007   8.793  0.00  0.00    -0.351 OA
ATOM     22  C1  <0> d   1      19.628   1.740   8.426  0.00  0.00     0.210 C 
ENDBRANCH   1  21
BRANCH   8  23
ATOM     23  C19 <0> d   1      18.296  -0.337   6.823  0.00  0.00     0.090 A 
ATOM     24  C21 <0> d   1      17.556  -0.517   5.496  0.00  0.00     0.028 A 
ATOM     25  C20 <0> d   1      19.065  -0.264   5.502  0.00  0.00     0.028 A 
ENDBRANCH   8  23
BRANCH  10  26
ATOM     26  C24 <0> d   1      18.709  -5.193   7.093  0.00  0.00     0.214 C 
ATOM     27  O25 <0> d   1      17.659  -5.698   6.718  0.00  0.00    -0.644 OA
ATOM     28  O26 <0> d   1      19.771  -5.769   6.897  0.00  0.00    -0.644 OA
ENDBRANCH  10  26
TORSDOF 4
ENDMDL
MODEL 9
REMARK VINA RESULT:      -7.2      2.905      5.030
REMARK  4 active torsions:
REMARK  status: ('A' for Active; 'I' for Inactive)
REMARK    1  A    between atoms: O2_2  and  C3_3 
REMARK    2  A    between atoms: C4_4  and  N5_5 
REMARK    3  A    between atoms: N18_17  and  C19_18 
REMARK    4  A    between atoms: C23_22  and  C24_23 
ROOT
ATOM      1  C3  <0> d   1      18.327   2.199  11.919  0.00  0.00     0.125 A 
ATOM      2  C4  <0> d   1      18.281   2.576  13.256  0.00  0.00     0.105 A 
ATOM      3  C13 <0> d   1      18.209   1.611  14.261  0.00  0.00     0.146 A 
ATOM      4  F14 <0> d   1      18.163   1.992  15.557  0.00  0.00    -0.204 F 
ATOM      5  C15 <0> d   1      18.183   0.282  13.943  0.00  0.00     0.062 A 
ATOM      6  C16 <0> d   1      18.230  -0.115  12.604  0.00  0.00     0.048 A 
ATOM      7  C17 <0> d   1      18.296   0.848  11.581  0.00  0.00     0.085 A 
ATOM      8  N18 <0> d   1      18.343   0.456  10.258  0.00  0.00    -0.348 N 
ATOM      9  C22 <0> d   1      18.327  -0.828   9.882  0.00  0.00     0.114 A 
ATOM     10  C23 <0> d   1      18.264  -1.862  10.797  0.00  0.00     0.107 A 
ATOM     11  C27 <0> d   1      18.204  -1.539  12.233  0.00  0.00     0.203 A 
ATOM     12  O28 <0> d   1      18.147  -2.415  13.078  0.00  0.00    -0.286 OA
ENDROOT
BRANCH   2  13
ATOM     13  N5  <0> d   1      18.306   3.930  13.595  0.00  0.00    -0.372 N 
ATOM     14  C12 <0> d   1      19.565   4.690  13.575  0.00  0.00     0.158 C 
ATOM     15  C9  <0> d   1      19.722   5.416  14.909  0.00  0.00     0.234 C 
ATOM     16  N8  <0> d   1      18.518   6.214  15.176  0.00  0.00     0.090 N 
ATOM     17  C11 <0> d   1      20.942   6.336  14.852  0.00  0.00     0.044 C 
ATOM     18  C7  <0> d   1      17.331   5.359  15.312  0.00  0.00     0.289 C 
ATOM     19  H36 <0> d   1      18.380   6.912  14.460  0.00  0.00     0.316 HD
ATOM     20  C6  <0> d   1      17.075   4.633  13.987  0.00  0.00     0.153 C 
ENDBRANCH   2  13
BRANCH   1  21
ATOM     21  O2  <0> d   1      18.397   3.146  10.945  0.00  0.00    -0.351 OA
ATOM     22  C1  <0> d   1      17.216   3.910  10.697  0.00  0.00     0.210 C 
ENDBRANCH   1  21
BRANCH   8  23
ATOM     23  C19 <0> d   1      18.411   1.490   9.222  0.00  0.00     0.090 A 
ATOM     24  C21 <0> d   1      18.404   1.030   7.763  0.00  0.00     0.028 A 
ATOM     25  C20 <0> d   1      19.692   1.570   8.388  0.00  0.00     0.028 A 
ENDBRANCH   8  23
BRANCH  10  26
ATOM     26  C24 <0> d   1      18.250  -3.257  10.345  0.00  0.00     0.214 C 
ATOM     27  O25 <0> d   1      19.305  -3.835  10.114  0.00  0.00    -0.644 OA
ATOM     28  O26 <0> d   1      17.186  -3.844  10.201  0.00  0.00    -0.644 OA
ENDBRANCH  10  26
TORSDOF 4
ENDMDL
