MODEL 1
REMARK VINA RESULT:      -7.6      0.000      0.000
REMARK  7 active torsions:
REMARK  status: ('A' for Active; 'I' for Inactive)
REMARK    1  A    between atoms: C2_2  and  C3_3 
REMARK    2  A    between atoms: C3_3  and  N4_4 
REMARK    3  A    between atoms: N4_4  and  C6_6 
REMARK    4  A    between atoms: N4_4  and  C13_13 
REMARK    5  A    between atoms: C6_6  and  C7_7 
REMARK    6  A    between atoms: C7_7  and  C8_8 
REMARK    7  A    between atoms: C18_17  and  O19_18 
ROOT
ATOM      1  C13 ZIN A   1      18.388   2.063  13.398  0.00  0.00     0.192 C 
ATOM      2  C15 ZIN A   1      18.154   3.103  14.499  0.00  0.00     0.038 C 
ATOM      3  C16 ZIN A   1      19.026   2.740  15.698  0.00  0.00     0.044 C 
ATOM      4  C17 ZIN A   1      18.826   1.297  16.081  0.00  0.00    -0.019 A 
ATOM      5  C18 ZIN A   1      19.237   0.899  17.353  0.00  0.00     0.072 A 
ATOM      6  C20 ZIN A   1      19.084  -0.415  17.759  0.00  0.00     0.037 A 
ATOM      7  C21 ZIN A   1      18.522  -1.338  16.899  0.00  0.00     0.003 A 
ATOM      8  C22 ZIN A   1      18.113  -0.943  15.641  0.00  0.00     0.008 A 
ATOM      9  C23 ZIN A   1      18.262   0.375  15.229  0.00  0.00    -0.047 A 
ATOM     10  C24 ZIN A   1      17.780   0.736  13.849  0.00  0.00     0.072 C 
ENDROOT
BRANCH   1  11
ATOM     11  N4  ZIN A   1      17.743   2.506  12.154  0.00  0.00    -0.066 N 
ATOM     12  H5  ZIN A   1      16.822   2.861  12.362  0.00  0.00     0.280 HD
BRANCH  11  13
ATOM     13  C3  ZIN A   1      18.550   3.566  11.535  0.00  0.00     0.235 C 
BRANCH  13  14
ATOM     14  C2  ZIN A   1      17.645   4.475  10.700  0.00  0.00     0.023 C 
ATOM     15  C1  ZIN A   1      16.596   5.121  11.606  0.00  0.00     0.007 C 
ENDBRANCH  13  14
ENDBRANCH  11  13
BRANCH  11  16
ATOM     16  C6  ZIN A   1      17.634   1.370  11.229  0.00  0.00     0.240 C 
BRANCH  16  17
ATOM     17  C7  ZIN A   1      18.966   1.177  10.499  0.00  0.00     0.074 C 
BRANCH  17  18
ATOM     18  C8  ZIN A   1      18.706   0.947   9.032  0.00  0.00    -0.016 A 
ATOM     19  S12 ZIN A   1      17.597  -0.248   8.374  0.00  0.00    -0.106 SA
ATOM     20  C11 ZIN A   1      17.989   0.247   6.733  0.00  0.00     0.050 A 
ATOM     21  C10 ZIN A   1      18.891   1.229   6.766  0.00  0.00     0.008 A 
ATOM     22  C9  ZIN A   1      19.287   1.616   8.035  0.00  0.00     0.015 A 
ENDBRANCH  17  18
ENDBRANCH  16  17
ENDBRANCH  11  16
ENDBRANCH   1  11
BRANCH   5  23
ATOM     23  O19 ZIN A   1      19.790   1.808  18.198  0.00  0.00    -0.360 OA
ATOM     24  H43 ZIN A   1      19.615   1.635  19.133  0.00  0.00     0.217 HD
ENDBRANCH   5  23
TORSDOF 7
ENDMDL
MODEL 2
REMARK VINA RESULT:      -7.6      3.321      7.278
REMARK  7 active torsions:
REMARK  status: ('A' for Active; 'I' for Inactive)
REMARK    1  A    between atoms: C2_2  and  C3_3 
REMARK    2  A    between atoms: C3_3  and  N4_4 
REMARK    3  A    between atoms: N4_4  and  C6_6 
REMARK    4  A    between atoms: N4_4  and  C13_13 
REMARK    5  A    between atoms: C6_6  and  C7_7 
REMARK    6  A    between atoms: C7_7  and  C8_8 
REMARK    7  A    between atoms: C18_17  and  O19_18 
ROOT
ATOM      1  C13 ZIN A   1      19.106   1.592   9.674  0.00  0.00     0.192 C 
ATOM      2  C15 ZIN A   1      17.859   0.733   9.910  0.00  0.00     0.038 C 
ATOM      3  C16 ZIN A   1      18.029  -0.581   9.151  0.00  0.00     0.044 C 
ATOM      4  C17 ZIN A   1      18.407  -0.320   7.717  0.00  0.00    -0.019 A 
ATOM      5  C18 ZIN A   1      18.234  -1.357   6.801  0.00  0.00     0.072 A 
ATOM      6  C20 ZIN A   1      18.568  -1.178   5.469  0.00  0.00     0.037 A 
ATOM      7  C21 ZIN A   1      19.076   0.034   5.047  0.00  0.00     0.003 A 
ATOM      8  C22 ZIN A   1      19.245   1.061   5.954  0.00  0.00     0.008 A 
ATOM      9  C23 ZIN A   1      18.909   0.888   7.290  0.00  0.00    -0.047 A 
ATOM     10  C24 ZIN A   1      19.106   2.057   8.220  0.00  0.00     0.072 C 
ENDROOT
BRANCH   1  11
ATOM     11  N4  ZIN A   1      19.079   2.759  10.567  0.00  0.00    -0.066 N 
ATOM     12  H5  ZIN A   1      19.515   3.544  10.106  0.00  0.00     0.280 HD
BRANCH  11  13
ATOM     13  C3  ZIN A   1      17.687   3.093  10.894  0.00  0.00     0.235 C 
BRANCH  13  14
ATOM     14  C2  ZIN A   1      17.397   4.538  10.482  0.00  0.00     0.023 C 
ATOM     15  C1  ZIN A   1      16.685   5.261  11.626  0.00  0.00     0.007 C 
ENDBRANCH  13  14
ENDBRANCH  11  13
BRANCH  11  16
ATOM     16  C6  ZIN A   1      19.811   2.448  11.801  0.00  0.00     0.240 C 
BRANCH  16  17
ATOM     17  C7  ZIN A   1      18.838   2.439  12.982  0.00  0.00     0.074 C 
BRANCH  17  18
ATOM     18  C8  ZIN A   1      18.841   1.075  13.625  0.00  0.00    -0.016 A 
ATOM     19  S12 ZIN A   1      17.729   0.543  14.879  0.00  0.00    -0.106 SA
ATOM     20  C11 ZIN A   1      18.498  -1.038  14.932  0.00  0.00     0.050 A 
ATOM     21  C10 ZIN A   1      19.502  -1.077  14.055  0.00  0.00     0.008 A 
ATOM     22  C9  ZIN A   1      19.691   0.089  13.333  0.00  0.00     0.015 A 
ENDBRANCH  17  18
ENDBRANCH  16  17
ENDBRANCH  11  16
ENDBRANCH   1  11
BRANCH   5  23
ATOM     23  O19 ZIN A   1      17.734  -2.550   7.218  0.00  0.00    -0.360 OA
ATOM     24  H43 ZIN A   1      17.112  -2.955   6.599  0.00  0.00     0.217 HD
ENDBRANCH   5  23
TORSDOF 7
ENDMDL
MODEL 3
REMARK VINA RESULT:      -7.5      3.078      6.838
REMARK  7 active torsions:
REMARK  status: ('A' for Active; 'I' for Inactive)
REMARK    1  A    between atoms: C2_2  and  C3_3 
REMARK    2  A    between atoms: C3_3  and  N4_4 
REMARK    3  A    between atoms: N4_4  and  C6_6 
REMARK    4  A    between atoms: N4_4  and  C13_13 
REMARK    5  A    between atoms: C6_6  and  C7_7 
REMARK    6  A    between atoms: C7_7  and  C8_8 
REMARK    7  A    between atoms: C18_17  and  O19_18 
ROOT
ATOM      1  C13 ZIN A   1      18.954   1.933  11.413  0.00  0.00     0.192 C 
ATOM      2  C15 ZIN A   1      17.576   1.264  11.461  0.00  0.00     0.038 C 
ATOM      3  C16 ZIN A   1      17.578   0.085  10.490  0.00  0.00     0.044 C 
ATOM      4  C17 ZIN A   1      18.070   0.518   9.134  0.00  0.00    -0.019 A 
ATOM      5  C18 ZIN A   1      17.786  -0.308   8.046  0.00  0.00     0.072 A 
ATOM      6  C20 ZIN A   1      18.216   0.035   6.776  0.00  0.00     0.037 A 
ATOM      7  C21 ZIN A   1      18.932   1.200   6.585  0.00  0.00     0.003 A 
ATOM      8  C22 ZIN A   1      19.210   2.018   7.661  0.00  0.00     0.008 A 
ATOM      9  C23 ZIN A   1      18.778   1.681   8.938  0.00  0.00    -0.047 A 
ATOM     10  C24 ZIN A   1      19.106   2.629  10.062  0.00  0.00     0.072 C 
ENDROOT
BRANCH   1  11
ATOM     11  N4  ZIN A   1      19.063   2.922  12.494  0.00  0.00    -0.066 N 
ATOM     12  H5  ZIN A   1      19.990   2.886  12.889  0.00  0.00     0.280 HD
BRANCH  11  13
ATOM     13  C3  ZIN A   1      18.810   4.265  11.956  0.00  0.00     0.235 C 
BRANCH  13  14
ATOM     14  C2  ZIN A   1      17.435   4.751  12.422  0.00  0.00     0.023 C 
ATOM     15  C1  ZIN A   1      16.561   5.051  11.203  0.00  0.00     0.007 C 
ENDBRANCH  13  14
ENDBRANCH  11  13
BRANCH  11  16
ATOM     16  C6  ZIN A   1      18.074   2.617  13.536  0.00  0.00     0.240 C 
BRANCH  16  17
ATOM     17  C7  ZIN A   1      18.794   2.350  14.860  0.00  0.00     0.074 C 
BRANCH  17  18
ATOM     18  C8  ZIN A   1      18.702   0.883  15.196  0.00  0.00    -0.016 A 
ATOM     19  S12 ZIN A   1      17.798   0.207  16.544  0.00  0.00    -0.106 SA
ATOM     20  C11 ZIN A   1      18.286  -1.421  16.094  0.00  0.00     0.050 A 
ATOM     21  C10 ZIN A   1      19.068  -1.371  15.015  0.00  0.00     0.008 A 
ATOM     22  C9  ZIN A   1      19.297  -0.099  14.518  0.00  0.00     0.015 A 
ENDBRANCH  17  18
ENDBRANCH  16  17
ENDBRANCH  11  16
ENDBRANCH   1  11
BRANCH   5  23
ATOM     23  O19 ZIN A   1      17.082  -1.455   8.236  0.00  0.00    -0.360 OA
ATOM     24  H43 ZIN A   1      17.510  -2.086   8.829  0.00  0.00     0.217 HD
ENDBRANCH   5  23
TORSDOF 7
ENDMDL
MODEL 4
REMARK VINA RESULT:      -7.3      3.820      7.885
REMARK  7 active torsions:
REMARK  status: ('A' for Active; 'I' for Inactive)
REMARK    1  A    between atoms: C2_2  and  C3_3 
REMARK    2  A    between atoms: C3_3  and  N4_4 
REMARK    3  A    between atoms: N4_4  and  C6_6 
REMARK    4  A    between atoms: N4_4  and  C13_13 
REMARK    5  A    between atoms: C6_6  and  C7_7 
REMARK    6  A    between atoms: C7_7  and  C8_8 
REMARK    7  A    between atoms: C18_17  and  O19_18 
ROOT
ATOM      1  C13 ZIN A   1      18.706   0.703   9.116  0.00  0.00     0.192 C 
ATOM      2  C15 ZIN A   1      19.358   1.609   8.066  0.00  0.00     0.038 C 
ATOM      3  C16 ZIN A   1      18.849   1.194   6.687  0.00  0.00     0.044 C 
ATOM      4  C17 ZIN A   1      19.009  -0.290   6.489  0.00  0.00    -0.019 A 
ATOM      5  C18 ZIN A   1      18.956  -0.780   5.184  0.00  0.00     0.072 A 
ATOM      6  C20 ZIN A   1      19.091  -2.136   4.940  0.00  0.00     0.037 A 
ATOM      7  C21 ZIN A   1      19.279  -3.008   5.994  0.00  0.00     0.003 A 
ATOM      8  C22 ZIN A   1      19.333  -2.522   7.285  0.00  0.00     0.008 A 
ATOM      9  C23 ZIN A   1      19.201  -1.162   7.536  0.00  0.00    -0.047 A 
ATOM     10  C24 ZIN A   1      19.285  -0.702   8.968  0.00  0.00     0.072 C 
ENDROOT
BRANCH   1  11
ATOM     11  N4  ZIN A   1      18.993   1.218  10.461  0.00  0.00    -0.066 N 
ATOM     12  H5  ZIN A   1      19.855   1.743  10.443  0.00  0.00     0.280 HD
BRANCH  11  13
ATOM     13  C3  ZIN A   1      17.896   2.092  10.895  0.00  0.00     0.235 C 
BRANCH  13  14
ATOM     14  C2  ZIN A   1      18.428   3.510  11.114  0.00  0.00     0.023 C 
ATOM     15  C1  ZIN A   1      17.716   4.474  10.164  0.00  0.00     0.007 C 
ENDBRANCH  13  14
ENDBRANCH  11  13
BRANCH  11  16
ATOM     16  C6  ZIN A   1      19.124   0.094  11.398  0.00  0.00     0.240 C 
BRANCH  16  17
ATOM     17  C7  ZIN A   1      20.171   0.435  12.460  0.00  0.00     0.074 C 
BRANCH  17  18
ATOM     18  C8  ZIN A   1      19.642   0.070  13.823  0.00  0.00    -0.016 A 
ATOM     19  S12 ZIN A   1      19.093   1.216  15.039  0.00  0.00    -0.106 SA
ATOM     20  C11 ZIN A   1      18.713  -0.095  16.147  0.00  0.00     0.050 A 
ATOM     21  C10 ZIN A   1      19.010  -1.264  15.577  0.00  0.00     0.008 A 
ATOM     22  C9  ZIN A   1      19.522  -1.173  14.294  0.00  0.00     0.015 A 
ENDBRANCH  17  18
ENDBRANCH  16  17
ENDBRANCH  11  16
ENDBRANCH   1  11
BRANCH   5  23
ATOM     23  O19 ZIN A   1      18.771   0.079   4.148  0.00  0.00    -0.360 OA
ATOM     24  H43 ZIN A   1      17.888   0.039   3.756  0.00  0.00     0.217 HD
ENDBRANCH   5  23
TORSDOF 7
ENDMDL
MODEL 5
REMARK VINA RESULT:      -7.3      1.799      3.482
REMARK  7 active torsions:
REMARK  status: ('A' for Active; 'I' for Inactive)
REMARK    1  A    between atoms: C2_2  and  C3_3 
REMARK    2  A    between atoms: C3_3  and  N4_4 
REMARK    3  A    between atoms: N4_4  and  C6_6 
REMARK    4  A    between atoms: N4_4  and  C13_13 
REMARK    5  A    between atoms: C6_6  and  C7_7 
REMARK    6  A    between atoms: C7_7  and  C8_8 
REMARK    7  A    between atoms: C18_17  and  O19_18 
ROOT
ATOM      1  C13 ZIN A   1      18.316  -0.302  13.965  0.00  0.00     0.192 C 
ATOM      2  C15 ZIN A   1      18.989  -1.329  14.882  0.00  0.00     0.038 C 
ATOM      3  C16 ZIN A   1      18.591  -1.024  16.324  0.00  0.00     0.044 C 
ATOM      4  C17 ZIN A   1      18.835   0.428  16.644  0.00  0.00    -0.019 A 
ATOM      5  C18 ZIN A   1      18.891   0.795  17.988  0.00  0.00     0.072 A 
ATOM      6  C20 ZIN A   1      19.107   2.115  18.345  0.00  0.00     0.037 A 
ATOM      7  C21 ZIN A   1      19.268   3.073  17.363  0.00  0.00     0.003 A 
ATOM      8  C22 ZIN A   1      19.215   2.708  16.033  0.00  0.00     0.008 A 
ATOM      9  C23 ZIN A   1      19.001   1.385  15.670  0.00  0.00    -0.047 A 
ATOM     10  C24 ZIN A   1      18.971   1.058  14.199  0.00  0.00     0.072 C 
ENDROOT
BRANCH   1  11
ATOM     11  N4  ZIN A   1      18.490  -0.700  12.562  0.00  0.00    -0.066 N 
ATOM     12  H5  ZIN A   1      18.950   0.043  12.057  0.00  0.00     0.280 HD
BRANCH  11  13
ATOM     13  C3  ZIN A   1      19.310  -1.918  12.497  0.00  0.00     0.235 C 
BRANCH  13  14
ATOM     14  C2  ZIN A   1      20.070  -1.952  11.169  0.00  0.00     0.023 C 
ATOM     15  C1  ZIN A   1      20.803  -0.626  10.967  0.00  0.00     0.007 C 
ENDBRANCH  13  14
ENDBRANCH  11  13
BRANCH  11  16
ATOM     16  C6  ZIN A   1      17.176  -0.962  11.960  0.00  0.00     0.240 C 
BRANCH  16  17
ATOM     17  C7  ZIN A   1      16.614   0.338  11.381  0.00  0.00     0.074 C 
BRANCH  17  18
ATOM     18  C8  ZIN A   1      17.490   0.802  10.244  0.00  0.00    -0.016 A 
ATOM     19  S12 ZIN A   1      17.749  -0.074   8.742  0.00  0.00    -0.106 SA
ATOM     20  C11 ZIN A   1      18.819   1.192   8.154  0.00  0.00     0.050 A 
ATOM     21  C10 ZIN A   1      18.923   2.152   9.074  0.00  0.00     0.008 A 
ATOM     22  C9  ZIN A   1      18.189   1.937  10.227  0.00  0.00     0.015 A 
ENDBRANCH  17  18
ENDBRANCH  16  17
ENDBRANCH  11  16
ENDBRANCH   1  11
BRANCH   5  23
ATOM     23  O19 ZIN A   1      18.732  -0.149  18.953  0.00  0.00    -0.360 OA
ATOM     24  H43 ZIN A   1      19.345  -0.893  18.881  0.00  0.00     0.217 HD
ENDBRANCH   5  23
TORSDOF 7
ENDMDL
MODEL 6
REMARK VINA RESULT:      -7.3      2.215      3.486
REMARK  7 active torsions:
REMARK  status: ('A' for Active; 'I' for Inactive)
REMARK    1  A    between atoms: C2_2  and  C3_3 
REMARK    2  A    between atoms: C3_3  and  N4_4 
REMARK    3  A    between atoms: N4_4  and  C6_6 
REMARK    4  A    between atoms: N4_4  and  C13_13 
REMARK    5  A    between atoms: C6_6  and  C7_7 
REMARK    6  A    between atoms: C7_7  and  C8_8 
REMARK    7  A    between atoms: C18_17  and  O19_18 
ROOT
ATOM      1  C13 ZIN A   1      19.154  -0.491  13.239  0.00  0.00     0.192 C 
ATOM      2  C15 ZIN A   1      17.964   0.473  13.291  0.00  0.00     0.038 C 
ATOM      3  C16 ZIN A   1      18.206   1.478  14.415  0.00  0.00     0.044 C 
ATOM      4  C17 ZIN A   1      18.553   0.767  15.696  0.00  0.00    -0.019 A 
ATOM      5  C18 ZIN A   1      18.435   1.481  16.888  0.00  0.00     0.072 A 
ATOM      6  C20 ZIN A   1      18.745   0.882  18.097  0.00  0.00     0.037 A 
ATOM      7  C21 ZIN A   1      19.174  -0.430  18.122  0.00  0.00     0.003 A 
ATOM      8  C22 ZIN A   1      19.289  -1.137  16.942  0.00  0.00     0.008 A 
ATOM      9  C23 ZIN A   1      18.977  -0.542  15.726  0.00  0.00    -0.047 A 
ATOM     10  C24 ZIN A   1      19.112  -1.379  14.481  0.00  0.00     0.072 C 
ENDROOT
BRANCH   1  11
ATOM     11  N4  ZIN A   1      19.065  -1.324  12.032  0.00  0.00    -0.066 N 
ATOM     12  H5  ZIN A   1      19.971  -1.718  11.828  0.00  0.00     0.280 HD
BRANCH  11  13
ATOM     13  C3  ZIN A   1      18.097  -2.406  12.255  0.00  0.00     0.235 C 
BRANCH  13  14
ATOM     14  C2  ZIN A   1      18.619  -3.697  11.619  0.00  0.00     0.023 C 
ATOM     15  C1  ZIN A   1      20.148  -3.687  11.627  0.00  0.00     0.007 C 
ENDBRANCH  13  14
ENDBRANCH  11  13
BRANCH  11  16
ATOM     16  C6  ZIN A   1      18.625  -0.498  10.900  0.00  0.00     0.240 C 
BRANCH  16  17
ATOM     17  C7  ZIN A   1      19.843  -0.062  10.083  0.00  0.00     0.074 C 
BRANCH  17  18
ATOM     18  C8  ZIN A   1      19.432   0.167   8.651  0.00  0.00    -0.016 A 
ATOM     19  S12 ZIN A   1      19.029  -1.097   7.498  0.00  0.00    -0.106 SA
ATOM     20  C11 ZIN A   1      18.718   0.099   6.247  0.00  0.00     0.050 A 
ATOM     21  C10 ZIN A   1      18.931   1.322   6.736  0.00  0.00     0.008 A 
ATOM     22  C9  ZIN A   1      19.324   1.359   8.063  0.00  0.00     0.015 A 
ENDBRANCH  17  18
ENDBRANCH  16  17
ENDBRANCH  11  16
ENDBRANCH   1  11
BRANCH   5  23
ATOM     23  O19 ZIN A   1      18.012   2.772  16.862  0.00  0.00    -0.360 OA
ATOM     24  H43 ZIN A   1      17.532   3.046  17.655  0.00  0.00     0.217 HD
ENDBRANCH   5  23
TORSDOF 7
ENDMDL
MODEL 7
REMARK VINA RESULT:      -7.2      3.985      7.662
REMARK  7 active torsions:
REMARK  status: ('A' for Active; 'I' for Inactive)
REMARK    1  A    between atoms: C2_2  and  C3_3 
REMARK    2  A    between atoms: C3_3  and  N4_4 
REMARK    3  A    between atoms: N4_4  and  C6_6 
REMARK    4  A    between atoms: N4_4  and  C13_13 
REMARK    5  A    between atoms: C6_6  and  C7_7 
REMARK    6  A    between atoms: C7_7  and  C8_8 
REMARK    7  A    between atoms: C18_17  and  O19_18 
ROOT
ATOM      1  C13 ZIN A   1      17.977   0.827   8.786  0.00  0.00     0.192 C 
ATOM      2  C15 ZIN A   1      19.122   1.382   7.932  0.00  0.00     0.038 C 
ATOM      3  C16 ZIN A   1      19.072   0.709   6.562  0.00  0.00     0.044 C 
ATOM      4  C17 ZIN A   1      19.006  -0.788   6.710  0.00  0.00    -0.019 A 
ATOM      5  C18 ZIN A   1      19.333  -1.565   5.599  0.00  0.00     0.072 A 
ATOM      6  C20 ZIN A   1      19.286  -2.947   5.673  0.00  0.00     0.037 A 
ATOM      7  C21 ZIN A   1      18.913  -3.558   6.853  0.00  0.00     0.003 A 
ATOM      8  C22 ZIN A   1      18.592  -2.788   7.953  0.00  0.00     0.008 A 
ATOM      9  C23 ZIN A   1      18.640  -1.402   7.886  0.00  0.00    -0.047 A 
ATOM     10  C24 ZIN A   1      18.291  -0.627   9.130  0.00  0.00     0.072 C 
ENDROOT
BRANCH   1  11
ATOM     11  N4  ZIN A   1      17.855   1.613  10.022  0.00  0.00    -0.066 N 
ATOM     12  H5  ZIN A   1      16.889   1.869  10.162  0.00  0.00     0.280 HD
BRANCH  11  13
ATOM     13  C3  ZIN A   1      18.320   0.810  11.160  0.00  0.00     0.235 C 
BRANCH  13  14
ATOM     14  C2  ZIN A   1      17.275   0.853  12.277  0.00  0.00     0.023 C 
ATOM     15  C1  ZIN A   1      17.941   1.297  13.580  0.00  0.00     0.007 C 
ENDBRANCH  13  14
ENDBRANCH  11  13
BRANCH  11  16
ATOM     16  C6  ZIN A   1      18.673   2.828   9.911  0.00  0.00     0.240 C 
BRANCH  16  17
ATOM     17  C7  ZIN A   1      17.816   4.051  10.245  0.00  0.00     0.074 C 
BRANCH  17  18
ATOM     18  C8  ZIN A   1      18.132   4.519  11.643  0.00  0.00    -0.016 A 
ATOM     19  S12 ZIN A   1      16.965   5.189  12.776  0.00  0.00    -0.106 SA
ATOM     20  C11 ZIN A   1      18.218   5.395  13.992  0.00  0.00     0.050 A 
ATOM     21  C10 ZIN A   1      19.388   4.978  13.504  0.00  0.00     0.008 A 
ATOM     22  C9  ZIN A   1      19.339   4.494  12.208  0.00  0.00     0.015 A 
ENDBRANCH  17  18
ENDBRANCH  16  17
ENDBRANCH  11  16
ENDBRANCH   1  11
BRANCH   5  23
ATOM     23  O19 ZIN A   1      19.700  -0.962   4.438  0.00  0.00    -0.360 OA
ATOM     24  H43 ZIN A   1      19.024  -0.993   3.748  0.00  0.00     0.217 HD
ENDBRANCH   5  23
TORSDOF 7
ENDMDL
MODEL 8
REMARK VINA RESULT:      -7.2      3.682      8.055
REMARK  7 active torsions:
REMARK  status: ('A' for Active; 'I' for Inactive)
REMARK    1  A    between atoms: C2_2  and  C3_3 
REMARK    2  A    between atoms: C3_3  and  N4_4 
REMARK    3  A    between atoms: N4_4  and  C6_6 
REMARK    4  A    between atoms: N4_4  and  C13_13 
REMARK    5  A    between atoms: C6_6  and  C7_7 
REMARK    6  A    between atoms: C7_7  and  C8_8 
REMARK    7  A    between atoms: C18_17  and  O19_18 
ROOT
ATOM      1  C13 ZIN A   1      19.361   0.166   9.591  0.00  0.00     0.192 C 
ATOM      2  C15 ZIN A   1      18.726  -1.229   9.578  0.00  0.00     0.038 C 
ATOM      3  C16 ZIN A   1      19.300  -2.009   8.398  0.00  0.00     0.044 C 
ATOM      4  C17 ZIN A   1      19.189  -1.206   7.128  0.00  0.00    -0.019 A 
ATOM      5  C18 ZIN A   1      19.306  -1.887   5.917  0.00  0.00     0.072 A 
ATOM      6  C20 ZIN A   1      19.218  -1.201   4.717  0.00  0.00     0.037 A 
ATOM      7  C21 ZIN A   1      19.014   0.164   4.721  0.00  0.00     0.003 A 
ATOM      8  C22 ZIN A   1      18.895   0.837   5.920  0.00  0.00     0.008 A 
ATOM      9  C23 ZIN A   1      18.980   0.154   7.127  0.00  0.00    -0.047 A 
ATOM     10  C24 ZIN A   1      18.826   0.952   8.396  0.00  0.00     0.072 C 
ENDROOT
BRANCH   1  11
ATOM     11  N4  ZIN A   1      19.006   0.860  10.837  0.00  0.00    -0.066 N 
ATOM     12  H5  ZIN A   1      19.667   1.604  11.007  0.00  0.00     0.280 HD
BRANCH  11  13
ATOM     13  C3  ZIN A   1      17.654   1.421  10.717  0.00  0.00     0.235 C 
BRANCH  13  14
ATOM     14  C2  ZIN A   1      17.600   2.778  11.423  0.00  0.00     0.023 C 
ATOM     15  C1  ZIN A   1      18.871   3.568  11.107  0.00  0.00     0.007 C 
ENDBRANCH  13  14
ENDBRANCH  11  13
BRANCH  11  16
ATOM     16  C6  ZIN A   1      19.043  -0.093  11.955  0.00  0.00     0.240 C 
BRANCH  16  17
ATOM     17  C7  ZIN A   1      19.939   0.460  13.066  0.00  0.00     0.074 C 
BRANCH  17  18
ATOM     18  C8  ZIN A   1      19.395   0.037  14.407  0.00  0.00    -0.016 A 
ATOM     19  S12 ZIN A   1      18.903   1.132  15.692  0.00  0.00    -0.106 SA
ATOM     20  C11 ZIN A   1      18.464  -0.225  16.721  0.00  0.00     0.050 A 
ATOM     21  C10 ZIN A   1      18.706  -1.369  16.079  0.00  0.00     0.008 A 
ATOM     22  C9  ZIN A   1      19.219  -1.224  14.802  0.00  0.00     0.015 A 
ENDBRANCH  17  18
ENDBRANCH  16  17
ENDBRANCH  11  16
ENDBRANCH   1  11
BRANCH   5  23
ATOM     23  O19 ZIN A   1      19.508  -3.231   5.915  0.00  0.00    -0.360 OA
ATOM     24  H43 ZIN A   1      20.043  -3.547   5.175  0.00  0.00     0.217 HD
ENDBRANCH   5  23
TORSDOF 7
ENDMDL
MODEL 9
REMARK VINA RESULT:      -7.2      4.898      6.729
REMARK  7 active torsions:
REMARK  status: ('A' for Active; 'I' for Inactive)
REMARK    1  A    between atoms: C2_2  and  C3_3 
REMARK    2  A    between atoms: C3_3  and  N4_4 
REMARK    3  A    between atoms: N4_4  and  C6_6 
REMARK    4  A    between atoms: N4_4  and  C13_13 
REMARK    5  A    between atoms: C6_6  and  C7_7 
REMARK    6  A    between atoms: C7_7  and  C8_8 
REMARK    7  A    between atoms: C18_17  and  O19_18 
ROOT
ATOM      1  C13 ZIN A   1      18.313  -2.417  11.481  0.00  0.00     0.192 C 
ATOM      2  C15 ZIN A   1      19.552  -3.231  11.868  0.00  0.00     0.038 C 
ATOM      3  C16 ZIN A   1      19.962  -4.085  10.670  0.00  0.00     0.044 C 
ATOM      4  C17 ZIN A   1      18.783  -4.861  10.145  0.00  0.00    -0.019 A 
ATOM      5  C18 ZIN A   1      19.041  -5.955   9.320  0.00  0.00     0.072 A 
ATOM      6  C20 ZIN A   1      17.998  -6.703   8.802  0.00  0.00     0.037 A 
ATOM      7  C21 ZIN A   1      16.695  -6.364   9.105  0.00  0.00     0.003 A 
ATOM      8  C22 ZIN A   1      16.439  -5.283   9.924  0.00  0.00     0.008 A 
ATOM      9  C23 ZIN A   1      17.482  -4.530  10.448  0.00  0.00    -0.047 A 
ATOM     10  C24 ZIN A   1      17.129  -3.373  11.346  0.00  0.00     0.072 C 
ENDROOT
BRANCH   1  11
ATOM     11  N4  ZIN A   1      18.029  -1.421  12.523  0.00  0.00    -0.066 N 
ATOM     12  H5  ZIN A   1      17.065  -1.503  12.811  0.00  0.00     0.280 HD
BRANCH  11  13
ATOM     13  C3  ZIN A   1      18.907  -1.657  13.677  0.00  0.00     0.235 C 
BRANCH  13  14
ATOM     14  C2  ZIN A   1      18.346  -0.933  14.903  0.00  0.00     0.023 C 
ATOM     15  C1  ZIN A   1      18.958  -1.529  16.171  0.00  0.00     0.007 C 
ENDBRANCH  13  14
ENDBRANCH  11  13
BRANCH  11  16
ATOM     16  C6  ZIN A   1      18.269  -0.074  11.991  0.00  0.00     0.240 C 
BRANCH  16  17
ATOM     17  C7  ZIN A   1      17.191   0.266  10.960  0.00  0.00     0.074 C 
BRANCH  17  18
ATOM     18  C8  ZIN A   1      17.844   0.631   9.651  0.00  0.00    -0.016 A 
ATOM     19  S12 ZIN A   1      17.600  -0.212   8.127  0.00  0.00    -0.106 SA
ATOM     20  C11 ZIN A   1      18.698   0.889   7.307  0.00  0.00     0.050 A 
ATOM     21  C10 ZIN A   1      19.171   1.781   8.180  0.00  0.00     0.008 A 
ATOM     22  C9  ZIN A   1      18.699   1.638   9.473  0.00  0.00     0.015 A 
ENDBRANCH  17  18
ENDBRANCH  16  17
ENDBRANCH  11  16
ENDBRANCH   1  11
BRANCH   5  23
ATOM     23  O19 ZIN A   1      20.325  -6.288   9.022  0.00  0.00    -0.360 OA
ATOM     24  H43 ZIN A   1      20.980  -5.651   9.338  0.00  0.00     0.217 HD
ENDBRANCH   5  23
TORSDOF 7
ENDMDL
