MODEL 1
REMARK VINA RESULT:      -5.1      0.000      0.000
REMARK  3 active torsions:
REMARK  status: ('A' for Active; 'I' for Inactive)
REMARK    1  A    between atoms: C2_2  and  N4_3 
REMARK    2  A    between atoms: C2_2  and  C8_7 
REMARK    3  A    between atoms: C8_7  and  C9_8 
ROOT
ATOM      1  C8  <0> d   1      18.713   1.412  10.447  0.00  0.00     0.070 C 
ENDROOT
BRANCH   1   2
ATOM      2  C2  <0> d   1      19.331   2.809  10.521  0.00  0.00     0.183 C 
ATOM      3  C1  <0> d   1      18.252   3.824  10.902  0.00  0.00     0.040 C 
BRANCH   2   4
ATOM      4  N4  <0> d   1      20.394   2.822  11.534  0.00  0.00    -0.075 N 
ATOM      5  H5  <0> d   1      21.289   2.697  11.086  0.00  0.00     0.274 HD
ATOM      6  H6  <0> d   1      20.382   3.705  12.023  0.00  0.00     0.274 HD
ATOM      7  H7  <0> d   1      20.240   2.072  12.192  0.00  0.00     0.274 HD
ENDBRANCH   2   4
ENDBRANCH   1   2
BRANCH   1   8
ATOM      8  C9  <0> d   1      18.464   1.048   9.005  0.00  0.00    -0.056 A 
ATOM      9  C14 <0> d   1      19.220   1.630   8.005  0.00  0.00     0.007 A 
ATOM     10  C13 <0> d   1      18.994   1.293   6.684  0.00  0.00     0.001 A 
ATOM     11  C12 <0> d   1      18.005   0.382   6.362  0.00  0.00     0.000 A 
ATOM     12  C11 <0> d   1      17.245  -0.195   7.362  0.00  0.00     0.001 A 
ATOM     13  C10 <0> d   1      17.474   0.138   8.683  0.00  0.00     0.007 A 
ENDBRANCH   1   8
TORSDOF 3
ENDMDL
MODEL 2
REMARK VINA RESULT:      -5.1      1.067      1.906
REMARK  3 active torsions:
REMARK  status: ('A' for Active; 'I' for Inactive)
REMARK    1  A    between atoms: C2_2  and  N4_3 
REMARK    2  A    between atoms: C2_2  and  C8_7 
REMARK    3  A    between atoms: C8_7  and  C9_8 
ROOT
ATOM      1  C8  <0> d   1      18.309   2.624  10.969  0.00  0.00     0.070 C 
ENDROOT
BRANCH   1   2
ATOM      2  C2  <0> d   1      19.739   3.070  11.279  0.00  0.00     0.183 C 
ATOM      3  C1  <0> d   1      19.705   4.267  12.232  0.00  0.00     0.040 C 
BRANCH   2   4
ATOM      4  N4  <0> d   1      20.471   1.964  11.911  0.00  0.00    -0.075 N 
ATOM      5  H5  <0> d   1      21.147   1.592  11.261  0.00  0.00     0.274 HD
ATOM      6  H6  <0> d   1      20.945   2.302  12.735  0.00  0.00     0.274 HD
ATOM      7  H7  <0> d   1      19.821   1.237  12.173  0.00  0.00     0.274 HD
ENDBRANCH   2   4
ENDBRANCH   1   2
BRANCH   1   8
ATOM      8  C9  <0> d   1      18.302   1.807   9.703  0.00  0.00    -0.056 A 
ATOM      9  C14 <0> d   1      17.532   0.661   9.624  0.00  0.00     0.007 A 
ATOM     10  C13 <0> d   1      17.522  -0.085   8.461  0.00  0.00     0.001 A 
ATOM     11  C12 <0> d   1      18.288   0.308   7.379  0.00  0.00     0.000 A 
ATOM     12  C11 <0> d   1      19.062   1.450   7.461  0.00  0.00     0.001 A 
ATOM     13  C10 <0> d   1      19.069   2.200   8.622  0.00  0.00     0.007 A 
ENDBRANCH   1   8
TORSDOF 3
ENDMDL
MODEL 3
REMARK VINA RESULT:      -4.9      4.577      6.648
REMARK  3 active torsions:
REMARK  status: ('A' for Active; 'I' for Inactive)
REMARK    1  A    between atoms: C2_2  and  N4_3 
REMARK    2  A    between atoms: C2_2  and  C8_7 
REMARK    3  A    between atoms: C8_7  and  C9_8 
ROOT
ATOM      1  C8  <0> d   1      19.386   1.025  13.222  0.00  0.00     0.070 C 
ENDROOT
BRANCH   1   2
ATOM      2  C2  <0> d   1      20.179   0.086  12.310  0.00  0.00     0.183 C 
ATOM      3  C1  <0> d   1      19.498   0.010  10.941  0.00  0.00     0.040 C 
BRANCH   2   4
ATOM      4  N4  <0> d   1      21.545   0.600  12.149  0.00  0.00    -0.075 N 
ATOM      5  H5  <0> d   1      22.019   0.583  13.039  0.00  0.00     0.274 HD
ATOM      6  H6  <0> d   1      22.046   0.022  11.490  0.00  0.00     0.274 HD
ATOM      7  H7  <0> d   1      21.510   1.548  11.803  0.00  0.00     0.274 HD
ENDBRANCH   2   4
ENDBRANCH   1   2
BRANCH   1   8
ATOM      8  C9  <0> d   1      18.837   0.245  14.389  0.00  0.00    -0.056 A 
ATOM      9  C14 <0> d   1      19.387  -0.979  14.723  0.00  0.00     0.007 A 
ATOM     10  C13 <0> d   1      18.886  -1.691  15.796  0.00  0.00     0.001 A 
ATOM     11  C12 <0> d   1      17.829  -1.185  16.530  0.00  0.00     0.000 A 
ATOM     12  C11 <0> d   1      17.276   0.035  16.193  0.00  0.00     0.001 A 
ATOM     13  C10 <0> d   1      17.780   0.751  15.123  0.00  0.00     0.007 A 
ENDBRANCH   1   8
TORSDOF 3
ENDMDL
MODEL 4
REMARK VINA RESULT:      -4.9      2.559      4.608
REMARK  3 active torsions:
REMARK  status: ('A' for Active; 'I' for Inactive)
REMARK    1  A    between atoms: C2_2  and  N4_3 
REMARK    2  A    between atoms: C2_2  and  C8_7 
REMARK    3  A    between atoms: C8_7  and  C9_8 
ROOT
ATOM      1  C8  <0> d   1      18.949  -0.114   7.392  0.00  0.00     0.070 C 
ENDROOT
BRANCH   1   2
ATOM      2  C2  <0> d   1      18.205   0.327   6.130  0.00  0.00     0.183 C 
ATOM      3  C1  <0> d   1      19.102   0.114   4.909  0.00  0.00     0.040 C 
BRANCH   2   4
ATOM      4  N4  <0> d   1      16.980  -0.468   5.982  0.00  0.00    -0.075 N 
ATOM      5  H5  <0> d   1      16.185   0.149   5.909  0.00  0.00     0.274 HD
ATOM      6  H6  <0> d   1      17.045  -1.033   5.148  0.00  0.00     0.274 HD
ATOM      7  H7  <0> d   1      16.868  -1.068   6.786  0.00  0.00     0.274 HD
ENDBRANCH   2   4
ENDBRANCH   1   2
BRANCH   1   8
ATOM      8  C9  <0> d   1      18.574   0.790   8.539  0.00  0.00    -0.056 A 
ATOM      9  C14 <0> d   1      17.752   0.323   9.547  0.00  0.00     0.007 A 
ATOM     10  C13 <0> d   1      17.412   1.151  10.600  0.00  0.00     0.001 A 
ATOM     11  C12 <0> d   1      17.885   2.449  10.641  0.00  0.00     0.000 A 
ATOM     12  C11 <0> d   1      18.702   2.918   9.629  0.00  0.00     0.001 A 
ATOM     13  C10 <0> d   1      19.047   2.089   8.578  0.00  0.00     0.007 A 
ENDBRANCH   1   8
TORSDOF 3
ENDMDL
MODEL 5
REMARK VINA RESULT:      -4.9      3.104      5.027
REMARK  3 active torsions:
REMARK  status: ('A' for Active; 'I' for Inactive)
REMARK    1  A    between atoms: C2_2  and  N4_3 
REMARK    2  A    between atoms: C2_2  and  C8_7 
REMARK    3  A    between atoms: C8_7  and  C9_8 
ROOT
ATOM      1  C8  <0> d   1      17.823  -0.572   5.946  0.00  0.00     0.070 C 
ENDROOT
BRANCH   1   2
ATOM      2  C2  <0> d   1      19.114  -1.280   5.533  0.00  0.00     0.183 C 
ATOM      3  C1  <0> d   1      19.374  -2.456   6.477  0.00  0.00     0.040 C 
BRANCH   2   4
ATOM      4  N4  <0> d   1      18.981  -1.778   4.157  0.00  0.00    -0.075 N 
ATOM      5  H5  <0> d   1      18.012  -1.745   3.880  0.00  0.00     0.274 HD
ATOM      6  H6  <0> d   1      19.529  -1.201   3.537  0.00  0.00     0.274 HD
ATOM      7  H7  <0> d   1      19.313  -2.731   4.111  0.00  0.00     0.274 HD
ENDBRANCH   2   4
ENDBRANCH   1   2
BRANCH   1   8
ATOM      8  C9  <0> d   1      18.064   0.216   7.208  0.00  0.00    -0.056 A 
ATOM      9  C14 <0> d   1      17.358  -0.087   8.357  0.00  0.00     0.007 A 
ATOM     10  C13 <0> d   1      17.583   0.632   9.516  0.00  0.00     0.001 A 
ATOM     11  C12 <0> d   1      18.507   1.660   9.524  0.00  0.00     0.000 A 
ATOM     12  C11 <0> d   1      19.209   1.967   8.373  0.00  0.00     0.001 A 
ATOM     13  C10 <0> d   1      18.988   1.245   7.215  0.00  0.00     0.007 A 
ENDBRANCH   1   8
TORSDOF 3
ENDMDL
MODEL 6
REMARK VINA RESULT:      -4.9      1.933      2.389
REMARK  3 active torsions:
REMARK  status: ('A' for Active; 'I' for Inactive)
REMARK    1  A    between atoms: C2_2  and  N4_3 
REMARK    2  A    between atoms: C2_2  and  C8_7 
REMARK    3  A    between atoms: C8_7  and  C9_8 
ROOT
ATOM      1  C8  <0> d   1      19.990  -0.632  10.762  0.00  0.00     0.070 C 
ENDROOT
BRANCH   1   2
ATOM      2  C2  <0> d   1      20.178   0.467  11.809  0.00  0.00     0.183 C 
ATOM      3  C1  <0> d   1      19.374   0.119  13.064  0.00  0.00     0.040 C 
BRANCH   2   4
ATOM      4  N4  <0> d   1      21.602   0.574  12.155  0.00  0.00    -0.075 N 
ATOM      5  H5  <0> d   1      21.801  -0.016  12.948  0.00  0.00     0.274 HD
ATOM      6  H6  <0> d   1      22.161   0.282  11.368  0.00  0.00     0.274 HD
ATOM      7  H7  <0> d   1      21.821   1.533  12.385  0.00  0.00     0.274 HD
ENDBRANCH   2   4
ENDBRANCH   1   2
BRANCH   1   8
ATOM      8  C9  <0> d   1      19.590  -0.010   9.448  0.00  0.00    -0.056 A 
ATOM      9  C14 <0> d   1      19.414   1.358   9.356  0.00  0.00     0.007 A 
ATOM     10  C13 <0> d   1      19.052   1.928   8.150  0.00  0.00     0.001 A 
ATOM     11  C12 <0> d   1      18.856   1.130   7.039  0.00  0.00     0.000 A 
ATOM     12  C11 <0> d   1      19.025  -0.238   7.133  0.00  0.00     0.001 A 
ATOM     13  C10 <0> d   1      19.392  -0.808   8.337  0.00  0.00     0.007 A 
ENDBRANCH   1   8
TORSDOF 3
ENDMDL
MODEL 7
REMARK VINA RESULT:      -4.8      4.135      5.129
REMARK  3 active torsions:
REMARK  status: ('A' for Active; 'I' for Inactive)
REMARK    1  A    between atoms: C2_2  and  N4_3 
REMARK    2  A    between atoms: C2_2  and  C8_7 
REMARK    3  A    between atoms: C8_7  and  C9_8 
ROOT
ATOM      1  C8  <0> d   1      19.476  -0.918  12.537  0.00  0.00     0.070 C 
ENDROOT
BRANCH   1   2
ATOM      2  C2  <0> d   1      20.341  -0.232  11.478  0.00  0.00     0.183 C 
ATOM      3  C1  <0> d   1      19.488   0.766  10.691  0.00  0.00     0.040 C 
BRANCH   2   4
ATOM      4  N4  <0> d   1      21.445   0.480  12.134  0.00  0.00    -0.075 N 
ATOM      5  H5  <0> d   1      21.704  -0.006  12.980  0.00  0.00     0.274 HD
ATOM      6  H6  <0> d   1      22.238   0.517  11.511  0.00  0.00     0.274 HD
ATOM      7  H7  <0> d   1      21.153   1.419  12.361  0.00  0.00     0.274 HD
ENDBRANCH   2   4
ENDBRANCH   1   2
BRANCH   1   8
ATOM      8  C9  <0> d   1      19.065  -2.282  12.043  0.00  0.00    -0.056 A 
ATOM      9  C14 <0> d   1      17.727  -2.576  11.858  0.00  0.00     0.007 A 
ATOM     10  C13 <0> d   1      17.352  -3.826  11.401  0.00  0.00     0.001 A 
ATOM     11  C12 <0> d   1      18.313  -4.783  11.138  0.00  0.00     0.000 A 
ATOM     12  C11 <0> d   1      19.650  -4.490  11.328  0.00  0.00     0.001 A 
ATOM     13  C10 <0> d   1      20.027  -3.240  11.780  0.00  0.00     0.007 A 
ENDBRANCH   1   8
TORSDOF 3
ENDMDL
MODEL 8
REMARK VINA RESULT:      -4.7      5.217      7.296
REMARK  3 active torsions:
REMARK  status: ('A' for Active; 'I' for Inactive)
REMARK    1  A    between atoms: C2_2  and  N4_3 
REMARK    2  A    between atoms: C2_2  and  C8_7 
REMARK    3  A    between atoms: C8_7  and  C9_8 
ROOT
ATOM      1  C8  <0> d   1      19.076  -0.763  12.819  0.00  0.00     0.070 C 
ENDROOT
BRANCH   1   2
ATOM      2  C2  <0> d   1      19.362  -2.204  12.392  0.00  0.00     0.183 C 
ATOM      3  C1  <0> d   1      18.075  -2.846  11.871  0.00  0.00     0.040 C 
BRANCH   2   4
ATOM      4  N4  <0> d   1      20.375  -2.206  11.328  0.00  0.00    -0.075 N 
ATOM      5  H5  <0> d   1      20.007  -2.673  10.514  0.00  0.00     0.274 HD
ATOM      6  H6  <0> d   1      20.616  -1.256  11.091  0.00  0.00     0.274 HD
ATOM      7  H7  <0> d   1      21.200  -2.691  11.650  0.00  0.00     0.274 HD
ENDBRANCH   2   4
ENDBRANCH   1   2
BRANCH   1   8
ATOM      8  C9  <0> d   1      18.693  -0.738  14.277  0.00  0.00    -0.056 A 
ATOM      9  C14 <0> d   1      19.364  -1.540  15.182  0.00  0.00     0.007 A 
ATOM     10  C13 <0> d   1      19.016  -1.514  16.519  0.00  0.00     0.001 A 
ATOM     11  C12 <0> d   1      17.991  -0.693  16.951  0.00  0.00     0.000 A 
ATOM     12  C11 <0> d   1      17.316   0.104  16.045  0.00  0.00     0.001 A 
ATOM     13  C10 <0> d   1      17.667   0.082  14.709  0.00  0.00     0.007 A 
ENDBRANCH   1   8
TORSDOF 3
ENDMDL
MODEL 9
REMARK VINA RESULT:      -4.7      2.890      4.330
REMARK  3 active torsions:
REMARK  status: ('A' for Active; 'I' for Inactive)
REMARK    1  A    between atoms: C2_2  and  N4_3 
REMARK    2  A    between atoms: C2_2  and  C8_7 
REMARK    3  A    between atoms: C8_7  and  C9_8 
ROOT
ATOM      1  C8  <0> d   1      19.375   1.041  10.993  0.00  0.00     0.070 C 
ENDROOT
BRANCH   1   2
ATOM      2  C2  <0> d   1      20.074   0.809  12.334  0.00  0.00     0.183 C 
ATOM      3  C1  <0> d   1      19.516  -0.457  12.987  0.00  0.00     0.040 C 
BRANCH   2   4
ATOM      4  N4  <0> d   1      21.517   0.650  12.112  0.00  0.00    -0.075 N 
ATOM      5  H5  <0> d   1      21.958   0.351  12.968  0.00  0.00     0.274 HD
ATOM      6  H6  <0> d   1      21.672  -0.041  11.393  0.00  0.00     0.274 HD
ATOM      7  H7  <0> d   1      21.912   1.532  11.820  0.00  0.00     0.274 HD
ENDBRANCH   2   4
ENDBRANCH   1   2
BRANCH   1   8
ATOM      8  C9  <0> d   1      18.635   2.354  11.033  0.00  0.00    -0.056 A 
ATOM      9  C14 <0> d   1      18.050   2.782  12.210  0.00  0.00     0.007 A 
ATOM     10  C13 <0> d   1      17.376   3.988  12.247  0.00  0.00     0.001 A 
ATOM     11  C12 <0> d   1      17.278   4.762  11.105  0.00  0.00     0.000 A 
ATOM     12  C11 <0> d   1      17.859   4.331   9.928  0.00  0.00     0.001 A 
ATOM     13  C10 <0> d   1      18.537   3.127   9.891  0.00  0.00     0.007 A 
ENDBRANCH   1   8
TORSDOF 3
ENDMDL
