MODEL 1
REMARK VINA RESULT:      -7.3      0.000      0.000
REMARK  8 active torsions:
REMARK  status: ('A' for Active; 'I' for Inactive)
REMARK    1  A    between atoms: C2_2  and  C19_19 
REMARK    2  A    between atoms: C3_3  and  C4_4 
REMARK    3  A    between atoms: C4_4  and  C5_5 
REMARK    4  A    between atoms: C5_5  and  C6_6 
REMARK    5  A    between atoms: C6_6  and  C8_8 
REMARK    6  A    between atoms: C8_8  and  C9_9 
REMARK    7  A    between atoms: C9_9  and  C10_10 
REMARK    8  A    between atoms: C19_19  and  C20_20 
ROOT
ATOM      1  C6  ZIN A   1      18.443   3.237  10.204  0.00  0.00    -0.062 C 
ATOM      2  C7  ZIN A   1      17.441   4.326  10.486  0.00  0.00     0.048 C 
ENDROOT
BRANCH   1   3
ATOM      3  C5  ZIN A   1      18.816   2.968   8.918  0.00  0.00     0.007 C 
BRANCH   3   4
ATOM      4  C4  ZIN A   1      19.343   1.711   8.590  0.00  0.00     0.001 C 
BRANCH   4   5
ATOM      5  C3  ZIN A   1      18.808   0.993   7.544  0.00  0.00     0.007 C 
ATOM      6  C2  ZIN A   1      18.887  -0.405   7.542  0.00  0.00    -0.056 C 
ATOM      7  C1  ZIN A   1      19.432  -1.131   8.744  0.00  0.00     0.048 C 
BRANCH   6   8
ATOM      8  C19 ZIN A   1      18.467  -1.116   6.440  0.00  0.00     0.091 C 
BRANCH   8   9
ATOM      9  C20 ZIN A   1      19.411  -1.714   5.588  0.00  0.00     0.199 C 
ATOM     10  O21 ZIN A   1      19.842  -2.952   5.836  0.00  0.00    -0.644 OA
ATOM     11  O22 ZIN A   1      19.875  -1.044   4.533  0.00  0.00    -0.644 OA
ENDBRANCH   8   9
ENDBRANCH   6   8
ENDBRANCH   4   5
ENDBRANCH   3   4
ENDBRANCH   1   3
BRANCH   1  12
ATOM     12  C8  ZIN A   1      18.996   2.498  11.264  0.00  0.00     0.007 C 
BRANCH  12  13
ATOM     13  C9  ZIN A   1      18.181   1.847  12.136  0.00  0.00     0.009 C 
BRANCH  13  14
ATOM     14  C10 ZIN A   1      18.396   0.474  12.416  0.00  0.00    -0.048 C 
ATOM     15  C16 ZIN A   1      19.474   0.110  13.395  0.00  0.00    -0.020 C 
ATOM     16  C15 ZIN A   1      19.274  -1.326  13.886  0.00  0.00     0.014 C 
ATOM     17  C17 ZIN A   1      20.843   0.232  12.723  0.00  0.00     0.020 C 
ATOM     18  C18 ZIN A   1      19.410   1.067  14.587  0.00  0.00     0.020 C 
ATOM     19  C14 ZIN A   1      19.090  -2.234  12.663  0.00  0.00     0.005 C 
ATOM     20  C13 ZIN A   1      17.752  -1.897  12.004  0.00  0.00     0.034 C 
ATOM     21  C11 ZIN A   1      17.638  -0.415  11.796  0.00  0.00    -0.077 C 
ATOM     22  C12 ZIN A   1      16.601   0.088  10.824  0.00  0.00     0.044 C 
ENDBRANCH  13  14
ENDBRANCH  12  13
ENDBRANCH   1  12
TORSDOF 8
ENDMDL
MODEL 2
REMARK VINA RESULT:      -7.0      1.226      2.453
REMARK  8 active torsions:
REMARK  status: ('A' for Active; 'I' for Inactive)
REMARK    1  A    between atoms: C2_2  and  C19_19 
REMARK    2  A    between atoms: C3_3  and  C4_4 
REMARK    3  A    between atoms: C4_4  and  C5_5 
REMARK    4  A    between atoms: C5_5  and  C6_6 
REMARK    5  A    between atoms: C6_6  and  C8_8 
REMARK    6  A    between atoms: C8_8  and  C9_9 
REMARK    7  A    between atoms: C9_9  and  C10_10 
REMARK    8  A    between atoms: C19_19  and  C20_20 
ROOT
ATOM      1  C6  ZIN A   1      18.237   3.183  10.734  0.00  0.00    -0.062 C 
ATOM      2  C7  ZIN A   1      17.433   4.413  10.402  0.00  0.00     0.048 C 
ENDROOT
BRANCH   1   3
ATOM      3  C5  ZIN A   1      19.184   2.730   9.862  0.00  0.00     0.007 C 
BRANCH   3   4
ATOM      4  C4  ZIN A   1      18.905   1.635   9.032  0.00  0.00     0.001 C 
BRANCH   4   5
ATOM      5  C3  ZIN A   1      19.114   1.730   7.674  0.00  0.00     0.007 C 
ATOM      6  C2  ZIN A   1      18.618   0.739   6.818  0.00  0.00    -0.056 C 
ATOM      7  C1  ZIN A   1      17.741  -0.358   7.364  0.00  0.00     0.048 C 
BRANCH   6   8
ATOM      8  C19 ZIN A   1      18.933   0.766   5.479  0.00  0.00     0.091 C 
BRANCH   8   9
ATOM      9  C20 ZIN A   1      18.931  -0.424   4.732  0.00  0.00     0.199 C 
ATOM     10  O21 ZIN A   1      17.858  -0.758   4.013  0.00  0.00    -0.644 OA
ATOM     11  O22 ZIN A   1      20.001  -1.219   4.742  0.00  0.00    -0.644 OA
ENDBRANCH   8   9
ENDBRANCH   6   8
ENDBRANCH   4   5
ENDBRANCH   3   4
ENDBRANCH   1   3
BRANCH   1  12
ATOM     12  C8  ZIN A   1      18.013   2.502  11.943  0.00  0.00     0.007 C 
BRANCH  12  13
ATOM     13  C9  ZIN A   1      19.062   2.156  12.734  0.00  0.00     0.009 C 
BRANCH  13  14
ATOM     14  C10 ZIN A   1      18.954   1.047  13.610  0.00  0.00    -0.048 C 
ATOM     15  C16 ZIN A   1      18.942  -0.330  13.012  0.00  0.00    -0.020 C 
ATOM     16  C15 ZIN A   1      19.252  -1.373  14.090  0.00  0.00     0.014 C 
ATOM     17  C17 ZIN A   1      17.566  -0.618  12.408  0.00  0.00     0.020 C 
ATOM     18  C18 ZIN A   1      20.002  -0.407  11.912  0.00  0.00     0.020 C 
ATOM     19  C14 ZIN A   1      18.336  -1.113  15.292  0.00  0.00     0.005 C 
ATOM     20  C13 ZIN A   1      18.753   0.206  15.946  0.00  0.00     0.034 C 
ATOM     21  C11 ZIN A   1      18.864   1.284  14.908  0.00  0.00    -0.077 C 
ATOM     22  C12 ZIN A   1      18.873   2.718  15.371  0.00  0.00     0.044 C 
ENDBRANCH  13  14
ENDBRANCH  12  13
ENDBRANCH   1  12
TORSDOF 8
ENDMDL
MODEL 3
REMARK VINA RESULT:      -7.0      3.339      5.221
REMARK  8 active torsions:
REMARK  status: ('A' for Active; 'I' for Inactive)
REMARK    1  A    between atoms: C2_2  and  C19_19 
REMARK    2  A    between atoms: C3_3  and  C4_4 
REMARK    3  A    between atoms: C4_4  and  C5_5 
REMARK    4  A    between atoms: C5_5  and  C6_6 
REMARK    5  A    between atoms: C6_6  and  C8_8 
REMARK    6  A    between atoms: C8_8  and  C9_9 
REMARK    7  A    between atoms: C9_9  and  C10_10 
REMARK    8  A    between atoms: C19_19  and  C20_20 
ROOT
ATOM      1  C6  ZIN A   1      18.499   0.148   7.139  0.00  0.00    -0.062 C 
ATOM      2  C7  ZIN A   1      17.287   0.059   6.247  0.00  0.00     0.048 C 
ENDROOT
BRANCH   1   3
ATOM      3  C5  ZIN A   1      19.126   1.347   7.321  0.00  0.00     0.007 C 
BRANCH   3   4
ATOM      4  C4  ZIN A   1      19.314   1.850   8.616  0.00  0.00     0.001 C 
BRANCH   4   5
ATOM      5  C3  ZIN A   1      18.261   2.427   9.289  0.00  0.00     0.007 C 
ATOM      6  C2  ZIN A   1      18.451   2.941  10.578  0.00  0.00    -0.056 C 
ATOM      7  C1  ZIN A   1      19.834   2.987  11.174  0.00  0.00     0.048 C 
BRANCH   6   8
ATOM      8  C19 ZIN A   1      17.374   3.403  11.300  0.00  0.00     0.091 C 
BRANCH   8   9
ATOM      9  C20 ZIN A   1      16.965   4.740  11.173  0.00  0.00     0.199 C 
ATOM     10  O21 ZIN A   1      16.231   5.307  12.132  0.00  0.00    -0.644 OA
ATOM     11  O22 ZIN A   1      17.310   5.444  10.094  0.00  0.00    -0.644 OA
ENDBRANCH   8   9
ENDBRANCH   6   8
ENDBRANCH   4   5
ENDBRANCH   3   4
ENDBRANCH   1   3
BRANCH   1  12
ATOM     12  C8  ZIN A   1      18.982  -1.003   7.785  0.00  0.00     0.007 C 
BRANCH  12  13
ATOM     13  C9  ZIN A   1      18.175  -1.698   8.629  0.00  0.00     0.009 C 
BRANCH  13  14
ATOM     14  C10 ZIN A   1      18.736  -2.412   9.718  0.00  0.00    -0.048 C 
ATOM     15  C16 ZIN A   1      18.991  -1.668  10.997  0.00  0.00    -0.020 C 
ATOM     16  C15 ZIN A   1      19.177  -2.656  12.151  0.00  0.00     0.014 C 
ATOM     17  C17 ZIN A   1      20.251  -0.812  10.852  0.00  0.00     0.020 C 
ATOM     18  C18 ZIN A   1      17.796  -0.760  11.294  0.00  0.00     0.020 C 
ATOM     19  C14 ZIN A   1      20.208  -3.709  11.725  0.00  0.00     0.005 C 
ATOM     20  C13 ZIN A   1      19.595  -4.570  10.618  0.00  0.00     0.034 C 
ATOM     21  C11 ZIN A   1      19.009  -3.695   9.549  0.00  0.00    -0.077 C 
ATOM     22  C12 ZIN A   1      18.715  -4.313   8.207  0.00  0.00     0.044 C 
ENDBRANCH  13  14
ENDBRANCH  12  13
ENDBRANCH   1  12
TORSDOF 8
ENDMDL
MODEL 4
REMARK VINA RESULT:      -7.0      3.521      5.662
REMARK  8 active torsions:
REMARK  status: ('A' for Active; 'I' for Inactive)
REMARK    1  A    between atoms: C2_2  and  C19_19 
REMARK    2  A    between atoms: C3_3  and  C4_4 
REMARK    3  A    between atoms: C4_4  and  C5_5 
REMARK    4  A    between atoms: C5_5  and  C6_6 
REMARK    5  A    between atoms: C6_6  and  C8_8 
REMARK    6  A    between atoms: C8_8  and  C9_9 
REMARK    7  A    between atoms: C9_9  and  C10_10 
REMARK    8  A    between atoms: C19_19  and  C20_20 
ROOT
ATOM      1  C6  ZIN A   1      17.651  -0.793  12.761  0.00  0.00    -0.062 C 
ATOM      2  C7  ZIN A   1      18.345  -2.122  12.910  0.00  0.00     0.048 C 
ENDROOT
BRANCH   1   3
ATOM      3  C5  ZIN A   1      17.047  -0.467  11.581  0.00  0.00     0.007 C 
BRANCH   3   4
ATOM      4  C4  ZIN A   1      17.823  -0.056  10.488  0.00  0.00     0.001 C 
BRANCH   4   5
ATOM      5  C3  ZIN A   1      17.685   1.220   9.988  0.00  0.00     0.007 C 
ATOM      6  C2  ZIN A   1      18.546   2.237  10.418  0.00  0.00    -0.056 C 
ATOM      7  C1  ZIN A   1      19.707   1.910  11.321  0.00  0.00     0.048 C 
BRANCH   6   8
ATOM      8  C19 ZIN A   1      18.331   3.536  10.017  0.00  0.00     0.091 C 
BRANCH   8   9
ATOM      9  C20 ZIN A   1      17.368   4.323  10.670  0.00  0.00     0.199 C 
ATOM     10  O21 ZIN A   1      16.914   5.437  10.094  0.00  0.00    -0.644 OA
ATOM     11  O22 ZIN A   1      16.907   3.956  11.867  0.00  0.00    -0.644 OA
ENDBRANCH   8   9
ENDBRANCH   6   8
ENDBRANCH   4   5
ENDBRANCH   3   4
ENDBRANCH   1   3
BRANCH   1  12
ATOM     12  C8  ZIN A   1      17.625   0.111  13.837  0.00  0.00     0.007 C 
BRANCH  12  13
ATOM     13  C9  ZIN A   1      18.741   0.310  14.586  0.00  0.00     0.009 C 
BRANCH  13  14
ATOM     14  C10 ZIN A   1      18.624   0.655  15.956  0.00  0.00    -0.048 C 
ATOM     15  C16 ZIN A   1      18.378  -0.446  16.946  0.00  0.00    -0.020 C 
ATOM     16  C15 ZIN A   1      18.707   0.038  18.361  0.00  0.00     0.014 C 
ATOM     17  C17 ZIN A   1      16.912  -0.877  16.884  0.00  0.00     0.020 C 
ATOM     18  C18 ZIN A   1      19.270  -1.639  16.598  0.00  0.00     0.020 C 
ATOM     19  C14 ZIN A   1      17.991   1.374  18.594  0.00  0.00     0.005 C 
ATOM     20  C13 ZIN A   1      18.636   2.435  17.699  0.00  0.00     0.034 C 
ATOM     21  C11 ZIN A   1      18.731   1.931  16.289  0.00  0.00    -0.077 C 
ATOM     22  C12 ZIN A   1      18.963   2.935  15.190  0.00  0.00     0.044 C 
ENDBRANCH  13  14
ENDBRANCH  12  13
ENDBRANCH   1  12
TORSDOF 8
ENDMDL
MODEL 5
REMARK VINA RESULT:      -6.9      4.355      7.501
REMARK  8 active torsions:
REMARK  status: ('A' for Active; 'I' for Inactive)
REMARK    1  A    between atoms: C2_2  and  C19_19 
REMARK    2  A    between atoms: C3_3  and  C4_4 
REMARK    3  A    between atoms: C4_4  and  C5_5 
REMARK    4  A    between atoms: C5_5  and  C6_6 
REMARK    5  A    between atoms: C6_6  and  C8_8 
REMARK    6  A    between atoms: C8_8  and  C9_9 
REMARK    7  A    between atoms: C9_9  and  C10_10 
REMARK    8  A    between atoms: C19_19  and  C20_20 
ROOT
ATOM      1  C6  ZIN A   1      18.571  -2.437  12.136  0.00  0.00    -0.062 C 
ATOM      2  C7  ZIN A   1      18.023  -3.840  12.093  0.00  0.00     0.048 C 
ENDROOT
BRANCH   1   3
ATOM      3  C5  ZIN A   1      19.171  -1.972  13.270  0.00  0.00     0.007 C 
BRANCH   3   4
ATOM      4  C4  ZIN A   1      18.391  -1.455  14.314  0.00  0.00     0.001 C 
BRANCH   4   5
ATOM      5  C3  ZIN A   1      18.848  -0.385  15.050  0.00  0.00     0.007 C 
ATOM      6  C2  ZIN A   1      18.153   0.027  16.194  0.00  0.00    -0.056 C 
ATOM      7  C1  ZIN A   1      16.985  -0.782  16.697  0.00  0.00     0.048 C 
BRANCH   6   8
ATOM      8  C19 ZIN A   1      18.535   1.170  16.857  0.00  0.00     0.091 C 
BRANCH   8   9
ATOM      9  C20 ZIN A   1      19.339   1.081  18.006  0.00  0.00     0.199 C 
ATOM     10  O21 ZIN A   1      19.717   2.191  18.642  0.00  0.00    -0.644 OA
ATOM     11  O22 ZIN A   1      19.723  -0.112  18.459  0.00  0.00    -0.644 OA
ENDBRANCH   8   9
ENDBRANCH   6   8
ENDBRANCH   4   5
ENDBRANCH   3   4
ENDBRANCH   1   3
BRANCH   1  12
ATOM     12  C8  ZIN A   1      18.464  -1.606  11.007  0.00  0.00     0.007 C 
BRANCH  12  13
ATOM     13  C9  ZIN A   1      19.518  -0.837  10.626  0.00  0.00     0.009 C 
BRANCH  13  14
ATOM     14  C10 ZIN A   1      19.313   0.517  10.263  0.00  0.00    -0.048 C 
ATOM     15  C16 ZIN A   1      19.267   1.545  11.356  0.00  0.00    -0.020 C 
ATOM     16  C15 ZIN A   1      19.472   2.945  10.769  0.00  0.00     0.014 C 
ATOM     17  C17 ZIN A   1      17.913   1.485  12.065  0.00  0.00     0.020 C 
ATOM     18  C18 ZIN A   1      20.379   1.251  12.365  0.00  0.00     0.020 C 
ATOM     19  C14 ZIN A   1      18.508   3.121   9.590  0.00  0.00     0.005 C 
ATOM     20  C13 ZIN A   1      18.952   2.194   8.456  0.00  0.00     0.034 C 
ATOM     21  C11 ZIN A   1      19.167   0.804   8.980  0.00  0.00    -0.077 C 
ATOM     22  C12 ZIN A   1      19.219  -0.329   7.988  0.00  0.00     0.044 C 
ENDBRANCH  13  14
ENDBRANCH  12  13
ENDBRANCH   1  12
TORSDOF 8
ENDMDL
MODEL 6
REMARK VINA RESULT:      -6.8      2.939      6.649
REMARK  8 active torsions:
REMARK  status: ('A' for Active; 'I' for Inactive)
REMARK    1  A    between atoms: C2_2  and  C19_19 
REMARK    2  A    between atoms: C3_3  and  C4_4 
REMARK    3  A    between atoms: C4_4  and  C5_5 
REMARK    4  A    between atoms: C5_5  and  C6_6 
REMARK    5  A    between atoms: C6_6  and  C8_8 
REMARK    6  A    between atoms: C8_8  and  C9_9 
REMARK    7  A    between atoms: C9_9  and  C10_10 
REMARK    8  A    between atoms: C19_19  and  C20_20 
ROOT
ATOM      1  C6  ZIN A   1      17.775  -4.041   9.716  0.00  0.00    -0.062 C 
ATOM      2  C7  ZIN A   1      16.711  -5.087   9.929  0.00  0.00     0.048 C 
ENDROOT
BRANCH   1   3
ATOM      3  C5  ZIN A   1      18.604  -3.692  10.743  0.00  0.00     0.007 C 
BRANCH   3   4
ATOM      4  C4  ZIN A   1      18.071  -3.139  11.916  0.00  0.00     0.001 C 
BRANCH   4   5
ATOM      5  C3  ZIN A   1      17.571  -1.856  11.906  0.00  0.00     0.007 C 
ATOM      6  C2  ZIN A   1      17.938  -0.953  12.912  0.00  0.00    -0.056 C 
ATOM      7  C1  ZIN A   1      18.984  -1.339  13.926  0.00  0.00     0.048 C 
BRANCH   6   8
ATOM      8  C19 ZIN A   1      17.342   0.286  12.975  0.00  0.00     0.091 C 
BRANCH   8   9
ATOM      9  C20 ZIN A   1      17.865   1.356  12.231  0.00  0.00     0.199 C 
ATOM     10  O21 ZIN A   1      19.145   1.705  12.373  0.00  0.00    -0.644 OA
ATOM     11  O22 ZIN A   1      17.082   2.023  11.382  0.00  0.00    -0.644 OA
ENDBRANCH   8   9
ENDBRANCH   6   8
ENDBRANCH   4   5
ENDBRANCH   3   4
ENDBRANCH   1   3
BRANCH   1  12
ATOM     12  C8  ZIN A   1      17.915  -3.426   8.460  0.00  0.00     0.007 C 
BRANCH  12  13
ATOM     13  C9  ZIN A   1      19.055  -2.753   8.156  0.00  0.00     0.009 C 
BRANCH  13  14
ATOM     14  C10 ZIN A   1      18.988  -1.536   7.432  0.00  0.00    -0.048 C 
ATOM     15  C16 ZIN A   1      18.811  -0.261   8.204  0.00  0.00    -0.020 C 
ATOM     16  C15 ZIN A   1      19.188   0.939   7.330  0.00  0.00     0.014 C 
ATOM     17  C17 ZIN A   1      17.353  -0.127   8.649  0.00  0.00     0.020 C 
ATOM     18  C18 ZIN A   1      19.714  -0.294   9.438  0.00  0.00     0.020 C 
ATOM     19  C14 ZIN A   1      18.452   0.812   5.990  0.00  0.00     0.005 C 
ATOM     20  C13 ZIN A   1      19.034  -0.379   5.226  0.00  0.00     0.034 C 
ATOM     21  C11 ZIN A   1      19.081  -1.588   6.114  0.00  0.00    -0.077 C 
ATOM     22  C12 ZIN A   1      19.242  -2.939   5.465  0.00  0.00     0.044 C 
ENDBRANCH  13  14
ENDBRANCH  12  13
ENDBRANCH   1  12
TORSDOF 8
ENDMDL
MODEL 7
REMARK VINA RESULT:      -6.7      3.247      5.227
REMARK  8 active torsions:
REMARK  status: ('A' for Active; 'I' for Inactive)
REMARK    1  A    between atoms: C2_2  and  C19_19 
REMARK    2  A    between atoms: C3_3  and  C4_4 
REMARK    3  A    between atoms: C4_4  and  C5_5 
REMARK    4  A    between atoms: C5_5  and  C6_6 
REMARK    5  A    between atoms: C6_6  and  C8_8 
REMARK    6  A    between atoms: C8_8  and  C9_9 
REMARK    7  A    between atoms: C9_9  and  C10_10 
REMARK    8  A    between atoms: C19_19  and  C20_20 
ROOT
ATOM      1  C6  ZIN A   1      18.565   0.146   7.166  0.00  0.00    -0.062 C 
ATOM      2  C7  ZIN A   1      17.348   0.156   6.277  0.00  0.00     0.048 C 
ENDROOT
BRANCH   1   3
ATOM      3  C5  ZIN A   1      19.222   1.312   7.438  0.00  0.00     0.007 C 
BRANCH   3   4
ATOM      4  C4  ZIN A   1      18.716   2.192   8.405  0.00  0.00     0.001 C 
BRANCH   4   5
ATOM      5  C3  ZIN A   1      19.226   2.176   9.684  0.00  0.00     0.007 C 
ATOM      6  C2  ZIN A   1      18.866   3.178  10.594  0.00  0.00    -0.056 C 
ATOM      7  C1  ZIN A   1      17.818   4.193  10.221  0.00  0.00     0.048 C 
BRANCH   6   8
ATOM      8  C19 ZIN A   1      19.472   3.235  11.828  0.00  0.00     0.091 C 
BRANCH   8   9
ATOM      9  C20 ZIN A   1      18.933   2.519  12.910  0.00  0.00     0.199 C 
ATOM     10  O21 ZIN A   1      17.813   2.942  13.497  0.00  0.00    -0.644 OA
ATOM     11  O22 ZIN A   1      19.541   1.416  13.349  0.00  0.00    -0.644 OA
ENDBRANCH   8   9
ENDBRANCH   6   8
ENDBRANCH   4   5
ENDBRANCH   3   4
ENDBRANCH   1   3
BRANCH   1  12
ATOM     12  C8  ZIN A   1      19.024  -1.063   7.716  0.00  0.00     0.007 C 
BRANCH  12  13
ATOM     13  C9  ZIN A   1      18.213  -1.793   8.525  0.00  0.00     0.009 C 
BRANCH  13  14
ATOM     14  C10 ZIN A   1      18.763  -2.520   9.611  0.00  0.00    -0.048 C 
ATOM     15  C16 ZIN A   1      18.985  -1.797  10.908  0.00  0.00    -0.020 C 
ATOM     16  C15 ZIN A   1      19.164  -2.805  12.046  0.00  0.00     0.014 C 
ATOM     17  C17 ZIN A   1      20.236  -0.923  10.803  0.00  0.00     0.020 C 
ATOM     18  C18 ZIN A   1      17.773  -0.911  11.200  0.00  0.00     0.020 C 
ATOM     19  C14 ZIN A   1      20.216  -3.836  11.620  0.00  0.00     0.005 C 
ATOM     20  C13 ZIN A   1      19.635  -4.684  10.485  0.00  0.00     0.034 C 
ATOM     21  C11 ZIN A   1      19.057  -3.796   9.423  0.00  0.00    -0.077 C 
ATOM     22  C12 ZIN A   1      18.797  -4.392   8.064  0.00  0.00     0.044 C 
ENDBRANCH  13  14
ENDBRANCH  12  13
ENDBRANCH   1  12
TORSDOF 8
ENDMDL
MODEL 8
REMARK VINA RESULT:      -6.7      2.346      4.494
REMARK  8 active torsions:
REMARK  status: ('A' for Active; 'I' for Inactive)
REMARK    1  A    between atoms: C2_2  and  C19_19 
REMARK    2  A    between atoms: C3_3  and  C4_4 
REMARK    3  A    between atoms: C4_4  and  C5_5 
REMARK    4  A    between atoms: C5_5  and  C6_6 
REMARK    5  A    between atoms: C6_6  and  C8_8 
REMARK    6  A    between atoms: C8_8  and  C9_9 
REMARK    7  A    between atoms: C9_9  and  C10_10 
REMARK    8  A    between atoms: C19_19  and  C20_20 
ROOT
ATOM      1  C6  ZIN A   1      17.569  -0.527  12.850  0.00  0.00    -0.062 C 
ATOM      2  C7  ZIN A   1      18.350  -1.815  12.905  0.00  0.00     0.048 C 
ENDROOT
BRANCH   1   3
ATOM      3  C5  ZIN A   1      16.828  -0.224  11.744  0.00  0.00     0.007 C 
BRANCH   3   4
ATOM      4  C4  ZIN A   1      17.228   0.819  10.898  0.00  0.00     0.001 C 
BRANCH   4   5
ATOM      5  C3  ZIN A   1      17.755   0.535   9.657  0.00  0.00     0.007 C 
ATOM      6  C2  ZIN A   1      18.543   1.486   8.997  0.00  0.00    -0.056 C 
ATOM      7  C1  ZIN A   1      18.928   2.763   9.698  0.00  0.00     0.048 C 
BRANCH   6   8
ATOM      8  C19 ZIN A   1      18.965   1.254   7.708  0.00  0.00     0.091 C 
BRANCH   8   9
ATOM      9  C20 ZIN A   1      18.528   0.110   7.020  0.00  0.00     0.199 C 
ATOM     10  O21 ZIN A   1      19.246  -1.012   7.069  0.00  0.00    -0.644 OA
ATOM     11  O22 ZIN A   1      17.394   0.147   6.319  0.00  0.00    -0.644 OA
ENDBRANCH   8   9
ENDBRANCH   6   8
ENDBRANCH   4   5
ENDBRANCH   3   4
ENDBRANCH   1   3
BRANCH   1  12
ATOM     12  C8  ZIN A   1      17.603   0.362  13.938  0.00  0.00     0.007 C 
BRANCH  12  13
ATOM     13  C9  ZIN A   1      18.740   0.499  14.669  0.00  0.00     0.009 C 
BRANCH  13  14
ATOM     14  C10 ZIN A   1      18.662   0.731  16.066  0.00  0.00    -0.048 C 
ATOM     15  C16 ZIN A   1      18.414  -0.444  16.966  0.00  0.00    -0.020 C 
ATOM     16  C15 ZIN A   1      18.786  -0.087  18.408  0.00  0.00     0.014 C 
ATOM     17  C17 ZIN A   1      16.938  -0.838  16.905  0.00  0.00     0.020 C 
ATOM     18  C18 ZIN A   1      19.271  -1.622  16.498  0.00  0.00     0.020 C 
ATOM     19  C14 ZIN A   1      18.105   1.239  18.769  0.00  0.00     0.005 C 
ATOM     20  C13 ZIN A   1      18.753   2.358  17.950  0.00  0.00     0.034 C 
ATOM     21  C11 ZIN A   1      18.805   1.972  16.501  0.00  0.00    -0.077 C 
ATOM     22  C12 ZIN A   1      19.034   3.060  15.484  0.00  0.00     0.044 C 
ENDBRANCH  13  14
ENDBRANCH  12  13
ENDBRANCH   1  12
TORSDOF 8
ENDMDL
MODEL 9
REMARK VINA RESULT:      -6.6      4.916      7.878
REMARK  8 active torsions:
REMARK  status: ('A' for Active; 'I' for Inactive)
REMARK    1  A    between atoms: C2_2  and  C19_19 
REMARK    2  A    between atoms: C3_3  and  C4_4 
REMARK    3  A    between atoms: C4_4  and  C5_5 
REMARK    4  A    between atoms: C5_5  and  C6_6 
REMARK    5  A    between atoms: C6_6  and  C8_8 
REMARK    6  A    between atoms: C8_8  and  C9_9 
REMARK    7  A    between atoms: C9_9  and  C10_10 
REMARK    8  A    between atoms: C19_19  and  C20_20 
ROOT
ATOM      1  C6  ZIN A   1      18.529  -0.755  12.964  0.00  0.00    -0.062 C 
ATOM      2  C7  ZIN A   1      17.552   0.340  13.306  0.00  0.00     0.048 C 
ENDROOT
BRANCH   1   3
ATOM      3  C5  ZIN A   1      19.244  -1.366  13.954  0.00  0.00     0.007 C 
BRANCH   3   4
ATOM      4  C4  ZIN A   1      18.604  -1.767  15.134  0.00  0.00     0.001 C 
BRANCH   4   5
ATOM      5  C3  ZIN A   1      19.074  -1.331  16.354  0.00  0.00     0.007 C 
ATOM      6  C2  ZIN A   1      18.228  -0.624  17.218  0.00  0.00    -0.056 C 
ATOM      7  C1  ZIN A   1      16.770  -0.458  16.877  0.00  0.00     0.048 C 
BRANCH   6   8
ATOM      8  C19 ZIN A   1      18.730  -0.081  18.378  0.00  0.00     0.091 C 
BRANCH   8   9
ATOM      9  C20 ZIN A   1      18.696   1.310  18.575  0.00  0.00     0.199 C 
ATOM     10  O21 ZIN A   1      17.547   1.911  18.884  0.00  0.00    -0.644 OA
ATOM     11  O22 ZIN A   1      19.813   2.028  18.453  0.00  0.00    -0.644 OA
ENDBRANCH   8   9
ENDBRANCH   6   8
ENDBRANCH   4   5
ENDBRANCH   3   4
ENDBRANCH   1   3
BRANCH   1  12
ATOM     12  C8  ZIN A   1      18.704  -1.148  11.626  0.00  0.00     0.007 C 
BRANCH  12  13
ATOM     13  C9  ZIN A   1      17.810  -1.987  11.041  0.00  0.00     0.009 C 
BRANCH  13  14
ATOM     14  C10 ZIN A   1      18.266  -3.037  10.204  0.00  0.00    -0.048 C 
ATOM     15  C16 ZIN A   1      18.673  -4.330  10.848  0.00  0.00    -0.020 C 
ATOM     16  C15 ZIN A   1      18.714  -5.447   9.802  0.00  0.00     0.014 C 
ATOM     17  C17 ZIN A   1      20.057  -4.177  11.482  0.00  0.00     0.020 C 
ATOM     18  C18 ZIN A   1      17.657  -4.689  11.935  0.00  0.00     0.020 C 
ATOM     19  C14 ZIN A   1      19.540  -4.960   8.606  0.00  0.00     0.005 C 
ATOM     20  C13 ZIN A   1      18.765  -3.844   7.901  0.00  0.00     0.034 C 
ATOM     21  C11 ZIN A   1      18.312  -2.820   8.900  0.00  0.00    -0.077 C 
ATOM     22  C12 ZIN A   1      17.888  -1.468   8.388  0.00  0.00     0.044 C 
ENDBRANCH  13  14
ENDBRANCH  12  13
ENDBRANCH   1  12
TORSDOF 8
ENDMDL
