MODEL 1
REMARK VINA RESULT:      -7.1      0.000      0.000
REMARK  7 active torsions:
REMARK  status: ('A' for Active; 'I' for Inactive)
REMARK    1  A    between atoms: N1_1  and  C5_5 
REMARK    2  A    between atoms: C5_5  and  C7_6 
REMARK    3  A    between atoms: C5_5  and  C25_24 
REMARK    4  A    between atoms: C7_6  and  C8_7 
REMARK    5  A    between atoms: C12_11  and  O13_12 
REMARK    6  A    between atoms: O13_12  and  C14_13 
REMARK    7  A    between atoms: C17_16  and  O18_17 
ROOT
ATOM      1  C8  ZIN A   1      18.618  -0.323  14.475  0.00  0.00    -0.053 A 
ATOM      2  C9  ZIN A   1      18.833   0.887  13.842  0.00  0.00     0.028 A 
ATOM      3  C10 ZIN A   1      19.307   0.915  12.545  0.00  0.00     0.042 A 
ATOM      4  I11 ZIN A   1      19.634   2.750  11.587  0.00  0.00    -0.042 I 
ATOM      5  C12 ZIN A   1      19.568  -0.272  11.877  0.00  0.00     0.109 A 
ATOM      6  C22 ZIN A   1      19.350  -1.486  12.514  0.00  0.00     0.042 A 
ATOM      7  I23 ZIN A   1      19.743  -3.283  11.509  0.00  0.00    -0.042 I 
ATOM      8  C24 ZIN A   1      18.881  -1.509  13.813  0.00  0.00     0.028 A 
ENDROOT
BRANCH   5   9
ATOM      9  O13 ZIN A   1      20.034  -0.247  10.600  0.00  0.00    -0.308 OA
BRANCH   9  10
ATOM     10  C14 ZIN A   1      19.125  -0.245   9.589  0.00  0.00     0.077 A 
ATOM     11  C21 ZIN A   1      19.554  -0.192   8.270  0.00  0.00     0.058 A 
ATOM     12  C19 ZIN A   1      18.631  -0.194   7.243  0.00  0.00     0.042 A 
ATOM     13  C17 ZIN A   1      17.274  -0.240   7.530  0.00  0.00     0.082 A 
ATOM     14  I20 ZIN A   1      19.279  -0.120   5.252  0.00  0.00    -0.042 I 
ATOM     15  C16 ZIN A   1      16.845  -0.288   8.848  0.00  0.00     0.040 A 
ATOM     16  C15 ZIN A   1      17.769  -0.291   9.875  0.00  0.00     0.040 A 
BRANCH  13  17
ATOM     17  O18 ZIN A   1      16.364  -0.238   6.518  0.00  0.00    -0.359 OA
ATOM     18  H33 ZIN A   1      16.651  -0.723   5.731  0.00  0.00     0.217 HD
ENDBRANCH  13  17
ENDBRANCH   9  10
ENDBRANCH   5   9
BRANCH   1  19
ATOM     19  C7  ZIN A   1      18.101  -0.351  15.891  0.00  0.00     0.082 C 
BRANCH  19  20
ATOM     20  C5  ZIN A   1      19.265  -0.152  16.862  0.00  0.00     0.287 C 
BRANCH  20  21
ATOM     21  N1  ZIN A   1      19.611  -1.437  17.483  0.00  0.00    -0.065 N 
ATOM     22  H2  ZIN A   1      20.042  -1.272  18.380  0.00  0.00     0.275 HD
ATOM     23  H3  ZIN A   1      20.255  -1.936  16.888  0.00  0.00     0.275 HD
ATOM     24  H4  ZIN A   1      18.774  -1.987  17.608  0.00  0.00     0.275 HD
ENDBRANCH  20  21
BRANCH  20  25
ATOM     25  C25 ZIN A   1      18.864   0.831  17.932  0.00  0.00     0.204 C 
ATOM     26  O26 ZIN A   1      17.683   1.037  18.159  0.00  0.00    -0.646 OA
ATOM     27  O27 ZIN A   1      19.719   1.421  18.571  0.00  0.00    -0.646 OA
ENDBRANCH  20  25
ENDBRANCH  19  20
ENDBRANCH   1  19
TORSDOF 7
ENDMDL
MODEL 2
REMARK VINA RESULT:      -7.1      0.065      2.042
REMARK  7 active torsions:
REMARK  status: ('A' for Active; 'I' for Inactive)
REMARK    1  A    between atoms: N1_1  and  C5_5 
REMARK    2  A    between atoms: C5_5  and  C7_6 
REMARK    3  A    between atoms: C5_5  and  C25_24 
REMARK    4  A    between atoms: C7_6  and  C8_7 
REMARK    5  A    between atoms: C12_11  and  O13_12 
REMARK    6  A    between atoms: O13_12  and  C14_13 
REMARK    7  A    between atoms: C17_16  and  O18_17 
ROOT
ATOM      1  C8  ZIN A   1      18.652  -0.416  14.486  0.00  0.00    -0.053 A 
ATOM      2  C9  ZIN A   1      18.910  -1.589  13.804  0.00  0.00     0.028 A 
ATOM      3  C10 ZIN A   1      19.378  -1.546  12.505  0.00  0.00     0.042 A 
ATOM      4  I11 ZIN A   1      19.767  -3.326  11.469  0.00  0.00    -0.042 I 
ATOM      5  C12 ZIN A   1      19.589  -0.323  11.885  0.00  0.00     0.109 A 
ATOM      6  C22 ZIN A   1      19.330   0.854  12.573  0.00  0.00     0.042 A 
ATOM      7  I23 ZIN A   1      19.647   2.705  11.642  0.00  0.00    -0.042 I 
ATOM      8  C24 ZIN A   1      18.858   0.805  13.871  0.00  0.00     0.028 A 
ENDROOT
BRANCH   5   9
ATOM      9  O13 ZIN A   1      20.050  -0.277  10.606  0.00  0.00    -0.308 OA
BRANCH   9  10
ATOM     10  C14 ZIN A   1      19.135  -0.262   9.600  0.00  0.00     0.077 A 
ATOM     11  C21 ZIN A   1      19.560  -0.205   8.279  0.00  0.00     0.058 A 
ATOM     12  C19 ZIN A   1      18.631  -0.195   7.256  0.00  0.00     0.042 A 
ATOM     13  C17 ZIN A   1      17.276  -0.232   7.550  0.00  0.00     0.082 A 
ATOM     14  I20 ZIN A   1      19.271  -0.116   5.263  0.00  0.00    -0.042 I 
ATOM     15  C16 ZIN A   1      16.852  -0.283   8.869  0.00  0.00     0.040 A 
ATOM     16  C15 ZIN A   1      17.781  -0.298   9.892  0.00  0.00     0.040 A 
BRANCH  13  17
ATOM     17  O18 ZIN A   1      16.361  -0.218   6.542  0.00  0.00    -0.359 OA
ATOM     18  H33 ZIN A   1      16.559  -0.835   5.823  0.00  0.00     0.217 HD
ENDBRANCH  13  17
ENDBRANCH   9  10
ENDBRANCH   5   9
BRANCH   1  19
ATOM     19  C7  ZIN A   1      18.141  -0.467  15.904  0.00  0.00     0.082 C 
BRANCH  19  20
ATOM     20  C5  ZIN A   1      19.293  -0.189  16.871  0.00  0.00     0.287 C 
BRANCH  20  21
ATOM     21  N1  ZIN A   1      19.665  -1.432  17.560  0.00  0.00    -0.065 N 
ATOM     22  H2  ZIN A   1      19.783  -1.248  18.545  0.00  0.00     0.275 HD
ATOM     23  H3  ZIN A   1      20.531  -1.783  17.178  0.00  0.00     0.275 HD
ATOM     24  H4  ZIN A   1      18.938  -2.119  17.430  0.00  0.00     0.275 HD
ENDBRANCH  20  21
BRANCH  20  25
ATOM     25  C25 ZIN A   1      18.861   0.838  17.886  0.00  0.00     0.204 C 
ATOM     26  O26 ZIN A   1      17.677   1.084  18.037  0.00  0.00    -0.646 OA
ATOM     27  O27 ZIN A   1      19.696   1.423  18.554  0.00  0.00    -0.646 OA
ENDBRANCH  20  25
ENDBRANCH  19  20
ENDBRANCH   1  19
TORSDOF 7
ENDMDL
MODEL 3
REMARK VINA RESULT:      -7.0      3.876      4.984
REMARK  7 active torsions:
REMARK  status: ('A' for Active; 'I' for Inactive)
REMARK    1  A    between atoms: N1_1  and  C5_5 
REMARK    2  A    between atoms: C5_5  and  C7_6 
REMARK    3  A    between atoms: C5_5  and  C25_24 
REMARK    4  A    between atoms: C7_6  and  C8_7 
REMARK    5  A    between atoms: C12_11  and  O13_12 
REMARK    6  A    between atoms: O13_12  and  C14_13 
REMARK    7  A    between atoms: C17_16  and  O18_17 
ROOT
ATOM      1  C8  ZIN A   1      19.206   3.093  15.550  0.00  0.00    -0.053 A 
ATOM      2  C9  ZIN A   1      18.857   3.380  14.243  0.00  0.00     0.028 A 
ATOM      3  C10 ZIN A   1      18.226   2.426  13.469  0.00  0.00     0.042 A 
ATOM      4  I11 ZIN A   1      17.699   2.861  11.489  0.00  0.00    -0.042 I 
ATOM      5  C12 ZIN A   1      17.941   1.178  14.005  0.00  0.00     0.109 A 
ATOM      6  C22 ZIN A   1      18.292   0.892  15.317  0.00  0.00     0.042 A 
ATOM      7  I23 ZIN A   1      17.864  -0.991  16.131  0.00  0.00    -0.042 I 
ATOM      8  C24 ZIN A   1      18.927   1.849  16.085  0.00  0.00     0.028 A 
ENDROOT
BRANCH   5   9
ATOM      9  O13 ZIN A   1      17.320   0.236  13.246  0.00  0.00    -0.308 OA
BRANCH   9  10
ATOM     10  C14 ZIN A   1      18.092  -0.707  12.642  0.00  0.00     0.077 A 
ATOM     11  C21 ZIN A   1      17.562  -1.959  12.360  0.00  0.00     0.058 A 
ATOM     12  C19 ZIN A   1      18.344  -2.915  11.742  0.00  0.00     0.042 A 
ATOM     13  C17 ZIN A   1      19.662  -2.628  11.415  0.00  0.00     0.082 A 
ATOM     14  I20 ZIN A   1      17.544  -4.802  11.309  0.00  0.00    -0.042 I 
ATOM     15  C16 ZIN A   1      20.192  -1.379  11.702  0.00  0.00     0.040 A 
ATOM     16  C15 ZIN A   1      19.408  -0.421  12.315  0.00  0.00     0.040 A 
BRANCH  13  17
ATOM     17  O18 ZIN A   1      20.433  -3.572  10.810  0.00  0.00    -0.359 OA
ATOM     18  H33 ZIN A   1      19.970  -4.404  10.633  0.00  0.00     0.217 HD
ENDBRANCH  13  17
ENDBRANCH   9  10
ENDBRANCH   5   9
BRANCH   1  19
ATOM     19  C7  ZIN A   1      19.894   4.137  16.391  0.00  0.00     0.082 C 
BRANCH  19  20
ATOM     20  C5  ZIN A   1      20.241   5.346  15.521  0.00  0.00     0.287 C 
BRANCH  20  21
ATOM     21  N1  ZIN A   1      21.641   5.727  15.747  0.00  0.00    -0.065 N 
ATOM     22  H2  ZIN A   1      21.675   6.592  16.265  0.00  0.00     0.275 HD
ATOM     23  H3  ZIN A   1      22.104   5.850  14.858  0.00  0.00     0.275 HD
ATOM     24  H4  ZIN A   1      22.107   5.002  16.271  0.00  0.00     0.275 HD
ENDBRANCH  20  21
BRANCH  20  25
ATOM     25  C25 ZIN A   1      19.341   6.500  15.882  0.00  0.00     0.204 C 
ATOM     26  O26 ZIN A   1      18.887   6.588  17.010  0.00  0.00    -0.646 OA
ATOM     27  O27 ZIN A   1      19.068   7.344  15.046  0.00  0.00    -0.646 OA
ENDBRANCH  20  25
ENDBRANCH  19  20
ENDBRANCH   1  19
TORSDOF 7
ENDMDL
MODEL 4
REMARK VINA RESULT:      -7.0      3.869      5.231
REMARK  7 active torsions:
REMARK  status: ('A' for Active; 'I' for Inactive)
REMARK    1  A    between atoms: N1_1  and  C5_5 
REMARK    2  A    between atoms: C5_5  and  C7_6 
REMARK    3  A    between atoms: C5_5  and  C25_24 
REMARK    4  A    between atoms: C7_6  and  C8_7 
REMARK    5  A    between atoms: C12_11  and  O13_12 
REMARK    6  A    between atoms: O13_12  and  C14_13 
REMARK    7  A    between atoms: C17_16  and  O18_17 
ROOT
ATOM      1  C8  ZIN A   1      19.209   3.095  15.549  0.00  0.00    -0.053 A 
ATOM      2  C9  ZIN A   1      18.923   1.856  16.091  0.00  0.00     0.028 A 
ATOM      3  C10 ZIN A   1      18.288   0.896  15.327  0.00  0.00     0.042 A 
ATOM      4  I11 ZIN A   1      17.853  -0.981  16.150  0.00  0.00    -0.042 I 
ATOM      5  C12 ZIN A   1      17.939   1.176  14.014  0.00  0.00     0.109 A 
ATOM      6  C22 ZIN A   1      18.228   2.420  13.472  0.00  0.00     0.042 A 
ATOM      7  I23 ZIN A   1      17.702   2.849  11.488  0.00  0.00    -0.042 I 
ATOM      8  C24 ZIN A   1      18.859   3.379  14.242  0.00  0.00     0.028 A 
ENDROOT
BRANCH   5   9
ATOM      9  O13 ZIN A   1      17.314   0.233  13.259  0.00  0.00    -0.308 OA
BRANCH   9  10
ATOM     10  C14 ZIN A   1      18.084  -0.704  12.645  0.00  0.00     0.077 A 
ATOM     11  C21 ZIN A   1      17.546  -1.942  12.324  0.00  0.00     0.058 A 
ATOM     12  C19 ZIN A   1      18.326  -2.893  11.696  0.00  0.00     0.042 A 
ATOM     13  C17 ZIN A   1      19.651  -2.613  11.394  0.00  0.00     0.082 A 
ATOM     14  I20 ZIN A   1      17.512  -4.759  11.206  0.00  0.00    -0.042 I 
ATOM     15  C16 ZIN A   1      20.191  -1.377  11.719  0.00  0.00     0.040 A 
ATOM     16  C15 ZIN A   1      19.409  -0.425  12.343  0.00  0.00     0.040 A 
BRANCH  13  17
ATOM     17  O18 ZIN A   1      20.422  -3.551  10.778  0.00  0.00    -0.359 OA
ATOM     18  H33 ZIN A   1      20.137  -3.763   9.878  0.00  0.00     0.217 HD
ENDBRANCH  13  17
ENDBRANCH   9  10
ENDBRANCH   5   9
BRANCH   1  19
ATOM     19  C7  ZIN A   1      19.902   4.141  16.386  0.00  0.00     0.082 C 
BRANCH  19  20
ATOM     20  C5  ZIN A   1      20.244   5.348  15.512  0.00  0.00     0.287 C 
BRANCH  20  21
ATOM     21  N1  ZIN A   1      21.644   5.732  15.732  0.00  0.00    -0.065 N 
ATOM     22  H2  ZIN A   1      22.189   5.502  14.914  0.00  0.00     0.275 HD
ATOM     23  H3  ZIN A   1      22.009   5.233  16.530  0.00  0.00     0.275 HD
ATOM     24  H4  ZIN A   1      21.698   6.725  15.903  0.00  0.00     0.275 HD
ENDBRANCH  20  21
BRANCH  20  25
ATOM     25  C25 ZIN A   1      19.344   6.502  15.875  0.00  0.00     0.204 C 
ATOM     26  O26 ZIN A   1      18.889   6.588  17.003  0.00  0.00    -0.646 OA
ATOM     27  O27 ZIN A   1      19.070   7.348  15.041  0.00  0.00    -0.646 OA
ENDBRANCH  20  25
ENDBRANCH  19  20
ENDBRANCH   1  19
TORSDOF 7
ENDMDL
MODEL 5
REMARK VINA RESULT:      -6.8      2.025      3.022
REMARK  7 active torsions:
REMARK  status: ('A' for Active; 'I' for Inactive)
REMARK    1  A    between atoms: N1_1  and  C5_5 
REMARK    2  A    between atoms: C5_5  and  C7_6 
REMARK    3  A    between atoms: C5_5  and  C25_24 
REMARK    4  A    between atoms: C7_6  and  C8_7 
REMARK    5  A    between atoms: C12_11  and  O13_12 
REMARK    6  A    between atoms: O13_12  and  C14_13 
REMARK    7  A    between atoms: C17_16  and  O18_17 
ROOT
ATOM      1  C8  ZIN A   1      18.507   2.412  14.884  0.00  0.00    -0.053 A 
ATOM      2  C9  ZIN A   1      19.353   1.534  14.233  0.00  0.00     0.028 A 
ATOM      3  C10 ZIN A   1      19.568   1.658  12.874  0.00  0.00     0.042 A 
ATOM      4  I11 ZIN A   1      20.848   0.325  11.887  0.00  0.00    -0.042 I 
ATOM      5  C12 ZIN A   1      18.934   2.667  12.162  0.00  0.00     0.109 A 
ATOM      6  C22 ZIN A   1      18.086   3.548  12.818  0.00  0.00     0.042 A 
ATOM      7  I23 ZIN A   1      17.126   5.074  11.748  0.00  0.00    -0.042 I 
ATOM      8  C24 ZIN A   1      17.871   3.416  14.177  0.00  0.00     0.028 A 
ENDROOT
BRANCH   5   9
ATOM      9  O13 ZIN A   1      19.144   2.792  10.824  0.00  0.00    -0.308 OA
BRANCH   9  10
ATOM     10  C14 ZIN A   1      18.585   1.865  10.002  0.00  0.00     0.077 A 
ATOM     11  C21 ZIN A   1      19.008   1.763   8.684  0.00  0.00     0.058 A 
ATOM     12  C19 ZIN A   1      18.443   0.818   7.849  0.00  0.00     0.042 A 
ATOM     13  C17 ZIN A   1      17.448  -0.023   8.326  0.00  0.00     0.082 A 
ATOM     14  I20 ZIN A   1      19.085   0.660   5.862  0.00  0.00    -0.042 I 
ATOM     15  C16 ZIN A   1      17.022   0.083   9.642  0.00  0.00     0.040 A 
ATOM     16  C15 ZIN A   1      17.590   1.025  10.478  0.00  0.00     0.040 A 
BRANCH  13  17
ATOM     17  O18 ZIN A   1      16.889  -0.951   7.503  0.00  0.00    -0.359 OA
ATOM     18  H33 ZIN A   1      16.665  -0.613   6.625  0.00  0.00     0.217 HD
ENDBRANCH  13  17
ENDBRANCH   9  10
ENDBRANCH   5   9
BRANCH   1  19
ATOM     19  C7  ZIN A   1      18.275   2.273  16.367  0.00  0.00     0.082 C 
BRANCH  19  20
ATOM     20  C5  ZIN A   1      18.325   0.794  16.754  0.00  0.00     0.287 C 
BRANCH  20  21
ATOM     21  N1  ZIN A   1      16.973   0.327  17.084  0.00  0.00    -0.065 N 
ATOM     22  H2  ZIN A   1      16.436   0.223  16.236  0.00  0.00     0.275 HD
ATOM     23  H3  ZIN A   1      16.522   0.999  17.687  0.00  0.00     0.275 HD
ATOM     24  H4  ZIN A   1      17.030  -0.563  17.557  0.00  0.00     0.275 HD
ENDBRANCH  20  21
BRANCH  20  25
ATOM     25  C25 ZIN A   1      19.224   0.619  17.951  0.00  0.00     0.204 C 
ATOM     26  O26 ZIN A   1      19.787   1.586  18.437  0.00  0.00    -0.646 OA
ATOM     27  O27 ZIN A   1      19.388  -0.488  18.434  0.00  0.00    -0.646 OA
ENDBRANCH  20  25
ENDBRANCH  19  20
ENDBRANCH   1  19
TORSDOF 7
ENDMDL
MODEL 6
REMARK VINA RESULT:      -6.5      2.556      2.989
REMARK  7 active torsions:
REMARK  status: ('A' for Active; 'I' for Inactive)
REMARK    1  A    between atoms: N1_1  and  C5_5 
REMARK    2  A    between atoms: C5_5  and  C7_6 
REMARK    3  A    between atoms: C5_5  and  C25_24 
REMARK    4  A    between atoms: C7_6  and  C8_7 
REMARK    5  A    between atoms: C12_11  and  O13_12 
REMARK    6  A    between atoms: O13_12  and  C14_13 
REMARK    7  A    between atoms: C17_16  and  O18_17 
ROOT
ATOM      1  C8  ZIN A   1      18.899   2.562  15.006  0.00  0.00    -0.053 A 
ATOM      2  C9  ZIN A   1      18.375   3.613  14.277  0.00  0.00     0.028 A 
ATOM      3  C10 ZIN A   1      17.712   3.370  13.090  0.00  0.00     0.042 A 
ATOM      4  I11 ZIN A   1      16.920   4.964  11.984  0.00  0.00    -0.042 I 
ATOM      5  C12 ZIN A   1      17.572   2.068  12.629  0.00  0.00     0.109 A 
ATOM      6  C22 ZIN A   1      18.098   1.014  13.364  0.00  0.00     0.042 A 
ATOM      7  I23 ZIN A   1      17.888  -0.953  12.673  0.00  0.00    -0.042 I 
ATOM      8  C24 ZIN A   1      18.764   1.264  14.548  0.00  0.00     0.028 A 
ENDROOT
BRANCH   5   9
ATOM      9  O13 ZIN A   1      16.919   1.826  11.461  0.00  0.00    -0.308 OA
BRANCH   9  10
ATOM     10  C14 ZIN A   1      17.666   1.651  10.338  0.00  0.00     0.077 A 
ATOM     11  C21 ZIN A   1      17.578   0.464   9.625  0.00  0.00     0.058 A 
ATOM     12  C19 ZIN A   1      18.333   0.288   8.482  0.00  0.00     0.042 A 
ATOM     13  C17 ZIN A   1      19.187   1.294   8.053  0.00  0.00     0.082 A 
ATOM     14  I20 ZIN A   1      18.196  -1.501   7.401  0.00  0.00    -0.042 I 
ATOM     15  C16 ZIN A   1      19.278   2.479   8.769  0.00  0.00     0.040 A 
ATOM     16  C15 ZIN A   1      18.520   2.656   9.909  0.00  0.00     0.040 A 
BRANCH  13  17
ATOM     17  O18 ZIN A   1      19.934   1.119   6.929  0.00  0.00    -0.359 OA
ATOM     18  H33 ZIN A   1      20.690   1.720   6.862  0.00  0.00     0.217 HD
ENDBRANCH  13  17
ENDBRANCH   9  10
ENDBRANCH   5   9
BRANCH   1  19
ATOM     19  C7  ZIN A   1      19.622   2.831  16.301  0.00  0.00     0.082 C 
BRANCH  19  20
ATOM     20  C5  ZIN A   1      18.650   2.670  17.471  0.00  0.00     0.287 C 
BRANCH  20  21
ATOM     21  N1  ZIN A   1      18.921   3.701  18.479  0.00  0.00    -0.065 N 
ATOM     22  H2  ZIN A   1      18.637   4.602  18.125  0.00  0.00     0.275 HD
ATOM     23  H3  ZIN A   1      19.908   3.719  18.687  0.00  0.00     0.275 HD
ATOM     24  H4  ZIN A   1      18.404   3.493  19.321  0.00  0.00     0.275 HD
ENDBRANCH  20  21
BRANCH  20  25
ATOM     25  C25 ZIN A   1      18.828   1.306  18.087  0.00  0.00     0.204 C 
ATOM     26  O26 ZIN A   1      17.876   0.549  18.178  0.00  0.00    -0.646 OA
ATOM     27  O27 ZIN A   1      19.923   0.959  18.496  0.00  0.00    -0.646 OA
ENDBRANCH  20  25
ENDBRANCH  19  20
ENDBRANCH   1  19
TORSDOF 7
ENDMDL
MODEL 7
REMARK VINA RESULT:      -6.4      3.354      8.183
REMARK  7 active torsions:
REMARK  status: ('A' for Active; 'I' for Inactive)
REMARK    1  A    between atoms: N1_1  and  C5_5 
REMARK    2  A    between atoms: C5_5  and  C7_6 
REMARK    3  A    between atoms: C5_5  and  C25_24 
REMARK    4  A    between atoms: C7_6  and  C8_7 
REMARK    5  A    between atoms: C12_11  and  O13_12 
REMARK    6  A    between atoms: O13_12  and  C14_13 
REMARK    7  A    between atoms: C17_16  and  O18_17 
ROOT
ATOM      1  C8  ZIN A   1      18.408  -0.436   8.732  0.00  0.00    -0.053 A 
ATOM      2  C9  ZIN A   1      18.798  -1.567   9.425  0.00  0.00     0.028 A 
ATOM      3  C10 ZIN A   1      19.391  -1.447  10.667  0.00  0.00     0.042 A 
ATOM      4  I11 ZIN A   1      19.984  -3.161  11.717  0.00  0.00    -0.042 I 
ATOM      5  C12 ZIN A   1      19.593  -0.190  11.220  0.00  0.00     0.109 A 
ATOM      6  C22 ZIN A   1      19.199   0.943  10.523  0.00  0.00     0.042 A 
ATOM      7  I23 ZIN A   1      19.503   2.844  11.352  0.00  0.00    -0.042 I 
ATOM      8  C24 ZIN A   1      18.612   0.818   9.278  0.00  0.00     0.028 A 
ENDROOT
BRANCH   5   9
ATOM      9  O13 ZIN A   1      20.176  -0.069  12.443  0.00  0.00    -0.308 OA
BRANCH   9  10
ATOM     10  C14 ZIN A   1      19.365   0.102  13.521  0.00  0.00     0.077 A 
ATOM     11  C21 ZIN A   1      19.598   1.146  14.404  0.00  0.00     0.058 A 
ATOM     12  C19 ZIN A   1      18.772   1.323  15.497  0.00  0.00     0.042 A 
ATOM     13  C17 ZIN A   1      17.716   0.450  15.716  0.00  0.00     0.082 A 
ATOM     14  I20 ZIN A   1      19.118   2.904  16.827  0.00  0.00    -0.042 I 
ATOM     15  C16 ZIN A   1      17.486  -0.597  14.836  0.00  0.00     0.040 A 
ATOM     16  C15 ZIN A   1      18.310  -0.770  13.741  0.00  0.00     0.040 A 
BRANCH  13  17
ATOM     17  O18 ZIN A   1      16.904   0.622  16.795  0.00  0.00    -0.359 OA
ATOM     18  H33 ZIN A   1      16.727   1.549  17.009  0.00  0.00     0.217 HD
ENDBRANCH  13  17
ENDBRANCH   9  10
ENDBRANCH   5   9
BRANCH   1  19
ATOM     19  C7  ZIN A   1      17.762  -0.571   7.377  0.00  0.00     0.082 C 
BRANCH  19  20
ATOM     20  C5  ZIN A   1      18.775  -0.205   6.291  0.00  0.00     0.287 C 
BRANCH  20  21
ATOM     21  N1  ZIN A   1      18.146   0.698   5.319  0.00  0.00    -0.065 N 
ATOM     22  H2  ZIN A   1      18.819   1.387   5.015  0.00  0.00     0.275 HD
ATOM     23  H3  ZIN A   1      17.361   1.163   5.749  0.00  0.00     0.275 HD
ATOM     24  H4  ZIN A   1      17.827   0.166   4.523  0.00  0.00     0.275 HD
ENDBRANCH  20  21
BRANCH  20  25
ATOM     25  C25 ZIN A   1      19.234  -1.457   5.590  0.00  0.00     0.204 C 
ATOM     26  O26 ZIN A   1      19.768  -1.382   4.496  0.00  0.00    -0.646 OA
ATOM     27  O27 ZIN A   1      19.071  -2.545   6.116  0.00  0.00    -0.646 OA
ENDBRANCH  20  25
ENDBRANCH  19  20
ENDBRANCH   1  19
TORSDOF 7
ENDMDL
MODEL 8
REMARK VINA RESULT:      -6.4      3.334      7.912
REMARK  7 active torsions:
REMARK  status: ('A' for Active; 'I' for Inactive)
REMARK    1  A    between atoms: N1_1  and  C5_5 
REMARK    2  A    between atoms: C5_5  and  C7_6 
REMARK    3  A    between atoms: C5_5  and  C25_24 
REMARK    4  A    between atoms: C7_6  and  C8_7 
REMARK    5  A    between atoms: C12_11  and  O13_12 
REMARK    6  A    between atoms: O13_12  and  C14_13 
REMARK    7  A    between atoms: C17_16  and  O18_17 
ROOT
ATOM      1  C8  ZIN A   1      18.433  -0.324   8.790  0.00  0.00    -0.053 A 
ATOM      2  C9  ZIN A   1      18.636   0.914   9.371  0.00  0.00     0.028 A 
ATOM      3  C10 ZIN A   1      19.229   1.007  10.615  0.00  0.00     0.042 A 
ATOM      4  I11 ZIN A   1      19.535   2.884  11.495  0.00  0.00    -0.042 I 
ATOM      5  C12 ZIN A   1      19.623  -0.144  11.282  0.00  0.00     0.109 A 
ATOM      6  C22 ZIN A   1      19.419  -1.386  10.696  0.00  0.00     0.042 A 
ATOM      7  I23 ZIN A   1      20.011  -3.129  11.699  0.00  0.00    -0.042 I 
ATOM      8  C24 ZIN A   1      18.820  -1.473   9.454  0.00  0.00     0.028 A 
ENDROOT
BRANCH   5   9
ATOM      9  O13 ZIN A   1      20.207  -0.057  12.507  0.00  0.00    -0.308 OA
BRANCH   9  10
ATOM     10  C14 ZIN A   1      19.400   0.109  13.588  0.00  0.00     0.077 A 
ATOM     11  C21 ZIN A   1      19.610   1.174  14.453  0.00  0.00     0.058 A 
ATOM     12  C19 ZIN A   1      18.787   1.346  15.549  0.00  0.00     0.042 A 
ATOM     13  C17 ZIN A   1      17.757   0.448  15.790  0.00  0.00     0.082 A 
ATOM     14  I20 ZIN A   1      19.099   2.956  16.851  0.00  0.00    -0.042 I 
ATOM     15  C16 ZIN A   1      17.550  -0.619  14.928  0.00  0.00     0.040 A 
ATOM     16  C15 ZIN A   1      18.370  -0.788  13.829  0.00  0.00     0.040 A 
BRANCH  13  17
ATOM     17  O18 ZIN A   1      16.948   0.615  16.871  0.00  0.00    -0.359 OA
ATOM     18  H33 ZIN A   1      16.035   0.843  16.648  0.00  0.00     0.217 HD
ENDBRANCH  13  17
ENDBRANCH   9  10
ENDBRANCH   5   9
BRANCH   1  19
ATOM     19  C7  ZIN A   1      17.785  -0.421   7.433  0.00  0.00     0.082 C 
BRANCH  19  20
ATOM     20  C5  ZIN A   1      18.835  -0.179   6.348  0.00  0.00     0.287 C 
BRANCH  20  21
ATOM     21  N1  ZIN A   1      18.325   0.801   5.381  0.00  0.00    -0.065 N 
ATOM     22  H2  ZIN A   1      18.641   0.556   4.454  0.00  0.00     0.275 HD
ATOM     23  H3  ZIN A   1      18.667   1.720   5.620  0.00  0.00     0.275 HD
ATOM     24  H4  ZIN A   1      17.316   0.801   5.402  0.00  0.00     0.275 HD
ENDBRANCH  20  21
BRANCH  20  25
ATOM     25  C25 ZIN A   1      19.134  -1.476   5.640  0.00  0.00     0.204 C 
ATOM     26  O26 ZIN A   1      18.694  -2.525   6.078  0.00  0.00    -0.646 OA
ATOM     27  O27 ZIN A   1      19.815  -1.476   4.629  0.00  0.00    -0.646 OA
ENDBRANCH  20  25
ENDBRANCH  19  20
ENDBRANCH   1  19
TORSDOF 7
ENDMDL
MODEL 9
REMARK VINA RESULT:      -6.4      4.059      8.406
REMARK  7 active torsions:
REMARK  status: ('A' for Active; 'I' for Inactive)
REMARK    1  A    between atoms: N1_1  and  C5_5 
REMARK    2  A    between atoms: C5_5  and  C7_6 
REMARK    3  A    between atoms: C5_5  and  C25_24 
REMARK    4  A    between atoms: C7_6  and  C8_7 
REMARK    5  A    between atoms: C12_11  and  O13_12 
REMARK    6  A    between atoms: O13_12  and  C14_13 
REMARK    7  A    between atoms: C17_16  and  O18_17 
ROOT
ATOM      1  C8  ZIN A   1      19.118   1.302  10.123  0.00  0.00    -0.053 A 
ATOM      2  C9  ZIN A   1      19.002   0.773  11.394  0.00  0.00     0.028 A 
ATOM      3  C10 ZIN A   1      18.387   1.502  12.394  0.00  0.00     0.042 A 
ATOM      4  I11 ZIN A   1      18.211   0.699  14.322  0.00  0.00    -0.042 I 
ATOM      5  C12 ZIN A   1      17.886   2.766  12.121  0.00  0.00     0.109 A 
ATOM      6  C22 ZIN A   1      18.003   3.295  10.843  0.00  0.00     0.042 A 
ATOM      7  I23 ZIN A   1      17.248   5.205  10.425  0.00  0.00    -0.042 I 
ATOM      8  C24 ZIN A   1      18.624   2.564   9.848  0.00  0.00     0.028 A 
ENDROOT
BRANCH   5   9
ATOM      9  O13 ZIN A   1      17.279   3.486  13.103  0.00  0.00    -0.308 OA
BRANCH   9  10
ATOM     10  C14 ZIN A   1      18.068   4.204  13.946  0.00  0.00     0.077 A 
ATOM     11  C21 ZIN A   1      17.585   4.587  15.189  0.00  0.00     0.058 A 
ATOM     12  C19 ZIN A   1      18.387   5.312  16.049  0.00  0.00     0.042 A 
ATOM     13  C17 ZIN A   1      19.673   5.665  15.665  0.00  0.00     0.082 A 
ATOM     14  I20 ZIN A   1      17.660   5.885  17.928  0.00  0.00    -0.042 I 
ATOM     15  C16 ZIN A   1      20.154   5.286  14.420  0.00  0.00     0.040 A 
ATOM     16  C15 ZIN A   1      19.353   4.557  13.563  0.00  0.00     0.040 A 
BRANCH  13  17
ATOM     17  O18 ZIN A   1      20.462   6.382  16.510  0.00  0.00    -0.359 OA
ATOM     18  H33 ZIN A   1      21.340   5.999  16.647  0.00  0.00     0.217 HD
ENDBRANCH  13  17
ENDBRANCH   9  10
ENDBRANCH   5   9
BRANCH   1  19
ATOM     19  C7  ZIN A   1      19.790   0.505   9.035  0.00  0.00     0.082 C 
BRANCH  19  20
ATOM     20  C5  ZIN A   1      18.799  -0.508   8.459  0.00  0.00     0.287 C 
BRANCH  20  21
ATOM     21  N1  ZIN A   1      19.500  -1.763   8.157  0.00  0.00    -0.065 N 
ATOM     22  H2  ZIN A   1      19.792  -2.201   9.018  0.00  0.00     0.275 HD
ATOM     23  H3  ZIN A   1      20.310  -1.568   7.588  0.00  0.00     0.275 HD
ATOM     24  H4  ZIN A   1      18.879  -2.383   7.658  0.00  0.00     0.275 HD
ENDBRANCH  20  21
BRANCH  20  25
ATOM     25  C25 ZIN A   1      18.193   0.045   7.195  0.00  0.00     0.204 C 
ATOM     26  O26 ZIN A   1      17.007  -0.121   6.965  0.00  0.00    -0.646 OA
ATOM     27  O27 ZIN A   1      18.888   0.658   6.403  0.00  0.00    -0.646 OA
ENDBRANCH  20  25
ENDBRANCH  19  20
ENDBRANCH   1  19
TORSDOF 7
ENDMDL
