MODEL 1
REMARK VINA RESULT:      -6.7      0.000      0.000
REMARK  20 active torsions:
REMARK  status: ('A' for Active; 'I' for Inactive)
REMARK    1  A    between atoms: C2_2  and  O3_3 
REMARK    2  A    between atoms: O3_3  and  C4_4 
REMARK    3  A    between atoms: C7_7  and  C8_8 
REMARK    4  A    between atoms: C8_8  and  C9_9 
REMARK    5  A    between atoms: C9_9  and  C11_10 
REMARK    6  A    between atoms: C9_9  and  N29_28 
REMARK    7  A    between atoms: C11_10  and  N12_11 
REMARK    8  A    between atoms: N12_11  and  C13_12 
REMARK    9  A    between atoms: N12_11  and  C25_24 
REMARK   10  A    between atoms: C13_12  and  C14_13 
REMARK   11  A    between atoms: C14_13  and  N15_14 
REMARK   12  A    between atoms: N15_14  and  C17_16 
REMARK   13  A    between atoms: N15_14  and  C21_20 
REMARK   14  A    between atoms: C17_16  and  C18_17 
REMARK   15  A    between atoms: C21_20  and  C22_21 
REMARK   16  A    between atoms: C25_24  and  C26_25 
REMARK   17  A    between atoms: N29_28  and  C31_30 
REMARK   18  A    between atoms: N29_28  and  C35_34 
REMARK   19  A    between atoms: C31_30  and  C32_31 
REMARK   20  A    between atoms: C35_34  and  C36_35 
ROOT
ATOM      1  C9  ZIN A   1      19.028  -0.607  12.549  0.00  0.00     0.222 C 
ENDROOT
BRANCH   1   2
ATOM      2  C8  ZIN A   1      19.545  -1.955  13.055  0.00  0.00     0.073 C 
BRANCH   2   3
ATOM      3  C7  ZIN A   1      19.168  -3.037  12.076  0.00  0.00    -0.056 A 
ATOM      4  C6  ZIN A   1      20.155  -3.791  11.469  0.00  0.00     0.010 A 
ATOM      5  C5  ZIN A   1      19.811  -4.785  10.572  0.00  0.00     0.037 A 
ATOM      6  C4  ZIN A   1      18.476  -5.024  10.280  0.00  0.00     0.068 A 
ATOM      7  C40 ZIN A   1      17.489  -4.261  10.888  0.00  0.00     0.037 A 
ATOM      8  C39 ZIN A   1      17.837  -3.274  11.788  0.00  0.00     0.010 A 
BRANCH   6   9
ATOM      9  O3  ZIN A   1      18.137  -6.000   9.397  0.00  0.00    -0.352 OA
BRANCH   9  10
ATOM     10  C2  ZIN A   1      16.809  -6.520   9.483  0.00  0.00     0.171 C 
ATOM     11  C1  ZIN A   1      16.333  -6.936   8.089  0.00  0.00     0.034 C 
ENDBRANCH   9  10
ENDBRANCH   6   9
ENDBRANCH   2   3
ENDBRANCH   1   2
BRANCH   1  12
ATOM     12  C11 ZIN A   1      20.099   0.054  11.678  0.00  0.00     0.306 C 
BRANCH  12  13
ATOM     13  N12 ZIN A   1      19.555   0.301  10.336  0.00  0.00     0.102 N 
BRANCH  13  14
ATOM     14  C13 ZIN A   1      19.826  -0.832   9.441  0.00  0.00     0.300 C 
BRANCH  14  15
ATOM     15  C14 ZIN A   1      18.532  -1.245   8.737  0.00  0.00     0.266 C 
BRANCH  15  16
ATOM     16  N15 ZIN A   1      18.851  -1.805   7.416  0.00  0.00    -0.050 N 
ATOM     17  H16 ZIN A   1      19.850  -1.792   7.278  0.00  0.00     0.281 HD
BRANCH  16  18
ATOM     18  C17 ZIN A   1      18.364  -3.189   7.340  0.00  0.00     0.348 C 
BRANCH  18  19
ATOM     19  C18 ZIN A   1      19.403  -4.052   6.672  0.00  0.00     0.199 C 
ATOM     20  O19 ZIN A   1      19.164  -5.225   6.440  0.00  0.00    -0.647 OA
ATOM     21  O20 ZIN A   1      20.483  -3.578   6.363  0.00  0.00    -0.647 OA
ENDBRANCH  18  19
ENDBRANCH  16  18
BRANCH  16  22
ATOM     22  C21 ZIN A   1      18.202  -0.999   6.373  0.00  0.00     0.348 C 
BRANCH  22  23
ATOM     23  C22 ZIN A   1      19.247  -0.220   5.617  0.00  0.00     0.199 C 
ATOM     24  O23 ZIN A   1      19.868  -0.751   4.713  0.00  0.00    -0.647 OA
ATOM     25  O24 ZIN A   1      19.472   0.942   5.911  0.00  0.00    -0.647 OA
ENDBRANCH  22  23
ENDBRANCH  16  22
ENDBRANCH  15  16
ENDBRANCH  14  15
ENDBRANCH  13  14
BRANCH  13  26
ATOM     26  C25 ZIN A   1      18.115   0.590  10.397  0.00  0.00     0.385 C 
BRANCH  26  27
ATOM     27  C26 ZIN A   1      17.893   2.070  10.219  0.00  0.00     0.202 C 
ATOM     28  O27 ZIN A   1      17.124   2.664  10.956  0.00  0.00    -0.647 OA
ATOM     29  O28 ZIN A   1      18.481   2.673   9.339  0.00  0.00    -0.647 OA
ENDBRANCH  26  27
ENDBRANCH  13  26
ENDBRANCH  12  13
ENDBRANCH   1  12
BRANCH   1  30
ATOM     30  N29 ZIN A   1      18.722   0.261  13.693  0.00  0.00    -0.046 N 
ATOM     31  H30 ZIN A   1      17.731   0.454  13.713  0.00  0.00     0.281 HD
BRANCH  30  32
ATOM     32  C31 ZIN A   1      19.117  -0.411  14.938  0.00  0.00     0.348 C 
BRANCH  32  33
ATOM     33  C32 ZIN A   1      17.893  -0.661  15.783  0.00  0.00     0.199 C 
ATOM     34  O33 ZIN A   1      17.019   0.186  15.856  0.00  0.00    -0.647 OA
ATOM     35  O34 ZIN A   1      17.779  -1.710  16.394  0.00  0.00    -0.647 OA
ENDBRANCH  32  33
ENDBRANCH  30  32
BRANCH  30  36
ATOM     36  C35 ZIN A   1      19.462   1.524  13.562  0.00  0.00     0.348 C 
BRANCH  36  37
ATOM     37  C36 ZIN A   1      18.756   2.602  14.342  0.00  0.00     0.199 C 
ATOM     38  O37 ZIN A   1      19.272   3.069  15.344  0.00  0.00    -0.647 OA
ATOM     39  O38 ZIN A   1      17.667   3.008  13.972  0.00  0.00    -0.647 OA
ENDBRANCH  36  37
ENDBRANCH  30  36
ENDBRANCH   1  30
TORSDOF 20
ENDMDL
MODEL 2
REMARK VINA RESULT:      -6.6      2.016      3.529
REMARK  20 active torsions:
REMARK  status: ('A' for Active; 'I' for Inactive)
REMARK    1  A    between atoms: C2_2  and  O3_3 
REMARK    2  A    between atoms: O3_3  and  C4_4 
REMARK    3  A    between atoms: C7_7  and  C8_8 
REMARK    4  A    between atoms: C8_8  and  C9_9 
REMARK    5  A    between atoms: C9_9  and  C11_10 
REMARK    6  A    between atoms: C9_9  and  N29_28 
REMARK    7  A    between atoms: C11_10  and  N12_11 
REMARK    8  A    between atoms: N12_11  and  C13_12 
REMARK    9  A    between atoms: N12_11  and  C25_24 
REMARK   10  A    between atoms: C13_12  and  C14_13 
REMARK   11  A    between atoms: C14_13  and  N15_14 
REMARK   12  A    between atoms: N15_14  and  C17_16 
REMARK   13  A    between atoms: N15_14  and  C21_20 
REMARK   14  A    between atoms: C17_16  and  C18_17 
REMARK   15  A    between atoms: C21_20  and  C22_21 
REMARK   16  A    between atoms: C25_24  and  C26_25 
REMARK   17  A    between atoms: N29_28  and  C31_30 
REMARK   18  A    between atoms: N29_28  and  C35_34 
REMARK   19  A    between atoms: C31_30  and  C32_31 
REMARK   20  A    between atoms: C35_34  and  C36_35 
ROOT
ATOM      1  C9  ZIN A   1      19.277   2.124  12.513  0.00  0.00     0.222 C 
ENDROOT
BRANCH   1   2
ATOM      2  C8  ZIN A   1      20.116   0.849  12.599  0.00  0.00     0.073 C 
BRANCH   2   3
ATOM      3  C7  ZIN A   1      19.248  -0.346  12.299  0.00  0.00    -0.056 A 
ATOM      4  C6  ZIN A   1      19.806  -1.611  12.254  0.00  0.00     0.010 A 
ATOM      5  C5  ZIN A   1      19.011  -2.707  11.979  0.00  0.00     0.037 A 
ATOM      6  C4  ZIN A   1      17.653  -2.539  11.747  0.00  0.00     0.068 A 
ATOM      7  C40 ZIN A   1      17.098  -1.268  11.788  0.00  0.00     0.037 A 
ATOM      8  C39 ZIN A   1      17.895  -0.176  12.068  0.00  0.00     0.010 A 
BRANCH   6   9
ATOM      9  O3  ZIN A   1      16.871  -3.616  11.476  0.00  0.00    -0.352 OA
BRANCH   9  10
ATOM     10  C2  ZIN A   1      17.255  -4.436  10.371  0.00  0.00     0.171 C 
ATOM     11  C1  ZIN A   1      17.264  -5.904  10.803  0.00  0.00     0.034 C 
ENDBRANCH   9  10
ENDBRANCH   6   9
ENDBRANCH   2   3
ENDBRANCH   1   2
BRANCH   1  12
ATOM     12  C11 ZIN A   1      19.881   3.062  11.466  0.00  0.00     0.306 C 
BRANCH  12  13
ATOM     13  N12 ZIN A   1      19.061   3.029  10.247  0.00  0.00     0.102 N 
BRANCH  13  14
ATOM     14  C13 ZIN A   1      19.404   1.871   9.411  0.00  0.00     0.300 C 
BRANCH  14  15
ATOM     15  C14 ZIN A   1      18.769   2.035   8.029  0.00  0.00     0.266 C 
BRANCH  15  16
ATOM     16  N15 ZIN A   1      18.777   0.742   7.331  0.00  0.00    -0.050 N 
ATOM     17  H16 ZIN A   1      17.829   0.428   7.193  0.00  0.00     0.281 HD
BRANCH  16  18
ATOM     18  C17 ZIN A   1      19.437   0.894   6.028  0.00  0.00     0.348 C 
BRANCH  18  19
ATOM     19  C18 ZIN A   1      19.082  -0.274   5.144  0.00  0.00     0.199 C 
ATOM     20  O19 ZIN A   1      17.912  -0.569   4.966  0.00  0.00    -0.647 OA
ATOM     21  O20 ZIN A   1      19.963  -0.924   4.608  0.00  0.00    -0.647 OA
ENDBRANCH  18  19
ENDBRANCH  16  18
BRANCH  16  22
ATOM     22  C21 ZIN A   1      19.507  -0.245   8.137  0.00  0.00     0.348 C 
BRANCH  22  23
ATOM     23  C22 ZIN A   1      18.691  -1.507   8.246  0.00  0.00     0.199 C 
ATOM     24  O23 ZIN A   1      17.498  -1.443   8.488  0.00  0.00    -0.647 OA
ATOM     25  O24 ZIN A   1      19.224  -2.593   8.091  0.00  0.00    -0.647 OA
ENDBRANCH  22  23
ENDBRANCH  16  22
ENDBRANCH  15  16
ENDBRANCH  14  15
ENDBRANCH  13  14
BRANCH  13  26
ATOM     26  C25 ZIN A   1      17.628   3.034  10.577  0.00  0.00     0.385 C 
BRANCH  26  27
ATOM     27  C26 ZIN A   1      17.121   4.453  10.591  0.00  0.00     0.202 C 
ATOM     28  O27 ZIN A   1      17.556   5.264   9.792  0.00  0.00    -0.647 OA
ATOM     29  O28 ZIN A   1      16.276   4.790  11.402  0.00  0.00    -0.647 OA
ENDBRANCH  26  27
ENDBRANCH  13  26
ENDBRANCH  12  13
ENDBRANCH   1  12
BRANCH   1  30
ATOM     30  N29 ZIN A   1      19.264   2.792  13.820  0.00  0.00    -0.046 N 
ATOM     31  H30 ZIN A   1      20.122   2.586  14.312  0.00  0.00     0.281 HD
BRANCH  30  32
ATOM     32  C31 ZIN A   1      19.147   4.244  13.627  0.00  0.00     0.348 C 
BRANCH  32  33
ATOM     33  C32 ZIN A   1      19.253   4.938  14.961  0.00  0.00     0.199 C 
ATOM     34  O33 ZIN A   1      18.314   5.591  15.385  0.00  0.00    -0.647 OA
ATOM     35  O34 ZIN A   1      20.277   4.847  15.616  0.00  0.00    -0.647 OA
ENDBRANCH  32  33
ENDBRANCH  30  32
BRANCH  30  36
ATOM     36  C35 ZIN A   1      18.121   2.310  14.607  0.00  0.00     0.348 C 
BRANCH  36  37
ATOM     37  C36 ZIN A   1      18.624   1.562  15.815  0.00  0.00     0.199 C 
ATOM     38  O37 ZIN A   1      18.879   0.372  15.733  0.00  0.00    -0.647 OA
ATOM     39  O38 ZIN A   1      18.773   2.145  16.874  0.00  0.00    -0.647 OA
ENDBRANCH  36  37
ENDBRANCH  30  36
ENDBRANCH   1  30
TORSDOF 20
ENDMDL
MODEL 3
REMARK VINA RESULT:      -6.5      2.340      9.007
REMARK  20 active torsions:
REMARK  status: ('A' for Active; 'I' for Inactive)
REMARK    1  A    between atoms: C2_2  and  O3_3 
REMARK    2  A    between atoms: O3_3  and  C4_4 
REMARK    3  A    between atoms: C7_7  and  C8_8 
REMARK    4  A    between atoms: C8_8  and  C9_9 
REMARK    5  A    between atoms: C9_9  and  C11_10 
REMARK    6  A    between atoms: C9_9  and  N29_28 
REMARK    7  A    between atoms: C11_10  and  N12_11 
REMARK    8  A    between atoms: N12_11  and  C13_12 
REMARK    9  A    between atoms: N12_11  and  C25_24 
REMARK   10  A    between atoms: C13_12  and  C14_13 
REMARK   11  A    between atoms: C14_13  and  N15_14 
REMARK   12  A    between atoms: N15_14  and  C17_16 
REMARK   13  A    between atoms: N15_14  and  C21_20 
REMARK   14  A    between atoms: C17_16  and  C18_17 
REMARK   15  A    between atoms: C21_20  and  C22_21 
REMARK   16  A    between atoms: C25_24  and  C26_25 
REMARK   17  A    between atoms: N29_28  and  C31_30 
REMARK   18  A    between atoms: N29_28  and  C35_34 
REMARK   19  A    between atoms: C31_30  and  C32_31 
REMARK   20  A    between atoms: C35_34  and  C36_35 
ROOT
ATOM      1  C9  ZIN A   1      18.766   0.845   9.722  0.00  0.00     0.222 C 
ENDROOT
BRANCH   1   2
ATOM      2  C8  ZIN A   1      19.116   2.301   9.415  0.00  0.00     0.073 C 
BRANCH   2   3
ATOM      3  C7  ZIN A   1      18.835   3.152  10.627  0.00  0.00    -0.056 A 
ATOM      4  C6  ZIN A   1      17.528   3.416  10.996  0.00  0.00     0.010 A 
ATOM      5  C5  ZIN A   1      17.268   4.195  12.107  0.00  0.00     0.037 A 
ATOM      6  C4  ZIN A   1      18.318   4.713  12.852  0.00  0.00     0.068 A 
ATOM      7  C40 ZIN A   1      19.627   4.451  12.475  0.00  0.00     0.037 A 
ATOM      8  C39 ZIN A   1      19.883   3.667  11.367  0.00  0.00     0.010 A 
BRANCH   6   9
ATOM      9  O3  ZIN A   1      18.064   5.480  13.944  0.00  0.00    -0.352 OA
BRANCH   9  10
ATOM     10  C2  ZIN A   1      16.740   6.002  14.077  0.00  0.00     0.171 C 
ATOM     11  C1  ZIN A   1      16.811   7.495  14.406  0.00  0.00     0.034 C 
ENDBRANCH   9  10
ENDBRANCH   6   9
ENDBRANCH   2   3
ENDBRANCH   1   2
BRANCH   1  12
ATOM     12  C11 ZIN A   1      19.892   0.212  10.543  0.00  0.00     0.306 C 
BRANCH  12  13
ATOM     13  N12 ZIN A   1      19.343  -0.321  11.797  0.00  0.00     0.102 N 
BRANCH  13  14
ATOM     14  C13 ZIN A   1      19.391   0.688  12.864  0.00  0.00     0.300 C 
BRANCH  14  15
ATOM     15  C14 ZIN A   1      19.864   0.032  14.164  0.00  0.00     0.266 C 
BRANCH  15  16
ATOM     16  N15 ZIN A   1      19.132   0.612  15.298  0.00  0.00    -0.050 N 
ATOM     17  H16 ZIN A   1      19.508   0.251  16.161  0.00  0.00     0.281 HD
BRANCH  16  18
ATOM     18  C17 ZIN A   1      19.273   2.074  15.276  0.00  0.00     0.348 C 
BRANCH  18  19
ATOM     19  C18 ZIN A   1      19.121   2.615  16.675  0.00  0.00     0.199 C 
ATOM     20  O19 ZIN A   1      18.509   3.653  16.863  0.00  0.00    -0.647 OA
ATOM     21  O20 ZIN A   1      19.609   2.015  17.617  0.00  0.00    -0.647 OA
ENDBRANCH  18  19
ENDBRANCH  16  18
BRANCH  16  22
ATOM     22  C21 ZIN A   1      17.710   0.256  15.197  0.00  0.00     0.348 C 
BRANCH  22  23
ATOM     23  C22 ZIN A   1      17.333  -0.636  16.352  0.00  0.00     0.199 C 
ATOM     24  O23 ZIN A   1      17.943  -1.672  16.547  0.00  0.00    -0.647 OA
ATOM     25  O24 ZIN A   1      16.417  -0.319  17.092  0.00  0.00    -0.647 OA
ENDBRANCH  22  23
ENDBRANCH  16  22
ENDBRANCH  15  16
ENDBRANCH  14  15
ENDBRANCH  13  14
BRANCH  13  26
ATOM     26  C25 ZIN A   1      17.973  -0.817  11.604  0.00  0.00     0.385 C 
BRANCH  26  27
ATOM     27  C26 ZIN A   1      17.934  -2.300  11.871  0.00  0.00     0.202 C 
ATOM     28  O27 ZIN A   1      18.870  -2.843  12.432  0.00  0.00    -0.647 OA
ATOM     29  O28 ZIN A   1      16.966  -2.956  11.527  0.00  0.00    -0.647 OA
ENDBRANCH  26  27
ENDBRANCH  13  26
ENDBRANCH  12  13
ENDBRANCH   1  12
BRANCH   1  30
ATOM     30  N29 ZIN A   1      18.601   0.105   8.465  0.00  0.00    -0.046 N 
ATOM     31  H30 ZIN A   1      17.676  -0.298   8.430  0.00  0.00     0.281 HD
BRANCH  30  32
ATOM     32  C31 ZIN A   1      18.779   1.020   7.330  0.00  0.00     0.348 C 
BRANCH  32  33
ATOM     33  C32 ZIN A   1      18.151   0.421   6.098  0.00  0.00     0.199 C 
ATOM     34  O33 ZIN A   1      18.814   0.274   5.085  0.00  0.00    -0.647 OA
ATOM     35  O34 ZIN A   1      16.979   0.085   6.113  0.00  0.00    -0.647 OA
ENDBRANCH  32  33
ENDBRANCH  30  32
BRANCH  30  36
ATOM     36  C35 ZIN A   1      19.604  -0.967   8.391  0.00  0.00     0.348 C 
BRANCH  36  37
ATOM     37  C36 ZIN A   1      18.932  -2.257   7.998  0.00  0.00     0.199 C 
ATOM     38  O37 ZIN A   1      17.813  -2.513   8.411  0.00  0.00    -0.647 OA
ATOM     39  O38 ZIN A   1      19.507  -3.046   7.268  0.00  0.00    -0.647 OA
ENDBRANCH  36  37
ENDBRANCH  30  36
ENDBRANCH   1  30
TORSDOF 20
ENDMDL
MODEL 4
REMARK VINA RESULT:      -6.5      1.718      5.847
REMARK  20 active torsions:
REMARK  status: ('A' for Active; 'I' for Inactive)
REMARK    1  A    between atoms: C2_2  and  O3_3 
REMARK    2  A    between atoms: O3_3  and  C4_4 
REMARK    3  A    between atoms: C7_7  and  C8_8 
REMARK    4  A    between atoms: C8_8  and  C9_9 
REMARK    5  A    between atoms: C9_9  and  C11_10 
REMARK    6  A    between atoms: C9_9  and  N29_28 
REMARK    7  A    between atoms: C11_10  and  N12_11 
REMARK    8  A    between atoms: N12_11  and  C13_12 
REMARK    9  A    between atoms: N12_11  and  C25_24 
REMARK   10  A    between atoms: C13_12  and  C14_13 
REMARK   11  A    between atoms: C14_13  and  N15_14 
REMARK   12  A    between atoms: N15_14  and  C17_16 
REMARK   13  A    between atoms: N15_14  and  C21_20 
REMARK   14  A    between atoms: C17_16  and  C18_17 
REMARK   15  A    between atoms: C21_20  and  C22_21 
REMARK   16  A    between atoms: C25_24  and  C26_25 
REMARK   17  A    between atoms: N29_28  and  C31_30 
REMARK   18  A    between atoms: N29_28  and  C35_34 
REMARK   19  A    between atoms: C31_30  and  C32_31 
REMARK   20  A    between atoms: C35_34  and  C36_35 
ROOT
ATOM      1  C9  ZIN A   1      19.253  -0.699   9.811  0.00  0.00     0.222 C 
ENDROOT
BRANCH   1   2
ATOM      2  C8  ZIN A   1      20.367  -0.984  10.819  0.00  0.00     0.073 C 
BRANCH   2   3
ATOM      3  C7  ZIN A   1      19.838  -0.795  12.218  0.00  0.00    -0.056 A 
ATOM      4  C6  ZIN A   1      18.982  -1.734  12.764  0.00  0.00     0.010 A 
ATOM      5  C5  ZIN A   1      18.498  -1.564  14.047  0.00  0.00     0.037 A 
ATOM      6  C4  ZIN A   1      18.869  -0.450  14.786  0.00  0.00     0.068 A 
ATOM      7  C40 ZIN A   1      19.723   0.493  14.233  0.00  0.00     0.037 A 
ATOM      8  C39 ZIN A   1      20.210   0.315  12.953  0.00  0.00     0.010 A 
BRANCH   6   9
ATOM      9  O3  ZIN A   1      18.392  -0.280  16.047  0.00  0.00    -0.352 OA
BRANCH   9  10
ATOM     10  C2  ZIN A   1      19.191  -0.787  17.117  0.00  0.00     0.171 C 
ATOM     11  C1  ZIN A   1      18.870  -0.020  18.402  0.00  0.00     0.034 C 
ENDBRANCH   9  10
ENDBRANCH   6   9
ENDBRANCH   2   3
ENDBRANCH   1   2
BRANCH   1  12
ATOM     12  C11 ZIN A   1      19.840  -0.665   8.398  0.00  0.00     0.306 C 
BRANCH  12  13
ATOM     13  N12 ZIN A   1      19.210  -1.711   7.581  0.00  0.00     0.102 N 
BRANCH  13  14
ATOM     14  C13 ZIN A   1      18.426  -2.631   8.416  0.00  0.00     0.300 C 
BRANCH  14  15
ATOM     15  C14 ZIN A   1      19.123  -3.992   8.468  0.00  0.00     0.266 C 
BRANCH  15  16
ATOM     16  N15 ZIN A   1      18.315  -4.926   9.264  0.00  0.00    -0.050 N 
ATOM     17  H16 ZIN A   1      17.340  -4.682   9.181  0.00  0.00     0.281 HD
BRANCH  16  18
ATOM     18  C17 ZIN A   1      18.520  -6.294   8.771  0.00  0.00     0.348 C 
BRANCH  18  19
ATOM     19  C18 ZIN A   1      17.984  -6.409   7.367  0.00  0.00     0.199 C 
ATOM     20  O19 ZIN A   1      16.808  -6.176   7.142  0.00  0.00    -0.647 OA
ATOM     21  O20 ZIN A   1      18.726  -6.735   6.456  0.00  0.00    -0.647 OA
ENDBRANCH  18  19
ENDBRANCH  16  18
BRANCH  16  22
ATOM     22  C21 ZIN A   1      18.721  -4.847  10.673  0.00  0.00     0.348 C 
BRANCH  22  23
ATOM     23  C22 ZIN A   1      17.504  -4.955  11.554  0.00  0.00     0.199 C 
ATOM     24  O23 ZIN A   1      16.533  -4.250  11.342  0.00  0.00    -0.647 OA
ATOM     25  O24 ZIN A   1      17.490  -5.749  12.480  0.00  0.00    -0.647 OA
ENDBRANCH  22  23
ENDBRANCH  16  22
ENDBRANCH  15  16
ENDBRANCH  14  15
ENDBRANCH  13  14
BRANCH  13  26
ATOM     26  C25 ZIN A   1      18.379  -1.123   6.522  0.00  0.00     0.385 C 
BRANCH  26  27
ATOM     27  C26 ZIN A   1      19.255  -0.707   5.369  0.00  0.00     0.202 C 
ATOM     28  O27 ZIN A   1      19.891  -1.545   4.753  0.00  0.00    -0.647 OA
ATOM     29  O28 ZIN A   1      19.327   0.468   5.051  0.00  0.00    -0.647 OA
ENDBRANCH  26  27
ENDBRANCH  13  26
ENDBRANCH  12  13
ENDBRANCH   1  12
BRANCH   1  30
ATOM     30  N29 ZIN A   1      18.636   0.598  10.115  0.00  0.00    -0.046 N 
ATOM     31  H30 ZIN A   1      18.928   0.903  11.033  0.00  0.00     0.281 HD
BRANCH  30  32
ATOM     32  C31 ZIN A   1      19.056   1.588   9.114  0.00  0.00     0.348 C 
BRANCH  32  33
ATOM     33  C32 ZIN A   1      18.987   2.969   9.713  0.00  0.00     0.199 C 
ATOM     34  O33 ZIN A   1      18.311   3.833   9.180  0.00  0.00    -0.647 OA
ATOM     35  O34 ZIN A   1      19.609   3.224  10.731  0.00  0.00    -0.647 OA
ENDBRANCH  32  33
ENDBRANCH  30  32
BRANCH  30  36
ATOM     36  C35 ZIN A   1      17.173   0.465  10.088  0.00  0.00     0.348 C 
BRANCH  36  37
ATOM     37  C36 ZIN A   1      16.625   0.652  11.479  0.00  0.00     0.199 C 
ATOM     38  O37 ZIN A   1      15.757  -0.095  11.898  0.00  0.00    -0.647 OA
ATOM     39  O38 ZIN A   1      17.049   1.551  12.184  0.00  0.00    -0.647 OA
ENDBRANCH  36  37
ENDBRANCH  30  36
ENDBRANCH   1  30
TORSDOF 20
ENDMDL
MODEL 5
REMARK VINA RESULT:      -6.5      2.576      8.182
REMARK  20 active torsions:
REMARK  status: ('A' for Active; 'I' for Inactive)
REMARK    1  A    between atoms: C2_2  and  O3_3 
REMARK    2  A    between atoms: O3_3  and  C4_4 
REMARK    3  A    between atoms: C7_7  and  C8_8 
REMARK    4  A    between atoms: C8_8  and  C9_9 
REMARK    5  A    between atoms: C9_9  and  C11_10 
REMARK    6  A    between atoms: C9_9  and  N29_28 
REMARK    7  A    between atoms: C11_10  and  N12_11 
REMARK    8  A    between atoms: N12_11  and  C13_12 
REMARK    9  A    between atoms: N12_11  and  C25_24 
REMARK   10  A    between atoms: C13_12  and  C14_13 
REMARK   11  A    between atoms: C14_13  and  N15_14 
REMARK   12  A    between atoms: N15_14  and  C17_16 
REMARK   13  A    between atoms: N15_14  and  C21_20 
REMARK   14  A    between atoms: C17_16  and  C18_17 
REMARK   15  A    between atoms: C21_20  and  C22_21 
REMARK   16  A    between atoms: C25_24  and  C26_25 
REMARK   17  A    between atoms: N29_28  and  C31_30 
REMARK   18  A    between atoms: N29_28  and  C35_34 
REMARK   19  A    between atoms: C31_30  and  C32_31 
REMARK   20  A    between atoms: C35_34  and  C36_35 
ROOT
ATOM      1  C9  ZIN A   1      18.180   0.342  11.462  0.00  0.00     0.222 C 
ENDROOT
BRANCH   1   2
ATOM      2  C8  ZIN A   1      17.301  -0.584  12.304  0.00  0.00     0.073 C 
BRANCH   2   3
ATOM      3  C7  ZIN A   1      17.803  -0.599  13.725  0.00  0.00    -0.056 A 
ATOM      4  C6  ZIN A   1      18.857  -1.423  14.075  0.00  0.00     0.010 A 
ATOM      5  C5  ZIN A   1      19.320  -1.438  15.377  0.00  0.00     0.037 A 
ATOM      6  C4  ZIN A   1      18.726  -0.626  16.333  0.00  0.00     0.068 A 
ATOM      7  C40 ZIN A   1      17.665   0.195  15.979  0.00  0.00     0.037 A 
ATOM      8  C39 ZIN A   1      17.210   0.211  14.675  0.00  0.00     0.010 A 
BRANCH   6   9
ATOM      9  O3  ZIN A   1      19.179  -0.640  17.614  0.00  0.00    -0.352 OA
BRANCH   9  10
ATOM     10  C2  ZIN A   1      19.274   0.618  18.283  0.00  0.00     0.171 C 
ATOM     11  C1  ZIN A   1      17.954   0.918  18.996  0.00  0.00     0.034 C 
ENDBRANCH   9  10
ENDBRANCH   6   9
ENDBRANCH   2   3
ENDBRANCH   1   2
BRANCH   1  12
ATOM     12  C11 ZIN A   1      17.341   1.516  10.953  0.00  0.00     0.306 C 
BRANCH  12  13
ATOM     13  N12 ZIN A   1      17.808   2.760  11.581  0.00  0.00     0.102 N 
BRANCH  13  14
ATOM     14  C13 ZIN A   1      18.978   2.512  12.435  0.00  0.00     0.300 C 
BRANCH  14  15
ATOM     15  C14 ZIN A   1      19.778   3.807  12.590  0.00  0.00     0.266 C 
BRANCH  15  16
ATOM     16  N15 ZIN A   1      19.635   4.307  13.964  0.00  0.00    -0.050 N 
ATOM     17  H16 ZIN A   1      20.541   4.563  14.325  0.00  0.00     0.281 HD
BRANCH  16  18
ATOM     18  C17 ZIN A   1      18.756   5.484  13.968  0.00  0.00     0.348 C 
BRANCH  18  19
ATOM     19  C18 ZIN A   1      19.474   6.646  14.605  0.00  0.00     0.199 C 
ATOM     20  O19 ZIN A   1      20.683   6.604  14.761  0.00  0.00    -0.647 OA
ATOM     21  O20 ZIN A   1      18.847   7.628  14.965  0.00  0.00    -0.647 OA
ENDBRANCH  18  19
ENDBRANCH  16  18
BRANCH  16  22
ATOM     22  C21 ZIN A   1      19.051   3.257  14.810  0.00  0.00     0.348 C 
BRANCH  22  23
ATOM     23  C22 ZIN A   1      19.224   3.626  16.260  0.00  0.00     0.199 C 
ATOM     24  O23 ZIN A   1      20.341   3.785  16.720  0.00  0.00    -0.647 OA
ATOM     25  O24 ZIN A   1      18.246   3.765  16.975  0.00  0.00    -0.647 OA
ENDBRANCH  22  23
ENDBRANCH  16  22
ENDBRANCH  15  16
ENDBRANCH  14  15
ENDBRANCH  13  14
BRANCH  13  26
ATOM     26  C25 ZIN A   1      18.104   3.782  10.568  0.00  0.00     0.385 C 
BRANCH  26  27
ATOM     27  C26 ZIN A   1      17.085   4.889  10.660  0.00  0.00     0.202 C 
ATOM     28  O27 ZIN A   1      16.114   4.765  11.385  0.00  0.00    -0.647 OA
ATOM     29  O28 ZIN A   1      17.233   5.910  10.010  0.00  0.00    -0.647 OA
ENDBRANCH  26  27
ENDBRANCH  13  26
ENDBRANCH  12  13
ENDBRANCH   1  12
BRANCH   1  30
ATOM     30  N29 ZIN A   1      18.723  -0.404  10.320  0.00  0.00    -0.046 N 
ATOM     31  H30 ZIN A   1      17.982  -0.924   9.874  0.00  0.00     0.281 HD
BRANCH  30  32
ATOM     32  C31 ZIN A   1      19.310   0.537   9.356  0.00  0.00     0.348 C 
BRANCH  32  33
ATOM     33  C32 ZIN A   1      18.697   0.311   7.997  0.00  0.00     0.199 C 
ATOM     34  O33 ZIN A   1      19.127   0.912   7.027  0.00  0.00    -0.647 OA
ATOM     35  O34 ZIN A   1      17.771  -0.471   7.869  0.00  0.00    -0.647 OA
ENDBRANCH  32  33
ENDBRANCH  30  32
BRANCH  30  36
ATOM     36  C35 ZIN A   1      19.760  -1.334  10.789  0.00  0.00     0.348 C 
BRANCH  36  37
ATOM     37  C36 ZIN A   1      19.332  -2.749  10.499  0.00  0.00     0.199 C 
ATOM     38  O37 ZIN A   1      19.185  -3.542  11.414  0.00  0.00    -0.647 OA
ATOM     39  O38 ZIN A   1      19.135  -3.103   9.349  0.00  0.00    -0.647 OA
ENDBRANCH  36  37
ENDBRANCH  30  36
ENDBRANCH   1  30
TORSDOF 20
ENDMDL
MODEL 6
REMARK VINA RESULT:      -6.5      2.288      6.249
REMARK  20 active torsions:
REMARK  status: ('A' for Active; 'I' for Inactive)
REMARK    1  A    between atoms: C2_2  and  O3_3 
REMARK    2  A    between atoms: O3_3  and  C4_4 
REMARK    3  A    between atoms: C7_7  and  C8_8 
REMARK    4  A    between atoms: C8_8  and  C9_9 
REMARK    5  A    between atoms: C9_9  and  C11_10 
REMARK    6  A    between atoms: C9_9  and  N29_28 
REMARK    7  A    between atoms: C11_10  and  N12_11 
REMARK    8  A    between atoms: N12_11  and  C13_12 
REMARK    9  A    between atoms: N12_11  and  C25_24 
REMARK   10  A    between atoms: C13_12  and  C14_13 
REMARK   11  A    between atoms: C14_13  and  N15_14 
REMARK   12  A    between atoms: N15_14  and  C17_16 
REMARK   13  A    between atoms: N15_14  and  C21_20 
REMARK   14  A    between atoms: C17_16  and  C18_17 
REMARK   15  A    between atoms: C21_20  and  C22_21 
REMARK   16  A    between atoms: C25_24  and  C26_25 
REMARK   17  A    between atoms: N29_28  and  C31_30 
REMARK   18  A    between atoms: N29_28  and  C35_34 
REMARK   19  A    between atoms: C31_30  and  C32_31 
REMARK   20  A    between atoms: C35_34  and  C36_35 
ROOT
ATOM      1  C9  ZIN A   1      18.751  -1.194   9.192  0.00  0.00     0.222 C 
ENDROOT
BRANCH   1   2
ATOM      2  C8  ZIN A   1      17.446  -0.417   9.362  0.00  0.00     0.073 C 
BRANCH   2   3
ATOM      3  C7  ZIN A   1      17.745   0.950   9.923  0.00  0.00    -0.056 A 
ATOM      4  C6  ZIN A   1      17.278   1.297  11.178  0.00  0.00     0.010 A 
ATOM      5  C5  ZIN A   1      17.551   2.549  11.694  0.00  0.00     0.037 A 
ATOM      6  C4  ZIN A   1      18.294   3.458  10.954  0.00  0.00     0.068 A 
ATOM      7  C40 ZIN A   1      18.755   3.108   9.693  0.00  0.00     0.037 A 
ATOM      8  C39 ZIN A   1      18.484   1.854   9.183  0.00  0.00     0.010 A 
BRANCH   6   9
ATOM      9  O3  ZIN A   1      18.562   4.690  11.460  0.00  0.00    -0.352 OA
BRANCH   9  10
ATOM     10  C2  ZIN A   1      18.292   4.895  12.848  0.00  0.00     0.171 C 
ATOM     11  C1  ZIN A   1      19.605   5.148  13.592  0.00  0.00     0.034 C 
ENDBRANCH   9  10
ENDBRANCH   6   9
ENDBRANCH   2   3
ENDBRANCH   1   2
BRANCH   1  12
ATOM     12  C11 ZIN A   1      18.523  -2.373   8.243  0.00  0.00     0.306 C 
BRANCH  12  13
ATOM     13  N12 ZIN A   1      19.231  -2.129   6.979  0.00  0.00     0.102 N 
BRANCH  13  14
ATOM     14  C13 ZIN A   1      19.680  -3.391   6.375  0.00  0.00     0.300 C 
BRANCH  14  15
ATOM     15  C14 ZIN A   1      18.635  -3.871   5.364  0.00  0.00     0.266 C 
BRANCH  15  16
ATOM     16  N15 ZIN A   1      17.936  -5.045   5.905  0.00  0.00    -0.050 N 
ATOM     17  H16 ZIN A   1      17.254  -4.746   6.585  0.00  0.00     0.281 HD
BRANCH  16  18
ATOM     18  C17 ZIN A   1      17.260  -5.757   4.813  0.00  0.00     0.348 C 
BRANCH  18  19
ATOM     19  C18 ZIN A   1      15.777  -5.493   4.882  0.00  0.00     0.199 C 
ATOM     20  O19 ZIN A   1      15.106  -6.015   5.757  0.00  0.00    -0.647 OA
ATOM     21  O20 ZIN A   1      15.249  -4.759   4.065  0.00  0.00    -0.647 OA
ENDBRANCH  18  19
ENDBRANCH  16  18
BRANCH  16  22
ATOM     22  C21 ZIN A   1      18.907  -5.941   6.547  0.00  0.00     0.348 C 
BRANCH  22  23
ATOM     23  C22 ZIN A   1      18.508  -6.168   7.982  0.00  0.00     0.199 C 
ATOM     24  O23 ZIN A   1      17.436  -5.756   8.389  0.00  0.00    -0.647 OA
ATOM     25  O24 ZIN A   1      19.258  -6.765   8.736  0.00  0.00    -0.647 OA
ENDBRANCH  22  23
ENDBRANCH  16  22
ENDBRANCH  15  16
ENDBRANCH  14  15
ENDBRANCH  13  14
BRANCH  13  26
ATOM     26  C25 ZIN A   1      18.392  -1.367   6.044  0.00  0.00     0.385 C 
BRANCH  26  27
ATOM     27  C26 ZIN A   1      19.216  -0.284   5.398  0.00  0.00     0.202 C 
ATOM     28  O27 ZIN A   1      19.973  -0.558   4.483  0.00  0.00    -0.647 OA
ATOM     29  O28 ZIN A   1      19.126   0.867   5.791  0.00  0.00    -0.647 OA
ENDBRANCH  26  27
ENDBRANCH  13  26
ENDBRANCH  12  13
ENDBRANCH   1  12
BRANCH   1  30
ATOM     30  N29 ZIN A   1      19.196  -1.696  10.498  0.00  0.00    -0.046 N 
ATOM     31  H30 ZIN A   1      18.511  -1.461  11.200  0.00  0.00     0.281 HD
BRANCH  30  32
ATOM     32  C31 ZIN A   1      19.353  -3.155  10.435  0.00  0.00     0.348 C 
BRANCH  32  33
ATOM     33  C32 ZIN A   1      18.471  -3.800  11.474  0.00  0.00     0.199 C 
ATOM     34  O33 ZIN A   1      18.434  -5.015  11.574  0.00  0.00    -0.647 OA
ATOM     35  O34 ZIN A   1      17.796  -3.107  12.216  0.00  0.00    -0.647 OA
ENDBRANCH  32  33
ENDBRANCH  30  32
BRANCH  30  36
ATOM     36  C35 ZIN A   1      20.484  -1.081  10.847  0.00  0.00     0.348 C 
BRANCH  36  37
ATOM     37  C36 ZIN A   1      20.308  -0.200  12.056  0.00  0.00     0.199 C 
ATOM     38  O37 ZIN A   1      19.721  -0.621  13.039  0.00  0.00    -0.647 OA
ATOM     39  O38 ZIN A   1      20.751   0.936  12.052  0.00  0.00    -0.647 OA
ENDBRANCH  36  37
ENDBRANCH  30  36
ENDBRANCH   1  30
TORSDOF 20
ENDMDL
MODEL 7
REMARK VINA RESULT:      -6.4      1.916      6.062
REMARK  20 active torsions:
REMARK  status: ('A' for Active; 'I' for Inactive)
REMARK    1  A    between atoms: C2_2  and  O3_3 
REMARK    2  A    between atoms: O3_3  and  C4_4 
REMARK    3  A    between atoms: C7_7  and  C8_8 
REMARK    4  A    between atoms: C8_8  and  C9_9 
REMARK    5  A    between atoms: C9_9  and  C11_10 
REMARK    6  A    between atoms: C9_9  and  N29_28 
REMARK    7  A    between atoms: C11_10  and  N12_11 
REMARK    8  A    between atoms: N12_11  and  C13_12 
REMARK    9  A    between atoms: N12_11  and  C25_24 
REMARK   10  A    between atoms: C13_12  and  C14_13 
REMARK   11  A    between atoms: C14_13  and  N15_14 
REMARK   12  A    between atoms: N15_14  and  C17_16 
REMARK   13  A    between atoms: N15_14  and  C21_20 
REMARK   14  A    between atoms: C17_16  and  C18_17 
REMARK   15  A    between atoms: C21_20  and  C22_21 
REMARK   16  A    between atoms: C25_24  and  C26_25 
REMARK   17  A    between atoms: N29_28  and  C31_30 
REMARK   18  A    between atoms: N29_28  and  C35_34 
REMARK   19  A    between atoms: C31_30  and  C32_31 
REMARK   20  A    between atoms: C35_34  and  C36_35 
ROOT
ATOM      1  C9  ZIN A   1      18.730  -0.574  10.687  0.00  0.00     0.222 C 
ENDROOT
BRANCH   1   2
ATOM      2  C8  ZIN A   1      19.729  -0.200  11.782  0.00  0.00     0.073 C 
BRANCH   2   3
ATOM      3  C7  ZIN A   1      19.073  -0.343  13.132  0.00  0.00    -0.056 A 
ATOM      4  C6  ZIN A   1      19.400  -1.411  13.948  0.00  0.00     0.010 A 
ATOM      5  C5  ZIN A   1      18.800  -1.543  15.185  0.00  0.00     0.037 A 
ATOM      6  C4  ZIN A   1      17.869  -0.606  15.609  0.00  0.00     0.068 A 
ATOM      7  C40 ZIN A   1      17.539   0.461  14.785  0.00  0.00     0.037 A 
ATOM      8  C39 ZIN A   1      18.146   0.592  13.551  0.00  0.00     0.010 A 
BRANCH   6   9
ATOM      9  O3  ZIN A   1      17.277  -0.736  16.825  0.00  0.00    -0.352 OA
BRANCH   9  10
ATOM     10  C2  ZIN A   1      17.305   0.404  17.686  0.00  0.00     0.171 C 
ATOM     11  C1  ZIN A   1      18.512   0.309  18.622  0.00  0.00     0.034 C 
ENDBRANCH   9  10
ENDBRANCH   6   9
ENDBRANCH   2   3
ENDBRANCH   1   2
BRANCH   1  12
ATOM     12  C11 ZIN A   1      19.206  -1.842   9.974  0.00  0.00     0.306 C 
BRANCH  12  13
ATOM     13  N12 ZIN A   1      18.122  -2.834   9.964  0.00  0.00     0.102 N 
BRANCH  13  14
ATOM     14  C13 ZIN A   1      17.579  -3.007   8.610  0.00  0.00     0.300 C 
BRANCH  14  15
ATOM     15  C14 ZIN A   1      18.722  -3.299   7.636  0.00  0.00     0.266 C 
BRANCH  15  16
ATOM     16  N15 ZIN A   1      18.167  -3.672   6.328  0.00  0.00    -0.050 N 
ATOM     17  H16 ZIN A   1      17.337  -3.129   6.147  0.00  0.00     0.281 HD
BRANCH  16  18
ATOM     18  C17 ZIN A   1      19.163  -3.410   5.281  0.00  0.00     0.348 C 
BRANCH  18  19
ATOM     19  C18 ZIN A   1      18.927  -2.042   4.694  0.00  0.00     0.199 C 
ATOM     20  O19 ZIN A   1      19.867  -1.287   4.512  0.00  0.00    -0.647 OA
ATOM     21  O20 ZIN A   1      17.797  -1.691   4.399  0.00  0.00    -0.647 OA
ENDBRANCH  18  19
ENDBRANCH  16  18
BRANCH  16  22
ATOM     22  C21 ZIN A   1      17.824  -5.101   6.332  0.00  0.00     0.348 C 
BRANCH  22  23
ATOM     23  C22 ZIN A   1      17.195  -5.470   5.013  0.00  0.00     0.199 C 
ATOM     24  O23 ZIN A   1      17.681  -6.355   4.332  0.00  0.00    -0.647 OA
ATOM     25  O24 ZIN A   1      16.198  -4.882   4.629  0.00  0.00    -0.647 OA
ENDBRANCH  22  23
ENDBRANCH  16  22
ENDBRANCH  15  16
ENDBRANCH  14  15
ENDBRANCH  13  14
BRANCH  13  26
ATOM     26  C25 ZIN A   1      18.578  -4.117  10.516  0.00  0.00     0.385 C 
BRANCH  26  27
ATOM     27  C26 ZIN A   1      17.440  -4.782  11.246  0.00  0.00     0.202 C 
ATOM     28  O27 ZIN A   1      16.396  -5.019  10.662  0.00  0.00    -0.647 OA
ATOM     29  O28 ZIN A   1      17.563  -5.085  12.420  0.00  0.00    -0.647 OA
ENDBRANCH  26  27
ENDBRANCH  13  26
ENDBRANCH  12  13
ENDBRANCH   1  12
BRANCH   1  30
ATOM     30  N29 ZIN A   1      18.630   0.525   9.718  0.00  0.00    -0.046 N 
ATOM     31  H30 ZIN A   1      17.662   0.673   9.476  0.00  0.00     0.281 HD
BRANCH  30  32
ATOM     32  C31 ZIN A   1      19.180   1.752  10.311  0.00  0.00     0.348 C 
BRANCH  32  33
ATOM     33  C32 ZIN A   1      18.131   2.835  10.286  0.00  0.00     0.199 C 
ATOM     34  O33 ZIN A   1      18.273   3.805   9.560  0.00  0.00    -0.647 OA
ATOM     35  O34 ZIN A   1      17.141   2.741  10.991  0.00  0.00    -0.647 OA
ENDBRANCH  32  33
ENDBRANCH  30  32
BRANCH  30  36
ATOM     36  C35 ZIN A   1      19.391   0.183   8.509  0.00  0.00     0.348 C 
BRANCH  36  37
ATOM     37  C36 ZIN A   1      18.598   0.578   7.289  0.00  0.00     0.199 C 
ATOM     38  O37 ZIN A   1      19.097   1.307   6.448  0.00  0.00    -0.647 OA
ATOM     39  O38 ZIN A   1      17.459   0.171   7.145  0.00  0.00    -0.647 OA
ENDBRANCH  36  37
ENDBRANCH  30  36
ENDBRANCH   1  30
TORSDOF 20
ENDMDL
MODEL 8
REMARK VINA RESULT:      -6.4      0.899      2.136
REMARK  20 active torsions:
REMARK  status: ('A' for Active; 'I' for Inactive)
REMARK    1  A    between atoms: C2_2  and  O3_3 
REMARK    2  A    between atoms: O3_3  and  C4_4 
REMARK    3  A    between atoms: C7_7  and  C8_8 
REMARK    4  A    between atoms: C8_8  and  C9_9 
REMARK    5  A    between atoms: C9_9  and  C11_10 
REMARK    6  A    between atoms: C9_9  and  N29_28 
REMARK    7  A    between atoms: C11_10  and  N12_11 
REMARK    8  A    between atoms: N12_11  and  C13_12 
REMARK    9  A    between atoms: N12_11  and  C25_24 
REMARK   10  A    between atoms: C13_12  and  C14_13 
REMARK   11  A    between atoms: C14_13  and  N15_14 
REMARK   12  A    between atoms: N15_14  and  C17_16 
REMARK   13  A    between atoms: N15_14  and  C21_20 
REMARK   14  A    between atoms: C17_16  and  C18_17 
REMARK   15  A    between atoms: C21_20  and  C22_21 
REMARK   16  A    between atoms: C25_24  and  C26_25 
REMARK   17  A    between atoms: N29_28  and  C31_30 
REMARK   18  A    between atoms: N29_28  and  C35_34 
REMARK   19  A    between atoms: C31_30  and  C32_31 
REMARK   20  A    between atoms: C35_34  and  C36_35 
ROOT
ATOM      1  C9  ZIN A   1      19.050  -0.500  12.688  0.00  0.00     0.222 C 
ENDROOT
BRANCH   1   2
ATOM      2  C8  ZIN A   1      19.685  -1.860  12.982  0.00  0.00     0.073 C 
BRANCH   2   3
ATOM      3  C7  ZIN A   1      19.047  -2.910  12.109  0.00  0.00    -0.056 A 
ATOM      4  C6  ZIN A   1      17.671  -2.954  11.977  0.00  0.00     0.010 A 
ATOM      5  C5  ZIN A   1      17.084  -3.916  11.177  0.00  0.00     0.037 A 
ATOM      6  C4  ZIN A   1      17.876  -4.838  10.508  0.00  0.00     0.068 A 
ATOM      7  C40 ZIN A   1      19.255  -4.795  10.648  0.00  0.00     0.037 A 
ATOM      8  C39 ZIN A   1      19.838  -3.828  11.444  0.00  0.00     0.010 A 
BRANCH   6   9
ATOM      9  O3  ZIN A   1      17.300  -5.785   9.722  0.00  0.00    -0.352 OA
BRANCH   9  10
ATOM     10  C2  ZIN A   1      16.588  -5.329   8.570  0.00  0.00     0.171 C 
ATOM     11  C1  ZIN A   1      15.156  -5.868   8.608  0.00  0.00     0.034 C 
ENDBRANCH   9  10
ENDBRANCH   6   9
ENDBRANCH   2   3
ENDBRANCH   1   2
BRANCH   1  12
ATOM     12  C11 ZIN A   1      20.054   0.380  11.939  0.00  0.00     0.306 C 
BRANCH  12  13
ATOM     13  N12 ZIN A   1      19.559   0.638  10.580  0.00  0.00     0.102 N 
BRANCH  13  14
ATOM     14  C13 ZIN A   1      19.819  -0.508   9.698  0.00  0.00     0.300 C 
BRANCH  14  15
ATOM     15  C14 ZIN A   1      18.521  -0.918   9.000  0.00  0.00     0.266 C 
BRANCH  15  16
ATOM     16  N15 ZIN A   1      18.820  -1.361   7.631  0.00  0.00    -0.050 N 
ATOM     17  H16 ZIN A   1      19.794  -1.197   7.430  0.00  0.00     0.281 HD
BRANCH  16  18
ATOM     18  C17 ZIN A   1      18.527  -2.795   7.506  0.00  0.00     0.348 C 
BRANCH  18  19
ATOM     19  C18 ZIN A   1      19.167  -3.331   6.251  0.00  0.00     0.199 C 
ATOM     20  O19 ZIN A   1      20.382  -3.403   6.169  0.00  0.00    -0.647 OA
ATOM     21  O20 ZIN A   1      18.470  -3.692   5.318  0.00  0.00    -0.647 OA
ENDBRANCH  18  19
ENDBRANCH  16  18
BRANCH  16  22
ATOM     22  C21 ZIN A   1      17.991  -0.607   6.681  0.00  0.00     0.348 C 
BRANCH  22  23
ATOM     23  C22 ZIN A   1      18.863   0.334   5.890  0.00  0.00     0.199 C 
ATOM     24  O23 ZIN A   1      19.338   1.320   6.426  0.00  0.00    -0.647 OA
ATOM     25  O24 ZIN A   1      19.095   0.107   4.714  0.00  0.00    -0.647 OA
ENDBRANCH  22  23
ENDBRANCH  16  22
ENDBRANCH  15  16
ENDBRANCH  14  15
ENDBRANCH  13  14
BRANCH  13  26
ATOM     26  C25 ZIN A   1      18.129   0.976  10.596  0.00  0.00     0.385 C 
BRANCH  26  27
ATOM     27  C26 ZIN A   1      17.949   2.418  10.197  0.00  0.00     0.202 C 
ATOM     28  O27 ZIN A   1      17.101   3.101  10.744  0.00  0.00    -0.647 OA
ATOM     29  O28 ZIN A   1      18.653   2.902   9.328  0.00  0.00    -0.647 OA
ENDBRANCH  26  27
ENDBRANCH  13  26
ENDBRANCH  12  13
ENDBRANCH   1  12
BRANCH   1  30
ATOM     30  N29 ZIN A   1      18.678   0.150  13.951  0.00  0.00    -0.046 N 
ATOM     31  H30 ZIN A   1      19.507   0.500  14.407  0.00  0.00     0.281 HD
BRANCH  30  32
ATOM     32  C31 ZIN A   1      17.761   1.265  13.677  0.00  0.00     0.348 C 
BRANCH  32  33
ATOM     33  C32 ZIN A   1      18.369   2.550  14.179  0.00  0.00     0.199 C 
ATOM     34  O33 ZIN A   1      18.246   2.865  15.351  0.00  0.00    -0.647 OA
ATOM     35  O34 ZIN A   1      18.982   3.274  13.414  0.00  0.00    -0.647 OA
ENDBRANCH  32  33
ENDBRANCH  30  32
BRANCH  30  36
ATOM     36  C35 ZIN A   1      18.013  -0.825  14.827  0.00  0.00     0.348 C 
BRANCH  36  37
ATOM     37  C36 ZIN A   1      17.990  -0.297  16.239  0.00  0.00     0.199 C 
ATOM     38  O37 ZIN A   1      19.037  -0.069  16.822  0.00  0.00    -0.647 OA
ATOM     39  O38 ZIN A   1      16.925  -0.099  16.798  0.00  0.00    -0.647 OA
ENDBRANCH  36  37
ENDBRANCH  30  36
ENDBRANCH   1  30
TORSDOF 20
ENDMDL
MODEL 9
REMARK VINA RESULT:      -6.3      1.697      8.325
REMARK  20 active torsions:
REMARK  status: ('A' for Active; 'I' for Inactive)
REMARK    1  A    between atoms: C2_2  and  O3_3 
REMARK    2  A    between atoms: O3_3  and  C4_4 
REMARK    3  A    between atoms: C7_7  and  C8_8 
REMARK    4  A    between atoms: C8_8  and  C9_9 
REMARK    5  A    between atoms: C9_9  and  C11_10 
REMARK    6  A    between atoms: C9_9  and  N29_28 
REMARK    7  A    between atoms: C11_10  and  N12_11 
REMARK    8  A    between atoms: N12_11  and  C13_12 
REMARK    9  A    between atoms: N12_11  and  C25_24 
REMARK   10  A    between atoms: C13_12  and  C14_13 
REMARK   11  A    between atoms: C14_13  and  N15_14 
REMARK   12  A    between atoms: N15_14  and  C17_16 
REMARK   13  A    between atoms: N15_14  and  C21_20 
REMARK   14  A    between atoms: C17_16  and  C18_17 
REMARK   15  A    between atoms: C21_20  and  C22_21 
REMARK   16  A    between atoms: C25_24  and  C26_25 
REMARK   17  A    between atoms: N29_28  and  C31_30 
REMARK   18  A    between atoms: N29_28  and  C35_34 
REMARK   19  A    between atoms: C31_30  and  C32_31 
REMARK   20  A    between atoms: C35_34  and  C36_35 
ROOT
ATOM      1  C9  ZIN A   1      18.532  -0.835   9.275  0.00  0.00     0.222 C 
ENDROOT
BRANCH   1   2
ATOM      2  C8  ZIN A   1      19.741  -0.079   9.828  0.00  0.00     0.073 C 
BRANCH   2   3
ATOM      3  C7  ZIN A   1      19.299   1.266  10.344  0.00  0.00    -0.056 A 
ATOM      4  C6  ZIN A   1      20.143   2.007  11.152  0.00  0.00     0.010 A 
ATOM      5  C5  ZIN A   1      19.740   3.240  11.625  0.00  0.00     0.037 A 
ATOM      6  C4  ZIN A   1      18.488   3.736  11.291  0.00  0.00     0.068 A 
ATOM      7  C40 ZIN A   1      17.641   2.988  10.486  0.00  0.00     0.037 A 
ATOM      8  C39 ZIN A   1      18.051   1.758  10.010  0.00  0.00     0.010 A 
BRANCH   6   9
ATOM      9  O3  ZIN A   1      18.090   4.949  11.757  0.00  0.00    -0.352 OA
BRANCH   9  10
ATOM     10  C2  ZIN A   1      16.773   5.034  12.303  0.00  0.00     0.171 C 
ATOM     11  C1  ZIN A   1      16.811   5.837  13.606  0.00  0.00     0.034 C 
ENDBRANCH   9  10
ENDBRANCH   6   9
ENDBRANCH   2   3
ENDBRANCH   1   2
BRANCH   1  12
ATOM     12  C11 ZIN A   1      18.317  -2.115  10.086  0.00  0.00     0.306 C 
BRANCH  12  13
ATOM     13  N12 ZIN A   1      19.189  -2.099  11.268  0.00  0.00     0.102 N 
BRANCH  13  14
ATOM     14  C13 ZIN A   1      18.421  -1.806  12.486  0.00  0.00     0.300 C 
BRANCH  14  15
ATOM     15  C14 ZIN A   1      19.384  -1.599  13.657  0.00  0.00     0.266 C 
BRANCH  15  16
ATOM     16  N15 ZIN A   1      18.738  -0.764  14.679  0.00  0.00    -0.050 N 
ATOM     17  H16 ZIN A   1      17.744  -0.738  14.513  0.00  0.00     0.281 HD
BRANCH  16  18
ATOM     18  C17 ZIN A   1      18.998  -1.329  16.009  0.00  0.00     0.348 C 
BRANCH  18  19
ATOM     19  C18 ZIN A   1      18.000  -0.777  16.994  0.00  0.00     0.199 C 
ATOM     20  O19 ZIN A   1      18.388  -0.185  17.988  0.00  0.00    -0.647 OA
ATOM     21  O20 ZIN A   1      16.806  -0.920  16.798  0.00  0.00    -0.647 OA
ENDBRANCH  18  19
ENDBRANCH  16  18
BRANCH  16  22
ATOM     22  C21 ZIN A   1      19.281   0.600  14.611  0.00  0.00     0.348 C 
BRANCH  22  23
ATOM     23  C22 ZIN A   1      18.166   1.571  14.321  0.00  0.00     0.199 C 
ATOM     24  O23 ZIN A   1      18.138   2.653  14.881  0.00  0.00    -0.647 OA
ATOM     25  O24 ZIN A   1      17.290   1.273  13.526  0.00  0.00    -0.647 OA
ENDBRANCH  22  23
ENDBRANCH  16  22
ENDBRANCH  15  16
ENDBRANCH  14  15
ENDBRANCH  13  14
BRANCH  13  26
ATOM     26  C25 ZIN A   1      19.922  -3.366  11.399  0.00  0.00     0.385 C 
BRANCH  26  27
ATOM     27  C26 ZIN A   1      18.986  -4.517  11.135  0.00  0.00     0.202 C 
ATOM     28  O27 ZIN A   1      18.163  -4.839  11.974  0.00  0.00    -0.647 OA
ATOM     29  O28 ZIN A   1      19.052  -5.126  10.081  0.00  0.00    -0.647 OA
ENDBRANCH  26  27
ENDBRANCH  13  26
ENDBRANCH  12  13
ENDBRANCH   1  12
BRANCH   1  30
ATOM     30  N29 ZIN A   1      18.772  -1.181   7.868  0.00  0.00    -0.046 N 
ATOM     31  H30 ZIN A   1      19.731  -0.976   7.630  0.00  0.00     0.281 HD
BRANCH  30  32
ATOM     32  C31 ZIN A   1      18.512  -2.612   7.665  0.00  0.00     0.348 C 
BRANCH  32  33
ATOM     33  C32 ZIN A   1      19.570  -3.191   6.761  0.00  0.00     0.199 C 
ATOM     34  O33 ZIN A   1      19.806  -2.668   5.685  0.00  0.00    -0.647 OA
ATOM     35  O34 ZIN A   1      20.190  -4.183   7.105  0.00  0.00    -0.647 OA
ENDBRANCH  32  33
ENDBRANCH  30  32
BRANCH  30  36
ATOM     36  C35 ZIN A   1      17.876  -0.394   7.010  0.00  0.00     0.348 C 
BRANCH  36  37
ATOM     37  C36 ZIN A   1      18.684   0.607   6.225  0.00  0.00     0.199 C 
ATOM     38  O37 ZIN A   1      19.019   1.660   6.742  0.00  0.00    -0.647 OA
ATOM     39  O38 ZIN A   1      19.003   0.365   5.074  0.00  0.00    -0.647 OA
ENDBRANCH  36  37
ENDBRANCH  30  36
ENDBRANCH   1  30
TORSDOF 20
ENDMDL
