MODEL 1
REMARK VINA RESULT:      -6.0      0.000      0.000
REMARK  7 active torsions:
REMARK  status: ('A' for Active; 'I' for Inactive)
REMARK    1  A    between atoms: N1_1  and  C5_5 
REMARK    2  A    between atoms: C5_5  and  C7_6 
REMARK    3  A    between atoms: C5_5  and  C10_9 
REMARK    4  A    between atoms: C10_9  and  O12_10 
REMARK    5  A    between atoms: C10_9  and  C13_11 
REMARK    6  A    between atoms: C16_14  and  O17_15 
REMARK    7  A    between atoms: C18_16  and  O19_17 
ROOT
ATOM      1  C10 ZIN A   1      18.660  -1.287   7.783  0.00  0.00     0.192 C 
ENDROOT
BRANCH   1   2
ATOM      2  C5  ZIN A   1      18.553  -0.711   6.369  0.00  0.00     0.316 C 
BRANCH   2   3
ATOM      3  N1  ZIN A   1      17.159  -0.786   5.915  0.00  0.00    -0.062 N 
ATOM      4  H2  ZIN A   1      16.721  -1.608   6.303  0.00  0.00     0.275 HD
ATOM      5  H3  ZIN A   1      17.135  -0.838   4.907  0.00  0.00     0.275 HD
ATOM      6  H4  ZIN A   1      16.660   0.037   6.220  0.00  0.00     0.275 HD
ENDBRANCH   2   3
BRANCH   2   7
ATOM      7  C7  ZIN A   1      19.429  -1.503   5.435  0.00  0.00     0.207 C 
ATOM      8  O8  ZIN A   1      19.739  -2.649   5.715  0.00  0.00    -0.646 OA
ATOM      9  O9  ZIN A   1      19.830  -1.000   4.399  0.00  0.00    -0.646 OA
ENDBRANCH   2   7
ENDBRANCH   1   2
BRANCH   1  10
ATOM     10  O12 ZIN A   1      17.774  -2.401   7.912  0.00  0.00    -0.388 OA
ATOM     11  H21 ZIN A   1      18.163  -3.245   7.645  0.00  0.00     0.210 HD
ENDBRANCH   1  10
BRANCH   1  12
ATOM     12  C13 ZIN A   1      18.285  -0.228   8.787  0.00  0.00    -0.024 A 
ATOM     13  C20 ZIN A   1      17.384  -0.522   9.795  0.00  0.00     0.049 A 
ATOM     14  C18 ZIN A   1      17.042   0.449  10.722  0.00  0.00     0.099 A 
ATOM     15  C16 ZIN A   1      17.598   1.723  10.629  0.00  0.00     0.098 A 
ATOM     16  C15 ZIN A   1      18.494   2.011   9.614  0.00  0.00     0.040 A 
ATOM     17  C14 ZIN A   1      18.836   1.036   8.695  0.00  0.00     0.013 A 
BRANCH  14  18
ATOM     18  O19 ZIN A   1      16.161   0.161  11.716  0.00  0.00    -0.358 OA
ATOM     19  H25 ZIN A   1      15.233   0.202  11.444  0.00  0.00     0.217 HD
ENDBRANCH  14  18
BRANCH  15  20
ATOM     20  O17 ZIN A   1      17.260   2.680  11.533  0.00  0.00    -0.358 OA
ATOM     21  H24 ZIN A   1      16.856   3.466  11.142  0.00  0.00     0.217 HD
ENDBRANCH  15  20
ENDBRANCH   1  12
TORSDOF 7
ENDMDL
MODEL 2
REMARK VINA RESULT:      -5.8      5.272      8.304
REMARK  7 active torsions:
REMARK  status: ('A' for Active; 'I' for Inactive)
REMARK    1  A    between atoms: N1_1  and  C5_5 
REMARK    2  A    between atoms: C5_5  and  C7_6 
REMARK    3  A    between atoms: C5_5  and  C10_9 
REMARK    4  A    between atoms: C10_9  and  O12_10 
REMARK    5  A    between atoms: C10_9  and  C13_11 
REMARK    6  A    between atoms: C16_14  and  O17_15 
REMARK    7  A    between atoms: C18_16  and  O19_17 
ROOT
ATOM      1  C10 ZIN A   1      18.701   1.361  15.211  0.00  0.00     0.192 C 
ENDROOT
BRANCH   1   2
ATOM      2  C5  ZIN A   1      18.617   0.718  16.597  0.00  0.00     0.316 C 
BRANCH   2   3
ATOM      3  N1  ZIN A   1      17.214   0.670  17.030  0.00  0.00    -0.062 N 
ATOM      4  H2  ZIN A   1      17.122   0.029  17.804  0.00  0.00     0.275 HD
ATOM      5  H3  ZIN A   1      16.636   0.357  16.264  0.00  0.00     0.275 HD
ATOM      6  H4  ZIN A   1      16.919   1.590  17.319  0.00  0.00     0.275 HD
ENDBRANCH   2   3
BRANCH   2   7
ATOM      7  C7  ZIN A   1      19.417   1.534  17.578  0.00  0.00     0.207 C 
ATOM      8  O8  ZIN A   1      19.846   1.015  18.596  0.00  0.00    -0.646 OA
ATOM      9  O9  ZIN A   1      19.637   2.712  17.356  0.00  0.00    -0.646 OA
ENDBRANCH   2   7
ENDBRANCH   1   2
BRANCH   1  10
ATOM     10  O12 ZIN A   1      17.816   2.481  15.150  0.00  0.00    -0.388 OA
ATOM     11  H21 ZIN A   1      17.861   3.059  15.925  0.00  0.00     0.210 HD
ENDBRANCH   1  10
BRANCH   1  12
ATOM     12  C13 ZIN A   1      18.304   0.351  14.165  0.00  0.00    -0.024 A 
ATOM     13  C20 ZIN A   1      17.356   0.681  13.213  0.00  0.00     0.049 A 
ATOM     14  C18 ZIN A   1      16.994  -0.244  12.247  0.00  0.00     0.099 A 
ATOM     15  C16 ZIN A   1      17.578  -1.508  12.245  0.00  0.00     0.098 A 
ATOM     16  C15 ZIN A   1      18.521  -1.833  13.204  0.00  0.00     0.040 A 
ATOM     17  C14 ZIN A   1      18.883  -0.904  14.162  0.00  0.00     0.013 A 
BRANCH  14  18
ATOM     18  O19 ZIN A   1      16.066   0.080  11.307  0.00  0.00    -0.358 OA
ATOM     19  H25 ZIN A   1      16.424   0.570  10.554  0.00  0.00     0.217 HD
ENDBRANCH  14  18
BRANCH  15  20
ATOM     20  O17 ZIN A   1      17.220  -2.421  11.302  0.00  0.00    -0.358 OA
ATOM     21  H24 ZIN A   1      16.799  -3.214  11.662  0.00  0.00     0.217 HD
ENDBRANCH  15  20
ENDBRANCH   1  12
TORSDOF 7
ENDMDL
MODEL 3
REMARK VINA RESULT:      -5.8      1.840      5.567
REMARK  7 active torsions:
REMARK  status: ('A' for Active; 'I' for Inactive)
REMARK    1  A    between atoms: N1_1  and  C5_5 
REMARK    2  A    between atoms: C5_5  and  C7_6 
REMARK    3  A    between atoms: C5_5  and  C10_9 
REMARK    4  A    between atoms: C10_9  and  O12_10 
REMARK    5  A    between atoms: C10_9  and  C13_11 
REMARK    6  A    between atoms: C16_14  and  O17_15 
REMARK    7  A    between atoms: C18_16  and  O19_17 
ROOT
ATOM      1  C10 ZIN A   1      17.850   0.392   9.035  0.00  0.00     0.192 C 
ENDROOT
BRANCH   1   2
ATOM      2  C5  ZIN A   1      18.496   1.752   9.310  0.00  0.00     0.316 C 
BRANCH   2   3
ATOM      3  N1  ZIN A   1      19.884   1.556   9.745  0.00  0.00    -0.062 N 
ATOM      4  H2  ZIN A   1      20.504   2.069   9.137  0.00  0.00     0.275 HD
ATOM      5  H3  ZIN A   1      20.113   0.574   9.708  0.00  0.00     0.275 HD
ATOM      6  H4  ZIN A   1      19.990   1.890  10.692  0.00  0.00     0.275 HD
ENDBRANCH   2   3
BRANCH   2   7
ATOM      7  C7  ZIN A   1      17.726   2.465  10.390  0.00  0.00     0.207 C 
ATOM      8  O8  ZIN A   1      17.674   3.683  10.400  0.00  0.00    -0.646 OA
ATOM      9  O9  ZIN A   1      17.155   1.824  11.256  0.00  0.00    -0.646 OA
ENDBRANCH   2   7
ENDBRANCH   1   2
BRANCH   1  10
ATOM     10  O12 ZIN A   1      18.202  -0.521  10.076  0.00  0.00    -0.388 OA
ATOM     11  H21 ZIN A   1      17.516  -1.174  10.274  0.00  0.00     0.210 HD
ENDBRANCH   1  10
BRANCH   1  12
ATOM     12  C13 ZIN A   1      18.342  -0.139   7.713  0.00  0.00    -0.024 A 
ATOM     13  C20 ZIN A   1      18.928  -1.390   7.648  0.00  0.00     0.049 A 
ATOM     14  C18 ZIN A   1      19.376  -1.882   6.433  0.00  0.00     0.099 A 
ATOM     15  C16 ZIN A   1      19.243  -1.110   5.281  0.00  0.00     0.098 A 
ATOM     16  C15 ZIN A   1      18.661   0.143   5.355  0.00  0.00     0.040 A 
ATOM     17  C14 ZIN A   1      18.211   0.627   6.570  0.00  0.00     0.013 A 
BRANCH  14  18
ATOM     18  O19 ZIN A   1      19.947  -3.114   6.365  0.00  0.00    -0.358 OA
ATOM     19  H25 ZIN A   1      19.599  -3.745   7.011  0.00  0.00     0.217 HD
ENDBRANCH  14  18
BRANCH  15  20
ATOM     20  O17 ZIN A   1      19.687  -1.587   4.088  0.00  0.00    -0.358 OA
ATOM     21  H24 ZIN A   1      20.648  -1.559   3.985  0.00  0.00     0.217 HD
ENDBRANCH  15  20
ENDBRANCH   1  12
TORSDOF 7
ENDMDL
MODEL 4
REMARK VINA RESULT:      -5.7      3.422      5.774
REMARK  7 active torsions:
REMARK  status: ('A' for Active; 'I' for Inactive)
REMARK    1  A    between atoms: N1_1  and  C5_5 
REMARK    2  A    between atoms: C5_5  and  C7_6 
REMARK    3  A    between atoms: C5_5  and  C10_9 
REMARK    4  A    between atoms: C10_9  and  O12_10 
REMARK    5  A    between atoms: C10_9  and  C13_11 
REMARK    6  A    between atoms: C16_14  and  O17_15 
REMARK    7  A    between atoms: C18_16  and  O19_17 
ROOT
ATOM      1  C10 ZIN A   1      19.778  -0.595  11.322  0.00  0.00     0.192 C 
ENDROOT
BRANCH   1   2
ATOM      2  C5  ZIN A   1      20.231   0.544  12.239  0.00  0.00     0.316 C 
BRANCH   2   3
ATOM      3  N1  ZIN A   1      21.694   0.661  12.187  0.00  0.00    -0.062 N 
ATOM      4  H2  ZIN A   1      21.948   1.466  11.634  0.00  0.00     0.275 HD
ATOM      5  H3  ZIN A   1      22.084  -0.170  11.769  0.00  0.00     0.275 HD
ATOM      6  H4  ZIN A   1      22.056   0.769  13.123  0.00  0.00     0.275 HD
ENDBRANCH   2   3
BRANCH   2   7
ATOM      7  C7  ZIN A   1      19.799   0.254  13.652  0.00  0.00     0.207 C 
ATOM      8  O8  ZIN A   1      19.487   1.169  14.395  0.00  0.00    -0.646 OA
ATOM      9  O9  ZIN A   1      19.763  -0.897  14.055  0.00  0.00    -0.646 OA
ENDBRANCH   2   7
ENDBRANCH   1   2
BRANCH   1  10
ATOM     10  O12 ZIN A   1      20.806  -1.584  11.247  0.00  0.00    -0.388 OA
ATOM     11  H21 ZIN A   1      20.476  -2.492  11.212  0.00  0.00     0.210 HD
ENDBRANCH   1  10
BRANCH   1  12
ATOM     12  C13 ZIN A   1      19.503  -0.051   9.944  0.00  0.00    -0.024 A 
ATOM     13  C20 ZIN A   1      19.472  -0.908   8.858  0.00  0.00     0.049 A 
ATOM     14  C18 ZIN A   1      19.214  -0.410   7.591  0.00  0.00     0.099 A 
ATOM     15  C16 ZIN A   1      18.997   0.954   7.413  0.00  0.00     0.098 A 
ATOM     16  C15 ZIN A   1      19.035   1.806   8.503  0.00  0.00     0.040 A 
ATOM     17  C14 ZIN A   1      19.288   1.303   9.767  0.00  0.00     0.013 A 
BRANCH  14  18
ATOM     18  O19 ZIN A   1      19.178  -1.251   6.523  0.00  0.00    -0.358 OA
ATOM     19  H25 ZIN A   1      19.956  -1.192   5.950  0.00  0.00     0.217 HD
ENDBRANCH  14  18
BRANCH  15  20
ATOM     20  O17 ZIN A   1      18.750   1.447   6.170  0.00  0.00    -0.358 OA
ATOM     21  H24 ZIN A   1      19.180   2.294   5.990  0.00  0.00     0.217 HD
ENDBRANCH  15  20
ENDBRANCH   1  12
TORSDOF 7
ENDMDL
MODEL 5
REMARK VINA RESULT:      -5.6      4.134      5.451
REMARK  7 active torsions:
REMARK  status: ('A' for Active; 'I' for Inactive)
REMARK    1  A    between atoms: N1_1  and  C5_5 
REMARK    2  A    between atoms: C5_5  and  C7_6 
REMARK    3  A    between atoms: C5_5  and  C10_9 
REMARK    4  A    between atoms: C10_9  and  O12_10 
REMARK    5  A    between atoms: C10_9  and  C13_11 
REMARK    6  A    between atoms: C16_14  and  O17_15 
REMARK    7  A    between atoms: C18_16  and  O19_17 
ROOT
ATOM      1  C10 ZIN A   1      20.373   0.887  12.081  0.00  0.00     0.192 C 
ENDROOT
BRANCH   1   2
ATOM      2  C5  ZIN A   1      19.919   0.131  10.830  0.00  0.00     0.316 C 
BRANCH   2   3
ATOM      3  N1  ZIN A   1      21.089  -0.447  10.157  0.00  0.00    -0.062 N 
ATOM      4  H2  ZIN A   1      21.465  -1.197  10.719  0.00  0.00     0.275 HD
ATOM      5  H3  ZIN A   1      21.793   0.265  10.033  0.00  0.00     0.275 HD
ATOM      6  H4  ZIN A   1      20.814  -0.809   9.255  0.00  0.00     0.275 HD
ENDBRANCH   2   3
BRANCH   2   7
ATOM      7  C7  ZIN A   1      19.220   1.081   9.894  0.00  0.00     0.207 C 
ATOM      8  O8  ZIN A   1      18.295   1.765  10.298  0.00  0.00    -0.646 OA
ATOM      9  O9  ZIN A   1      19.578   1.167   8.731  0.00  0.00    -0.646 OA
ENDBRANCH   2   7
ENDBRANCH   1   2
BRANCH   1  10
ATOM     10  O12 ZIN A   1      21.768   0.662  12.295  0.00  0.00    -0.388 OA
ATOM     11  H21 ZIN A   1      21.961  -0.103  12.854  0.00  0.00     0.210 HD
ENDBRANCH   1  10
BRANCH   1  12
ATOM     12  C13 ZIN A   1      19.596   0.394  13.275  0.00  0.00    -0.024 A 
ATOM     13  C20 ZIN A   1      19.097   1.299  14.194  0.00  0.00     0.049 A 
ATOM     14  C18 ZIN A   1      18.378   0.848  15.289  0.00  0.00     0.099 A 
ATOM     15  C16 ZIN A   1      18.169  -0.517  15.467  0.00  0.00     0.098 A 
ATOM     16  C15 ZIN A   1      18.677  -1.417  14.545  0.00  0.00     0.040 A 
ATOM     17  C14 ZIN A   1      19.389  -0.960  13.451  0.00  0.00     0.013 A 
BRANCH  14  18
ATOM     18  O19 ZIN A   1      17.882   1.736  16.191  0.00  0.00    -0.358 OA
ATOM     19  H25 ZIN A   1      18.262   2.623  16.119  0.00  0.00     0.217 HD
ENDBRANCH  14  18
BRANCH  15  20
ATOM     20  O17 ZIN A   1      17.470  -0.964  16.543  0.00  0.00    -0.358 OA
ATOM     21  H24 ZIN A   1      16.520  -0.787  16.497  0.00  0.00     0.217 HD
ENDBRANCH  15  20
ENDBRANCH   1  12
TORSDOF 7
ENDMDL
MODEL 6
REMARK VINA RESULT:      -5.6      5.880      8.799
REMARK  7 active torsions:
REMARK  status: ('A' for Active; 'I' for Inactive)
REMARK    1  A    between atoms: N1_1  and  C5_5 
REMARK    2  A    between atoms: C5_5  and  C7_6 
REMARK    3  A    between atoms: C5_5  and  C10_9 
REMARK    4  A    between atoms: C10_9  and  O12_10 
REMARK    5  A    between atoms: C10_9  and  C13_11 
REMARK    6  A    between atoms: C16_14  and  O17_15 
REMARK    7  A    between atoms: C18_16  and  O19_17 
ROOT
ATOM      1  C10 ZIN A   1      18.293   0.835  15.768  0.00  0.00     0.192 C 
ENDROOT
BRANCH   1   2
ATOM      2  C5  ZIN A   1      19.189   0.503  16.963  0.00  0.00     0.316 C 
BRANCH   2   3
ATOM      3  N1  ZIN A   1      18.995  -0.902  17.345  0.00  0.00    -0.062 N 
ATOM      4  H2  ZIN A   1      19.524  -1.100  18.180  0.00  0.00     0.275 HD
ATOM      5  H3  ZIN A   1      19.311  -1.501  16.597  0.00  0.00     0.275 HD
ATOM      6  H4  ZIN A   1      18.015  -1.071  17.520  0.00  0.00     0.275 HD
ENDBRANCH   2   3
BRANCH   2   7
ATOM      7  C7  ZIN A   1      18.831   1.393  18.123  0.00  0.00     0.207 C 
ATOM      8  O8  ZIN A   1      17.689   1.410  18.549  0.00  0.00    -0.646 OA
ATOM      9  O9  ZIN A   1      19.684   2.099  18.636  0.00  0.00    -0.646 OA
ENDBRANCH   2   7
ENDBRANCH   1   2
BRANCH   1  10
ATOM     10  O12 ZIN A   1      16.974   0.339  16.009  0.00  0.00    -0.388 OA
ATOM     11  H21 ZIN A   1      16.346   0.533  15.300  0.00  0.00     0.210 HD
ENDBRANCH   1  10
BRANCH   1  12
ATOM     12  C13 ZIN A   1      18.852   0.191  14.526  0.00  0.00    -0.024 A 
ATOM     13  C20 ZIN A   1      19.974   0.724  13.917  0.00  0.00     0.049 A 
ATOM     14  C18 ZIN A   1      20.492   0.130  12.778  0.00  0.00     0.099 A 
ATOM     15  C16 ZIN A   1      19.875  -0.998  12.243  0.00  0.00     0.098 A 
ATOM     16  C15 ZIN A   1      18.749  -1.522  12.854  0.00  0.00     0.040 A 
ATOM     17  C14 ZIN A   1      18.239  -0.928  13.994  0.00  0.00     0.013 A 
BRANCH  14  18
ATOM     18  O19 ZIN A   1      21.598   0.650  12.182  0.00  0.00    -0.358 OA
ATOM     19  H25 ZIN A   1      22.419   0.486  12.667  0.00  0.00     0.217 HD
ENDBRANCH  14  18
BRANCH  15  20
ATOM     20  O17 ZIN A   1      20.377  -1.581  11.122  0.00  0.00    -0.358 OA
ATOM     21  H24 ZIN A   1      20.842  -2.412  11.285  0.00  0.00     0.217 HD
ENDBRANCH  15  20
ENDBRANCH   1  12
TORSDOF 7
ENDMDL
MODEL 7
REMARK VINA RESULT:      -5.6      2.216      2.439
REMARK  7 active torsions:
REMARK  status: ('A' for Active; 'I' for Inactive)
REMARK    1  A    between atoms: N1_1  and  C5_5 
REMARK    2  A    between atoms: C5_5  and  C7_6 
REMARK    3  A    between atoms: C5_5  and  C10_9 
REMARK    4  A    between atoms: C10_9  and  O12_10 
REMARK    5  A    between atoms: C10_9  and  C13_11 
REMARK    6  A    between atoms: C16_14  and  O17_15 
REMARK    7  A    between atoms: C18_16  and  O19_17 
ROOT
ATOM      1  C10 ZIN A   1      18.116  -0.945   7.537  0.00  0.00     0.192 C 
ENDROOT
BRANCH   1   2
ATOM      2  C5  ZIN A   1      19.088  -0.486   6.447  0.00  0.00     0.316 C 
BRANCH   2   3
ATOM      3  N1  ZIN A   1      18.815   0.916   6.107  0.00  0.00    -0.062 N 
ATOM      4  H2  ZIN A   1      17.827   1.037   5.944  0.00  0.00     0.275 HD
ATOM      5  H3  ZIN A   1      19.326   1.166   5.273  0.00  0.00     0.275 HD
ATOM      6  H4  ZIN A   1      19.106   1.510   6.869  0.00  0.00     0.275 HD
ENDBRANCH   2   3
BRANCH   2   7
ATOM      7  C7  ZIN A   1      18.912  -1.344   5.222  0.00  0.00     0.207 C 
ATOM      8  O8  ZIN A   1      17.879  -1.974   5.062  0.00  0.00    -0.646 OA
ATOM      9  O9  ZIN A   1      19.801  -1.411   4.391  0.00  0.00    -0.646 OA
ENDBRANCH   2   7
ENDBRANCH   1   2
BRANCH   1  10
ATOM     10  O12 ZIN A   1      16.819  -0.404   7.277  0.00  0.00    -0.388 OA
ATOM     11  H21 ZIN A   1      16.239  -0.997   6.780  0.00  0.00     0.210 HD
ENDBRANCH   1  10
BRANCH   1  12
ATOM     12  C13 ZIN A   1      18.602  -0.461   8.879  0.00  0.00    -0.024 A 
ATOM     13  C20 ZIN A   1      19.891  -0.749   9.291  0.00  0.00     0.049 A 
ATOM     14  C18 ZIN A   1      20.340  -0.301  10.522  0.00  0.00     0.099 A 
ATOM     15  C16 ZIN A   1      19.489   0.430  11.347  0.00  0.00     0.098 A 
ATOM     16  C15 ZIN A   1      18.199   0.709  10.930  0.00  0.00     0.040 A 
ATOM     17  C14 ZIN A   1      17.757   0.263   9.698  0.00  0.00     0.013 A 
BRANCH  14  18
ATOM     18  O19 ZIN A   1      21.609  -0.578  10.926  0.00  0.00    -0.358 OA
ATOM     19  H25 ZIN A   1      21.902  -0.057  11.687  0.00  0.00     0.217 HD
ENDBRANCH  14  18
BRANCH  15  20
ATOM     20  O17 ZIN A   1      19.924   0.867  12.558  0.00  0.00    -0.358 OA
ATOM     21  H24 ZIN A   1      20.284   0.169  13.123  0.00  0.00     0.217 HD
ENDBRANCH  15  20
ENDBRANCH   1  12
TORSDOF 7
ENDMDL
MODEL 8
REMARK VINA RESULT:      -5.6      5.466      7.197
REMARK  7 active torsions:
REMARK  status: ('A' for Active; 'I' for Inactive)
REMARK    1  A    between atoms: N1_1  and  C5_5 
REMARK    2  A    between atoms: C5_5  and  C7_6 
REMARK    3  A    between atoms: C5_5  and  C10_9 
REMARK    4  A    between atoms: C10_9  and  O12_10 
REMARK    5  A    between atoms: C10_9  and  C13_11 
REMARK    6  A    between atoms: C16_14  and  O17_15 
REMARK    7  A    between atoms: C18_16  and  O19_17 
ROOT
ATOM      1  C10 ZIN A   1      17.885  -0.003  13.956  0.00  0.00     0.192 C 
ENDROOT
BRANCH   1   2
ATOM      2  C5  ZIN A   1      18.474  -1.400  13.748  0.00  0.00     0.316 C 
BRANCH   2   3
ATOM      3  N1  ZIN A   1      19.938  -1.308  13.671  0.00  0.00    -0.062 N 
ATOM      4  H2  ZIN A   1      20.242  -0.433  14.072  0.00  0.00     0.275 HD
ATOM      5  H3  ZIN A   1      20.228  -1.354  12.705  0.00  0.00     0.275 HD
ATOM      6  H4  ZIN A   1      20.351  -2.074  14.183  0.00  0.00     0.275 HD
ENDBRANCH   2   3
BRANCH   2   7
ATOM      7  C7  ZIN A   1      17.940  -1.986  12.468  0.00  0.00     0.207 C 
ATOM      8  O8  ZIN A   1      18.496  -2.942  11.955  0.00  0.00    -0.646 OA
ATOM      9  O9  ZIN A   1      16.950  -1.504  11.943  0.00  0.00    -0.646 OA
ENDBRANCH   2   7
ENDBRANCH   1   2
BRANCH   1  10
ATOM     10  O12 ZIN A   1      18.344   0.866  12.919  0.00  0.00    -0.388 OA
ATOM     11  H21 ZIN A   1      19.173   0.585  12.509  0.00  0.00     0.210 HD
ENDBRANCH   1  10
BRANCH   1  12
ATOM     12  C13 ZIN A   1      18.327   0.534  15.293  0.00  0.00    -0.024 A 
ATOM     13  C20 ZIN A   1      19.034   1.721  15.360  0.00  0.00     0.049 A 
ATOM     14  C18 ZIN A   1      19.436   2.219  16.588  0.00  0.00     0.099 A 
ATOM     15  C16 ZIN A   1      19.135   1.517  17.753  0.00  0.00     0.098 A 
ATOM     16  C15 ZIN A   1      18.432   0.327  17.678  0.00  0.00     0.040 A 
ATOM     17  C14 ZIN A   1      18.029  -0.163  16.449  0.00  0.00     0.013 A 
BRANCH  14  18
ATOM     18  O19 ZIN A   1      20.126   3.389  16.656  0.00  0.00    -0.358 OA
ATOM     19  H25 ZIN A   1      19.582   4.153  16.891  0.00  0.00     0.217 HD
ENDBRANCH  14  18
BRANCH  15  20
ATOM     20  O17 ZIN A   1      19.533   2.000  18.960  0.00  0.00    -0.358 OA
ATOM     21  H24 ZIN A   1      18.913   1.820  19.680  0.00  0.00     0.217 HD
ENDBRANCH  15  20
ENDBRANCH   1  12
TORSDOF 7
ENDMDL
MODEL 9
REMARK VINA RESULT:      -5.5      5.418      7.667
REMARK  7 active torsions:
REMARK  status: ('A' for Active; 'I' for Inactive)
REMARK    1  A    between atoms: N1_1  and  C5_5 
REMARK    2  A    between atoms: C5_5  and  C7_6 
REMARK    3  A    between atoms: C5_5  and  C10_9 
REMARK    4  A    between atoms: C10_9  and  O12_10 
REMARK    5  A    between atoms: C10_9  and  C13_11 
REMARK    6  A    between atoms: C16_14  and  O17_15 
REMARK    7  A    between atoms: C18_16  and  O19_17 
ROOT
ATOM      1  C10 ZIN A   1      18.375   2.667  14.212  0.00  0.00     0.192 C 
ENDROOT
BRANCH   1   2
ATOM      2  C5  ZIN A   1      18.618   1.885  12.919  0.00  0.00     0.316 C 
BRANCH   2   3
ATOM      3  N1  ZIN A   1      19.955   2.199  12.400  0.00  0.00    -0.062 N 
ATOM      4  H2  ZIN A   1      20.454   2.761  13.073  0.00  0.00     0.275 HD
ATOM      5  H3  ZIN A   1      19.868   2.710  11.534  0.00  0.00     0.275 HD
ATOM      6  H4  ZIN A   1      20.462   1.342  12.235  0.00  0.00     0.275 HD
ENDBRANCH   2   3
BRANCH   2   7
ATOM      7  C7  ZIN A   1      17.579   2.268  11.897  0.00  0.00     0.207 C 
ATOM      8  O8  ZIN A   1      17.084   1.414  11.181  0.00  0.00    -0.646 OA
ATOM      9  O9  ZIN A   1      17.234   3.432  11.785  0.00  0.00    -0.646 OA
ENDBRANCH   2   7
ENDBRANCH   1   2
BRANCH   1  10
ATOM     10  O12 ZIN A   1      19.245   3.801  14.253  0.00  0.00    -0.388 OA
ATOM     11  H21 ZIN A   1      18.817   4.633  14.007  0.00  0.00     0.210 HD
ENDBRANCH   1  10
BRANCH   1  12
ATOM     12  C13 ZIN A   1      18.653   1.778  15.396  0.00  0.00    -0.024 A 
ATOM     13  C20 ZIN A   1      19.030   2.336  16.605  0.00  0.00     0.049 A 
ATOM     14  C18 ZIN A   1      19.280   1.521  17.696  0.00  0.00     0.099 A 
ATOM     15  C16 ZIN A   1      19.163   0.139  17.570  0.00  0.00     0.098 A 
ATOM     16  C15 ZIN A   1      18.792  -0.413  16.356  0.00  0.00     0.040 A 
ATOM     17  C14 ZIN A   1      18.538   0.406  15.271  0.00  0.00     0.013 A 
BRANCH  14  18
ATOM     18  O19 ZIN A   1      19.645   2.068  18.886  0.00  0.00    -0.358 OA
ATOM     19  H25 ZIN A   1      20.363   2.713  18.818  0.00  0.00     0.217 HD
ENDBRANCH  14  18
BRANCH  15  20
ATOM     20  O17 ZIN A   1      19.414  -0.666  18.637  0.00  0.00    -0.358 OA
ATOM     21  H24 ZIN A   1      19.334  -0.222  19.492  0.00  0.00     0.217 HD
ENDBRANCH  15  20
ENDBRANCH   1  12
TORSDOF 7
ENDMDL
