MODEL 1
REMARK VINA RESULT:      -4.8      0.000      0.000
REMARK  3 active torsions:
REMARK  status: ('A' for Active; 'I' for Inactive)
REMARK    1  A    between atoms: N2_2  and  C4_4 
REMARK    2  A    between atoms: C6_6  and  N7_7 
REMARK    3  A    between atoms: C11_11  and  N12_12 
ROOT
ATOM      1  C4  ZIN A   1      18.978  -2.271   9.650  0.00  0.00     0.755 A 
ATOM      2  N5  ZIN A   1      19.074  -3.213   8.715  0.00  0.00     0.131 NA
ATOM      3  C6  ZIN A   1      19.190  -2.869   7.436  0.00  0.00     0.755 A 
ATOM      4  N10 ZIN A   1      19.206  -1.585   7.091  0.00  0.00     0.131 NA
ATOM      5  C11 ZIN A   1      19.109  -0.645   8.025  0.00  0.00     0.755 A 
ATOM      6  N15 ZIN A   1      18.989  -0.988   9.304  0.00  0.00     0.131 NA
ENDROOT
BRANCH   1   7
ATOM      7  N2  ZIN A   1      18.858  -2.628  10.978  0.00  0.00    -0.222 N 
ATOM      8  C1  ZIN A   1      17.717  -2.150  11.764  0.00  0.00     0.168 C 
ATOM      9  C3  ZIN A   1      19.870  -3.484  11.601  0.00  0.00     0.168 C 
ENDBRANCH   1   7
BRANCH   5  10
ATOM     10  N12 ZIN A   1      19.126   0.688   7.668  0.00  0.00    -0.222 N 
ATOM     11  C13 ZIN A   1      18.946   1.072   6.265  0.00  0.00     0.168 C 
ATOM     12  C14 ZIN A   1      19.324   1.718   8.690  0.00  0.00     0.168 C 
ENDBRANCH   5  10
BRANCH   3  13
ATOM     13  N7  ZIN A   1      19.291  -3.846   6.466  0.00  0.00    -0.222 N 
ATOM     14  C8  ZIN A   1      19.811  -5.171   6.813  0.00  0.00     0.168 C 
ATOM     15  C9  ZIN A   1      18.880  -3.557   5.091  0.00  0.00     0.168 C 
ENDBRANCH   3  13
TORSDOF 3
ENDMDL
MODEL 2
REMARK VINA RESULT:      -4.8      1.715      3.321
REMARK  3 active torsions:
REMARK  status: ('A' for Active; 'I' for Inactive)
REMARK    1  A    between atoms: N2_2  and  C4_4 
REMARK    2  A    between atoms: C6_6  and  N7_7 
REMARK    3  A    between atoms: C11_11  and  N12_12 
ROOT
ATOM      1  C4  ZIN A   1      19.188  -0.511   8.849  0.00  0.00     0.755 A 
ATOM      2  N5  ZIN A   1      18.945  -1.683   9.430  0.00  0.00     0.131 NA
ATOM      3  C6  ZIN A   1      18.761  -2.768   8.684  0.00  0.00     0.755 A 
ATOM      4  N10 ZIN A   1      18.818  -2.682   7.358  0.00  0.00     0.131 NA
ATOM      5  C11 ZIN A   1      19.061  -1.511   6.779  0.00  0.00     0.755 A 
ATOM      6  N15 ZIN A   1      19.240  -0.424   7.524  0.00  0.00     0.131 NA
ENDROOT
BRANCH   1   7
ATOM      7  N2  ZIN A   1      19.379   0.615   9.623  0.00  0.00    -0.222 N 
ATOM      8  C1  ZIN A   1      19.737   0.479  11.038  0.00  0.00     0.168 C 
ATOM      9  C3  ZIN A   1      19.224   1.947   9.032  0.00  0.00     0.168 C 
ENDBRANCH   1   7
BRANCH   5  10
ATOM     10  N12 ZIN A   1      19.120  -1.420   5.403  0.00  0.00    -0.222 N 
ATOM     11  C13 ZIN A   1      19.323  -0.118   4.763  0.00  0.00     0.168 C 
ATOM     12  C14 ZIN A   1      18.982  -2.626   4.583  0.00  0.00     0.168 C 
ENDBRANCH   5  10
BRANCH   3  13
ATOM     13  N7  ZIN A   1      18.509  -3.984   9.286  0.00  0.00    -0.222 N 
ATOM     14  C8  ZIN A   1      19.563  -4.654  10.052  0.00  0.00     0.168 C 
ATOM     15  C9  ZIN A   1      17.189  -4.605   9.158  0.00  0.00     0.168 C 
ENDBRANCH   3  13
TORSDOF 3
ENDMDL
MODEL 3
REMARK VINA RESULT:      -4.8      1.710      3.989
REMARK  3 active torsions:
REMARK  status: ('A' for Active; 'I' for Inactive)
REMARK    1  A    between atoms: N2_2  and  C4_4 
REMARK    2  A    between atoms: C6_6  and  N7_7 
REMARK    3  A    between atoms: C11_11  and  N12_12 
ROOT
ATOM      1  C4  ZIN A   1      19.189  -0.507   8.861  0.00  0.00     0.755 A 
ATOM      2  N5  ZIN A   1      19.242  -0.414   7.535  0.00  0.00     0.131 NA
ATOM      3  C6  ZIN A   1      19.046  -1.495   6.786  0.00  0.00     0.755 A 
ATOM      4  N10 ZIN A   1      18.798  -2.668   7.362  0.00  0.00     0.131 NA
ATOM      5  C11 ZIN A   1      18.745  -2.760   8.687  0.00  0.00     0.755 A 
ATOM      6  N15 ZIN A   1      18.946  -1.680   9.437  0.00  0.00     0.131 NA
ENDROOT
BRANCH   1   7
ATOM      7  N2  ZIN A   1      19.393   0.615   9.639  0.00  0.00    -0.222 N 
ATOM      8  C1  ZIN A   1      19.776   0.470  11.046  0.00  0.00     0.168 C 
ATOM      9  C3  ZIN A   1      19.226   1.950   9.059  0.00  0.00     0.168 C 
ENDBRANCH   1   7
BRANCH   5  10
ATOM     10  N12 ZIN A   1      18.487  -3.976   9.285  0.00  0.00    -0.222 N 
ATOM     11  C13 ZIN A   1      19.507  -4.609  10.126  0.00  0.00     0.168 C 
ATOM     12  C14 ZIN A   1      17.195  -4.636   9.078  0.00  0.00     0.168 C 
ENDBRANCH   5  10
BRANCH   3  13
ATOM     13  N7  ZIN A   1      19.100  -1.400   5.410  0.00  0.00    -0.222 N 
ATOM     14  C8  ZIN A   1      19.311  -0.096   4.775  0.00  0.00     0.168 C 
ATOM     15  C9  ZIN A   1      18.947  -2.601   4.587  0.00  0.00     0.168 C 
ENDBRANCH   3  13
TORSDOF 3
ENDMDL
MODEL 4
REMARK VINA RESULT:      -4.7      1.889      3.051
REMARK  3 active torsions:
REMARK  status: ('A' for Active; 'I' for Inactive)
REMARK    1  A    between atoms: N2_2  and  C4_4 
REMARK    2  A    between atoms: C6_6  and  N7_7 
REMARK    3  A    between atoms: C11_11  and  N12_12 
ROOT
ATOM      1  C4  ZIN A   1      19.398  -0.909  10.865  0.00  0.00     0.755 A 
ATOM      2  N5  ZIN A   1      19.329  -1.259   9.584  0.00  0.00     0.131 NA
ATOM      3  C6  ZIN A   1      19.203  -0.323   8.647  0.00  0.00     0.755 A 
ATOM      4  N10 ZIN A   1      19.145   0.959   8.991  0.00  0.00     0.131 NA
ATOM      5  C11 ZIN A   1      19.213   1.308  10.271  0.00  0.00     0.755 A 
ATOM      6  N15 ZIN A   1      19.334   0.373  11.210  0.00  0.00     0.131 NA
ENDROOT
BRANCH   1   7
ATOM      7  N2  ZIN A   1      19.528  -1.879  11.838  0.00  0.00    -0.222 N 
ATOM      8  C1  ZIN A   1      19.226  -1.560  13.236  0.00  0.00     0.168 C 
ATOM      9  C3  ZIN A   1      19.967  -3.229  11.474  0.00  0.00     0.168 C 
ENDBRANCH   1   7
BRANCH   5  10
ATOM     10  N12 ZIN A   1      19.152   2.639  10.629  0.00  0.00    -0.222 N 
ATOM     11  C13 ZIN A   1      18.178   3.526   9.987  0.00  0.00     0.168 C 
ATOM     12  C14 ZIN A   1      20.062   3.166  11.649  0.00  0.00     0.168 C 
ENDBRANCH   5  10
BRANCH   3  13
ATOM     13  N7  ZIN A   1      19.133  -0.685   7.317  0.00  0.00    -0.222 N 
ATOM     14  C8  ZIN A   1      18.906   0.336   6.290  0.00  0.00     0.168 C 
ATOM     15  C9  ZIN A   1      19.286  -2.090   6.932  0.00  0.00     0.168 C 
ENDBRANCH   3  13
TORSDOF 3
ENDMDL
MODEL 5
REMARK VINA RESULT:      -4.7      1.906      4.689
REMARK  3 active torsions:
REMARK  status: ('A' for Active; 'I' for Inactive)
REMARK    1  A    between atoms: N2_2  and  C4_4 
REMARK    2  A    between atoms: C6_6  and  N7_7 
REMARK    3  A    between atoms: C11_11  and  N12_12 
ROOT
ATOM      1  C4  ZIN A   1      19.197  -0.269   8.635  0.00  0.00     0.755 A 
ATOM      2  N5  ZIN A   1      19.330  -1.212   9.564  0.00  0.00     0.131 NA
ATOM      3  C6  ZIN A   1      19.400  -0.873  10.848  0.00  0.00     0.755 A 
ATOM      4  N10 ZIN A   1      19.340   0.407  11.203  0.00  0.00     0.131 NA
ATOM      5  C11 ZIN A   1      19.207   1.348  10.274  0.00  0.00     0.755 A 
ATOM      6  N15 ZIN A   1      19.141   1.011   8.989  0.00  0.00     0.131 NA
ENDROOT
BRANCH   1   7
ATOM      7  N2  ZIN A   1      19.124  -0.621   7.302  0.00  0.00    -0.222 N 
ATOM      8  C1  ZIN A   1      19.288  -2.021   6.904  0.00  0.00     0.168 C 
ATOM      9  C3  ZIN A   1      18.883   0.406   6.285  0.00  0.00     0.168 C 
ENDBRANCH   1   7
BRANCH   5  10
ATOM     10  N12 ZIN A   1      19.143   2.676  10.642  0.00  0.00    -0.222 N 
ATOM     11  C13 ZIN A   1      20.075   3.204  11.642  0.00  0.00     0.168 C 
ATOM     12  C14 ZIN A   1      18.145   3.559  10.032  0.00  0.00     0.168 C 
ENDBRANCH   5  10
BRANCH   3  13
ATOM     13  N7  ZIN A   1      19.538  -1.851  11.813  0.00  0.00    -0.222 N 
ATOM     14  C8  ZIN A   1      19.986  -3.194  11.435  0.00  0.00     0.168 C 
ATOM     15  C9  ZIN A   1      19.236  -1.545  13.212  0.00  0.00     0.168 C 
ENDBRANCH   3  13
TORSDOF 3
ENDMDL
MODEL 6
REMARK VINA RESULT:      -4.7      1.725      2.577
REMARK  3 active torsions:
REMARK  status: ('A' for Active; 'I' for Inactive)
REMARK    1  A    between atoms: N2_2  and  C4_4 
REMARK    2  A    between atoms: C6_6  and  N7_7 
REMARK    3  A    between atoms: C11_11  and  N12_12 
ROOT
ATOM      1  C4  ZIN A   1      18.777  -2.839   8.665  0.00  0.00     0.755 A 
ATOM      2  N5  ZIN A   1      18.823  -2.749   7.339  0.00  0.00     0.131 NA
ATOM      3  C6  ZIN A   1      19.064  -1.576   6.761  0.00  0.00     0.755 A 
ATOM      4  N10 ZIN A   1      19.257  -0.494   7.508  0.00  0.00     0.131 NA
ATOM      5  C11 ZIN A   1      19.211  -0.584   8.833  0.00  0.00     0.755 A 
ATOM      6  N15 ZIN A   1      18.965  -1.755   9.412  0.00  0.00     0.131 NA
ENDROOT
BRANCH   1   7
ATOM      7  N2  ZIN A   1      18.527  -4.056   9.265  0.00  0.00    -0.222 N 
ATOM      8  C1  ZIN A   1      19.614  -4.786   9.922  0.00  0.00     0.168 C 
ATOM      9  C3  ZIN A   1      17.174  -4.619   9.245  0.00  0.00     0.168 C 
ENDBRANCH   1   7
BRANCH   5  10
ATOM     10  N12 ZIN A   1      19.412   0.539   9.609  0.00  0.00    -0.222 N 
ATOM     11  C13 ZIN A   1      19.782   0.398  11.020  0.00  0.00     0.168 C 
ATOM     12  C14 ZIN A   1      19.255   1.873   9.023  0.00  0.00     0.168 C 
ENDBRANCH   5  10
BRANCH   3  13
ATOM     13  N7  ZIN A   1      19.113  -1.482   5.385  0.00  0.00    -0.222 N 
ATOM     14  C8  ZIN A   1      18.974  -2.688   4.563  0.00  0.00     0.168 C 
ATOM     15  C9  ZIN A   1      19.303  -0.179   4.746  0.00  0.00     0.168 C 
ENDBRANCH   3  13
TORSDOF 3
ENDMDL
MODEL 7
REMARK VINA RESULT:      -4.7      1.630      3.909
REMARK  3 active torsions:
REMARK  status: ('A' for Active; 'I' for Inactive)
REMARK    1  A    between atoms: N2_2  and  C4_4 
REMARK    2  A    between atoms: C6_6  and  N7_7 
REMARK    3  A    between atoms: C11_11  and  N12_12 
ROOT
ATOM      1  C4  ZIN A   1      18.851  -2.794   8.766  0.00  0.00     0.755 A 
ATOM      2  N5  ZIN A   1      19.010  -1.691   9.493  0.00  0.00     0.131 NA
ATOM      3  C6  ZIN A   1      19.211  -0.522   8.890  0.00  0.00     0.755 A 
ATOM      4  N10 ZIN A   1      19.256  -0.457   7.563  0.00  0.00     0.131 NA
ATOM      5  C11 ZIN A   1      19.097  -1.560   6.838  0.00  0.00     0.755 A 
ATOM      6  N15 ZIN A   1      18.901  -2.730   7.439  0.00  0.00     0.131 NA
ENDROOT
BRANCH   1   7
ATOM      7  N2  ZIN A   1      18.643  -4.007   9.391  0.00  0.00    -0.222 N 
ATOM      8  C1  ZIN A   1      19.641  -5.072   9.273  0.00  0.00     0.168 C 
ATOM      9  C3  ZIN A   1      17.423  -4.229  10.173  0.00  0.00     0.168 C 
ENDBRANCH   1   7
BRANCH   5  10
ATOM     10  N12 ZIN A   1      19.143  -1.493   5.461  0.00  0.00    -0.222 N 
ATOM     11  C13 ZIN A   1      19.341  -0.202   4.797  0.00  0.00     0.168 C 
ATOM     12  C14 ZIN A   1      18.994  -2.712   4.662  0.00  0.00     0.168 C 
ENDBRANCH   5  10
BRANCH   3  13
ATOM     13  N7  ZIN A   1      19.375   0.622   9.643  0.00  0.00    -0.222 N 
ATOM     14  C8  ZIN A   1      19.709   0.522  11.066  0.00  0.00     0.168 C 
ATOM     15  C9  ZIN A   1      19.214   1.937   9.020  0.00  0.00     0.168 C 
ENDBRANCH   3  13
TORSDOF 3
ENDMDL
MODEL 8
REMARK VINA RESULT:      -4.7      1.599      3.988
REMARK  3 active torsions:
REMARK  status: ('A' for Active; 'I' for Inactive)
REMARK    1  A    between atoms: N2_2  and  C4_4 
REMARK    2  A    between atoms: C6_6  and  N7_7 
REMARK    3  A    between atoms: C11_11  and  N12_12 
ROOT
ATOM      1  C4  ZIN A   1      19.102  -1.716   6.971  0.00  0.00     0.755 A 
ATOM      2  N5  ZIN A   1      18.905  -2.831   7.669  0.00  0.00     0.131 NA
ATOM      3  C6  ZIN A   1      18.854  -2.782   8.997  0.00  0.00     0.755 A 
ATOM      4  N10 ZIN A   1      19.003  -1.620   9.626  0.00  0.00     0.131 NA
ATOM      5  C11 ZIN A   1      19.200  -0.507   8.927  0.00  0.00     0.755 A 
ATOM      6  N15 ZIN A   1      19.256  -0.555   7.599  0.00  0.00     0.131 NA
ENDROOT
BRANCH   1   7
ATOM      7  N2  ZIN A   1      19.155  -1.767   5.592  0.00  0.00    -0.222 N 
ATOM      8  C1  ZIN A   1      18.994  -3.049   4.900  0.00  0.00     0.168 C 
ATOM      9  C3  ZIN A   1      19.372  -0.541   4.821  0.00  0.00     0.168 C 
ENDBRANCH   1   7
BRANCH   5  10
ATOM     10  N12 ZIN A   1      19.354   0.700   9.579  0.00  0.00    -0.222 N 
ATOM     11  C13 ZIN A   1      19.624   0.724  11.019  0.00  0.00     0.168 C 
ATOM     12  C14 ZIN A   1      19.249   1.956   8.832  0.00  0.00     0.168 C 
ENDBRANCH   5  10
BRANCH   3  13
ATOM     13  N7  ZIN A   1      18.648  -3.937   9.723  0.00  0.00    -0.222 N 
ATOM     14  C8  ZIN A   1      17.421  -4.102  10.506  0.00  0.00     0.168 C 
ATOM     15  C9  ZIN A   1      19.656  -4.999   9.709  0.00  0.00     0.168 C 
ENDBRANCH   3  13
TORSDOF 3
ENDMDL
MODEL 9
REMARK VINA RESULT:      -4.7      0.223      4.751
REMARK  3 active torsions:
REMARK  status: ('A' for Active; 'I' for Inactive)
REMARK    1  A    between atoms: N2_2  and  C4_4 
REMARK    2  A    between atoms: C6_6  and  N7_7 
REMARK    3  A    between atoms: C11_11  and  N12_12 
ROOT
ATOM      1  C4  ZIN A   1      19.057  -0.644   8.069  0.00  0.00     0.755 A 
ATOM      2  N5  ZIN A   1      18.906  -0.931   9.359  0.00  0.00     0.131 NA
ATOM      3  C6  ZIN A   1      18.902  -2.198   9.761  0.00  0.00     0.755 A 
ATOM      4  N10 ZIN A   1      19.046  -3.178   8.875  0.00  0.00     0.131 NA
ATOM      5  C11 ZIN A   1      19.197  -2.891   7.586  0.00  0.00     0.755 A 
ATOM      6  N15 ZIN A   1      19.197  -1.625   7.182  0.00  0.00     0.131 NA
ENDROOT
BRANCH   1   7
ATOM      7  N2  ZIN A   1      19.062   0.671   7.651  0.00  0.00    -0.222 N 
ATOM      8  C1  ZIN A   1      18.877   0.989   6.233  0.00  0.00     0.168 C 
ATOM      9  C3  ZIN A   1      19.252   1.749   8.625  0.00  0.00     0.168 C 
ENDBRANCH   1   7
BRANCH   5  10
ATOM     10  N12 ZIN A   1      19.348  -3.908   6.665  0.00  0.00    -0.222 N 
ATOM     11  C13 ZIN A   1      20.188  -5.066   6.984  0.00  0.00     0.168 C 
ATOM     12  C14 ZIN A   1      18.669  -3.831   5.370  0.00  0.00     0.168 C 
ENDBRANCH   5  10
BRANCH   3  13
ATOM     13  N7  ZIN A   1      18.745  -2.496  11.100  0.00  0.00    -0.222 N 
ATOM     14  C8  ZIN A   1      19.683  -3.406  11.762  0.00  0.00     0.168 C 
ATOM     15  C9  ZIN A   1      17.643  -1.902  11.858  0.00  0.00     0.168 C 
ENDBRANCH   3  13
TORSDOF 3
ENDMDL
