MODEL 1
REMARK VINA RESULT:      -5.3      0.000      0.000
REMARK  3 active torsions:
REMARK  status: ('A' for Active; 'I' for Inactive)
REMARK    1  A    between atoms: C2_2  and  N4_4 
REMARK    2  A    between atoms: C2_2  and  C8_8 
REMARK    3  A    between atoms: C8_8  and  C9_9 
ROOT
ATOM      1  C1  ZIN A   1      18.774   2.501  13.084  0.00  0.00     0.046 C 
ATOM      2  C2  ZIN A   1      19.400   3.465  12.074  0.00  0.00     0.120 C 
ATOM      3  C3  ZIN A   1      19.723   4.791  12.766  0.00  0.00     0.046 C 
ENDROOT
BRANCH   2   4
ATOM      4  N4  ZIN A   1      20.636   2.878  11.538  0.00  0.00    -0.071 N 
ATOM      5  H5  ZIN A   1      20.566   1.872  11.558  0.00  0.00     0.275 HD
ATOM      6  H6  ZIN A   1      20.770   3.188  10.588  0.00  0.00     0.275 HD
ATOM      7  H7  ZIN A   1      21.419   3.173  12.102  0.00  0.00     0.275 HD
ENDBRANCH   2   4
BRANCH   2   8
ATOM      8  C8  ZIN A   1      18.416   3.713  10.929  0.00  0.00     0.076 C 
BRANCH   8   9
ATOM      9  C9  ZIN A   1      18.356   2.493  10.046  0.00  0.00    -0.056 A 
ATOM     10  C14 ZIN A   1      19.072   2.460   8.863  0.00  0.00     0.007 A 
ATOM     11  C13 ZIN A   1      19.021   1.340   8.055  0.00  0.00     0.001 A 
ATOM     12  C12 ZIN A   1      18.247   0.256   8.425  0.00  0.00     0.000 A 
ATOM     13  C11 ZIN A   1      17.527   0.291   9.604  0.00  0.00     0.001 A 
ATOM     14  C10 ZIN A   1      17.582   1.409  10.415  0.00  0.00     0.007 A 
ENDBRANCH   8   9
ENDBRANCH   2   8
TORSDOF 3
ENDMDL
MODEL 2
REMARK VINA RESULT:      -5.3      2.387      2.863
REMARK  3 active torsions:
REMARK  status: ('A' for Active; 'I' for Inactive)
REMARK    1  A    between atoms: C2_2  and  N4_4 
REMARK    2  A    between atoms: C2_2  and  C8_8 
REMARK    3  A    between atoms: C8_8  and  C9_9 
ROOT
ATOM      1  C1  ZIN A   1      18.985  -1.079  11.417  0.00  0.00     0.046 C 
ATOM      2  C2  ZIN A   1      19.835   0.091  10.918  0.00  0.00     0.120 C 
ATOM      3  C3  ZIN A   1      20.685   0.633  12.070  0.00  0.00     0.046 C 
ENDROOT
BRANCH   2   4
ATOM      4  N4  ZIN A   1      20.713  -0.369   9.835  0.00  0.00    -0.071 N 
ATOM      5  H5  ZIN A   1      21.119  -1.258  10.085  0.00  0.00     0.275 HD
ATOM      6  H6  ZIN A   1      20.176  -0.471   8.987  0.00  0.00     0.275 HD
ATOM      7  H7  ZIN A   1      21.448   0.307   9.687  0.00  0.00     0.275 HD
ENDBRANCH   2   4
BRANCH   2   8
ATOM      8  C8  ZIN A   1      18.919   1.199  10.395  0.00  0.00     0.076 C 
BRANCH   8   9
ATOM      9  C9  ZIN A   1      18.574   0.927   8.953  0.00  0.00    -0.056 A 
ATOM     10  C14 ZIN A   1      19.278   1.558   7.943  0.00  0.00     0.007 A 
ATOM     11  C13 ZIN A   1      18.966   1.305   6.621  0.00  0.00     0.001 A 
ATOM     12  C12 ZIN A   1      17.944   0.428   6.308  0.00  0.00     0.000 A 
ATOM     13  C11 ZIN A   1      17.237  -0.198   7.317  0.00  0.00     0.001 A 
ATOM     14  C10 ZIN A   1      17.552   0.051   8.639  0.00  0.00     0.007 A 
ENDBRANCH   8   9
ENDBRANCH   2   8
TORSDOF 3
ENDMDL
MODEL 3
REMARK VINA RESULT:      -5.1      3.189      5.913
REMARK  3 active torsions:
REMARK  status: ('A' for Active; 'I' for Inactive)
REMARK    1  A    between atoms: C2_2  and  N4_4 
REMARK    2  A    between atoms: C2_2  and  C8_8 
REMARK    3  A    between atoms: C8_8  and  C9_9 
ROOT
ATOM      1  C1  ZIN A   1      17.876  -1.855   4.383  0.00  0.00     0.046 C 
ATOM      2  C2  ZIN A   1      18.544  -0.915   5.389  0.00  0.00     0.120 C 
ATOM      3  C3  ZIN A   1      19.180  -1.737   6.512  0.00  0.00     0.046 C 
ENDROOT
BRANCH   2   4
ATOM      4  N4  ZIN A   1      19.582  -0.129   4.709  0.00  0.00    -0.071 N 
ATOM      5  H5  ZIN A   1      19.819   0.674   5.272  0.00  0.00     0.275 HD
ATOM      6  H6  ZIN A   1      20.403  -0.701   4.576  0.00  0.00     0.275 HD
ATOM      7  H7  ZIN A   1      19.238   0.178   3.812  0.00  0.00     0.275 HD
ENDBRANCH   2   4
BRANCH   2   8
ATOM      8  C8  ZIN A   1      17.495   0.029   5.979  0.00  0.00     0.076 C 
BRANCH   8   9
ATOM      9  C9  ZIN A   1      17.944   0.490   7.342  0.00  0.00    -0.056 A 
ATOM     10  C14 ZIN A   1      17.353  -0.033   8.478  0.00  0.00     0.007 A 
ATOM     11  C13 ZIN A   1      17.768   0.385   9.728  0.00  0.00     0.001 A 
ATOM     12  C12 ZIN A   1      18.768   1.334   9.843  0.00  0.00     0.000 A 
ATOM     13  C11 ZIN A   1      19.354   1.860   8.708  0.00  0.00     0.001 A 
ATOM     14  C10 ZIN A   1      18.943   1.439   7.458  0.00  0.00     0.007 A 
ENDBRANCH   8   9
ENDBRANCH   2   8
TORSDOF 3
ENDMDL
MODEL 4
REMARK VINA RESULT:      -5.1      4.060      5.220
REMARK  3 active torsions:
REMARK  status: ('A' for Active; 'I' for Inactive)
REMARK    1  A    between atoms: C2_2  and  N4_4 
REMARK    2  A    between atoms: C2_2  and  C8_8 
REMARK    3  A    between atoms: C8_8  and  C9_9 
ROOT
ATOM      1  C1  ZIN A   1      19.910   1.212  11.660  0.00  0.00     0.046 C 
ATOM      2  C2  ZIN A   1      20.083  -0.268  11.313  0.00  0.00     0.120 C 
ATOM      3  C3  ZIN A   1      19.258  -0.601  10.068  0.00  0.00     0.046 C 
ENDROOT
BRANCH   2   4
ATOM      4  N4  ZIN A   1      21.501  -0.545  11.048  0.00  0.00    -0.071 N 
ATOM      5  H5  ZIN A   1      22.006   0.325  10.972  0.00  0.00     0.275 HD
ATOM      6  H6  ZIN A   1      21.884  -1.091  11.806  0.00  0.00     0.275 HD
ATOM      7  H7  ZIN A   1      21.588  -1.062  10.186  0.00  0.00     0.275 HD
ENDBRANCH   2   4
BRANCH   2   8
ATOM      8  C8  ZIN A   1      19.606  -1.126  12.486  0.00  0.00     0.076 C 
BRANCH   8   9
ATOM      9  C9  ZIN A   1      19.126  -2.458  11.971  0.00  0.00    -0.056 A 
ATOM     10  C14 ZIN A   1      17.771  -2.706  11.852  0.00  0.00     0.007 A 
ATOM     11  C13 ZIN A   1      17.330  -3.926  11.375  0.00  0.00     0.001 A 
ATOM     12  C12 ZIN A   1      18.244  -4.902  11.026  0.00  0.00     0.000 A 
ATOM     13  C11 ZIN A   1      19.598  -4.657  11.150  0.00  0.00     0.001 A 
ATOM     14  C10 ZIN A   1      20.040  -3.436  11.622  0.00  0.00     0.007 A 
ENDBRANCH   8   9
ENDBRANCH   2   8
TORSDOF 3
ENDMDL
MODEL 5
REMARK VINA RESULT:      -5.0      1.336      4.177
REMARK  3 active torsions:
REMARK  status: ('A' for Active; 'I' for Inactive)
REMARK    1  A    between atoms: C2_2  and  N4_4 
REMARK    2  A    between atoms: C2_2  and  C8_8 
REMARK    3  A    between atoms: C8_8  and  C9_9 
ROOT
ATOM      1  C1  ZIN A   1      18.265   0.248   8.004  0.00  0.00     0.046 C 
ATOM      2  C2  ZIN A   1      18.715   0.950   9.287  0.00  0.00     0.120 C 
ATOM      3  C3  ZIN A   1      17.629   0.806  10.355  0.00  0.00     0.046 C 
ENDROOT
BRANCH   2   4
ATOM      4  N4  ZIN A   1      19.960   0.338   9.768  0.00  0.00    -0.071 N 
ATOM      5  H5  ZIN A   1      19.839   0.035  10.723  0.00  0.00     0.275 HD
ATOM      6  H6  ZIN A   1      20.191  -0.455   9.189  0.00  0.00     0.275 HD
ATOM      7  H7  ZIN A   1      20.707   1.016   9.722  0.00  0.00     0.275 HD
ENDBRANCH   2   4
BRANCH   2   8
ATOM      8  C8  ZIN A   1      18.954   2.434   8.998  0.00  0.00     0.076 C 
BRANCH   8   9
ATOM      9  C9  ZIN A   1      18.723   3.233  10.255  0.00  0.00    -0.056 A 
ATOM     10  C14 ZIN A   1      17.557   3.961  10.406  0.00  0.00     0.007 A 
ATOM     11  C13 ZIN A   1      17.341   4.690  11.560  0.00  0.00     0.001 A 
ATOM     12  C12 ZIN A   1      18.297   4.698  12.560  0.00  0.00     0.000 A 
ATOM     13  C11 ZIN A   1      19.464   3.975  12.407  0.00  0.00     0.001 A 
ATOM     14  C10 ZIN A   1      19.677   3.242  11.255  0.00  0.00     0.007 A 
ENDBRANCH   8   9
ENDBRANCH   2   8
TORSDOF 3
ENDMDL
MODEL 6
REMARK VINA RESULT:      -5.0      2.317      3.882
REMARK  3 active torsions:
REMARK  status: ('A' for Active; 'I' for Inactive)
REMARK    1  A    between atoms: C2_2  and  N4_4 
REMARK    2  A    between atoms: C2_2  and  C8_8 
REMARK    3  A    between atoms: C8_8  and  C9_9 
ROOT
ATOM      1  C1  ZIN A   1      18.433   0.812  11.051  0.00  0.00     0.046 C 
ATOM      2  C2  ZIN A   1      18.804   1.001   9.578  0.00  0.00     0.120 C 
ATOM      3  C3  ZIN A   1      18.912   2.496   9.267  0.00  0.00     0.046 C 
ENDROOT
BRANCH   2   4
ATOM      4  N4  ZIN A   1      20.094   0.351   9.311  0.00  0.00    -0.071 N 
ATOM      5  H5  ZIN A   1      20.787   0.702   9.954  0.00  0.00     0.275 HD
ATOM      6  H6  ZIN A   1      19.998  -0.647   9.431  0.00  0.00     0.275 HD
ATOM      7  H7  ZIN A   1      20.380   0.549   8.364  0.00  0.00     0.275 HD
ENDBRANCH   2   4
BRANCH   2   8
ATOM      8  C8  ZIN A   1      17.724   0.372   8.696  0.00  0.00     0.076 C 
BRANCH   8   9
ATOM      9  C9  ZIN A   1      18.334  -0.062   7.388  0.00  0.00    -0.056 A 
ATOM     10  C14 ZIN A   1      18.658  -1.391   7.185  0.00  0.00     0.007 A 
ATOM     11  C13 ZIN A   1      19.213  -1.791   5.984  0.00  0.00     0.001 A 
ATOM     12  C12 ZIN A   1      19.452  -0.860   4.989  0.00  0.00     0.000 A 
ATOM     13  C11 ZIN A   1      19.133   0.469   5.195  0.00  0.00     0.001 A 
ATOM     14  C10 ZIN A   1      18.573   0.868   6.394  0.00  0.00     0.007 A 
ENDBRANCH   8   9
ENDBRANCH   2   8
TORSDOF 3
ENDMDL
MODEL 7
REMARK VINA RESULT:      -4.9      1.422      2.014
REMARK  3 active torsions:
REMARK  status: ('A' for Active; 'I' for Inactive)
REMARK    1  A    between atoms: C2_2  and  N4_4 
REMARK    2  A    between atoms: C2_2  and  C8_8 
REMARK    3  A    between atoms: C8_8  and  C9_9 
ROOT
ATOM      1  C1  ZIN A   1      18.288   1.992  12.273  0.00  0.00     0.046 C 
ATOM      2  C2  ZIN A   1      19.233   2.213  11.090  0.00  0.00     0.120 C 
ATOM      3  C3  ZIN A   1      18.528   3.054  10.024  0.00  0.00     0.046 C 
ENDROOT
BRANCH   2   4
ATOM      4  N4  ZIN A   1      20.438   2.916  11.551  0.00  0.00    -0.071 N 
ATOM      5  H5  ZIN A   1      20.409   3.874  11.237  0.00  0.00     0.275 HD
ATOM      6  H6  ZIN A   1      20.475   2.893  12.559  0.00  0.00     0.275 HD
ATOM      7  H7  ZIN A   1      21.257   2.462  11.175  0.00  0.00     0.275 HD
ENDBRANCH   2   4
BRANCH   2   8
ATOM      8  C8  ZIN A   1      19.629   0.860  10.495  0.00  0.00     0.076 C 
BRANCH   8   9
ATOM      9  C9  ZIN A   1      18.954   0.683   9.159  0.00  0.00    -0.056 A 
ATOM     10  C14 ZIN A   1      19.507   1.250   8.025  0.00  0.00     0.007 A 
ATOM     11  C13 ZIN A   1      18.891   1.084   6.799  0.00  0.00     0.001 A 
ATOM     12  C12 ZIN A   1      17.717   0.359   6.708  0.00  0.00     0.000 A 
ATOM     13  C11 ZIN A   1      17.162  -0.202   7.842  0.00  0.00     0.001 A 
ATOM     14  C10 ZIN A   1      17.780  -0.041   9.067  0.00  0.00     0.007 A 
ENDBRANCH   8   9
ENDBRANCH   2   8
TORSDOF 3
ENDMDL
MODEL 8
REMARK VINA RESULT:      -4.9      4.497      5.955
REMARK  3 active torsions:
REMARK  status: ('A' for Active; 'I' for Inactive)
REMARK    1  A    between atoms: C2_2  and  N4_4 
REMARK    2  A    between atoms: C2_2  and  C8_8 
REMARK    3  A    between atoms: C8_8  and  C9_9 
ROOT
ATOM      1  C1  ZIN A   1      19.280  -0.158  18.287  0.00  0.00     0.046 C 
ATOM      2  C2  ZIN A   1      18.216   0.737  17.648  0.00  0.00     0.120 C 
ATOM      3  C3  ZIN A   1      17.430   1.458  18.746  0.00  0.00     0.046 C 
ENDROOT
BRANCH   2   4
ATOM      4  N4  ZIN A   1      18.868   1.727  16.781  0.00  0.00    -0.071 N 
ATOM      5  H5  ZIN A   1      18.959   2.601  17.277  0.00  0.00     0.275 HD
ATOM      6  H6  ZIN A   1      19.782   1.393  16.517  0.00  0.00     0.275 HD
ATOM      7  H7  ZIN A   1      18.309   1.867  15.952  0.00  0.00     0.275 HD
ENDBRANCH   2   4
BRANCH   2   8
ATOM      8  C8  ZIN A   1      17.262  -0.121  16.816  0.00  0.00     0.076 C 
BRANCH   8   9
ATOM      9  C9  ZIN A   1      17.840  -0.322  15.438  0.00  0.00    -0.056 A 
ATOM     10  C14 ZIN A   1      17.438   0.492  14.394  0.00  0.00     0.007 A 
ATOM     11  C13 ZIN A   1      17.971   0.312  13.132  0.00  0.00     0.001 A 
ATOM     12  C12 ZIN A   1      18.900  -0.688  12.911  0.00  0.00     0.000 A 
ATOM     13  C11 ZIN A   1      19.298  -1.504  13.953  0.00  0.00     0.001 A 
ATOM     14  C10 ZIN A   1      18.769  -1.321  15.216  0.00  0.00     0.007 A 
ENDBRANCH   8   9
ENDBRANCH   2   8
TORSDOF 3
ENDMDL
MODEL 9
REMARK VINA RESULT:      -4.9      3.279      5.150
REMARK  3 active torsions:
REMARK  status: ('A' for Active; 'I' for Inactive)
REMARK    1  A    between atoms: C2_2  and  N4_4 
REMARK    2  A    between atoms: C2_2  and  C8_8 
REMARK    3  A    between atoms: C8_8  and  C9_9 
ROOT
ATOM      1  C1  ZIN A   1      19.726   1.147  11.409  0.00  0.00     0.046 C 
ATOM      2  C2  ZIN A   1      20.110  -0.189  10.769  0.00  0.00     0.120 C 
ATOM      3  C3  ZIN A   1      19.966  -0.087   9.249  0.00  0.00     0.046 C 
ENDROOT
BRANCH   2   4
ATOM      4  N4  ZIN A   1      21.502  -0.512  11.109  0.00  0.00    -0.071 N 
ATOM      5  H5  ZIN A   1      21.700  -0.201  12.048  0.00  0.00     0.275 HD
ATOM      6  H6  ZIN A   1      21.640  -1.510  11.048  0.00  0.00     0.275 HD
ATOM      7  H7  ZIN A   1      22.122  -0.047  10.462  0.00  0.00     0.275 HD
ENDBRANCH   2   4
BRANCH   2   8
ATOM      8  C8  ZIN A   1      19.188  -1.290  11.297  0.00  0.00     0.076 C 
BRANCH   8   9
ATOM      9  C9  ZIN A   1      18.826  -0.997  12.730  0.00  0.00    -0.056 A 
ATOM     10  C14 ZIN A   1      19.585  -1.530  13.757  0.00  0.00     0.007 A 
ATOM     11  C13 ZIN A   1      19.257  -1.258  15.072  0.00  0.00     0.001 A 
ATOM     12  C12 ZIN A   1      18.164  -0.461  15.360  0.00  0.00     0.000 A 
ATOM     13  C11 ZIN A   1      17.403   0.067  14.335  0.00  0.00     0.001 A 
ATOM     14  C10 ZIN A   1      17.734  -0.201  13.020  0.00  0.00     0.007 A 
ENDBRANCH   8   9
ENDBRANCH   2   8
TORSDOF 3
ENDMDL
