MODEL 1
REMARK VINA RESULT:      -6.8      0.000      0.000
REMARK  2 active torsions:
REMARK  status: ('A' for Active; 'I' for Inactive)
REMARK    1  A    between atoms: C7_7  and  C8_8 
REMARK    2  A    between atoms: C8_8  and  N9_9 
ROOT
ATOM      1  N9  ZIN A   1      18.606   1.697   9.332  0.00  0.00    -0.063 N 
ATOM      2  H10 ZIN A   1      17.802   2.241   9.059  0.00  0.00     0.280 HD
ATOM      3  C11 ZIN A   1      18.177   0.339   9.695  0.00  0.00     0.240 C 
ATOM      4  C12 ZIN A   1      17.224  -0.192   8.617  0.00  0.00     0.074 C 
ATOM      5  C13 ZIN A   1      17.875   0.035   7.269  0.00  0.00    -0.008 A 
ATOM      6  C14 ZIN A   1      18.926   0.857   7.074  0.00  0.00    -0.019 A 
ATOM      7  C15 ZIN A   1      19.356   0.905   5.753  0.00  0.00     0.017 A 
ATOM      8  C16 ZIN A   1      18.675   0.149   4.896  0.00  0.00     0.051 A 
ATOM      9  S17 ZIN A   1      17.397  -0.704   5.750  0.00  0.00    -0.106 SA
ATOM     10  C18 ZIN A   1      19.558   1.640   8.215  0.00  0.00     0.274 C 
ENDROOT
BRANCH   1  11
ATOM     11  C8  ZIN A   1      19.252   2.331  10.490  0.00  0.00     0.275 C 
BRANCH  11  12
ATOM     12  C7  ZIN A   1      18.352   3.404  11.042  0.00  0.00    -0.011 A 
ATOM     13  C2  ZIN A   1      18.110   3.473  12.403  0.00  0.00     0.042 A 
ATOM     14 Cl1  ZIN A   1      18.849   2.324  13.475  0.00  0.00    -0.084 Cl
ATOM     15  C3  ZIN A   1      17.284   4.460  12.910  0.00  0.00     0.024 A 
ATOM     16  C4  ZIN A   1      16.696   5.375  12.055  0.00  0.00     0.002 A 
ATOM     17  C5  ZIN A   1      16.933   5.302  10.696  0.00  0.00     0.001 A 
ATOM     18  C6  ZIN A   1      17.760   4.316  10.189  0.00  0.00     0.010 A 
ENDBRANCH  11  12
ENDBRANCH   1  11
TORSDOF 2
ENDMDL
MODEL 2
REMARK VINA RESULT:      -6.5      2.812      6.289
REMARK  2 active torsions:
REMARK  status: ('A' for Active; 'I' for Inactive)
REMARK    1  A    between atoms: C7_7  and  C8_8 
REMARK    2  A    between atoms: C8_8  and  N9_9 
ROOT
ATOM      1  N9  ZIN A   1      18.382   2.637  11.075  0.00  0.00    -0.063 N 
ATOM      2  H10 ZIN A   1      17.492   2.165  11.127  0.00  0.00     0.280 HD
ATOM      3  C11 ZIN A   1      18.233   3.876  10.300  0.00  0.00     0.240 C 
ATOM      4  C12 ZIN A   1      16.993   4.632  10.793  0.00  0.00     0.074 C 
ATOM      5  C13 ZIN A   1      17.071   4.717  12.303  0.00  0.00    -0.008 A 
ATOM      6  C14 ZIN A   1      17.902   3.965  13.053  0.00  0.00    -0.019 A 
ATOM      7  C15 ZIN A   1      17.801   4.218  14.416  0.00  0.00     0.017 A 
ATOM      8  C16 ZIN A   1      16.913   5.145  14.767  0.00  0.00     0.051 A 
ATOM      9  S17 ZIN A   1      16.122   5.778  13.331  0.00  0.00    -0.106 SA
ATOM     10  C18 ZIN A   1      18.847   2.948  12.433  0.00  0.00     0.274 C 
ENDROOT
BRANCH   1  11
ATOM     11  C8  ZIN A   1      19.359   1.762  10.415  0.00  0.00     0.275 C 
BRANCH  11  12
ATOM     12  C7  ZIN A   1      18.761   1.204   9.150  0.00  0.00    -0.011 A 
ATOM     13  C2  ZIN A   1      17.703   0.314   9.218  0.00  0.00     0.042 A 
ATOM     14 Cl1  ZIN A   1      17.064  -0.157  10.762  0.00  0.00    -0.084 Cl
ATOM     15  C3  ZIN A   1      17.153  -0.197   8.057  0.00  0.00     0.024 A 
ATOM     16  C4  ZIN A   1      17.664   0.178   6.827  0.00  0.00     0.002 A 
ATOM     17  C5  ZIN A   1      18.723   1.063   6.760  0.00  0.00     0.001 A 
ATOM     18  C6  ZIN A   1      19.273   1.574   7.921  0.00  0.00     0.010 A 
ENDBRANCH  11  12
ENDBRANCH   1  11
TORSDOF 2
ENDMDL
MODEL 3
REMARK VINA RESULT:      -6.4      3.502      4.480
REMARK  2 active torsions:
REMARK  status: ('A' for Active; 'I' for Inactive)
REMARK    1  A    between atoms: C7_7  and  C8_8 
REMARK    2  A    between atoms: C8_8  and  N9_9 
ROOT
ATOM      1  N9  ZIN A   1      19.535  -0.010  11.986  0.00  0.00    -0.063 N 
ATOM      2  H10 ZIN A   1      18.532  -0.056  12.087  0.00  0.00     0.280 HD
ATOM      3  C11 ZIN A   1      20.036  -1.305  11.503  0.00  0.00     0.240 C 
ATOM      4  C12 ZIN A   1      19.168  -1.774  10.329  0.00  0.00     0.074 C 
ATOM      5  C13 ZIN A   1      19.048  -0.624   9.351  0.00  0.00    -0.008 A 
ATOM      6  C14 ZIN A   1      19.366   0.651   9.653  0.00  0.00    -0.019 A 
ATOM      7  C15 ZIN A   1      19.178   1.535   8.597  0.00  0.00     0.017 A 
ATOM      8  C16 ZIN A   1      18.718   0.999   7.470  0.00  0.00     0.051 A 
ATOM      9  S17 ZIN A   1      18.489  -0.730   7.691  0.00  0.00    -0.106 SA
ATOM     10  C18 ZIN A   1      19.880   1.049  11.029  0.00  0.00     0.274 C 
ENDROOT
BRANCH   1  11
ATOM     11  C8  ZIN A   1      20.143   0.294  13.288  0.00  0.00     0.275 C 
BRANCH  11  12
ATOM     12  C7  ZIN A   1      19.190  -0.089  14.390  0.00  0.00    -0.011 A 
ATOM     13  C2  ZIN A   1      18.187   0.785  14.772  0.00  0.00     0.042 A 
ATOM     14 Cl1  ZIN A   1      18.024   2.320  13.978  0.00  0.00    -0.084 Cl
ATOM     15  C3  ZIN A   1      17.311   0.432  15.783  0.00  0.00     0.024 A 
ATOM     16  C4  ZIN A   1      17.442  -0.791  16.415  0.00  0.00     0.002 A 
ATOM     17  C5  ZIN A   1      18.447  -1.660  16.037  0.00  0.00     0.001 A 
ATOM     18  C6  ZIN A   1      19.323  -1.309  15.025  0.00  0.00     0.010 A 
ENDBRANCH  11  12
ENDBRANCH   1  11
TORSDOF 2
ENDMDL
MODEL 4
REMARK VINA RESULT:      -6.4      3.973      6.467
REMARK  2 active torsions:
REMARK  status: ('A' for Active; 'I' for Inactive)
REMARK    1  A    between atoms: C7_7  and  C8_8 
REMARK    2  A    between atoms: C8_8  and  N9_9 
ROOT
ATOM      1  N9  ZIN A   1      17.610  -0.174  12.045  0.00  0.00    -0.063 N 
ATOM      2  H10 ZIN A   1      18.562   0.127  11.899  0.00  0.00     0.280 HD
ATOM      3  C11 ZIN A   1      17.581  -1.632  12.218  0.00  0.00     0.240 C 
ATOM      4  C12 ZIN A   1      18.675  -2.044  13.211  0.00  0.00     0.074 C 
ATOM      5  C13 ZIN A   1      18.550  -1.158  14.433  0.00  0.00    -0.008 A 
ATOM      6  C14 ZIN A   1      17.830  -0.018  14.461  0.00  0.00    -0.019 A 
ATOM      7  C15 ZIN A   1      17.858   0.626  15.692  0.00  0.00     0.017 A 
ATOM      8  C16 ZIN A   1      18.581   0.033  16.638  0.00  0.00     0.051 A 
ATOM      9  S17 ZIN A   1      19.296  -1.439  15.997  0.00  0.00    -0.106 SA
ATOM     10  C18 ZIN A   1      17.070   0.484  13.242  0.00  0.00     0.274 C 
ENDROOT
BRANCH   1  11
ATOM     11  C8  ZIN A   1      16.798   0.196  10.878  0.00  0.00     0.275 C 
BRANCH  11  12
ATOM     12  C7  ZIN A   1      17.702   0.606   9.746  0.00  0.00    -0.011 A 
ATOM     13  C2  ZIN A   1      18.167   1.908   9.667  0.00  0.00     0.042 A 
ATOM     14 Cl1  ZIN A   1      17.712   3.066  10.878  0.00  0.00    -0.084 Cl
ATOM     15  C3  ZIN A   1      18.999   2.283   8.628  0.00  0.00     0.024 A 
ATOM     16  C4  ZIN A   1      19.360   1.360   7.664  0.00  0.00     0.002 A 
ATOM     17  C5  ZIN A   1      18.891   0.062   7.740  0.00  0.00     0.001 A 
ATOM     18  C6  ZIN A   1      18.060  -0.314   8.779  0.00  0.00     0.010 A 
ENDBRANCH  11  12
ENDBRANCH   1  11
TORSDOF 2
ENDMDL
MODEL 5
REMARK VINA RESULT:      -6.4      3.721      4.920
REMARK  2 active torsions:
REMARK  status: ('A' for Active; 'I' for Inactive)
REMARK    1  A    between atoms: C7_7  and  C8_8 
REMARK    2  A    between atoms: C8_8  and  N9_9 
ROOT
ATOM      1  N9  ZIN A   1      19.162   0.626  12.548  0.00  0.00    -0.063 N 
ATOM      2  H10 ZIN A   1      18.898  -0.310  12.815  0.00  0.00     0.280 HD
ATOM      3  C11 ZIN A   1      20.516   0.607  11.976  0.00  0.00     0.240 C 
ATOM      4  C12 ZIN A   1      20.617  -0.537  10.961  0.00  0.00     0.074 C 
ATOM      5  C13 ZIN A   1      19.429  -0.436  10.027  0.00  0.00    -0.008 A 
ATOM      6  C14 ZIN A   1      18.338   0.314  10.283  0.00  0.00    -0.019 A 
ATOM      7  C15 ZIN A   1      17.376   0.255   9.281  0.00  0.00     0.017 A 
ATOM      8  C16 ZIN A   1      17.672  -0.522   8.242  0.00  0.00     0.051 A 
ATOM      9  S17 ZIN A   1      19.252  -1.252   8.483  0.00  0.00    -0.106 SA
ATOM     10  C18 ZIN A   1      18.207   1.136  11.555  0.00  0.00     0.274 C 
ENDROOT
BRANCH   1  11
ATOM     11  C8  ZIN A   1      19.144   1.495  13.732  0.00  0.00     0.275 C 
BRANCH  11  12
ATOM     12  C7  ZIN A   1      18.968   0.655  14.969  0.00  0.00    -0.011 A 
ATOM     13  C2  ZIN A   1      19.118   1.225  16.222  0.00  0.00     0.042 A 
ATOM     14 Cl1  ZIN A   1      19.506   2.911  16.366  0.00  0.00    -0.084 Cl
ATOM     15  C3  ZIN A   1      18.954   0.453  17.357  0.00  0.00     0.024 A 
ATOM     16  C4  ZIN A   1      18.646  -0.890  17.241  0.00  0.00     0.002 A 
ATOM     17  C5  ZIN A   1      18.501  -1.460  15.991  0.00  0.00     0.001 A 
ATOM     18  C6  ZIN A   1      18.664  -0.688  14.855  0.00  0.00     0.010 A 
ENDBRANCH  11  12
ENDBRANCH   1  11
TORSDOF 2
ENDMDL
MODEL 6
REMARK VINA RESULT:      -6.2      4.034      6.623
REMARK  2 active torsions:
REMARK  status: ('A' for Active; 'I' for Inactive)
REMARK    1  A    between atoms: C7_7  and  C8_8 
REMARK    2  A    between atoms: C8_8  and  N9_9 
ROOT
ATOM      1  N9  ZIN A   1      19.530  -0.089  11.567  0.00  0.00    -0.063 N 
ATOM      2  H10 ZIN A   1      18.567   0.104  11.334  0.00  0.00     0.280 HD
ATOM      3  C11 ZIN A   1      20.160   1.133  12.086  0.00  0.00     0.240 C 
ATOM      4  C12 ZIN A   1      19.233   1.775  13.126  0.00  0.00     0.074 C 
ATOM      5  C13 ZIN A   1      18.812   0.696  14.102  0.00  0.00    -0.008 A 
ATOM      6  C14 ZIN A   1      18.964  -0.624  13.870  0.00  0.00    -0.019 A 
ATOM      7  C15 ZIN A   1      18.509  -1.426  14.909  0.00  0.00     0.017 A 
ATOM      8  C16 ZIN A   1      17.997  -0.782  15.955  0.00  0.00     0.051 A 
ATOM      9  S17 ZIN A   1      18.069   0.951  15.672  0.00  0.00    -0.106 SA
ATOM     10  C18 ZIN A   1      19.581  -1.149  12.583  0.00  0.00     0.274 C 
ENDROOT
BRANCH   1  11
ATOM     11  C8  ZIN A   1      20.244  -0.533  10.363  0.00  0.00     0.275 C 
BRANCH  11  12
ATOM     12  C7  ZIN A   1      19.431  -0.193   9.142  0.00  0.00    -0.011 A 
ATOM     13  C2  ZIN A   1      18.499  -1.095   8.658  0.00  0.00     0.042 A 
ATOM     14 Cl1  ZIN A   1      18.264  -2.615   9.461  0.00  0.00    -0.084 Cl
ATOM     15  C3  ZIN A   1      17.751  -0.781   7.537  0.00  0.00     0.024 A 
ATOM     16  C4  ZIN A   1      17.939   0.430   6.897  0.00  0.00     0.002 A 
ATOM     17  C5  ZIN A   1      18.874   1.328   7.378  0.00  0.00     0.001 A 
ATOM     18  C6  ZIN A   1      19.621   1.015   8.499  0.00  0.00     0.010 A 
ENDBRANCH  11  12
ENDBRANCH   1  11
TORSDOF 2
ENDMDL
MODEL 7
REMARK VINA RESULT:      -6.1      3.013      3.534
REMARK  2 active torsions:
REMARK  status: ('A' for Active; 'I' for Inactive)
REMARK    1  A    between atoms: C7_7  and  C8_8 
REMARK    2  A    between atoms: C8_8  and  N9_9 
ROOT
ATOM      1  N9  ZIN A   1      18.932   0.610  11.895  0.00  0.00    -0.063 N 
ATOM      2  H10 ZIN A   1      17.945   0.787  11.786  0.00  0.00     0.280 HD
ATOM      3  C11 ZIN A   1      19.156  -0.172  13.119  0.00  0.00     0.240 C 
ATOM      4  C12 ZIN A   1      18.159  -1.337  13.161  0.00  0.00     0.074 C 
ATOM      5  C13 ZIN A   1      18.211  -2.042  11.821  0.00  0.00    -0.008 A 
ATOM      6  C14 ZIN A   1      18.778  -1.512  10.718  0.00  0.00    -0.019 A 
ATOM      7  C15 ZIN A   1      18.711  -2.342   9.606  0.00  0.00     0.017 A 
ATOM      8  C16 ZIN A   1      18.104  -3.511   9.794  0.00  0.00     0.051 A 
ATOM      9  S17 ZIN A   1      17.563  -3.633  11.461  0.00  0.00    -0.106 SA
ATOM     10  C18 ZIN A   1      19.424  -0.135  10.728  0.00  0.00     0.274 C 
ENDROOT
BRANCH   1  11
ATOM     11  C8  ZIN A   1      19.649   1.888  11.994  0.00  0.00     0.275 C 
BRANCH  11  12
ATOM     12  C7  ZIN A   1      18.717   3.016  11.634  0.00  0.00    -0.011 A 
ATOM     13  C2  ZIN A   1      17.975   3.643  12.620  0.00  0.00     0.042 A 
ATOM     14 Cl1  ZIN A   1      18.123   3.134  14.273  0.00  0.00    -0.084 Cl
ATOM     15  C3  ZIN A   1      17.121   4.680  12.289  0.00  0.00     0.024 A 
ATOM     16  C4  ZIN A   1      17.004   5.084  10.971  0.00  0.00     0.002 A 
ATOM     17  C5  ZIN A   1      17.740   4.453   9.987  0.00  0.00     0.001 A 
ATOM     18  C6  ZIN A   1      18.595   3.418  10.317  0.00  0.00     0.010 A 
ENDBRANCH  11  12
ENDBRANCH   1  11
TORSDOF 2
ENDMDL
MODEL 8
REMARK VINA RESULT:      -6.1      3.287      4.344
REMARK  2 active torsions:
REMARK  status: ('A' for Active; 'I' for Inactive)
REMARK    1  A    between atoms: C7_7  and  C8_8 
REMARK    2  A    between atoms: C8_8  and  N9_9 
ROOT
ATOM      1  N9  ZIN A   1      18.036  -1.193   9.934  0.00  0.00    -0.063 N 
ATOM      2  H10 ZIN A   1      18.993  -0.962  10.154  0.00  0.00     0.280 HD
ATOM      3  C11 ZIN A   1      17.278   0.043   9.697  0.00  0.00     0.240 C 
ATOM      4  C12 ZIN A   1      18.080   0.954   8.760  0.00  0.00     0.074 C 
ATOM      5  C13 ZIN A   1      18.521   0.125   7.571  0.00  0.00    -0.008 A 
ATOM      6  C14 ZIN A   1      18.491  -1.223   7.546  0.00  0.00    -0.019 A 
ATOM      7  C15 ZIN A   1      18.940  -1.766   6.349  0.00  0.00     0.017 A 
ATOM      8  C16 ZIN A   1      19.328  -0.889   5.426  0.00  0.00     0.051 A 
ATOM      9  S17 ZIN A   1      19.137   0.743   6.048  0.00  0.00    -0.106 SA
ATOM     10  C18 ZIN A   1      18.003  -2.039   8.734  0.00  0.00     0.274 C 
ENDROOT
BRANCH   1  11
ATOM     11  C8  ZIN A   1      17.440  -1.923  11.061  0.00  0.00     0.275 C 
BRANCH  11  12
ATOM     12  C7  ZIN A   1      18.016  -1.409  12.354  0.00  0.00    -0.011 A 
ATOM     13  C2  ZIN A   1      19.168  -1.974  12.873  0.00  0.00     0.042 A 
ATOM     14 Cl1  ZIN A   1      19.952  -3.273  12.029  0.00  0.00    -0.084 Cl
ATOM     15  C3  ZIN A   1      19.697  -1.500  14.059  0.00  0.00     0.024 A 
ATOM     16  C4  ZIN A   1      19.071  -0.466  14.730  0.00  0.00     0.002 A 
ATOM     17  C5  ZIN A   1      17.918   0.095  14.215  0.00  0.00     0.001 A 
ATOM     18  C6  ZIN A   1      17.389  -0.378  13.028  0.00  0.00     0.010 A 
ENDBRANCH  11  12
ENDBRANCH   1  11
TORSDOF 2
ENDMDL
MODEL 9
REMARK VINA RESULT:      -6.1      3.242      4.138
REMARK  2 active torsions:
REMARK  status: ('A' for Active; 'I' for Inactive)
REMARK    1  A    between atoms: C7_7  and  C8_8 
REMARK    2  A    between atoms: C8_8  and  N9_9 
ROOT
ATOM      1  N9  ZIN A   1      19.020  -0.866  10.894  0.00  0.00    -0.063 N 
ATOM      2  H10 ZIN A   1      18.065  -0.543  10.929  0.00  0.00     0.280 HD
ATOM      3  C11 ZIN A   1      19.292  -1.713  12.064  0.00  0.00     0.240 C 
ATOM      4  C12 ZIN A   1      18.148  -2.720  12.233  0.00  0.00     0.074 C 
ATOM      5  C13 ZIN A   1      17.908  -3.379  10.891  0.00  0.00    -0.008 A 
ATOM      6  C14 ZIN A   1      18.389  -2.902   9.726  0.00  0.00    -0.019 A 
ATOM      7  C15 ZIN A   1      18.044  -3.675   8.623  0.00  0.00     0.017 A 
ATOM      8  C16 ZIN A   1      17.301  -4.748   8.882  0.00  0.00     0.051 A 
ATOM      9  S17 ZIN A   1      16.985  -4.845  10.608  0.00  0.00    -0.106 SA
ATOM     10  C18 ZIN A   1      19.229  -1.635   9.660  0.00  0.00     0.274 C 
ENDROOT
BRANCH   1  11
ATOM     11  C8  ZIN A   1      19.927   0.290  10.906  0.00  0.00     0.275 C 
BRANCH  11  12
ATOM     12  C7  ZIN A   1      19.121   1.560  10.983  0.00  0.00    -0.011 A 
ATOM     13  C2  ZIN A   1      18.870   2.291   9.835  0.00  0.00     0.042 A 
ATOM     14 Cl1  ZIN A   1      19.479   1.740   8.305  0.00  0.00    -0.084 Cl
ATOM     15  C3  ZIN A   1      18.128   3.456   9.905  0.00  0.00     0.024 A 
ATOM     16  C4  ZIN A   1      17.644   3.894  11.125  0.00  0.00     0.002 A 
ATOM     17  C5  ZIN A   1      17.900   3.167  12.272  0.00  0.00     0.001 A 
ATOM     18  C6  ZIN A   1      18.641   2.001  12.201  0.00  0.00     0.010 A 
ENDBRANCH  11  12
ENDBRANCH   1  11
TORSDOF 2
ENDMDL
