MODEL 1
REMARK VINA RESULT:      -7.4      0.000      0.000
REMARK  1 active torsions:
REMARK  status: ('A' for Active; 'I' for Inactive)
REMARK    1  A    between atoms: N11_11  and  C12_12 
ROOT
ATOM      1  O1  ZIN A   1      18.973   2.663   8.691  0.00  0.00    -0.267 OA
ATOM      2  C2  ZIN A   1      18.679   1.495   8.530  0.00  0.00     0.262 A 
ATOM      3  C3  ZIN A   1      18.807   0.741   7.265  0.00  0.00     0.048 A 
ATOM      4  C4  ZIN A   1      19.246   1.056   5.990  0.00  0.00     0.018 A 
ATOM      5  C5  ZIN A   1      19.236   0.086   4.999  0.00  0.00     0.001 A 
ATOM      6  C6  ZIN A   1      18.790  -1.193   5.276  0.00  0.00     0.001 A 
ATOM      7  C7  ZIN A   1      18.346  -1.523   6.548  0.00  0.00     0.018 A 
ATOM      8  C8  ZIN A   1      18.352  -0.564   7.547  0.00  0.00     0.048 A 
ATOM      9  C9  ZIN A   1      17.964  -0.556   8.974  0.00  0.00     0.262 A 
ATOM     10  O10 ZIN A   1      17.520  -1.503   9.593  0.00  0.00    -0.267 OA
ATOM     11  N11 ZIN A   1      18.190   0.672   9.473  0.00  0.00    -0.266 N 
ENDROOT
BRANCH  11  12
ATOM     12  C12 ZIN A   1      17.926   1.064  10.860  0.00  0.00     0.189 C 
ATOM     13  C19 ZIN A   1      17.114  -0.006  11.541  0.00  0.00     0.247 C 
ATOM     14  N18 ZIN A   1      17.706  -1.014  12.201  0.00  0.00    -0.296 N 
ATOM     15  O20 ZIN A   1      15.903   0.043  11.492  0.00  0.00    -0.271 OA
ATOM     16  C16 ZIN A   1      19.040  -1.126  12.304  0.00  0.00     0.224 C 
ATOM     17  H29 ZIN A   1      17.149  -1.688  12.619  0.00  0.00     0.171 HD
ATOM     18  C15 ZIN A   1      19.960  -0.119  11.668  0.00  0.00     0.106 C 
ATOM     19  O17 ZIN A   1      19.511  -2.056  12.924  0.00  0.00    -0.273 OA
ATOM     20  C14 ZIN A   1      19.254   1.239  11.604  0.00  0.00     0.045 C 
ENDBRANCH  11  12
TORSDOF 1
ENDMDL
MODEL 2
REMARK VINA RESULT:      -7.4      0.069      1.971
REMARK  1 active torsions:
REMARK  status: ('A' for Active; 'I' for Inactive)
REMARK    1  A    between atoms: N11_11  and  C12_12 
ROOT
ATOM      1  O1  ZIN A   1      17.617  -1.554   9.627  0.00  0.00    -0.267 OA
ATOM      2  C2  ZIN A   1      18.032  -0.594   9.009  0.00  0.00     0.262 A 
ATOM      3  C3  ZIN A   1      18.408  -0.586   7.579  0.00  0.00     0.048 A 
ATOM      4  C4  ZIN A   1      18.418  -1.541   6.576  0.00  0.00     0.018 A 
ATOM      5  C5  ZIN A   1      18.843  -1.195   5.302  0.00  0.00     0.001 A 
ATOM      6  C6  ZIN A   1      19.256   0.095   5.027  0.00  0.00     0.001 A 
ATOM      7  C7  ZIN A   1      19.253   1.061   6.022  0.00  0.00     0.018 A 
ATOM      8  C8  ZIN A   1      18.830   0.730   7.299  0.00  0.00     0.048 A 
ATOM      9  C9  ZIN A   1      18.695   1.476   8.569  0.00  0.00     0.262 A 
ATOM     10  O10 ZIN A   1      18.964   2.649   8.733  0.00  0.00    -0.267 OA
ATOM     11  N11 ZIN A   1      18.221   0.639   9.509  0.00  0.00    -0.266 N 
ENDROOT
BRANCH  11  12
ATOM     12  C12 ZIN A   1      17.958   1.019  10.900  0.00  0.00     0.189 C 
ATOM     13  C19 ZIN A   1      17.129  -0.048  11.565  0.00  0.00     0.247 C 
ATOM     14  N18 ZIN A   1      17.706  -1.071  12.215  0.00  0.00    -0.296 N 
ATOM     15  O20 ZIN A   1      15.920   0.017  11.513  0.00  0.00    -0.271 OA
ATOM     16  C16 ZIN A   1      19.037  -1.202  12.322  0.00  0.00     0.224 C 
ATOM     17  H29 ZIN A   1      17.138  -1.743  12.624  0.00  0.00     0.171 HD
ATOM     18  C15 ZIN A   1      19.973  -0.200  11.701  0.00  0.00     0.106 C 
ATOM     19  O17 ZIN A   1      19.494  -2.145  12.933  0.00  0.00    -0.273 OA
ATOM     20  C14 ZIN A   1      19.285   1.168  11.650  0.00  0.00     0.045 C 
ENDBRANCH  11  12
TORSDOF 1
ENDMDL
MODEL 3
REMARK VINA RESULT:      -7.3      3.202      4.437
REMARK  1 active torsions:
REMARK  status: ('A' for Active; 'I' for Inactive)
REMARK    1  A    between atoms: N11_11  and  C12_12 
ROOT
ATOM      1  O1  ZIN A   1      17.473  -1.519  12.044  0.00  0.00    -0.267 OA
ATOM      2  C2  ZIN A   1      17.744  -1.555  10.860  0.00  0.00     0.262 A 
ATOM      3  C3  ZIN A   1      18.130  -0.395  10.029  0.00  0.00     0.048 A 
ATOM      4  C4  ZIN A   1      18.294   0.959  10.273  0.00  0.00     0.018 A 
ATOM      5  C5  ZIN A   1      18.673   1.803   9.241  0.00  0.00     0.001 A 
ATOM      6  C6  ZIN A   1      18.889   1.303   7.970  0.00  0.00     0.001 A 
ATOM      7  C7  ZIN A   1      18.727  -0.050   7.710  0.00  0.00     0.018 A 
ATOM      8  C8  ZIN A   1      18.348  -0.905   8.733  0.00  0.00     0.048 A 
ATOM      9  C9  ZIN A   1      18.090  -2.358   8.822  0.00  0.00     0.262 A 
ATOM     10  O10 ZIN A   1      18.173  -3.150   7.905  0.00  0.00    -0.267 OA
ATOM     11  N11 ZIN A   1      17.751  -2.656  10.089  0.00  0.00    -0.266 N 
ENDROOT
BRANCH  11  12
ATOM     12  C12 ZIN A   1      17.420  -4.003  10.563  0.00  0.00     0.189 C 
ATOM     13  C19 ZIN A   1      17.249  -4.924   9.385  0.00  0.00     0.247 C 
ATOM     14  N18 ZIN A   1      18.284  -5.622   8.891  0.00  0.00    -0.296 N 
ATOM     15  O20 ZIN A   1      16.156  -5.039   8.871  0.00  0.00    -0.271 OA
ATOM     16  C16 ZIN A   1      19.518  -5.553   9.416  0.00  0.00     0.224 C 
ATOM     17  H29 ZIN A   1      18.135  -6.199   8.126  0.00  0.00     0.171 HD
ATOM     18  C15 ZIN A   1      19.817  -4.668  10.596  0.00  0.00     0.106 C 
ATOM     19  O17 ZIN A   1      20.408  -6.218   8.929  0.00  0.00    -0.273 OA
ATOM     20  C14 ZIN A   1      18.554  -4.525  11.451  0.00  0.00     0.045 C 
ENDBRANCH  11  12
TORSDOF 1
ENDMDL
MODEL 4
REMARK VINA RESULT:      -7.3      2.636      4.686
REMARK  1 active torsions:
REMARK  status: ('A' for Active; 'I' for Inactive)
REMARK    1  A    between atoms: N11_11  and  C12_12 
ROOT
ATOM      1  O1  ZIN A   1      16.078   0.204  11.674  0.00  0.00    -0.267 OA
ATOM      2  C2  ZIN A   1      17.219   0.482  11.362  0.00  0.00     0.262 A 
ATOM      3  C3  ZIN A   1      17.914   1.747  11.676  0.00  0.00     0.048 A 
ATOM      4  C4  ZIN A   1      17.559   2.907  12.346  0.00  0.00     0.018 A 
ATOM      5  C5  ZIN A   1      18.476   3.940  12.466  0.00  0.00     0.001 A 
ATOM      6  C6  ZIN A   1      19.742   3.820  11.923  0.00  0.00     0.001 A 
ATOM      7  C7  ZIN A   1      20.111   2.666  11.249  0.00  0.00     0.018 A 
ATOM      8  C8  ZIN A   1      19.205   1.625  11.121  0.00  0.00     0.048 A 
ATOM      9  C9  ZIN A   1      19.249   0.289  10.490  0.00  0.00     0.262 A 
ATOM     10  O10 ZIN A   1      20.200  -0.187   9.903  0.00  0.00    -0.267 OA
ATOM     11  N11 ZIN A   1      18.061  -0.313  10.679  0.00  0.00    -0.266 N 
ENDROOT
BRANCH  11  12
ATOM     12  C12 ZIN A   1      17.725  -1.654  10.193  0.00  0.00     0.189 C 
ATOM     13  C19 ZIN A   1      18.889  -2.216   9.420  0.00  0.00     0.247 C 
ATOM     14  N18 ZIN A   1      19.840  -2.945  10.028  0.00  0.00    -0.296 N 
ATOM     15  O20 ZIN A   1      18.971  -2.008   8.229  0.00  0.00    -0.271 OA
ATOM     16  C16 ZIN A   1      19.808  -3.225  11.340  0.00  0.00     0.224 C 
ATOM     17  H29 ZIN A   1      20.578  -3.283   9.497  0.00  0.00     0.171 HD
ATOM     18  C15 ZIN A   1      18.697  -2.720  12.220  0.00  0.00     0.106 C 
ATOM     19  O17 ZIN A   1      20.693  -3.898  11.825  0.00  0.00    -0.273 OA
ATOM     20  C14 ZIN A   1      17.422  -2.568  11.384  0.00  0.00     0.045 C 
ENDBRANCH  11  12
TORSDOF 1
ENDMDL
MODEL 5
REMARK VINA RESULT:      -7.2      2.372      4.669
REMARK  1 active torsions:
REMARK  status: ('A' for Active; 'I' for Inactive)
REMARK    1  A    between atoms: N11_11  and  C12_12 
ROOT
ATOM      1  O1  ZIN A   1      18.879   2.502   8.053  0.00  0.00    -0.267 OA
ATOM      2  C2  ZIN A   1      18.776   2.391   9.259  0.00  0.00     0.262 A 
ATOM      3  C3  ZIN A   1      18.145   3.374  10.164  0.00  0.00     0.048 A 
ATOM      4  C4  ZIN A   1      17.533   4.603   9.983  0.00  0.00     0.018 A 
ATOM      5  C5  ZIN A   1      17.032   5.290  11.078  0.00  0.00     0.001 A 
ATOM      6  C6  ZIN A   1      17.140   4.757  12.349  0.00  0.00     0.001 A 
ATOM      7  C7  ZIN A   1      17.752   3.528  12.546  0.00  0.00     0.018 A 
ATOM      8  C8  ZIN A   1      18.256   2.831  11.461  0.00  0.00     0.048 A 
ATOM      9  C9  ZIN A   1      18.949   1.535  11.297  0.00  0.00     0.262 A 
ATOM     10  O10 ZIN A   1      19.231   0.764  12.193  0.00  0.00    -0.267 OA
ATOM     11  N11 ZIN A   1      19.211   1.350   9.991  0.00  0.00    -0.266 N 
ENDROOT
BRANCH  11  12
ATOM     12  C12 ZIN A   1      19.892   0.176   9.440  0.00  0.00     0.189 C 
ATOM     13  C19 ZIN A   1      20.271  -0.758  10.559  0.00  0.00     0.247 C 
ATOM     14  N18 ZIN A   1      19.443  -1.735  10.960  0.00  0.00    -0.296 N 
ATOM     15  O20 ZIN A   1      21.344  -0.625  11.108  0.00  0.00    -0.271 OA
ATOM     16  C16 ZIN A   1      18.246  -1.947  10.391  0.00  0.00     0.224 C 
ATOM     17  H29 ZIN A   1      19.720  -2.311  11.690  0.00  0.00     0.171 HD
ATOM     18  C15 ZIN A   1      17.752  -1.082   9.263  0.00  0.00     0.106 C 
ATOM     19  O17 ZIN A   1      17.549  -2.855  10.794  0.00  0.00    -0.273 OA
ATOM     20  C14 ZIN A   1      18.953  -0.552   8.472  0.00  0.00     0.045 C 
ENDBRANCH  11  12
TORSDOF 1
ENDMDL
MODEL 6
REMARK VINA RESULT:      -7.2      6.144      8.046
REMARK  1 active torsions:
REMARK  status: ('A' for Active; 'I' for Inactive)
REMARK    1  A    between atoms: N11_11  and  C12_12 
ROOT
ATOM      1  O1  ZIN A   1      20.072   3.589  17.088  0.00  0.00    -0.267 OA
ATOM      2  C2  ZIN A   1      19.435   2.911  16.307  0.00  0.00     0.262 A 
ATOM      3  C3  ZIN A   1      19.023   1.507  16.522  0.00  0.00     0.048 A 
ATOM      4  C4  ZIN A   1      19.196   0.594  17.549  0.00  0.00     0.018 A 
ATOM      5  C5  ZIN A   1      18.668  -0.682  17.430  0.00  0.00     0.001 A 
ATOM      6  C6  ZIN A   1      17.970  -1.049  16.294  0.00  0.00     0.001 A 
ATOM      7  C7  ZIN A   1      17.791  -0.146  15.258  0.00  0.00     0.018 A 
ATOM      8  C8  ZIN A   1      18.312   1.133  15.363  0.00  0.00     0.048 A 
ATOM      9  C9  ZIN A   1      18.315   2.323  14.485  0.00  0.00     0.262 A 
ATOM     10  O10 ZIN A   1      17.800   2.395  13.388  0.00  0.00    -0.267 OA
ATOM     11  N11 ZIN A   1      18.981   3.312  15.107  0.00  0.00    -0.266 N 
ENDROOT
BRANCH  11  12
ATOM     12  C12 ZIN A   1      19.194   4.649  14.545  0.00  0.00     0.189 C 
ATOM     13  C19 ZIN A   1      18.580   4.722  13.172  0.00  0.00     0.247 C 
ATOM     14  N18 ZIN A   1      17.310   5.122  12.998  0.00  0.00    -0.296 N 
ATOM     15  O20 ZIN A   1      19.243   4.413  12.205  0.00  0.00    -0.271 OA
ATOM     16  C16 ZIN A   1      16.521   5.489  14.020  0.00  0.00     0.224 C 
ATOM     17  H29 ZIN A   1      16.949   5.148  12.098  0.00  0.00     0.171 HD
ATOM     18  C15 ZIN A   1      17.018   5.460  15.440  0.00  0.00     0.106 C 
ATOM     19  O17 ZIN A   1      15.386   5.851  13.793  0.00  0.00    -0.273 OA
ATOM     20  C14 ZIN A   1      18.532   5.695  15.449  0.00  0.00     0.045 C 
ENDBRANCH  11  12
TORSDOF 1
ENDMDL
MODEL 7
REMARK VINA RESULT:      -7.2      6.126      8.099
REMARK  1 active torsions:
REMARK  status: ('A' for Active; 'I' for Inactive)
REMARK    1  A    between atoms: N11_11  and  C12_12 
ROOT
ATOM      1  O1  ZIN A   1      17.798   2.374  13.385  0.00  0.00    -0.267 OA
ATOM      2  C2  ZIN A   1      18.316   2.310  14.482  0.00  0.00     0.262 A 
ATOM      3  C3  ZIN A   1      18.315   1.126  15.367  0.00  0.00     0.048 A 
ATOM      4  C4  ZIN A   1      17.793  -0.154  15.272  0.00  0.00     0.018 A 
ATOM      5  C5  ZIN A   1      17.974  -1.050  16.314  0.00  0.00     0.001 A 
ATOM      6  C6  ZIN A   1      18.672  -0.675  17.447  0.00  0.00     0.001 A 
ATOM      7  C7  ZIN A   1      19.198   0.603  17.557  0.00  0.00     0.018 A 
ATOM      8  C8  ZIN A   1      19.025   1.509  16.523  0.00  0.00     0.048 A 
ATOM      9  C9  ZIN A   1      19.436   2.912  16.299  0.00  0.00     0.262 A 
ATOM     10  O10 ZIN A   1      20.071   3.597  17.075  0.00  0.00    -0.267 OA
ATOM     11  N11 ZIN A   1      18.991   3.300  15.091  0.00  0.00    -0.266 N 
ENDROOT
BRANCH  11  12
ATOM     12  C12 ZIN A   1      19.204   4.632  14.518  0.00  0.00     0.189 C 
ATOM     13  C19 ZIN A   1      18.582   4.697  13.148  0.00  0.00     0.247 C 
ATOM     14  N18 ZIN A   1      17.312   5.100  12.979  0.00  0.00    -0.296 N 
ATOM     15  O20 ZIN A   1      19.240   4.380  12.180  0.00  0.00    -0.271 OA
ATOM     16  C16 ZIN A   1      16.530   5.475  14.002  0.00  0.00     0.224 C 
ATOM     17  H29 ZIN A   1      16.946   5.119  12.081  0.00  0.00     0.171 HD
ATOM     18  C15 ZIN A   1      17.035   5.455  15.420  0.00  0.00     0.106 C 
ATOM     19  O17 ZIN A   1      15.394   5.838  13.780  0.00  0.00    -0.273 OA
ATOM     20  C14 ZIN A   1      18.549   5.686  15.419  0.00  0.00     0.045 C 
ENDBRANCH  11  12
TORSDOF 1
ENDMDL
MODEL 8
REMARK VINA RESULT:      -7.1      3.208      4.626
REMARK  1 active torsions:
REMARK  status: ('A' for Active; 'I' for Inactive)
REMARK    1  A    between atoms: N11_11  and  C12_12 
ROOT
ATOM      1  O1  ZIN A   1      17.742  -2.063   9.433  0.00  0.00    -0.267 OA
ATOM      2  C2  ZIN A   1      18.357  -2.185   8.393  0.00  0.00     0.262 A 
ATOM      3  C3  ZIN A   1      18.441  -1.175   7.318  0.00  0.00     0.048 A 
ATOM      4  C4  ZIN A   1      17.918   0.096   7.140  0.00  0.00     0.018 A 
ATOM      5  C5  ZIN A   1      18.196   0.798   5.978  0.00  0.00     0.001 A 
ATOM      6  C6  ZIN A   1      18.992   0.239   4.995  0.00  0.00     0.001 A 
ATOM      7  C7  ZIN A   1      19.522  -1.032   5.158  0.00  0.00     0.018 A 
ATOM      8  C8  ZIN A   1      19.252  -1.745   6.315  0.00  0.00     0.048 A 
ATOM      9  C9  ZIN A   1      19.634  -3.082   6.817  0.00  0.00     0.262 A 
ATOM     10  O10 ZIN A   1      20.334  -3.885   6.233  0.00  0.00    -0.267 OA
ATOM     11  N11 ZIN A   1      19.080  -3.259   8.030  0.00  0.00    -0.266 N 
ENDROOT
BRANCH  11  12
ATOM     12  C12 ZIN A   1      19.235  -4.468   8.843  0.00  0.00     0.189 C 
ATOM     13  C19 ZIN A   1      18.428  -4.331  10.107  0.00  0.00     0.247 C 
ATOM     14  N18 ZIN A   1      17.154  -4.753  10.169  0.00  0.00    -0.296 N 
ATOM     15  O20 ZIN A   1      18.936  -3.832  11.088  0.00  0.00    -0.271 OA
ATOM     16  C16 ZIN A   1      16.531  -5.325   9.126  0.00  0.00     0.224 C 
ATOM     17  H29 ZIN A   1      16.666  -4.640  10.998  0.00  0.00     0.171 HD
ATOM     18  C15 ZIN A   1      17.230  -5.519   7.808  0.00  0.00     0.106 C 
ATOM     19  O17 ZIN A   1      15.382  -5.694   9.251  0.00  0.00    -0.273 OA
ATOM     20  C14 ZIN A   1      18.734  -5.682   8.054  0.00  0.00     0.045 C 
ENDBRANCH  11  12
TORSDOF 1
ENDMDL
MODEL 9
REMARK VINA RESULT:      -7.0      2.990      4.488
REMARK  1 active torsions:
REMARK  status: ('A' for Active; 'I' for Inactive)
REMARK    1  A    between atoms: N11_11  and  C12_12 
ROOT
ATOM      1  O1  ZIN A   1      17.601  -1.726  12.235  0.00  0.00    -0.267 OA
ATOM      2  C2  ZIN A   1      17.695  -2.309  11.173  0.00  0.00     0.262 A 
ATOM      3  C3  ZIN A   1      17.605  -3.772  10.983  0.00  0.00     0.048 A 
ATOM      4  C4  ZIN A   1      17.409  -4.849  11.832  0.00  0.00     0.018 A 
ATOM      5  C5  ZIN A   1      17.377  -6.135  11.316  0.00  0.00     0.001 A 
ATOM      6  C6  ZIN A   1      17.538  -6.350   9.960  0.00  0.00     0.001 A 
ATOM      7  C7  ZIN A   1      17.736  -5.282   9.098  0.00  0.00     0.018 A 
ATOM      8  C8  ZIN A   1      17.770  -3.991   9.600  0.00  0.00     0.048 A 
ATOM      9  C9  ZIN A   1      17.953  -2.653   8.998  0.00  0.00     0.262 A 
ATOM     10  O10 ZIN A   1      18.127  -2.425   7.817  0.00  0.00    -0.267 OA
ATOM     11  N11 ZIN A   1      17.891  -1.731   9.975  0.00  0.00    -0.266 N 
ENDROOT
BRANCH  11  12
ATOM     12  C12 ZIN A   1      18.031  -0.288   9.763  0.00  0.00     0.189 C 
ATOM     13  C19 ZIN A   1      17.887   0.430  11.079  0.00  0.00     0.247 C 
ATOM     14  N18 ZIN A   1      18.955   0.691  11.849  0.00  0.00    -0.296 N 
ATOM     15  O20 ZIN A   1      16.787   0.780  11.450  0.00  0.00    -0.271 OA
ATOM     16  C16 ZIN A   1      20.203   0.344  11.497  0.00  0.00     0.224 C 
ATOM     17  H29 ZIN A   1      18.820   1.149  12.693  0.00  0.00     0.171 HD
ATOM     18  C15 ZIN A   1      20.478  -0.379  10.205  0.00  0.00     0.106 C 
ATOM     19  O17 ZIN A   1      21.126   0.619  12.234  0.00  0.00    -0.273 OA
ATOM     20  C14 ZIN A   1      19.413   0.010   9.174  0.00  0.00     0.045 C 
ENDBRANCH  11  12
TORSDOF 1
ENDMDL
