MODEL 1
REMARK VINA RESULT:      -8.8      0.000      0.000
REMARK  5 active torsions:
REMARK  status: ('A' for Active; 'I' for Inactive)
REMARK    1  A    between atoms: C6_6  and  C7_7 
REMARK    2  A    between atoms: C7_7  and  N8_8 
REMARK    3  A    between atoms: N12_12  and  C13_13 
REMARK    4  A    between atoms: C13_13  and  C15_14 
REMARK    5  A    between atoms: C13_13  and  C21_20 
ROOT
ATOM      1  N8  <0> d   1      18.202  -0.192  13.253  0.00  0.00    -0.064 N 
ATOM      2  H9  <0> d   1      18.458  -1.001  13.800  0.00  0.00     0.280 HD
ATOM      3  C10 <0> d   1      19.362   0.261  12.475  0.00  0.00     0.265 C 
ATOM      4  C11 <0> d   1      19.831  -0.869  11.554  0.00  0.00     0.301 C 
ATOM      5  N12 <0> d   1      18.734  -1.250  10.653  0.00  0.00     0.105 N 
ATOM      6  C28 <0> d   1      17.556  -1.681  11.419  0.00  0.00     0.301 C 
ATOM      7  C29 <0> d   1      17.106  -0.546  12.341  0.00  0.00     0.265 C 
ENDROOT
BRANCH   5   8
ATOM      8  C13 <0> d   1      19.162  -2.294   9.713  0.00  0.00     0.289 C 
BRANCH   8   9
ATOM      9  C15 <0> d   1      18.392  -3.561   9.985  0.00  0.00    -0.021 A 
ATOM     10  C20 <0> d   1      17.329  -3.911   9.174  0.00  0.00     0.010 A 
ATOM     11  C19 <0> d   1      16.625  -5.074   9.420  0.00  0.00     0.001 A 
ATOM     12  C18 <0> d   1      16.979  -5.884  10.483  0.00  0.00     0.000 A 
ATOM     13  C17 <0> d   1      18.039  -5.531  11.297  0.00  0.00     0.001 A 
ATOM     14  C16 <0> d   1      18.746  -4.370  11.048  0.00  0.00     0.010 A 
ENDBRANCH   8   9
BRANCH   8  15
ATOM     15  C21 <0> d   1      18.899  -1.838   8.301  0.00  0.00    -0.021 A 
ATOM     16  C27 <0> d   1      18.098  -0.735   8.070  0.00  0.00     0.011 A 
ATOM     17  C26 <0> d   1      17.862  -0.312   6.775  0.00  0.00     0.024 A 
ATOM     18  C24 <0> d   1      18.416  -1.000   5.711  0.00  0.00     0.034 A 
ATOM     19  C23 <0> d   1      19.212  -2.107   5.943  0.00  0.00     0.024 A 
ATOM     20 Cl25 <0> d   1      18.112  -0.474   4.085  0.00  0.00    -0.084 Cl
ATOM     21  C22 <0> d   1      19.453  -2.526   7.238  0.00  0.00     0.011 A 
ENDBRANCH   8  15
ENDBRANCH   5   8
BRANCH   1  22
ATOM     22  C7  <0> d   1      17.763   0.885  14.149  0.00  0.00     0.273 C 
BRANCH  22  23
ATOM     23  C6  <0> d   1      18.285   0.627  15.539  0.00  0.00    -0.032 A 
ATOM     24  C5  <0> d   1      18.552  -0.665  15.949  0.00  0.00     0.009 A 
ATOM     25  C4  <0> d   1      19.030  -0.902  17.224  0.00  0.00     0.001 A 
ATOM     26  C3  <0> d   1      19.241   0.155  18.090  0.00  0.00     0.007 A 
ATOM     27  C2  <0> d   1      18.975   1.448  17.681  0.00  0.00    -0.061 A 
ATOM     28  C1  <0> d   1      19.204   2.600  18.625  0.00  0.00     0.048 C 
ATOM     29  C30 <0> d   1      18.491   1.684  16.406  0.00  0.00     0.015 A 
ENDBRANCH  22  23
ENDBRANCH   1  22
TORSDOF 5
ENDMDL
MODEL 2
REMARK VINA RESULT:      -8.6      3.010      3.792
REMARK  5 active torsions:
REMARK  status: ('A' for Active; 'I' for Inactive)
REMARK    1  A    between atoms: C6_6  and  C7_7 
REMARK    2  A    between atoms: C7_7  and  N8_8 
REMARK    3  A    between atoms: N12_12  and  C13_13 
REMARK    4  A    between atoms: C13_13  and  C15_14 
REMARK    5  A    between atoms: C13_13  and  C21_20 
ROOT
ATOM      1  N8  <0> d   1      18.274   3.375  11.546  0.00  0.00    -0.064 N 
ATOM      2  H9  <0> d   1      19.236   3.468  11.837  0.00  0.00     0.280 HD
ATOM      3  C10 <0> d   1      18.205   3.337  10.080  0.00  0.00     0.265 C 
ATOM      4  C11 <0> d   1      19.026   2.153   9.563  0.00  0.00     0.301 C 
ATOM      5  N12 <0> d   1      18.491   0.905  10.128  0.00  0.00     0.105 N 
ATOM      6  C28 <0> d   1      18.530   0.940  11.597  0.00  0.00     0.301 C 
ATOM      7  C29 <0> d   1      17.714   2.134  12.098  0.00  0.00     0.265 C 
ENDROOT
BRANCH   5   8
ATOM      8  C13 <0> d   1      19.218  -0.262   9.610  0.00  0.00     0.289 C 
BRANCH   8   9
ATOM      9  C15 <0> d   1      18.941  -1.456  10.487  0.00  0.00    -0.021 A 
ATOM     10  C20 <0> d   1      17.650  -1.930  10.622  0.00  0.00     0.010 A 
ATOM     11  C19 <0> d   1      17.397  -3.027  11.424  0.00  0.00     0.001 A 
ATOM     12  C18 <0> d   1      18.434  -3.644  12.098  0.00  0.00     0.000 A 
ATOM     13  C17 <0> d   1      19.724  -3.166  11.967  0.00  0.00     0.001 A 
ATOM     14  C16 <0> d   1      19.978  -2.072  11.162  0.00  0.00     0.010 A 
ENDBRANCH   8   9
BRANCH   8  15
ATOM     15  C21 <0> d   1      18.760  -0.554   8.204  0.00  0.00    -0.021 A 
ATOM     16  C27 <0> d   1      19.448  -1.470   7.431  0.00  0.00     0.011 A 
ATOM     17  C26 <0> d   1      19.025  -1.744   6.143  0.00  0.00     0.024 A 
ATOM     18  C24 <0> d   1      17.921  -1.091   5.625  0.00  0.00     0.034 A 
ATOM     19  C23 <0> d   1      17.237  -0.169   6.398  0.00  0.00     0.024 A 
ATOM     20 Cl25 <0> d   1      17.395  -1.427   4.005  0.00  0.00    -0.084 Cl
ATOM     21  C22 <0> d   1      17.658   0.099   7.687  0.00  0.00     0.011 A 
ENDBRANCH   8  15
ENDBRANCH   5   8
BRANCH   1  22
ATOM     22  C7  <0> d   1      17.501   4.522  12.042  0.00  0.00     0.273 C 
BRANCH  22  23
ATOM     23  C6  <0> d   1      18.205   5.129  13.228  0.00  0.00    -0.032 A 
ATOM     24  C5  <0> d   1      19.586   5.191  13.256  0.00  0.00     0.009 A 
ATOM     25  C4  <0> d   1      20.232   5.747  14.343  0.00  0.00     0.001 A 
ATOM     26  C3  <0> d   1      19.497   6.242  15.405  0.00  0.00     0.007 A 
ATOM     27  C2  <0> d   1      18.116   6.180  15.378  0.00  0.00    -0.061 A 
ATOM     28  C1  <0> d   1      17.315   6.719  16.535  0.00  0.00     0.048 C 
ATOM     29  C30 <0> d   1      17.470   5.619  14.291  0.00  0.00     0.015 A 
ENDBRANCH  22  23
ENDBRANCH   1  22
TORSDOF 5
ENDMDL
MODEL 3
REMARK VINA RESULT:      -8.6      1.122      2.141
REMARK  5 active torsions:
REMARK  status: ('A' for Active; 'I' for Inactive)
REMARK    1  A    between atoms: C6_6  and  C7_7 
REMARK    2  A    between atoms: C7_7  and  N8_8 
REMARK    3  A    between atoms: N12_12  and  C13_13 
REMARK    4  A    between atoms: C13_13  and  C15_14 
REMARK    5  A    between atoms: C13_13  and  C21_20 
ROOT
ATOM      1  N8  <0> d   1      18.677   1.285  13.293  0.00  0.00    -0.064 N 
ATOM      2  H9  <0> d   1      19.161   0.652  13.912  0.00  0.00     0.280 HD
ATOM      3  C10 <0> d   1      19.616   1.805  12.291  0.00  0.00     0.265 C 
ATOM      4  C11 <0> d   1      20.209   0.640  11.495  0.00  0.00     0.301 C 
ATOM      5  N12 <0> d   1      19.123  -0.100  10.835  0.00  0.00     0.105 N 
ATOM      6  C28 <0> d   1      18.161  -0.606  11.824  0.00  0.00     0.301 C 
ATOM      7  C29 <0> d   1      17.585   0.568  12.618  0.00  0.00     0.265 C 
ENDROOT
BRANCH   5   8
ATOM      8  C13 <0> d   1      19.656  -1.195  10.012  0.00  0.00     0.289 C 
BRANCH   8   9
ATOM      9  C15 <0> d   1      19.085  -2.506  10.488  0.00  0.00    -0.021 A 
ATOM     10  C20 <0> d   1      19.904  -3.434  11.102  0.00  0.00     0.010 A 
ATOM     11  C19 <0> d   1      19.381  -4.634  11.542  0.00  0.00     0.001 A 
ATOM     12  C18 <0> d   1      18.038  -4.910  11.361  0.00  0.00     0.000 A 
ATOM     13  C17 <0> d   1      17.220  -3.984  10.742  0.00  0.00     0.001 A 
ATOM     14  C16 <0> d   1      17.743  -2.782  10.305  0.00  0.00     0.010 A 
ENDBRANCH   8   9
BRANCH   8  15
ATOM     15  C21 <0> d   1      19.273  -0.972   8.571  0.00  0.00    -0.021 A 
ATOM     16  C27 <0> d   1      19.576  -1.929   7.621  0.00  0.00     0.011 A 
ATOM     17  C26 <0> d   1      19.218  -1.729   6.300  0.00  0.00     0.024 A 
ATOM     18  C24 <0> d   1      18.569  -0.565   5.929  0.00  0.00     0.034 A 
ATOM     19  C23 <0> d   1      18.272   0.394   6.881  0.00  0.00     0.024 A 
ATOM     20 Cl25 <0> d   1      18.128  -0.309   4.270  0.00  0.00    -0.084 Cl
ATOM     21  C22 <0> d   1      18.624   0.190   8.201  0.00  0.00     0.011 A 
ENDBRANCH   8  15
ENDBRANCH   5   8
BRANCH   1  22
ATOM     22  C7  <0> d   1      18.121   2.401  14.070  0.00  0.00     0.273 C 
BRANCH  22  23
ATOM     23  C6  <0> d   1      18.521   2.256  15.515  0.00  0.00    -0.032 A 
ATOM     24  C5  <0> d   1      18.724   3.380  16.293  0.00  0.00     0.009 A 
ATOM     25  C4  <0> d   1      19.091   3.247  17.619  0.00  0.00     0.001 A 
ATOM     26  C3  <0> d   1      19.253   1.989  18.168  0.00  0.00     0.007 A 
ATOM     27  C2  <0> d   1      19.049   0.864  17.391  0.00  0.00    -0.061 A 
ATOM     28  C1  <0> d   1      19.226  -0.508  17.990  0.00  0.00     0.048 C 
ATOM     29  C30 <0> d   1      18.687   0.998  16.062  0.00  0.00     0.015 A 
ENDBRANCH  22  23
ENDBRANCH   1  22
TORSDOF 5
ENDMDL
MODEL 4
REMARK VINA RESULT:      -8.4      3.254      8.482
REMARK  5 active torsions:
REMARK  status: ('A' for Active; 'I' for Inactive)
REMARK    1  A    between atoms: C6_6  and  C7_7 
REMARK    2  A    between atoms: C7_7  and  N8_8 
REMARK    3  A    between atoms: N12_12  and  C13_13 
REMARK    4  A    between atoms: C13_13  and  C15_14 
REMARK    5  A    between atoms: C13_13  and  C21_20 
ROOT
ATOM      1  N8  <0> d   1      19.047  -0.184  10.897  0.00  0.00    -0.064 N 
ATOM      2  H9  <0> d   1      18.755   0.707  10.522  0.00  0.00     0.280 HD
ATOM      3  C10 <0> d   1      20.062   0.029  11.935  0.00  0.00     0.265 C 
ATOM      4  C11 <0> d   1      19.477   0.900  13.049  0.00  0.00     0.301 C 
ATOM      5  N12 <0> d   1      18.299   0.232  13.622  0.00  0.00     0.105 N 
ATOM      6  C28 <0> d   1      17.283  -0.011  12.587  0.00  0.00     0.301 C 
ATOM      7  C29 <0> d   1      17.886  -0.874  11.477  0.00  0.00     0.265 C 
ENDROOT
BRANCH   5   8
ATOM      8  C13 <0> d   1      17.740   1.011  14.735  0.00  0.00     0.289 C 
BRANCH   8   9
ATOM      9  C15 <0> d   1      18.165   0.394  16.043  0.00  0.00    -0.021 A 
ATOM     10  C20 <0> d   1      18.966  -0.732  16.048  0.00  0.00     0.010 A 
ATOM     11  C19 <0> d   1      19.360  -1.295  17.246  0.00  0.00     0.001 A 
ATOM     12  C18 <0> d   1      18.944  -0.738  18.441  0.00  0.00     0.000 A 
ATOM     13  C17 <0> d   1      18.138   0.385  18.436  0.00  0.00     0.001 A 
ATOM     14  C16 <0> d   1      17.748   0.951  17.237  0.00  0.00     0.010 A 
ENDBRANCH   8   9
BRANCH   8  15
ATOM     15  C21 <0> d   1      18.246   2.429  14.659  0.00  0.00    -0.021 A 
ATOM     16  C27 <0> d   1      17.774   3.278  13.676  0.00  0.00     0.011 A 
ATOM     17  C26 <0> d   1      18.232   4.581  13.611  0.00  0.00     0.024 A 
ATOM     18  C24 <0> d   1      19.173   5.029  14.520  0.00  0.00     0.034 A 
ATOM     19  C23 <0> d   1      19.650   4.176  15.499  0.00  0.00     0.024 A 
ATOM     20 Cl25 <0> d   1      19.756   6.662  14.432  0.00  0.00    -0.084 Cl
ATOM     21  C22 <0> d   1      19.186   2.876  15.568  0.00  0.00     0.011 A 
ENDBRANCH   8  15
ENDBRANCH   5   8
BRANCH   1  22
ATOM     22  C7  <0> d   1      19.614  -1.005   9.818  0.00  0.00     0.273 C 
BRANCH  22  23
ATOM     23  C6  <0> d   1      19.367  -0.334   8.492  0.00  0.00    -0.032 A 
ATOM     24  C5  <0> d   1      19.266   1.042   8.421  0.00  0.00     0.009 A 
ATOM     25  C4  <0> d   1      19.039   1.658   7.205  0.00  0.00     0.001 A 
ATOM     26  C3  <0> d   1      18.915   0.896   6.058  0.00  0.00     0.007 A 
ATOM     27  C2  <0> d   1      19.017  -0.481   6.128  0.00  0.00    -0.061 A 
ATOM     28  C1  <0> d   1      18.881  -1.311   4.877  0.00  0.00     0.048 C 
ATOM     29  C30 <0> d   1      19.238  -1.096   7.346  0.00  0.00     0.015 A 
ENDBRANCH  22  23
ENDBRANCH   1  22
TORSDOF 5
ENDMDL
MODEL 5
REMARK VINA RESULT:      -8.3      1.731      2.523
REMARK  5 active torsions:
REMARK  status: ('A' for Active; 'I' for Inactive)
REMARK    1  A    between atoms: C6_6  and  C7_7 
REMARK    2  A    between atoms: C7_7  and  N8_8 
REMARK    3  A    between atoms: N12_12  and  C13_13 
REMARK    4  A    between atoms: C13_13  and  C15_14 
REMARK    5  A    between atoms: C13_13  and  C21_20 
ROOT
ATOM      1  N8  <0> d   1      18.334   0.099  14.166  0.00  0.00    -0.064 N 
ATOM      2  H9  <0> d   1      19.088   0.704  13.876  0.00  0.00     0.280 HD
ATOM      3  C10 <0> d   1      17.345  -0.003  13.086  0.00  0.00     0.265 C 
ATOM      4  C11 <0> d   1      18.016  -0.566  11.831  0.00  0.00     0.301 C 
ATOM      5  N12 <0> d   1      18.577  -1.892  12.133  0.00  0.00     0.105 N 
ATOM      6  C28 <0> d   1      19.551  -1.809  13.230  0.00  0.00     0.301 C 
ATOM      7  C29 <0> d   1      18.867  -1.235  14.473  0.00  0.00     0.265 C 
ENDROOT
BRANCH   5   8
ATOM      8  C13 <0> d   1      19.182  -2.492  10.936  0.00  0.00     0.289 C 
BRANCH   8   9
ATOM      9  C15 <0> d   1      18.492  -3.795  10.624  0.00  0.00    -0.021 A 
ATOM     10  C20 <0> d   1      19.090  -4.707   9.776  0.00  0.00     0.010 A 
ATOM     11  C19 <0> d   1      18.460  -5.904   9.492  0.00  0.00     0.001 A 
ATOM     12  C18 <0> d   1      17.226  -6.184  10.049  0.00  0.00     0.000 A 
ATOM     13  C17 <0> d   1      16.626  -5.268  10.893  0.00  0.00     0.001 A 
ATOM     14  C16 <0> d   1      17.258  -4.074  11.180  0.00  0.00     0.010 A 
ENDBRANCH   8   9
BRANCH   8  15
ATOM     15  C21 <0> d   1      19.030  -1.549   9.769  0.00  0.00    -0.021 A 
ATOM     16  C27 <0> d   1      17.963  -1.691   8.902  0.00  0.00     0.011 A 
ATOM     17  C26 <0> d   1      17.818  -0.822   7.836  0.00  0.00     0.024 A 
ATOM     18  C24 <0> d   1      18.749   0.180   7.631  0.00  0.00     0.034 A 
ATOM     19  C23 <0> d   1      19.819   0.318   8.497  0.00  0.00     0.024 A 
ATOM     20 Cl25 <0> d   1      18.573   1.266   6.288  0.00  0.00    -0.084 Cl
ATOM     21  C22 <0> d   1      19.959  -0.547   9.565  0.00  0.00     0.011 A 
ENDBRANCH   8  15
ENDBRANCH   5   8
BRANCH   1  22
ATOM     22  C7  <0> d   1      17.693   0.657  15.365  0.00  0.00     0.273 C 
BRANCH  22  23
ATOM     23  C6  <0> d   1      18.374   1.946  15.746  0.00  0.00    -0.032 A 
ATOM     24  C5  <0> d   1      18.834   2.131  17.036  0.00  0.00     0.009 A 
ATOM     25  C4  <0> d   1      19.458   3.313  17.386  0.00  0.00     0.001 A 
ATOM     26  C3  <0> d   1      19.623   4.312  16.445  0.00  0.00     0.007 A 
ATOM     27  C2  <0> d   1      19.164   4.128  15.154  0.00  0.00    -0.061 A 
ATOM     28  C1  <0> d   1      19.343   5.217  14.127  0.00  0.00     0.048 C 
ATOM     29  C30 <0> d   1      18.534   2.946  14.806  0.00  0.00     0.015 A 
ENDBRANCH  22  23
ENDBRANCH   1  22
TORSDOF 5
ENDMDL
MODEL 6
REMARK VINA RESULT:      -8.3      3.448      8.916
REMARK  5 active torsions:
REMARK  status: ('A' for Active; 'I' for Inactive)
REMARK    1  A    between atoms: C6_6  and  C7_7 
REMARK    2  A    between atoms: C7_7  and  N8_8 
REMARK    3  A    between atoms: N12_12  and  C13_13 
REMARK    4  A    between atoms: C13_13  and  C15_14 
REMARK    5  A    between atoms: C13_13  and  C21_20 
ROOT
ATOM      1  N8  <0> d   1      18.662  -1.304   9.652  0.00  0.00    -0.064 N 
ATOM      2  H9  <0> d   1      18.949  -0.630   8.958  0.00  0.00     0.280 HD
ATOM      3  C10 <0> d   1      19.763  -1.534  10.596  0.00  0.00     0.265 C 
ATOM      4  C11 <0> d   1      20.137  -0.213  11.272  0.00  0.00     0.301 C 
ATOM      5  N12 <0> d   1      18.965   0.322  11.980  0.00  0.00     0.105 N 
ATOM      6  C28 <0> d   1      17.846   0.533  11.050  0.00  0.00     0.301 C 
ATOM      7  C29 <0> d   1      17.490  -0.793  10.376  0.00  0.00     0.265 C 
ENDROOT
BRANCH   5   8
ATOM      8  C13 <0> d   1      19.299   1.564  12.691  0.00  0.00     0.289 C 
BRANCH   8   9
ATOM      9  C15 <0> d   1      18.571   2.719  12.054  0.00  0.00    -0.021 A 
ATOM     10  C20 <0> d   1      18.865   3.090  10.756  0.00  0.00     0.010 A 
ATOM     11  C19 <0> d   1      18.196   4.147  10.169  0.00  0.00     0.001 A 
ATOM     12  C18 <0> d   1      17.237   4.840  10.886  0.00  0.00     0.000 A 
ATOM     13  C17 <0> d   1      16.947   4.472  12.186  0.00  0.00     0.001 A 
ATOM     14  C16 <0> d   1      17.614   3.412  12.771  0.00  0.00     0.010 A 
ENDBRANCH   8   9
BRANCH   8  15
ATOM     15  C21 <0> d   1      18.885   1.442  14.135  0.00  0.00    -0.021 A 
ATOM     16  C27 <0> d   1      18.009   0.445  14.521  0.00  0.00     0.011 A 
ATOM     17  C26 <0> d   1      17.635   0.328  15.847  0.00  0.00     0.024 A 
ATOM     18  C24 <0> d   1      18.126   1.219  16.784  0.00  0.00     0.034 A 
ATOM     19  C23 <0> d   1      18.997   2.221  16.396  0.00  0.00     0.024 A 
ATOM     20 Cl25 <0> d   1      17.648   1.079  18.447  0.00  0.00    -0.084 Cl
ATOM     21  C22 <0> d   1      19.376   2.332  15.072  0.00  0.00     0.011 A 
ENDBRANCH   8  15
ENDBRANCH   5   8
BRANCH   1  22
ATOM     22  C7  <0> d   1      18.314  -2.569   8.989  0.00  0.00     0.273 C 
BRANCH  22  23
ATOM     23  C6  <0> d   1      18.611  -2.463   7.516  0.00  0.00    -0.032 A 
ATOM     24  C5  <0> d   1      18.671  -3.605   6.739  0.00  0.00     0.009 A 
ATOM     25  C4  <0> d   1      18.943  -3.508   5.387  0.00  0.00     0.001 A 
ATOM     26  C3  <0> d   1      19.155  -2.269   4.812  0.00  0.00     0.007 A 
ATOM     27  C2  <0> d   1      19.095  -1.127   5.588  0.00  0.00    -0.061 A 
ATOM     28  C1  <0> d   1      19.327   0.224   4.961  0.00  0.00     0.048 C 
ATOM     29  C30 <0> d   1      18.828  -1.225   6.942  0.00  0.00     0.015 A 
ENDBRANCH  22  23
ENDBRANCH   1  22
TORSDOF 5
ENDMDL
MODEL 7
REMARK VINA RESULT:      -8.2      3.622      5.542
REMARK  5 active torsions:
REMARK  status: ('A' for Active; 'I' for Inactive)
REMARK    1  A    between atoms: C6_6  and  C7_7 
REMARK    2  A    between atoms: C7_7  and  N8_8 
REMARK    3  A    between atoms: N12_12  and  C13_13 
REMARK    4  A    between atoms: C13_13  and  C15_14 
REMARK    5  A    between atoms: C13_13  and  C21_20 
ROOT
ATOM      1  N8  <0> d   1      18.861   3.687  12.303  0.00  0.00    -0.064 N 
ATOM      2  H9  <0> d   1      17.991   3.583  12.803  0.00  0.00     0.280 HD
ATOM      3  C10 <0> d   1      19.627   2.437  12.385  0.00  0.00     0.265 C 
ATOM      4  C11 <0> d   1      18.806   1.296  11.779  0.00  0.00     0.301 C 
ATOM      5  N12 <0> d   1      18.497   1.610  10.376  0.00  0.00     0.105 N 
ATOM      6  C28 <0> d   1      17.752   2.874  10.277  0.00  0.00     0.301 C 
ATOM      7  C29 <0> d   1      18.580   4.001  10.895  0.00  0.00     0.265 C 
ENDROOT
BRANCH   5   8
ATOM      8  C13 <0> d   1      17.756   0.511   9.741  0.00  0.00     0.289 C 
BRANCH   8   9
ATOM      9  C15 <0> d   1      17.962   0.564   8.249  0.00  0.00    -0.021 A 
ATOM     10  C20 <0> d   1      18.991   1.317   7.720  0.00  0.00     0.010 A 
ATOM     11  C19 <0> d   1      19.182   1.363   6.352  0.00  0.00     0.001 A 
ATOM     12  C18 <0> d   1      18.337   0.661   5.513  0.00  0.00     0.000 A 
ATOM     13  C17 <0> d   1      17.304  -0.089   6.043  0.00  0.00     0.001 A 
ATOM     14  C16 <0> d   1      17.116  -0.137   7.411  0.00  0.00     0.010 A 
ENDBRANCH   8   9
BRANCH   8  15
ATOM     15  C21 <0> d   1      18.260  -0.806  10.273  0.00  0.00    -0.021 A 
ATOM     16  C27 <0> d   1      17.377  -1.705  10.841  0.00  0.00     0.011 A 
ATOM     17  C26 <0> d   1      17.837  -2.916  11.322  0.00  0.00     0.024 A 
ATOM     18  C24 <0> d   1      19.184  -3.223  11.247  0.00  0.00     0.034 A 
ATOM     19  C23 <0> d   1      20.068  -2.321  10.683  0.00  0.00     0.024 A 
ATOM     20 Cl25 <0> d   1      19.764  -4.740  11.859  0.00  0.00    -0.084 Cl
ATOM     21  C22 <0> d   1      19.606  -1.113  10.197  0.00  0.00     0.011 A 
ENDBRANCH   8  15
ENDBRANCH   5   8
BRANCH   1  22
ATOM     22  C7  <0> d   1      19.641   4.779  12.900  0.00  0.00     0.273 C 
BRANCH  22  23
ATOM     23  C6  <0> d   1      18.825   5.453  13.972  0.00  0.00    -0.032 A 
ATOM     24  C5  <0> d   1      19.449   5.996  15.079  0.00  0.00     0.009 A 
ATOM     25  C4  <0> d   1      18.700   6.614  16.063  0.00  0.00     0.001 A 
ATOM     26  C3  <0> d   1      17.326   6.690  15.939  0.00  0.00     0.007 A 
ATOM     27  C2  <0> d   1      16.700   6.148  14.832  0.00  0.00    -0.061 A 
ATOM     28  C1  <0> d   1      15.201   6.230  14.697  0.00  0.00     0.048 C 
ATOM     29  C30 <0> d   1      17.450   5.525  13.851  0.00  0.00     0.015 A 
ENDBRANCH  22  23
ENDBRANCH   1  22
TORSDOF 5
ENDMDL
MODEL 8
REMARK VINA RESULT:      -8.2      3.323      8.169
REMARK  5 active torsions:
REMARK  status: ('A' for Active; 'I' for Inactive)
REMARK    1  A    between atoms: C6_6  and  C7_7 
REMARK    2  A    between atoms: C7_7  and  N8_8 
REMARK    3  A    between atoms: N12_12  and  C13_13 
REMARK    4  A    between atoms: C13_13  and  C15_14 
REMARK    5  A    between atoms: C13_13  and  C21_20 
ROOT
ATOM      1  N8  <0> d   1      18.743  -1.627   9.369  0.00  0.00    -0.064 N 
ATOM      2  H9  <0> d   1      18.824  -2.255  10.155  0.00  0.00     0.280 HD
ATOM      3  C10 <0> d   1      17.645  -0.682   9.607  0.00  0.00     0.265 C 
ATOM      4  C11 <0> d   1      17.924   0.111  10.886  0.00  0.00     0.301 C 
ATOM      5  N12 <0> d   1      19.195   0.837  10.741  0.00  0.00     0.105 N 
ATOM      6  C28 <0> d   1      20.300  -0.095  10.477  0.00  0.00     0.301 C 
ATOM      7  C29 <0> d   1      20.002  -0.887   9.203  0.00  0.00     0.265 C 
ENDROOT
BRANCH   5   8
ATOM      8  C13 <0> d   1      19.471   1.658  11.928  0.00  0.00     0.289 C 
BRANCH   8   9
ATOM      9  C15 <0> d   1      18.724   2.962  11.822  0.00  0.00    -0.021 A 
ATOM     10  C20 <0> d   1      17.903   3.201  10.737  0.00  0.00     0.010 A 
ATOM     11  C19 <0> d   1      17.215   4.396  10.640  0.00  0.00     0.001 A 
ATOM     12  C18 <0> d   1      17.356   5.356  11.625  0.00  0.00     0.000 A 
ATOM     13  C17 <0> d   1      18.182   5.118  12.708  0.00  0.00     0.001 A 
ATOM     14  C16 <0> d   1      18.866   3.922  12.806  0.00  0.00     0.010 A 
ENDBRANCH   8   9
BRANCH   8  15
ATOM     15  C21 <0> d   1      19.022   0.920  13.164  0.00  0.00    -0.021 A 
ATOM     16  C27 <0> d   1      17.792   1.204  13.729  0.00  0.00     0.011 A 
ATOM     17  C26 <0> d   1      17.377   0.523  14.858  0.00  0.00     0.024 A 
ATOM     18  C24 <0> d   1      18.197  -0.433  15.429  0.00  0.00     0.034 A 
ATOM     19  C23 <0> d   1      19.430  -0.712  14.866  0.00  0.00     0.024 A 
ATOM     20 Cl25 <0> d   1      17.680  -1.282  16.852  0.00  0.00    -0.084 Cl
ATOM     21  C22 <0> d   1      19.841  -0.035  13.734  0.00  0.00     0.011 A 
ENDBRANCH   8  15
ENDBRANCH   5   8
BRANCH   1  22
ATOM     22  C7  <0> d   1      18.467  -2.402   8.152  0.00  0.00     0.273 C 
BRANCH  22  23
ATOM     23  C6  <0> d   1      18.111  -3.817   8.525  0.00  0.00    -0.032 A 
ATOM     24  C5  <0> d   1      17.979  -4.780   7.543  0.00  0.00     0.009 A 
ATOM     25  C4  <0> d   1      17.652  -6.078   7.885  0.00  0.00     0.001 A 
ATOM     26  C3  <0> d   1      17.457  -6.414   9.212  0.00  0.00     0.007 A 
ATOM     27  C2  <0> d   1      17.590  -5.452  10.195  0.00  0.00    -0.061 A 
ATOM     28  C1  <0> d   1      17.377  -5.819  11.642  0.00  0.00     0.048 C 
ATOM     29  C30 <0> d   1      17.912  -4.152   9.851  0.00  0.00     0.015 A 
ENDBRANCH  22  23
ENDBRANCH   1  22
TORSDOF 5
ENDMDL
MODEL 9
REMARK VINA RESULT:      -8.1      1.952      4.024
REMARK  5 active torsions:
REMARK  status: ('A' for Active; 'I' for Inactive)
REMARK    1  A    between atoms: C6_6  and  C7_7 
REMARK    2  A    between atoms: C7_7  and  N8_8 
REMARK    3  A    between atoms: N12_12  and  C13_13 
REMARK    4  A    between atoms: C13_13  and  C15_14 
REMARK    5  A    between atoms: C13_13  and  C21_20 
ROOT
ATOM      1  N8  <0> d   1      19.005   0.078  12.973  0.00  0.00    -0.064 N 
ATOM      2  H9  <0> d   1      18.653  -0.806  13.307  0.00  0.00     0.280 HD
ATOM      3  C10 <0> d   1      20.005  -0.157  11.923  0.00  0.00     0.265 C 
ATOM      4  C11 <0> d   1      19.362  -0.935  10.772  0.00  0.00     0.301 C 
ATOM      5  N12 <0> d   1      18.232  -0.162  10.234  0.00  0.00     0.105 N 
ATOM      6  C28 <0> d   1      17.235   0.103  11.281  0.00  0.00     0.301 C 
ATOM      7  C29 <0> d   1      17.895   0.871  12.427  0.00  0.00     0.265 C 
ENDROOT
BRANCH   5   8
ATOM      8  C13 <0> d   1      17.622  -0.850   9.088  0.00  0.00     0.289 C 
BRANCH   8   9
ATOM      9  C15 <0> d   1      17.993  -0.133   7.815  0.00  0.00    -0.021 A 
ATOM     10  C20 <0> d   1      18.908   0.902   7.847  0.00  0.00     0.010 A 
ATOM     11  C19 <0> d   1      19.252   1.557   6.680  0.00  0.00     0.001 A 
ATOM     12  C18 <0> d   1      18.673   1.183   5.482  0.00  0.00     0.000 A 
ATOM     13  C17 <0> d   1      17.754   0.151   5.451  0.00  0.00     0.001 A 
ATOM     14  C16 <0> d   1      17.414  -0.507   6.618  0.00  0.00     0.010 A 
ENDBRANCH   8   9
BRANCH   8  15
ATOM     15  C21 <0> d   1      18.124  -2.271   9.030  0.00  0.00    -0.021 A 
ATOM     16  C27 <0> d   1      18.992  -2.656   8.025  0.00  0.00     0.011 A 
ATOM     17  C26 <0> d   1      19.458  -3.957   7.976  0.00  0.00     0.024 A 
ATOM     18  C24 <0> d   1      19.046  -4.875   8.925  0.00  0.00     0.034 A 
ATOM     19  C23 <0> d   1      18.173  -4.489   9.927  0.00  0.00     0.024 A 
ATOM     20 Cl25 <0> d   1      19.624  -6.510   8.858  0.00  0.00    -0.084 Cl
ATOM     21  C22 <0> d   1      17.713  -3.188   9.978  0.00  0.00     0.011 A 
ENDBRANCH   8  15
ENDBRANCH   5   8
BRANCH   1  22
ATOM     22  C7  <0> d   1      19.627   0.809  14.085  0.00  0.00     0.273 C 
BRANCH  22  23
ATOM     23  C6  <0> d   1      18.951   0.429  15.377  0.00  0.00    -0.032 A 
ATOM     24  C5  <0> d   1      18.540  -0.874  15.585  0.00  0.00     0.009 A 
ATOM     25  C4  <0> d   1      17.920  -1.223  16.770  0.00  0.00     0.001 A 
ATOM     26  C3  <0> d   1      17.712  -0.269  17.748  0.00  0.00     0.007 A 
ATOM     27  C2  <0> d   1      18.124   1.034  17.542  0.00  0.00    -0.061 A 
ATOM     28  C1  <0> d   1      17.897   2.075  18.608  0.00  0.00     0.048 C 
ATOM     29  C30 <0> d   1      18.740   1.384  16.353  0.00  0.00     0.015 A 
ENDBRANCH  22  23
ENDBRANCH   1  22
TORSDOF 5
ENDMDL
