MODEL 1
REMARK VINA RESULT:      -7.9      0.000      0.000
REMARK  5 active torsions:
REMARK  status: ('A' for Active; 'I' for Inactive)
REMARK    1  A    between atoms: O2_2  and  C3_3 
REMARK    2  A    between atoms: C7_7  and  O8_8 
REMARK    3  A    between atoms: C10_10  and  O11_11 
REMARK    4  A    between atoms: C16_16  and  O17_17 
REMARK    5  A    between atoms: C23_23  and  N25_24 
REMARK       I    between atoms: N25_24  and  C26_25 
ROOT
ATOM      1  C3  ZIN A   1      18.315  -1.564  13.175  0.00  0.00     0.104 A 
ATOM      2  C4  ZIN A   1      19.083  -2.601  12.660  0.00  0.00     0.047 A 
ATOM      3  C5  ZIN A   1      19.235  -2.736  11.296  0.00  0.00    -0.041 A 
ATOM      4  C6  ZIN A   1      18.612  -1.838  10.436  0.00  0.00     0.017 A 
ATOM      5  C7  ZIN A   1      17.842  -0.789  10.947  0.00  0.00     0.116 A 
ATOM      6  C10 ZIN A   1      17.691  -0.660  12.322  0.00  0.00     0.136 A 
ATOM      7  C13 ZIN A   1      18.754  -1.998   8.957  0.00  0.00    -0.014 A 
ATOM      8  C14 ZIN A   1      19.091  -0.876   8.245  0.00  0.00     0.016 A 
ATOM      9  C15 ZIN A   1      19.326  -0.660   6.936  0.00  0.00     0.042 A 
ATOM     10  C16 ZIN A   1      19.319  -1.555   5.912  0.00  0.00     0.118 A 
ATOM     11  C19 ZIN A   1      19.052  -2.914   6.029  0.00  0.00     0.205 A 
ATOM     12  O20 ZIN A   1      19.158  -3.567   5.000  0.00  0.00    -0.285 OA
ATOM     13  C21 ZIN A   1      18.688  -3.617   7.143  0.00  0.00     0.068 A 
ATOM     14  C22 ZIN A   1      18.526  -3.270   8.432  0.00  0.00    -0.020 A 
ATOM     15  C23 ZIN A   1      18.041  -4.360   9.365  0.00  0.00     0.119 C 
ATOM     16  C29 ZIN A   1      19.176  -4.948  10.178  0.00  0.00     0.034 C 
ATOM     17  C30 ZIN A   1      20.079  -3.851  10.734  0.00  0.00     0.042 C 
ENDROOT
BRANCH  15  18
ATOM     18  N25 ZIN A   1      17.420  -5.425   8.574  0.00  0.00    -0.353 N 
ATOM     19  C26 ZIN A   1      16.209  -5.904   8.920  0.00  0.00     0.214 C 
ATOM     20  C27 ZIN A   1      15.570  -7.000   8.106  0.00  0.00     0.117 C 
ATOM     21  O28 ZIN A   1      15.634  -5.453   9.888  0.00  0.00    -0.274 OA
ATOM     22  H47 ZIN A   1      17.880  -5.785   7.799  0.00  0.00     0.163 HD
ENDBRANCH  15  18
BRANCH   5  23
ATOM     23  O8  ZIN A   1      17.242   0.094  10.106  0.00  0.00    -0.352 OA
ATOM     24  C9  ZIN A   1      17.832   1.392  10.002  0.00  0.00     0.210 C 
ENDBRANCH   5  23
BRANCH  10  25
ATOM     25  O17 ZIN A   1      19.596  -1.081   4.672  0.00  0.00    -0.352 OA
ATOM     26  C18 ZIN A   1      18.818   0.025   4.211  0.00  0.00     0.210 C 
ENDBRANCH  10  25
BRANCH   6  27
ATOM     27  O11 ZIN A   1      16.943   0.355  12.833  0.00  0.00    -0.351 OA
ATOM     28  C12 ZIN A   1      17.648   1.468  13.385  0.00  0.00     0.210 C 
ENDBRANCH   6  27
BRANCH   1  29
ATOM     29  O2  ZIN A   1      18.167  -1.437  14.520  0.00  0.00    -0.353 OA
ATOM     30  C1  ZIN A   1      19.351  -1.207  15.284  0.00  0.00     0.210 C 
ENDBRANCH   1  29
TORSDOF 5
ENDMDL
MODEL 2
REMARK VINA RESULT:      -7.8      2.950      8.100
REMARK  5 active torsions:
REMARK  status: ('A' for Active; 'I' for Inactive)
REMARK    1  A    between atoms: O2_2  and  C3_3 
REMARK    2  A    between atoms: C7_7  and  O8_8 
REMARK    3  A    between atoms: C10_10  and  O11_11 
REMARK    4  A    between atoms: C16_16  and  O17_17 
REMARK    5  A    between atoms: C23_23  and  N25_24 
REMARK       I    between atoms: N25_24  and  C26_25 
ROOT
ATOM      1  C3  ZIN A   1      19.302  -1.066   8.877  0.00  0.00     0.104 A 
ATOM      2  C4  ZIN A   1      20.083  -0.104   9.504  0.00  0.00     0.047 A 
ATOM      3  C5  ZIN A   1      19.880   0.190  10.836  0.00  0.00    -0.041 A 
ATOM      4  C6  ZIN A   1      18.887  -0.473  11.550  0.00  0.00     0.017 A 
ATOM      5  C7  ZIN A   1      18.100  -1.446  10.927  0.00  0.00     0.116 A 
ATOM      6  C10 ZIN A   1      18.308  -1.735   9.584  0.00  0.00     0.136 A 
ATOM      7  C13 ZIN A   1      18.648  -0.137  12.986  0.00  0.00    -0.014 A 
ATOM      8  C14 ZIN A   1      18.557  -1.191  13.858  0.00  0.00     0.016 A 
ATOM      9  C15 ZIN A   1      18.380  -1.260  15.192  0.00  0.00     0.042 A 
ATOM     10  C16 ZIN A   1      18.266  -0.244  16.089  0.00  0.00     0.118 A 
ATOM     11  C19 ZIN A   1      18.305   1.111  15.784  0.00  0.00     0.205 A 
ATOM     12  O20 ZIN A   1      18.249   1.873  16.739  0.00  0.00    -0.285 OA
ATOM     13  C21 ZIN A   1      18.400   1.705  14.556  0.00  0.00     0.068 A 
ATOM     14  C22 ZIN A   1      18.532   1.215  13.311  0.00  0.00    -0.020 A 
ATOM     15  C23 ZIN A   1      18.538   2.231  12.187  0.00  0.00     0.119 C 
ATOM     16  C29 ZIN A   1      19.943   2.515  11.695  0.00  0.00     0.034 C 
ATOM     17  C30 ZIN A   1      20.736   1.223  11.523  0.00  0.00     0.042 C 
ENDROOT
BRANCH  15  18
ATOM     18  N25 ZIN A   1      17.940   3.478  12.668  0.00  0.00    -0.353 N 
ATOM     19  C26 ZIN A   1      17.186   4.228  11.840  0.00  0.00     0.214 C 
ATOM     20  C27 ZIN A   1      16.570   5.512  12.335  0.00  0.00     0.117 C 
ATOM     21  O28 ZIN A   1      17.003   3.869  10.696  0.00  0.00    -0.274 OA
ATOM     22  H47 ZIN A   1      18.085   3.765  13.583  0.00  0.00     0.163 HD
ENDBRANCH  15  18
BRANCH   5  23
ATOM     23  O8  ZIN A   1      17.137  -2.100  11.627  0.00  0.00    -0.352 OA
ATOM     24  C9  ZIN A   1      17.372  -3.479  11.919  0.00  0.00     0.210 C 
ENDBRANCH   5  23
BRANCH  10  25
ATOM     25  O17 ZIN A   1      18.098  -0.582  17.391  0.00  0.00    -0.352 OA
ATOM     26  C18 ZIN A   1      19.254  -0.528  18.230  0.00  0.00     0.210 C 
ENDBRANCH  10  25
BRANCH   6  27
ATOM     27  O11 ZIN A   1      17.548  -2.679   8.965  0.00  0.00    -0.351 OA
ATOM     28  C12 ZIN A   1      18.188  -3.912   8.631  0.00  0.00     0.210 C 
ENDBRANCH   6  27
BRANCH   1  29
ATOM     29  O2  ZIN A   1      19.505  -1.351   7.564  0.00  0.00    -0.353 OA
ATOM     30  C1  ZIN A   1      18.885  -0.487   6.610  0.00  0.00     0.210 C 
ENDBRANCH   1  29
TORSDOF 5
ENDMDL
MODEL 3
REMARK VINA RESULT:      -7.7      3.930      9.380
REMARK  5 active torsions:
REMARK  status: ('A' for Active; 'I' for Inactive)
REMARK    1  A    between atoms: O2_2  and  C3_3 
REMARK    2  A    between atoms: C7_7  and  O8_8 
REMARK    3  A    between atoms: C10_10  and  O11_11 
REMARK    4  A    between atoms: C16_16  and  O17_17 
REMARK    5  A    between atoms: C23_23  and  N25_24 
REMARK       I    between atoms: N25_24  and  C26_25 
ROOT
ATOM      1  C3  ZIN A   1      18.320   1.729   9.862  0.00  0.00     0.104 A 
ATOM      2  C4  ZIN A   1      19.041   2.786  10.403  0.00  0.00     0.047 A 
ATOM      3  C5  ZIN A   1      19.179   2.901  11.770  0.00  0.00    -0.041 A 
ATOM      4  C6  ZIN A   1      18.589   1.960  12.608  0.00  0.00     0.017 A 
ATOM      5  C7  ZIN A   1      17.867   0.890  12.071  0.00  0.00     0.116 A 
ATOM      6  C10 ZIN A   1      17.730   0.782  10.693  0.00  0.00     0.136 A 
ATOM      7  C13 ZIN A   1      18.716   2.097  14.091  0.00  0.00    -0.014 A 
ATOM      8  C14 ZIN A   1      19.095   0.976  14.783  0.00  0.00     0.016 A 
ATOM      9  C15 ZIN A   1      19.331   0.745  16.089  0.00  0.00     0.042 A 
ATOM     10  C16 ZIN A   1      19.280   1.618  17.131  0.00  0.00     0.118 A 
ATOM     11  C19 ZIN A   1      18.957   2.967  17.038  0.00  0.00     0.205 A 
ATOM     12  O20 ZIN A   1      19.029   3.603  18.080  0.00  0.00    -0.285 OA
ATOM     13  C21 ZIN A   1      18.570   3.676  15.935  0.00  0.00     0.068 A 
ATOM     14  C22 ZIN A   1      18.431   3.348  14.639  0.00  0.00    -0.020 A 
ATOM     15  C23 ZIN A   1      17.906   4.435  13.724  0.00  0.00     0.119 C 
ATOM     16  C29 ZIN A   1      19.021   5.086  12.930  0.00  0.00     0.034 C 
ATOM     17  C30 ZIN A   1      19.972   4.039  12.359  0.00  0.00     0.042 C 
ENDROOT
BRANCH  15  18
ATOM     18  N25 ZIN A   1      17.236   5.457  14.531  0.00  0.00    -0.353 N 
ATOM     19  C26 ZIN A   1      16.053   5.963  14.133  0.00  0.00     0.214 C 
ATOM     20  C27 ZIN A   1      15.363   7.014  14.964  0.00  0.00     0.117 C 
ATOM     21  O28 ZIN A   1      15.542   5.571  13.105  0.00  0.00    -0.274 OA
ATOM     22  H47 ZIN A   1      17.644   5.770  15.354  0.00  0.00     0.163 HD
ENDBRANCH  15  18
BRANCH   5  23
ATOM     23  O8  ZIN A   1      17.300  -0.034  12.890  0.00  0.00    -0.352 OA
ATOM     24  C9  ZIN A   1      17.950  -1.303  12.983  0.00  0.00     0.210 C 
ENDBRANCH   5  23
BRANCH  10  25
ATOM     25  O17 ZIN A   1      19.570   1.132  18.363  0.00  0.00    -0.352 OA
ATOM     26  C18 ZIN A   1      18.922  -0.082  18.750  0.00  0.00     0.210 C 
ENDBRANCH  10  25
BRANCH   6  27
ATOM     27  O11 ZIN A   1      17.028  -0.252  10.157  0.00  0.00    -0.351 OA
ATOM     28  C12 ZIN A   1      17.783  -1.329   9.599  0.00  0.00     0.210 C 
ENDBRANCH   6  27
BRANCH   1  29
ATOM     29  O2  ZIN A   1      18.186   1.622   8.514  0.00  0.00    -0.353 OA
ATOM     30  C1  ZIN A   1      19.385   1.471   7.753  0.00  0.00     0.210 C 
ENDBRANCH   1  29
TORSDOF 5
ENDMDL
MODEL 4
REMARK VINA RESULT:      -7.3      2.078      2.810
REMARK  5 active torsions:
REMARK  status: ('A' for Active; 'I' for Inactive)
REMARK    1  A    between atoms: O2_2  and  C3_3 
REMARK    2  A    between atoms: C7_7  and  O8_8 
REMARK    3  A    between atoms: C10_10  and  O11_11 
REMARK    4  A    between atoms: C16_16  and  O17_17 
REMARK    5  A    between atoms: C23_23  and  N25_24 
REMARK       I    between atoms: N25_24  and  C26_25 
ROOT
ATOM      1  C3  ZIN A   1      19.027   1.882  13.504  0.00  0.00     0.104 A 
ATOM      2  C4  ZIN A   1      19.876   0.846  13.137  0.00  0.00     0.047 A 
ATOM      3  C5  ZIN A   1      19.895   0.399  11.832  0.00  0.00    -0.041 A 
ATOM      4  C6  ZIN A   1      19.060   0.983  10.886  0.00  0.00     0.017 A 
ATOM      5  C7  ZIN A   1      18.207   2.031  11.247  0.00  0.00     0.116 A 
ATOM      6  C10 ZIN A   1      18.191   2.474  12.563  0.00  0.00     0.136 A 
ATOM      7  C13 ZIN A   1      19.062   0.483   9.478  0.00  0.00    -0.014 A 
ATOM      8  C14 ZIN A   1      19.154   1.427   8.488  0.00  0.00     0.016 A 
ATOM      9  C15 ZIN A   1      19.211   1.341   7.145  0.00  0.00     0.042 A 
ATOM     10  C16 ZIN A   1      19.222   0.228   6.363  0.00  0.00     0.118 A 
ATOM     11  C19 ZIN A   1      19.167  -1.083   6.824  0.00  0.00     0.205 A 
ATOM     12  O20 ZIN A   1      19.252  -1.951   5.967  0.00  0.00    -0.285 OA
ATOM     13  C21 ZIN A   1      19.031  -1.528   8.109  0.00  0.00     0.068 A 
ATOM     14  C22 ZIN A   1      18.962  -0.896   9.294  0.00  0.00    -0.020 A 
ATOM     15  C23 ZIN A   1      18.744  -1.773  10.510  0.00  0.00     0.119 C 
ATOM     16  C29 ZIN A   1      20.034  -2.012  11.269  0.00  0.00     0.034 C 
ATOM     17  C30 ZIN A   1      20.825  -0.716  11.428  0.00  0.00     0.042 C 
ENDROOT
BRANCH  15  18
ATOM     18  N25 ZIN A   1      18.200  -3.062  10.078  0.00  0.00    -0.353 N 
ATOM     19  C26 ZIN A   1      17.293  -3.702  10.843  0.00  0.00     0.214 C 
ATOM     20  C27 ZIN A   1      16.733  -5.029  10.398  0.00  0.00     0.117 C 
ATOM     21  O28 ZIN A   1      16.929  -3.211  11.890  0.00  0.00    -0.274 OA
ATOM     22  H47 ZIN A   1      18.491  -3.456   9.240  0.00  0.00     0.163 HD
ENDBRANCH  15  18
BRANCH   5  23
ATOM     23  O8  ZIN A   1      17.399   2.607  10.319  0.00  0.00    -0.352 OA
ATOM     24  C9  ZIN A   1      17.744   3.926   9.890  0.00  0.00     0.210 C 
ENDBRANCH   5  23
BRANCH  10  25
ATOM     25  O17 ZIN A   1      19.291   0.412   5.022  0.00  0.00    -0.352 OA
ATOM     26  C18 ZIN A   1      18.204  -0.089   4.241  0.00  0.00     0.210 C 
ENDBRANCH  10  25
BRANCH   6  27
ATOM     27  O11 ZIN A   1      17.365   3.491  12.929  0.00  0.00    -0.351 OA
ATOM     28  C12 ZIN A   1      17.970   4.760  13.184  0.00  0.00     0.210 C 
ENDBRANCH   6  27
BRANCH   1  29
ATOM     29  O2  ZIN A   1      19.010   2.318  14.791  0.00  0.00    -0.353 OA
ATOM     30  C1  ZIN A   1      19.051   1.321  15.814  0.00  0.00     0.210 C 
ENDBRANCH   1  29
TORSDOF 5
ENDMDL
MODEL 5
REMARK VINA RESULT:      -7.1      2.454      7.597
REMARK  5 active torsions:
REMARK  status: ('A' for Active; 'I' for Inactive)
REMARK    1  A    between atoms: O2_2  and  C3_3 
REMARK    2  A    between atoms: C7_7  and  O8_8 
REMARK    3  A    between atoms: C10_10  and  O11_11 
REMARK    4  A    between atoms: C16_16  and  O17_17 
REMARK    5  A    between atoms: C23_23  and  N25_24 
REMARK       I    between atoms: N25_24  and  C26_25 
ROOT
ATOM      1  C3  ZIN A   1      18.524  -2.677   8.169  0.00  0.00     0.104 A 
ATOM      2  C4  ZIN A   1      19.334  -1.573   8.403  0.00  0.00     0.047 A 
ATOM      3  C5  ZIN A   1      19.382  -1.006   9.660  0.00  0.00    -0.041 A 
ATOM      4  C6  ZIN A   1      18.614  -1.536  10.691  0.00  0.00     0.017 A 
ATOM      5  C7  ZIN A   1      17.801  -2.651  10.464  0.00  0.00     0.116 A 
ATOM      6  C10 ZIN A   1      17.755  -3.216   9.196  0.00  0.00     0.136 A 
ATOM      7  C13 ZIN A   1      18.646  -0.908  12.046  0.00  0.00    -0.014 A 
ATOM      8  C14 ZIN A   1      18.823  -1.750  13.113  0.00  0.00     0.016 A 
ATOM      9  C15 ZIN A   1      18.928  -1.537  14.438  0.00  0.00     0.042 A 
ATOM     10  C16 ZIN A   1      18.914  -0.356  15.114  0.00  0.00     0.118 A 
ATOM     11  C19 ZIN A   1      18.776   0.902  14.538  0.00  0.00     0.205 A 
ATOM     12  O20 ZIN A   1      18.852   1.849  15.308  0.00  0.00    -0.285 OA
ATOM     13  C21 ZIN A   1      18.569   1.219  13.225  0.00  0.00     0.068 A 
ATOM     14  C22 ZIN A   1      18.485   0.477  12.107  0.00  0.00    -0.020 A 
ATOM     15  C23 ZIN A   1      18.177   1.225  10.826  0.00  0.00     0.119 C 
ATOM     16  C29 ZIN A   1      19.423   1.451   9.994  0.00  0.00     0.034 C 
ATOM     17  C30 ZIN A   1      20.270   0.184   9.920  0.00  0.00     0.042 C 
ENDROOT
BRANCH  15  18
ATOM     18  N25 ZIN A   1      17.586   2.523  11.162  0.00  0.00    -0.353 N 
ATOM     19  C26 ZIN A   1      17.740   3.570  10.328  0.00  0.00     0.214 C 
ATOM     20  C27 ZIN A   1      17.133   4.906  10.673  0.00  0.00     0.117 C 
ATOM     21  O28 ZIN A   1      18.368   3.437   9.299  0.00  0.00    -0.274 OA
ATOM     22  H47 ZIN A   1      17.083   2.629  11.985  0.00  0.00     0.163 HD
ENDBRANCH  15  18
BRANCH   5  23
ATOM     23  O8  ZIN A   1      17.059  -3.175  11.474  0.00  0.00    -0.352 OA
ATOM     24  C9  ZIN A   1      17.470  -4.443  11.990  0.00  0.00     0.210 C 
ENDBRANCH   5  23
BRANCH  10  25
ATOM     25  O17 ZIN A   1      19.044  -0.411  16.462  0.00  0.00    -0.352 OA
ATOM     26  C18 ZIN A   1      17.877  -0.751  17.214  0.00  0.00     0.210 C 
ENDBRANCH  10  25
BRANCH   6  27
ATOM     27  O11 ZIN A   1      16.967  -4.299   8.960  0.00  0.00    -0.351 OA
ATOM     28  C12 ZIN A   1      17.627  -5.540   8.708  0.00  0.00     0.210 C 
ENDBRANCH   6  27
BRANCH   1  29
ATOM     29  O2  ZIN A   1      18.478  -3.231   6.929  0.00  0.00    -0.353 OA
ATOM     30  C1  ZIN A   1      19.158  -2.535   5.882  0.00  0.00     0.210 C 
ENDBRANCH   1  29
TORSDOF 5
ENDMDL
MODEL 6
REMARK VINA RESULT:      -7.0      2.656      4.176
REMARK  5 active torsions:
REMARK  status: ('A' for Active; 'I' for Inactive)
REMARK    1  A    between atoms: O2_2  and  C3_3 
REMARK    2  A    between atoms: C7_7  and  O8_8 
REMARK    3  A    between atoms: C10_10  and  O11_11 
REMARK    4  A    between atoms: C16_16  and  O17_17 
REMARK    5  A    between atoms: C23_23  and  N25_24 
REMARK       I    between atoms: N25_24  and  C26_25 
ROOT
ATOM      1  C3  ZIN A   1      18.270   3.316  14.401  0.00  0.00     0.104 A 
ATOM      2  C4  ZIN A   1      19.101   2.207  14.309  0.00  0.00     0.047 A 
ATOM      3  C5  ZIN A   1      19.224   1.535  13.111  0.00  0.00    -0.041 A 
ATOM      4  C6  ZIN A   1      18.509   1.963  11.998  0.00  0.00     0.017 A 
ATOM      5  C7  ZIN A   1      17.674   3.082  12.082  0.00  0.00     0.116 A 
ATOM      6  C10 ZIN A   1      17.554   3.753  13.292  0.00  0.00     0.136 A 
ATOM      7  C13 ZIN A   1      18.621   1.220  10.706  0.00  0.00    -0.014 A 
ATOM      8  C14 ZIN A   1      18.848   1.970   9.581  0.00  0.00     0.016 A 
ATOM      9  C15 ZIN A   1      19.028   1.644   8.287  0.00  0.00     0.042 A 
ATOM     10  C16 ZIN A   1      19.062   0.409   7.717  0.00  0.00     0.118 A 
ATOM     11  C19 ZIN A   1      18.905  -0.796   8.392  0.00  0.00     0.205 A 
ATOM     12  O20 ZIN A   1      19.032  -1.806   7.713  0.00  0.00    -0.285 OA
ATOM     13  C21 ZIN A   1      18.628  -1.001   9.715  0.00  0.00     0.068 A 
ATOM     14  C22 ZIN A   1      18.477  -0.166  10.758  0.00  0.00    -0.020 A 
ATOM     15  C23 ZIN A   1      18.105  -0.806  12.080  0.00  0.00     0.119 C 
ATOM     16  C29 ZIN A   1      19.306  -0.941  12.995  0.00  0.00     0.034 C 
ATOM     17  C30 ZIN A   1      20.136   0.340  13.004  0.00  0.00     0.042 C 
ENDROOT
BRANCH  15  18
ATOM     18  N25 ZIN A   1      17.546  -2.136  11.828  0.00  0.00    -0.353 N 
ATOM     19  C26 ZIN A   1      18.320  -3.230  11.967  0.00  0.00     0.214 C 
ATOM     20  C27 ZIN A   1      17.745  -4.599  11.707  0.00  0.00     0.117 C 
ATOM     21  O28 ZIN A   1      19.480  -3.113  12.302  0.00  0.00    -0.274 OA
ATOM     22  H47 ZIN A   1      16.618  -2.230  11.560  0.00  0.00     0.163 HD
ENDBRANCH  15  18
BRANCH   5  23
ATOM     23  O8  ZIN A   1      16.984   3.506  10.991  0.00  0.00    -0.352 OA
ATOM     24  C9  ZIN A   1      17.422   4.721  10.380  0.00  0.00     0.210 C 
ENDBRANCH   5  23
BRANCH  10  25
ATOM     25  O17 ZIN A   1      19.266   0.349   6.378  0.00  0.00    -0.352 OA
ATOM     26  C18 ZIN A   1      18.115   0.474   5.540  0.00  0.00     0.210 C 
ENDBRANCH  10  25
BRANCH   6  27
ATOM     27  O11 ZIN A   1      16.743   4.842  13.389  0.00  0.00    -0.351 OA
ATOM     28  C12 ZIN A   1      17.375   6.103  13.614  0.00  0.00     0.210 C 
ENDBRANCH   6  27
BRANCH   1  29
ATOM     29  O2  ZIN A   1      18.151   3.975  15.584  0.00  0.00    -0.353 OA
ATOM     30  C1  ZIN A   1      19.347   4.176  16.338  0.00  0.00     0.210 C 
ENDBRANCH   1  29
TORSDOF 5
ENDMDL
MODEL 7
REMARK VINA RESULT:      -6.6      2.362      3.442
REMARK  5 active torsions:
REMARK  status: ('A' for Active; 'I' for Inactive)
REMARK    1  A    between atoms: O2_2  and  C3_3 
REMARK    2  A    between atoms: C7_7  and  O8_8 
REMARK    3  A    between atoms: C10_10  and  O11_11 
REMARK    4  A    between atoms: C16_16  and  O17_17 
REMARK    5  A    between atoms: C23_23  and  N25_24 
REMARK       I    between atoms: N25_24  and  C26_25 
ROOT
ATOM      1  C3  ZIN A   1      19.244  -2.643  10.351  0.00  0.00     0.104 A 
ATOM      2  C4  ZIN A   1      19.477  -3.983  10.071  0.00  0.00     0.047 A 
ATOM      3  C5  ZIN A   1      19.136  -4.501   8.839  0.00  0.00    -0.041 A 
ATOM      4  C6  ZIN A   1      18.552  -3.681   7.880  0.00  0.00     0.017 A 
ATOM      5  C7  ZIN A   1      18.319  -2.329   8.153  0.00  0.00     0.116 A 
ATOM      6  C10 ZIN A   1      18.662  -1.815   9.396  0.00  0.00     0.136 A 
ATOM      7  C13 ZIN A   1      18.158  -4.246   6.554  0.00  0.00    -0.014 A 
ATOM      8  C14 ZIN A   1      18.551  -3.544   5.443  0.00  0.00     0.016 A 
ATOM      9  C15 ZIN A   1      18.403  -3.765   4.123  0.00  0.00     0.042 A 
ATOM     10  C16 ZIN A   1      17.813  -4.819   3.497  0.00  0.00     0.118 A 
ATOM     11  C19 ZIN A   1      17.223  -5.907   4.131  0.00  0.00     0.205 A 
ATOM     12  O20 ZIN A   1      16.802  -6.787   3.393  0.00  0.00    -0.285 OA
ATOM     13  C21 ZIN A   1      17.054  -6.123   5.470  0.00  0.00     0.068 A 
ATOM     14  C22 ZIN A   1      17.422  -5.430   6.562  0.00  0.00    -0.020 A 
ATOM     15  C23 ZIN A   1      16.975  -5.994   7.896  0.00  0.00     0.119 C 
ATOM     16  C29 ZIN A   1      18.095  -6.738   8.594  0.00  0.00     0.034 C 
ATOM     17  C30 ZIN A   1      19.401  -5.951   8.527  0.00  0.00     0.042 C 
ENDROOT
BRANCH  15  18
ATOM     18  N25 ZIN A   1      15.857  -6.914   7.675  0.00  0.00    -0.353 N 
ATOM     19  C26 ZIN A   1      14.613  -6.570   8.064  0.00  0.00     0.214 C 
ATOM     20  C27 ZIN A   1      13.463  -7.517   7.837  0.00  0.00     0.117 C 
ATOM     21  O28 ZIN A   1      14.420  -5.497   8.597  0.00  0.00    -0.274 OA
ATOM     22  H47 ZIN A   1      16.011  -7.772   7.249  0.00  0.00     0.163 HD
ENDBRANCH  15  18
BRANCH   5  23
ATOM     23  O8  ZIN A   1      17.757  -1.527   7.211  0.00  0.00    -0.352 OA
ATOM     24  C9  ZIN A   1      18.580  -0.492   6.667  0.00  0.00     0.210 C 
ENDBRANCH   5  23
BRANCH  10  25
ATOM     25  O17 ZIN A   1      17.798  -4.807   2.142  0.00  0.00    -0.352 OA
ATOM     26  C18 ZIN A   1      16.667  -4.201   1.511  0.00  0.00     0.210 C 
ENDBRANCH  10  25
BRANCH   6  27
ATOM     27  O11 ZIN A   1      18.439  -0.503   9.676  0.00  0.00    -0.351 OA
ATOM     28  C12 ZIN A   1      17.163  -0.163  10.220  0.00  0.00     0.210 C 
ENDBRANCH   6  27
BRANCH   1  29
ATOM     29  O2  ZIN A   1      19.580  -2.138  11.568  0.00  0.00    -0.353 OA
ATOM     30  C1  ZIN A   1      18.708  -2.440  12.659  0.00  0.00     0.210 C 
ENDBRANCH   1  29
TORSDOF 5
ENDMDL
MODEL 8
REMARK VINA RESULT:      -6.4      5.992     11.434
REMARK  5 active torsions:
REMARK  status: ('A' for Active; 'I' for Inactive)
REMARK    1  A    between atoms: O2_2  and  C3_3 
REMARK    2  A    between atoms: C7_7  and  O8_8 
REMARK    3  A    between atoms: C10_10  and  O11_11 
REMARK    4  A    between atoms: C16_16  and  O17_17 
REMARK    5  A    between atoms: C23_23  and  N25_24 
REMARK       I    between atoms: N25_24  and  C26_25 
ROOT
ATOM      1  C3  ZIN A   1      19.338   3.383  12.438  0.00  0.00     0.104 A 
ATOM      2  C4  ZIN A   1      19.498   4.698  12.856  0.00  0.00     0.047 A 
ATOM      3  C5  ZIN A   1      19.073   5.079  14.112  0.00  0.00    -0.041 A 
ATOM      4  C6  ZIN A   1      18.478   4.148  14.956  0.00  0.00     0.017 A 
ATOM      5  C7  ZIN A   1      18.318   2.821  14.543  0.00  0.00     0.116 A 
ATOM      6  C10 ZIN A   1      18.746   2.444  13.277  0.00  0.00     0.136 A 
ATOM      7  C13 ZIN A   1      17.993   4.565  16.306  0.00  0.00    -0.014 A 
ATOM      8  C14 ZIN A   1      18.360   3.775  17.364  0.00  0.00     0.016 A 
ATOM      9  C15 ZIN A   1      18.136   3.860  18.690  0.00  0.00     0.042 A 
ATOM     10  C16 ZIN A   1      17.470   4.825  19.380  0.00  0.00     0.118 A 
ATOM     11  C19 ZIN A   1      16.866   5.945  18.821  0.00  0.00     0.205 A 
ATOM     12  O20 ZIN A   1      16.370   6.732  19.616  0.00  0.00    -0.285 OA
ATOM     13  C21 ZIN A   1      16.755   6.284  17.502  0.00  0.00     0.068 A 
ATOM     14  C22 ZIN A   1      17.207   5.716  16.370  0.00  0.00    -0.020 A 
ATOM     15  C23 ZIN A   1      16.804   6.388  15.074  0.00  0.00     0.119 C 
ATOM     16  C29 ZIN A   1      17.924   7.240  14.512  0.00  0.00     0.034 C 
ATOM     17  C30 ZIN A   1      19.259   6.502  14.574  0.00  0.00     0.042 C 
ENDROOT
BRANCH  15  18
ATOM     18  N25 ZIN A   1      15.637   7.239  15.320  0.00  0.00    -0.353 N 
ATOM     19  C26 ZIN A   1      14.404   6.804  14.992  0.00  0.00     0.214 C 
ATOM     20  C27 ZIN A   1      13.203   7.679  15.245  0.00  0.00     0.117 C 
ATOM     21  O28 ZIN A   1      14.262   5.708  14.492  0.00  0.00    -0.274 OA
ATOM     22  H47 ZIN A   1      15.751   8.116  15.720  0.00  0.00     0.163 HD
ENDBRANCH  15  18
BRANCH   5  23
ATOM     23  O8  ZIN A   1      17.746   1.910  15.372  0.00  0.00    -0.352 OA
ATOM     24  C9  ZIN A   1      18.599   0.897  15.910  0.00  0.00     0.210 C 
ENDBRANCH   5  23
BRANCH  10  25
ATOM     25  O17 ZIN A   1      17.387   4.680  20.725  0.00  0.00    -0.352 OA
ATOM     26  C18 ZIN A   1      16.263   3.958  21.233  0.00  0.00     0.210 C 
ENDBRANCH  10  25
BRANCH   6  27
ATOM     27  O11 ZIN A   1      18.595   1.158  12.862  0.00  0.00    -0.351 OA
ATOM     28  C12 ZIN A   1      17.325   0.796  12.318  0.00  0.00     0.210 C 
ENDBRANCH   6  27
BRANCH   1  29
ATOM     29  O2  ZIN A   1      19.757   3.012  11.199  0.00  0.00    -0.353 OA
ATOM     30  C1  ZIN A   1      18.848   3.223  10.117  0.00  0.00     0.210 C 
ENDBRANCH   1  29
TORSDOF 5
ENDMDL
MODEL 9
REMARK VINA RESULT:      -5.9      1.855      4.598
REMARK  5 active torsions:
REMARK  status: ('A' for Active; 'I' for Inactive)
REMARK    1  A    between atoms: O2_2  and  C3_3 
REMARK    2  A    between atoms: C7_7  and  O8_8 
REMARK    3  A    between atoms: C10_10  and  O11_11 
REMARK    4  A    between atoms: C16_16  and  O17_17 
REMARK    5  A    between atoms: C23_23  and  N25_24 
REMARK       I    between atoms: N25_24  and  C26_25 
ROOT
ATOM      1  C3  ZIN A   1      18.277   0.257  13.239  0.00  0.00     0.104 A 
ATOM      2  C4  ZIN A   1      17.543   0.529  12.092  0.00  0.00     0.047 A 
ATOM      3  C5  ZIN A   1      17.435  -0.423  11.099  0.00  0.00    -0.041 A 
ATOM      4  C6  ZIN A   1      18.069  -1.652  11.244  0.00  0.00     0.017 A 
ATOM      5  C7  ZIN A   1      18.806  -1.935  12.399  0.00  0.00     0.116 A 
ATOM      6  C10 ZIN A   1      18.912  -0.972  13.393  0.00  0.00     0.136 A 
ATOM      7  C13 ZIN A   1      17.974  -2.674  10.159  0.00  0.00    -0.014 A 
ATOM      8  C14 ZIN A   1      17.641  -3.949  10.539  0.00  0.00     0.016 A 
ATOM      9  C15 ZIN A   1      17.443  -5.087   9.846  0.00  0.00     0.042 A 
ATOM     10  C16 ZIN A   1      17.496  -5.284   8.501  0.00  0.00     0.118 A 
ATOM     11  C19 ZIN A   1      17.782  -4.309   7.552  0.00  0.00     0.205 A 
ATOM     12  O20 ZIN A   1      17.718  -4.669   6.385  0.00  0.00    -0.285 OA
ATOM     13  C21 ZIN A   1      18.123  -3.001   7.753  0.00  0.00     0.068 A 
ATOM     14  C22 ZIN A   1      18.240  -2.245   8.858  0.00  0.00    -0.020 A 
ATOM     15  C23 ZIN A   1      18.714  -0.821   8.650  0.00  0.00     0.119 C 
ATOM     16  C29 ZIN A   1      17.564   0.165   8.694  0.00  0.00     0.034 C 
ATOM     17  C30 ZIN A   1      16.627  -0.136   9.860  0.00  0.00     0.042 C 
ENDROOT
BRANCH  15  18
ATOM     18  N25 ZIN A   1      19.376  -0.723   7.348  0.00  0.00    -0.353 N 
ATOM     19  C26 ZIN A   1      18.727  -0.180   6.300  0.00  0.00     0.214 C 
ATOM     20  C27 ZIN A   1      19.408  -0.079   4.959  0.00  0.00     0.117 C 
ATOM     21  O28 ZIN A   1      17.593   0.229   6.436  0.00  0.00    -0.274 OA
ATOM     22  H47 ZIN A   1      20.284  -1.050   7.239  0.00  0.00     0.163 HD
ENDBRANCH  15  18
BRANCH   5  23
ATOM     23  O8  ZIN A   1      19.416  -3.140  12.544  0.00  0.00    -0.352 OA
ATOM     24  C9  ZIN A   1      20.656  -3.325  11.859  0.00  0.00     0.210 C 
ENDBRANCH   5  23
BRANCH  10  25
ATOM     25  O17 ZIN A   1      17.249  -6.538   8.048  0.00  0.00    -0.352 OA
ATOM     26  C18 ZIN A   1      15.896  -6.995   8.108  0.00  0.00     0.210 C 
ENDBRANCH  10  25
BRANCH   6  27
ATOM     27  O11 ZIN A   1      19.628  -1.232  14.521  0.00  0.00    -0.351 OA
ATOM     28  C12 ZIN A   1      18.891  -1.610  15.685  0.00  0.00     0.210 C 
ENDBRANCH   6  27
BRANCH   1  29
ATOM     29  O2  ZIN A   1      18.382   1.198  14.213  0.00  0.00    -0.353 OA
ATOM     30  C1  ZIN A   1      18.589   2.548  13.792  0.00  0.00     0.210 C 
ENDBRANCH   1  29
TORSDOF 5
ENDMDL
