MODEL 1
REMARK VINA RESULT:      -6.7      0.000      0.000
REMARK  12 active torsions:
REMARK  status: ('A' for Active; 'I' for Inactive)
REMARK    1  A    between atoms: C2_2  and  N4_4 
REMARK    2  A    between atoms: N4_4  and  C7_7 
REMARK    3  A    between atoms: C7_7  and  C8_8 
REMARK    4  A    between atoms: C8_8  and  O10_9 
REMARK    5  A    between atoms: C8_8  and  C11_10 
REMARK    6  A    between atoms: C11_10  and  O12_11 
REMARK    7  A    between atoms: O12_11  and  C13_12 
REMARK    8  A    between atoms: C16_15  and  C17_16 
REMARK    9  A    between atoms: C17_16  and  C18_17 
REMARK   10  A    between atoms: C18_17  and  O19_18 
REMARK   11  A    between atoms: O19_18  and  C20_19 
REMARK   12  A    between atoms: C20_19  and  C21_20 
ROOT
ATOM      1  C13 <0> d   1      18.389   1.029   9.576  0.00  0.00     0.068 A 
ATOM      2  C14 <0> d   1      17.450   0.090   9.174  0.00  0.00     0.037 A 
ATOM      3  C15 <0> d   1      17.324  -0.230   7.837  0.00  0.00     0.010 A 
ATOM      4  C16 <0> d   1      18.134   0.384   6.898  0.00  0.00    -0.056 A 
ATOM      5  C24 <0> d   1      19.070   1.320   7.296  0.00  0.00     0.010 A 
ATOM      6  C25 <0> d   1      19.196   1.648   8.633  0.00  0.00     0.037 A 
ENDROOT
BRANCH   1   7
ATOM      7  O12 <0> d   1      18.514   1.347  10.892  0.00  0.00    -0.349 OA
BRANCH   7   8
ATOM      8  C11 <0> d   1      19.770   1.882  11.313  0.00  0.00     0.209 C 
BRANCH   8   9
ATOM      9  C8  <0> d   1      20.390   0.960  12.365  0.00  0.00     0.168 C 
BRANCH   9  10
ATOM     10  C7  <0> d   1      19.360  -0.088  12.795  0.00  0.00     0.266 C 
BRANCH  10  11
ATOM     11  N4  <0> d   1      18.421   0.513  13.753  0.00  0.00    -0.069 N 
ATOM     12  H5  <0> d   1      17.478   0.254  13.506  0.00  0.00     0.277 HD
ATOM     13  H6  <0> d   1      18.511   1.517  13.727  0.00  0.00     0.277 HD
BRANCH  11  14
ATOM     14  C2  <0> d   1      18.726   0.028  15.105  0.00  0.00     0.178 C 
ATOM     15  C1  <0> d   1      17.450   0.039  15.950  0.00  0.00     0.039 C 
ATOM     16  C3  <0> d   1      19.272  -1.399  15.025  0.00  0.00     0.039 C 
ENDBRANCH  11  14
ENDBRANCH  10  11
ENDBRANCH   9  10
BRANCH   9  17
ATOM     17  O10 <0> d   1      21.532   0.305  11.810  0.00  0.00    -0.392 OA
ATOM     18  H35 <0> d   1      22.182   0.908  11.423  0.00  0.00     0.210 HD
ENDBRANCH   9  17
ENDBRANCH   8   9
ENDBRANCH   7   8
ENDBRANCH   1   7
BRANCH   4  19
ATOM     19  C17 <0> d   1      17.994   0.032   5.439  0.00  0.00     0.064 C 
BRANCH  19  20
ATOM     20  C18 <0> d   1      19.381  -0.037   4.796  0.00  0.00     0.172 C 
BRANCH  20  21
ATOM     21  O19 <0> d   1      19.848  -1.388   4.817  0.00  0.00    -0.390 OA
BRANCH  21  22
ATOM     22  C20 <0> d   1      18.852  -2.353   4.475  0.00  0.00     0.172 C 
BRANCH  22  23
ATOM     23  C21 <0> d   1      19.013  -3.589   5.362  0.00  0.00     0.009 A 
ATOM     24  C23 <0> d   1      18.354  -3.559   6.742  0.00  0.00     0.007 A 
ATOM     25  C22 <0> d   1      19.875  -3.451   6.617  0.00  0.00     0.007 A 
ENDBRANCH  22  23
ENDBRANCH  21  22
ENDBRANCH  20  21
ENDBRANCH  19  20
ENDBRANCH   4  19
TORSDOF 12
ENDMDL
MODEL 2
REMARK VINA RESULT:      -6.5      1.475      2.108
REMARK  12 active torsions:
REMARK  status: ('A' for Active; 'I' for Inactive)
REMARK    1  A    between atoms: C2_2  and  N4_4 
REMARK    2  A    between atoms: N4_4  and  C7_7 
REMARK    3  A    between atoms: C7_7  and  C8_8 
REMARK    4  A    between atoms: C8_8  and  O10_9 
REMARK    5  A    between atoms: C8_8  and  C11_10 
REMARK    6  A    between atoms: C11_10  and  O12_11 
REMARK    7  A    between atoms: O12_11  and  C13_12 
REMARK    8  A    between atoms: C16_15  and  C17_16 
REMARK    9  A    between atoms: C17_16  and  C18_17 
REMARK   10  A    between atoms: C18_17  and  O19_18 
REMARK   11  A    between atoms: O19_18  and  C20_19 
REMARK   12  A    between atoms: C20_19  and  C21_20 
ROOT
ATOM      1  C13 <0> d   1      18.154   0.952   9.517  0.00  0.00     0.068 A 
ATOM      2  C14 <0> d   1      17.537  -0.017   8.739  0.00  0.00     0.037 A 
ATOM      3  C15 <0> d   1      17.850  -0.127   7.399  0.00  0.00     0.010 A 
ATOM      4  C16 <0> d   1      18.779   0.727   6.832  0.00  0.00    -0.056 A 
ATOM      5  C24 <0> d   1      19.396   1.693   7.605  0.00  0.00     0.010 A 
ATOM      6  C25 <0> d   1      19.081   1.811   8.946  0.00  0.00     0.037 A 
ENDROOT
BRANCH   1   7
ATOM      7  O12 <0> d   1      17.847   1.064  10.837  0.00  0.00    -0.349 OA
BRANCH   7   8
ATOM      8  C11 <0> d   1      18.619   1.986  11.607  0.00  0.00     0.209 C 
BRANCH   8   9
ATOM      9  C8  <0> d   1      19.527   1.214  12.567  0.00  0.00     0.168 C 
BRANCH   9  10
ATOM     10  C7  <0> d   1      19.030  -0.229  12.688  0.00  0.00     0.266 C 
BRANCH  10  11
ATOM     11  N4  <0> d   1      20.010  -1.137  12.076  0.00  0.00    -0.069 N 
ATOM     12  H5  <0> d   1      20.562  -1.573  12.801  0.00  0.00     0.277 HD
ATOM     13  H6  <0> d   1      20.615  -0.614  11.462  0.00  0.00     0.277 HD
BRANCH  11  14
ATOM     14  C2  <0> d   1      19.306  -2.172  11.308  0.00  0.00     0.178 C 
ATOM     15  C1  <0> d   1      20.044  -3.504  11.451  0.00  0.00     0.039 C 
ATOM     16  C3  <0> d   1      17.878  -2.319  11.840  0.00  0.00     0.039 C 
ENDBRANCH  11  14
ENDBRANCH  10  11
ENDBRANCH   9  10
BRANCH   9  17
ATOM     17  O10 <0> d   1      20.864   1.216  12.062  0.00  0.00    -0.392 OA
ATOM     18  H35 <0> d   1      20.972   0.733  11.231  0.00  0.00     0.210 HD
ENDBRANCH   9  17
ENDBRANCH   8   9
ENDBRANCH   7   8
ENDBRANCH   1   7
BRANCH   4  19
ATOM     19  C17 <0> d   1      19.119   0.604   5.369  0.00  0.00     0.064 C 
BRANCH  19  20
ATOM     20  C18 <0> d   1      18.482  -0.666   4.802  0.00  0.00     0.172 C 
BRANCH  20  21
ATOM     21  O19 <0> d   1      19.492  -1.656   4.598  0.00  0.00    -0.390 OA
BRANCH  21  22
ATOM     22  C20 <0> d   1      19.146  -2.951   5.095  0.00  0.00     0.172 C 
BRANCH  22  23
ATOM     23  C21 <0> d   1      19.741  -3.137   6.492  0.00  0.00     0.009 A 
ATOM     24  C23 <0> d   1      19.953  -4.570   6.984  0.00  0.00     0.007 A 
ATOM     25  C22 <0> d   1      18.831  -3.716   7.577  0.00  0.00     0.007 A 
ENDBRANCH  22  23
ENDBRANCH  21  22
ENDBRANCH  20  21
ENDBRANCH  19  20
ENDBRANCH   4  19
TORSDOF 12
ENDMDL
MODEL 3
REMARK VINA RESULT:      -6.4      2.846      8.958
REMARK  12 active torsions:
REMARK  status: ('A' for Active; 'I' for Inactive)
REMARK    1  A    between atoms: C2_2  and  N4_4 
REMARK    2  A    between atoms: N4_4  and  C7_7 
REMARK    3  A    between atoms: C7_7  and  C8_8 
REMARK    4  A    between atoms: C8_8  and  O10_9 
REMARK    5  A    between atoms: C8_8  and  C11_10 
REMARK    6  A    between atoms: C11_10  and  O12_11 
REMARK    7  A    between atoms: O12_11  and  C13_12 
REMARK    8  A    between atoms: C16_15  and  C17_16 
REMARK    9  A    between atoms: C17_16  and  C18_17 
REMARK   10  A    between atoms: C18_17  and  O19_18 
REMARK   11  A    between atoms: O19_18  and  C20_19 
REMARK   12  A    between atoms: C20_19  and  C21_20 
ROOT
ATOM      1  C13 <0> d   1      18.471  -0.864  13.339  0.00  0.00     0.068 A 
ATOM      2  C14 <0> d   1      19.145  -1.608  14.297  0.00  0.00     0.037 A 
ATOM      3  C15 <0> d   1      18.987  -1.312  15.636  0.00  0.00     0.010 A 
ATOM      4  C16 <0> d   1      18.157  -0.275  16.023  0.00  0.00    -0.056 A 
ATOM      5  C24 <0> d   1      17.484   0.468  15.071  0.00  0.00     0.010 A 
ATOM      6  C25 <0> d   1      17.644   0.179  13.729  0.00  0.00     0.037 A 
ENDROOT
BRANCH   1   7
ATOM      7  O12 <0> d   1      18.626  -1.152  12.019  0.00  0.00    -0.349 OA
BRANCH   7   8
ATOM      8  C11 <0> d   1      19.892  -1.677  11.615  0.00  0.00     0.209 C 
BRANCH   8   9
ATOM      9  C8  <0> d   1      20.640  -0.626  10.792  0.00  0.00     0.168 C 
BRANCH   9  10
ATOM     10  C7  <0> d   1      19.633   0.340  10.164  0.00  0.00     0.266 C 
BRANCH  10  11
ATOM     11  N4  <0> d   1      18.972  -0.314   9.026  0.00  0.00    -0.069 N 
ATOM     12  H5  <0> d   1      18.216  -0.890   9.363  0.00  0.00     0.277 HD
ATOM     13  H6  <0> d   1      19.640  -0.889   8.534  0.00  0.00     0.277 HD
BRANCH  11  14
ATOM     14  C2  <0> d   1      18.441   0.709   8.115  0.00  0.00     0.178 C 
ATOM     15  C1  <0> d   1      19.110   2.052   8.412  0.00  0.00     0.039 C 
ATOM     16  C3  <0> d   1      18.729   0.303   6.668  0.00  0.00     0.039 C 
ENDBRANCH  11  14
ENDBRANCH  10  11
ENDBRANCH   9  10
BRANCH   9  17
ATOM     17  O10 <0> d   1      21.529   0.099  11.643  0.00  0.00    -0.392 OA
ATOM     18  H35 <0> d   1      21.118   0.849  12.096  0.00  0.00     0.210 HD
ENDBRANCH   9  17
ENDBRANCH   8   9
ENDBRANCH   7   8
ENDBRANCH   1   7
BRANCH   4  19
ATOM     19  C17 <0> d   1      17.986   0.045  17.486  0.00  0.00     0.064 C 
BRANCH  19  20
ATOM     20  C18 <0> d   1      19.350   0.014  18.178  0.00  0.00     0.172 C 
BRANCH  20  21
ATOM     21  O19 <0> d   1      19.794   1.351  18.416  0.00  0.00    -0.390 OA
BRANCH  21  22
ATOM     22  C20 <0> d   1      18.801   2.347  18.160  0.00  0.00     0.172 C 
BRANCH  22  23
ATOM     23  C21 <0> d   1      19.350   3.370  17.164  0.00  0.00     0.009 A 
ATOM     24  C23 <0> d   1      18.664   4.736  17.104  0.00  0.00     0.007 A 
ATOM     25  C22 <0> d   1      18.470   3.731  15.966  0.00  0.00     0.007 A 
ENDBRANCH  22  23
ENDBRANCH  21  22
ENDBRANCH  20  21
ENDBRANCH  19  20
ENDBRANCH   4  19
TORSDOF 12
ENDMDL
MODEL 4
REMARK VINA RESULT:      -6.3      1.897      2.697
REMARK  12 active torsions:
REMARK  status: ('A' for Active; 'I' for Inactive)
REMARK    1  A    between atoms: C2_2  and  N4_4 
REMARK    2  A    between atoms: N4_4  and  C7_7 
REMARK    3  A    between atoms: C7_7  and  C8_8 
REMARK    4  A    between atoms: C8_8  and  O10_9 
REMARK    5  A    between atoms: C8_8  and  C11_10 
REMARK    6  A    between atoms: C11_10  and  O12_11 
REMARK    7  A    between atoms: O12_11  and  C13_12 
REMARK    8  A    between atoms: C16_15  and  C17_16 
REMARK    9  A    between atoms: C17_16  and  C18_17 
REMARK   10  A    between atoms: C18_17  and  O19_18 
REMARK   11  A    between atoms: O19_18  and  C20_19 
REMARK   12  A    between atoms: C20_19  and  C21_20 
ROOT
ATOM      1  C13 <0> d   1      18.399   1.288   9.514  0.00  0.00     0.068 A 
ATOM      2  C14 <0> d   1      19.192   1.806   8.501  0.00  0.00     0.037 A 
ATOM      3  C15 <0> d   1      19.030   1.362   7.203  0.00  0.00     0.010 A 
ATOM      4  C16 <0> d   1      18.077   0.402   6.914  0.00  0.00    -0.056 A 
ATOM      5  C24 <0> d   1      17.285  -0.116   7.922  0.00  0.00     0.010 A 
ATOM      6  C25 <0> d   1      17.448   0.321   9.223  0.00  0.00     0.037 A 
ENDROOT
BRANCH   1   7
ATOM      7  O12 <0> d   1      18.557   1.722  10.793  0.00  0.00    -0.349 OA
BRANCH   7   8
ATOM      8  C11 <0> d   1      19.874   1.651  11.343  0.00  0.00     0.209 C 
BRANCH   8   9
ATOM      9  C8  <0> d   1      20.093   0.270  11.963  0.00  0.00     0.168 C 
BRANCH   9  10
ATOM     10  C7  <0> d   1      20.825  -0.628  10.962  0.00  0.00     0.266 C 
BRANCH  10  11
ATOM     11  N4  <0> d   1      20.507  -2.035  11.244  0.00  0.00    -0.069 N 
ATOM     12  H5  <0> d   1      20.675  -2.227  12.221  0.00  0.00     0.277 HD
ATOM     13  H6  <0> d   1      21.093  -2.631  10.679  0.00  0.00     0.277 HD
BRANCH  11  14
ATOM     14  C2  <0> d   1      19.096  -2.291  10.929  0.00  0.00     0.178 C 
ATOM     15  C1  <0> d   1      18.999  -3.051   9.605  0.00  0.00     0.039 C 
ATOM     16  C3  <0> d   1      18.467  -3.128  12.045  0.00  0.00     0.039 C 
ENDBRANCH  11  14
ENDBRANCH  10  11
ENDBRANCH   9  10
BRANCH   9  17
ATOM     17  O10 <0> d   1      20.879   0.400  13.150  0.00  0.00    -0.392 OA
ATOM     18  H35 <0> d   1      21.740   0.820  13.008  0.00  0.00     0.210 HD
ENDBRANCH   9  17
ENDBRANCH   8   9
ENDBRANCH   7   8
ENDBRANCH   1   7
BRANCH   4  19
ATOM     19  C17 <0> d   1      17.901  -0.080   5.497  0.00  0.00     0.064 C 
BRANCH  19  20
ATOM     20  C18 <0> d   1      19.245  -0.023   4.768  0.00  0.00     0.172 C 
BRANCH  20  21
ATOM     21  O19 <0> d   1      19.872  -1.306   4.823  0.00  0.00    -0.390 OA
BRANCH  21  22
ATOM     22  C20 <0> d   1      19.014  -2.353   5.279  0.00  0.00     0.172 C 
BRANCH  22  23
ATOM     23  C21 <0> d   1      18.551  -3.190   4.086  0.00  0.00     0.009 A 
ATOM     24  C23 <0> d   1      17.044  -3.316   3.853  0.00  0.00     0.007 A 
ATOM     25  C22 <0> d   1      17.840  -4.512   4.383  0.00  0.00     0.007 A 
ENDBRANCH  22  23
ENDBRANCH  21  22
ENDBRANCH  20  21
ENDBRANCH  19  20
ENDBRANCH   4  19
TORSDOF 12
ENDMDL
MODEL 5
REMARK VINA RESULT:      -6.3      2.452      6.249
REMARK  12 active torsions:
REMARK  status: ('A' for Active; 'I' for Inactive)
REMARK    1  A    between atoms: C2_2  and  N4_4 
REMARK    2  A    between atoms: N4_4  and  C7_7 
REMARK    3  A    between atoms: C7_7  and  C8_8 
REMARK    4  A    between atoms: C8_8  and  O10_9 
REMARK    5  A    between atoms: C8_8  and  C11_10 
REMARK    6  A    between atoms: C11_10  and  O12_11 
REMARK    7  A    between atoms: O12_11  and  C13_12 
REMARK    8  A    between atoms: C16_15  and  C17_16 
REMARK    9  A    between atoms: C17_16  and  C18_17 
REMARK   10  A    between atoms: C18_17  and  O19_18 
REMARK   11  A    between atoms: O19_18  and  C20_19 
REMARK   12  A    between atoms: C20_19  and  C21_20 
ROOT
ATOM      1  C13 <0> d   1      18.159  -0.083   7.955  0.00  0.00     0.068 A 
ATOM      2  C14 <0> d   1      17.461  -0.025   9.152  0.00  0.00     0.037 A 
ATOM      3  C15 <0> d   1      17.617   1.062   9.990  0.00  0.00     0.010 A 
ATOM      4  C16 <0> d   1      18.469   2.092   9.636  0.00  0.00    -0.056 A 
ATOM      5  C24 <0> d   1      19.167   2.037   8.444  0.00  0.00     0.010 A 
ATOM      6  C25 <0> d   1      19.018   0.949   7.605  0.00  0.00     0.037 A 
ENDROOT
BRANCH   1   7
ATOM      7  O12 <0> d   1      18.008  -1.152   7.129  0.00  0.00    -0.349 OA
BRANCH   7   8
ATOM      8  C11 <0> d   1      19.200  -1.741   6.606  0.00  0.00     0.209 C 
BRANCH   8   9
ATOM      9  C8  <0> d   1      19.467  -3.069   7.317  0.00  0.00     0.168 C 
BRANCH   9  10
ATOM     10  C7  <0> d   1      18.218  -3.950   7.236  0.00  0.00     0.266 C 
BRANCH  10  11
ATOM     11  N4  <0> d   1      17.408  -3.762   8.448  0.00  0.00    -0.069 N 
ATOM     12  H5  <0> d   1      16.641  -4.418   8.444  0.00  0.00     0.277 HD
ATOM     13  H6  <0> d   1      17.044  -2.821   8.466  0.00  0.00     0.277 HD
BRANCH  11  14
ATOM     14  C2  <0> d   1      18.242  -3.989   9.635  0.00  0.00     0.178 C 
ATOM     15  C1  <0> d   1      17.601  -3.309  10.846  0.00  0.00     0.039 C 
ATOM     16  C3  <0> d   1      18.360  -5.492   9.896  0.00  0.00     0.039 C 
ENDBRANCH  11  14
ENDBRANCH  10  11
ENDBRANCH   9  10
BRANCH   9  17
ATOM     17  O10 <0> d   1      20.562  -3.735   6.685  0.00  0.00    -0.392 OA
ATOM     18  H35 <0> d   1      20.495  -3.775   5.721  0.00  0.00     0.210 HD
ENDBRANCH   9  17
ENDBRANCH   8   9
ENDBRANCH   7   8
ENDBRANCH   1   7
BRANCH   4  19
ATOM     19  C17 <0> d   1      18.637   3.277  10.552  0.00  0.00     0.064 C 
BRANCH  19  20
ATOM     20  C18 <0> d   1      17.767   3.087  11.797  0.00  0.00     0.172 C 
BRANCH  20  21
ATOM     21  O19 <0> d   1      18.600   2.794  12.920  0.00  0.00    -0.390 OA
BRANCH  21  22
ATOM     22  C20 <0> d   1      18.285   1.562  13.572  0.00  0.00     0.172 C 
BRANCH  22  23
ATOM     23  C21 <0> d   1      19.547   0.705  13.681  0.00  0.00     0.009 A 
ATOM     24  C23 <0> d   1      20.385   0.517  12.415  0.00  0.00     0.007 A 
ATOM     25  C22 <0> d   1      19.550  -0.644  12.959  0.00  0.00     0.007 A 
ENDBRANCH  22  23
ENDBRANCH  21  22
ENDBRANCH  20  21
ENDBRANCH  19  20
ENDBRANCH   4  19
TORSDOF 12
ENDMDL
MODEL 6
REMARK VINA RESULT:      -6.3      3.582      8.554
REMARK  12 active torsions:
REMARK  status: ('A' for Active; 'I' for Inactive)
REMARK    1  A    between atoms: C2_2  and  N4_4 
REMARK    2  A    between atoms: N4_4  and  C7_7 
REMARK    3  A    between atoms: C7_7  and  C8_8 
REMARK    4  A    between atoms: C8_8  and  O10_9 
REMARK    5  A    between atoms: C8_8  and  C11_10 
REMARK    6  A    between atoms: C11_10  and  O12_11 
REMARK    7  A    between atoms: O12_11  and  C13_12 
REMARK    8  A    between atoms: C16_15  and  C17_16 
REMARK    9  A    between atoms: C17_16  and  C18_17 
REMARK   10  A    between atoms: C18_17  and  O19_18 
REMARK   11  A    between atoms: O19_18  and  C20_19 
REMARK   12  A    between atoms: C20_19  and  C21_20 
ROOT
ATOM      1  C13 <0> d   1      18.423  -0.690  13.101  0.00  0.00     0.068 A 
ATOM      2  C14 <0> d   1      19.283  -1.578  13.730  0.00  0.00     0.037 A 
ATOM      3  C15 <0> d   1      19.385  -1.580  15.107  0.00  0.00     0.010 A 
ATOM      4  C16 <0> d   1      18.630  -0.699  15.859  0.00  0.00    -0.056 A 
ATOM      5  C24 <0> d   1      17.771   0.187  15.235  0.00  0.00     0.010 A 
ATOM      6  C25 <0> d   1      17.670   0.197  13.857  0.00  0.00     0.037 A 
ENDROOT
BRANCH   1   7
ATOM      7  O12 <0> d   1      18.322  -0.684  11.745  0.00  0.00    -0.349 OA
BRANCH   7   8
ATOM      8  C11 <0> d   1      19.248  -1.497  11.022  0.00  0.00     0.209 C 
BRANCH   8   9
ATOM      9  C8  <0> d   1      20.211  -0.601  10.240  0.00  0.00     0.168 C 
BRANCH   9  10
ATOM     10  C7  <0> d   1      19.613   0.802  10.116  0.00  0.00     0.266 C 
BRANCH  10  11
ATOM     11  N4  <0> d   1      20.191   1.674  11.147  0.00  0.00    -0.069 N 
ATOM     12  H5  <0> d   1      21.005   2.141  10.775  0.00  0.00     0.277 HD
ATOM     13  H6  <0> d   1      20.459   1.118  11.945  0.00  0.00     0.277 HD
BRANCH  11  14
ATOM     14  C2  <0> d   1      19.197   2.674  11.557  0.00  0.00     0.178 C 
ATOM     15  C1  <0> d   1      19.909   3.969  11.953  0.00  0.00     0.039 C 
ATOM     16  C3  <0> d   1      18.243   2.951  10.393  0.00  0.00     0.039 C 
ENDBRANCH  11  14
ENDBRANCH  10  11
ENDBRANCH   9  10
BRANCH   9  17
ATOM     17  O10 <0> d   1      21.459  -0.527  10.932  0.00  0.00    -0.392 OA
ATOM     18  H35 <0> d   1      21.861  -1.389  11.113  0.00  0.00     0.210 HD
ENDBRANCH   9  17
ENDBRANCH   8   9
ENDBRANCH   7   8
ENDBRANCH   1   7
BRANCH   4  19
ATOM     19  C17 <0> d   1      18.743  -0.705  17.362  0.00  0.00     0.064 C 
BRANCH  19  20
ATOM     20  C18 <0> d   1      18.337   0.665  17.910  0.00  0.00     0.172 C 
BRANCH  20  21
ATOM     21  O19 <0> d   1      19.497   1.490  18.037  0.00  0.00    -0.390 OA
BRANCH  21  22
ATOM     22  C20 <0> d   1      19.217   2.891  18.035  0.00  0.00     0.172 C 
BRANCH  22  23
ATOM     23  C21 <0> d   1      19.745   3.515  16.742  0.00  0.00     0.009 A 
ATOM     24  C23 <0> d   1      19.164   4.866  16.321  0.00  0.00     0.007 A 
ATOM     25  C22 <0> d   1      18.784   3.598  15.554  0.00  0.00     0.007 A 
ENDBRANCH  22  23
ENDBRANCH  21  22
ENDBRANCH  20  21
ENDBRANCH  19  20
ENDBRANCH   4  19
TORSDOF 12
ENDMDL
MODEL 7
REMARK VINA RESULT:      -6.2      1.501      2.103
REMARK  12 active torsions:
REMARK  status: ('A' for Active; 'I' for Inactive)
REMARK    1  A    between atoms: C2_2  and  N4_4 
REMARK    2  A    between atoms: N4_4  and  C7_7 
REMARK    3  A    between atoms: C7_7  and  C8_8 
REMARK    4  A    between atoms: C8_8  and  O10_9 
REMARK    5  A    between atoms: C8_8  and  C11_10 
REMARK    6  A    between atoms: C11_10  and  O12_11 
REMARK    7  A    between atoms: O12_11  and  C13_12 
REMARK    8  A    between atoms: C16_15  and  C17_16 
REMARK    9  A    between atoms: C17_16  and  C18_17 
REMARK   10  A    between atoms: C18_17  and  O19_18 
REMARK   11  A    between atoms: O19_18  and  C20_19 
REMARK   12  A    between atoms: C20_19  and  C21_20 
ROOT
ATOM      1  C13 <0> d   1      18.535   1.326   9.438  0.00  0.00     0.068 A 
ATOM      2  C14 <0> d   1      19.275   1.824   8.375  0.00  0.00     0.037 A 
ATOM      3  C15 <0> d   1      19.050   1.353   7.097  0.00  0.00     0.010 A 
ATOM      4  C16 <0> d   1      18.089   0.383   6.876  0.00  0.00    -0.056 A 
ATOM      5  C24 <0> d   1      17.351  -0.116   7.932  0.00  0.00     0.010 A 
ATOM      6  C25 <0> d   1      17.575   0.349   9.214  0.00  0.00     0.037 A 
ENDROOT
BRANCH   1   7
ATOM      7  O12 <0> d   1      18.755   1.787  10.697  0.00  0.00    -0.349 OA
BRANCH   7   8
ATOM      8  C11 <0> d   1      18.902   3.200  10.853  0.00  0.00     0.209 C 
BRANCH   8   9
ATOM      9  C8  <0> d   1      18.719   3.572  12.326  0.00  0.00     0.168 C 
BRANCH   9  10
ATOM     10  C7  <0> d   1      18.257   2.340  13.109  0.00  0.00     0.266 C 
BRANCH  10  11
ATOM     11  N4  <0> d   1      17.787   2.753  14.439  0.00  0.00    -0.069 N 
ATOM     12  H5  <0> d   1      16.797   2.574  14.516  0.00  0.00     0.277 HD
ATOM     13  H6  <0> d   1      17.962   3.738  14.565  0.00  0.00     0.277 HD
BRANCH  11  14
ATOM     14  C2  <0> d   1      18.505   1.991  15.469  0.00  0.00     0.178 C 
ATOM     15  C1  <0> d   1      19.355   0.908  14.802  0.00  0.00     0.039 C 
ATOM     16  C3  <0> d   1      19.410   2.934  16.264  0.00  0.00     0.039 C 
ENDBRANCH  11  14
ENDBRANCH  10  11
ENDBRANCH   9  10
BRANCH   9  17
ATOM     17  O10 <0> d   1      19.962   4.035  12.858  0.00  0.00    -0.392 OA
ATOM     18  H35 <0> d   1      20.547   3.328  13.165  0.00  0.00     0.210 HD
ENDBRANCH   9  17
ENDBRANCH   8   9
ENDBRANCH   7   8
ENDBRANCH   1   7
BRANCH   4  19
ATOM     19  C17 <0> d   1      17.846  -0.130   5.479  0.00  0.00     0.064 C 
BRANCH  19  20
ATOM     20  C18 <0> d   1      19.143  -0.047   4.672  0.00  0.00     0.172 C 
BRANCH  20  21
ATOM     21  O19 <0> d   1      19.810  -1.309   4.712  0.00  0.00    -0.390 OA
BRANCH  21  22
ATOM     22  C20 <0> d   1      18.935  -2.433   4.595  0.00  0.00     0.172 C 
BRANCH  22  23
ATOM     23  C21 <0> d   1      19.314  -3.486   5.638  0.00  0.00     0.009 A 
ATOM     24  C23 <0> d   1      18.315  -3.754   6.765  0.00  0.00     0.007 A 
ATOM     25  C22 <0> d   1      19.614  -2.999   7.057  0.00  0.00     0.007 A 
ENDBRANCH  22  23
ENDBRANCH  21  22
ENDBRANCH  20  21
ENDBRANCH  19  20
ENDBRANCH   4  19
TORSDOF 12
ENDMDL
MODEL 8
REMARK VINA RESULT:      -6.1      2.872      5.995
REMARK  12 active torsions:
REMARK  status: ('A' for Active; 'I' for Inactive)
REMARK    1  A    between atoms: C2_2  and  N4_4 
REMARK    2  A    between atoms: N4_4  and  C7_7 
REMARK    3  A    between atoms: C7_7  and  C8_8 
REMARK    4  A    between atoms: C8_8  and  O10_9 
REMARK    5  A    between atoms: C8_8  and  C11_10 
REMARK    6  A    between atoms: C11_10  and  O12_11 
REMARK    7  A    between atoms: O12_11  and  C13_12 
REMARK    8  A    between atoms: C16_15  and  C17_16 
REMARK    9  A    between atoms: C17_16  and  C18_17 
REMARK   10  A    between atoms: C18_17  and  O19_18 
REMARK   11  A    between atoms: O19_18  and  C20_19 
REMARK   12  A    between atoms: C20_19  and  C21_20 
ROOT
ATOM      1  C13 <0> d   1      18.703  -1.816   7.438  0.00  0.00     0.068 A 
ATOM      2  C14 <0> d   1      17.919  -0.860   6.808  0.00  0.00     0.037 A 
ATOM      3  C15 <0> d   1      18.016   0.466   7.181  0.00  0.00     0.010 A 
ATOM      4  C16 <0> d   1      18.895   0.842   8.180  0.00  0.00    -0.056 A 
ATOM      5  C24 <0> d   1      19.678  -0.108   8.809  0.00  0.00     0.010 A 
ATOM      6  C25 <0> d   1      19.580  -1.438   8.443  0.00  0.00     0.037 A 
ENDROOT
BRANCH   1   7
ATOM      7  O12 <0> d   1      18.608  -3.123   7.074  0.00  0.00    -0.349 OA
BRANCH   7   8
ATOM      8  C11 <0> d   1      19.770  -3.721   6.497  0.00  0.00     0.209 C 
BRANCH   8   9
ATOM      9  C8  <0> d   1      19.972  -5.117   7.090  0.00  0.00     0.168 C 
BRANCH   9  10
ATOM     10  C7  <0> d   1      19.165  -5.242   8.384  0.00  0.00     0.266 C 
BRANCH  10  11
ATOM     11  N4  <0> d   1      20.011  -4.868   9.527  0.00  0.00    -0.069 N 
ATOM     12  H5  <0> d   1      20.755  -4.264   9.210  0.00  0.00     0.277 HD
ATOM     13  H6  <0> d   1      20.405  -5.700   9.939  0.00  0.00     0.277 HD
BRANCH  11  14
ATOM     14  C2  <0> d   1      19.199  -4.162  10.526  0.00  0.00     0.178 C 
ATOM     15  C1  <0> d   1      18.155  -5.120  11.103  0.00  0.00     0.039 C 
ATOM     16  C3  <0> d   1      20.103  -3.654  11.652  0.00  0.00     0.039 C 
ENDBRANCH  11  14
ENDBRANCH  10  11
ENDBRANCH   9  10
BRANCH   9  17
ATOM     17  O10 <0> d   1      19.527  -6.101   6.154  0.00  0.00    -0.392 OA
ATOM     18  H35 <0> d   1      19.911  -6.978   6.292  0.00  0.00     0.210 HD
ENDBRANCH   9  17
ENDBRANCH   8   9
ENDBRANCH   7   8
ENDBRANCH   1   7
BRANCH   4  19
ATOM     19  C17 <0> d   1      19.000   2.290   8.584  0.00  0.00     0.064 C 
BRANCH  19  20
ATOM     20  C18 <0> d   1      19.173   2.386  10.101  0.00  0.00     0.172 C 
BRANCH  20  21
ATOM     21  O19 <0> d   1      17.907   2.201  10.738  0.00  0.00    -0.390 OA
BRANCH  21  22
ATOM     22  C20 <0> d   1      17.995   1.695  12.071  0.00  0.00     0.172 C 
BRANCH  22  23
ATOM     23  C21 <0> d   1      17.063   0.492  12.223  0.00  0.00     0.009 A 
ATOM     24  C23 <0> d   1      17.708  -0.887  12.376  0.00  0.00     0.007 A 
ATOM     25  C22 <0> d   1      17.009  -0.510  11.068  0.00  0.00     0.007 A 
ENDBRANCH  22  23
ENDBRANCH  21  22
ENDBRANCH  20  21
ENDBRANCH  19  20
ENDBRANCH   4  19
TORSDOF 12
ENDMDL
MODEL 9
REMARK VINA RESULT:      -6.1      2.573      6.580
REMARK  12 active torsions:
REMARK  status: ('A' for Active; 'I' for Inactive)
REMARK    1  A    between atoms: C2_2  and  N4_4 
REMARK    2  A    between atoms: N4_4  and  C7_7 
REMARK    3  A    between atoms: C7_7  and  C8_8 
REMARK    4  A    between atoms: C8_8  and  O10_9 
REMARK    5  A    between atoms: C8_8  and  C11_10 
REMARK    6  A    between atoms: C11_10  and  O12_11 
REMARK    7  A    between atoms: O12_11  and  C13_12 
REMARK    8  A    between atoms: C16_15  and  C17_16 
REMARK    9  A    between atoms: C17_16  and  C18_17 
REMARK   10  A    between atoms: C18_17  and  O19_18 
REMARK   11  A    between atoms: O19_18  and  C20_19 
REMARK   12  A    between atoms: C20_19  and  C21_20 
ROOT
ATOM      1  C13 <0> d   1      18.528   0.732   7.545  0.00  0.00     0.068 A 
ATOM      2  C14 <0> d   1      17.563  -0.021   8.198  0.00  0.00     0.037 A 
ATOM      3  C15 <0> d   1      17.278   0.225   9.527  0.00  0.00     0.010 A 
ATOM      4  C16 <0> d   1      17.954   1.222  10.206  0.00  0.00    -0.056 A 
ATOM      5  C24 <0> d   1      18.916   1.974   9.559  0.00  0.00     0.010 A 
ATOM      6  C25 <0> d   1      19.208   1.728   8.231  0.00  0.00     0.037 A 
ENDROOT
BRANCH   1   7
ATOM      7  O12 <0> d   1      18.811   0.490   6.238  0.00  0.00    -0.349 OA
BRANCH   7   8
ATOM      8  C11 <0> d   1      18.249  -0.689   5.660  0.00  0.00     0.209 C 
BRANCH   8   9
ATOM      9  C8  <0> d   1      19.352  -1.730   5.453  0.00  0.00     0.168 C 
BRANCH   9  10
ATOM     10  C7  <0> d   1      18.981  -3.018   6.192  0.00  0.00     0.266 C 
BRANCH  10  11
ATOM     11  N4  <0> d   1      20.150  -3.511   6.933  0.00  0.00    -0.069 N 
ATOM     12  H5  <0> d   1      20.184  -3.069   7.840  0.00  0.00     0.277 HD
ATOM     13  H6  <0> d   1      20.990  -3.291   6.420  0.00  0.00     0.277 HD
BRANCH  11  14
ATOM     14  C2  <0> d   1      20.045  -4.966   7.101  0.00  0.00     0.178 C 
ATOM     15  C1  <0> d   1      19.840  -5.294   8.582  0.00  0.00     0.039 C 
ATOM     16  C3  <0> d   1      18.854  -5.489   6.294  0.00  0.00     0.039 C 
ENDBRANCH  11  14
ENDBRANCH  10  11
ENDBRANCH   9  10
BRANCH   9  17
ATOM     17  O10 <0> d   1      19.492  -2.004   4.058  0.00  0.00    -0.392 OA
ATOM     18  H35 <0> d   1      20.351  -1.752   3.691  0.00  0.00     0.210 HD
ENDBRANCH   9  17
ENDBRANCH   8   9
ENDBRANCH   7   8
ENDBRANCH   1   7
BRANCH   4  19
ATOM     19  C17 <0> d   1      17.641   1.489  11.657  0.00  0.00     0.064 C 
BRANCH  19  20
ATOM     20  C18 <0> d   1      18.622   0.718  12.541  0.00  0.00     0.172 C 
BRANCH  20  21
ATOM     21  O19 <0> d   1      17.952  -0.393  13.140  0.00  0.00    -0.390 OA
BRANCH  21  22
ATOM     22  C20 <0> d   1      18.742  -1.582  13.207  0.00  0.00     0.172 C 
BRANCH  22  23
ATOM     23  C21 <0> d   1      18.756  -2.262  11.837  0.00  0.00     0.009 A 
ATOM     24  C23 <0> d   1      17.461  -2.924  11.363  0.00  0.00     0.007 A 
ATOM     25  C22 <0> d   1      18.645  -3.787  11.804  0.00  0.00     0.007 A 
ENDBRANCH  22  23
ENDBRANCH  21  22
ENDBRANCH  20  21
ENDBRANCH  19  20
ENDBRANCH   4  19
TORSDOF 12
ENDMDL
