MODEL 1
REMARK VINA RESULT:      -9.1      0.000      0.000
REMARK  8 active torsions:
REMARK  status: ('A' for Active; 'I' for Inactive)
REMARK    1  A    between atoms: N2_2  and  C5_5 
REMARK    2  A    between atoms: C5_5  and  C6_6 
REMARK    3  A    between atoms: C7_7  and  C8_8 
REMARK       I    between atoms: C8_8  and  N10_10 
REMARK    4  A    between atoms: N10_10  and  C11_11 
REMARK    5  A    between atoms: C12_12  and  O13_13 
REMARK    6  A    between atoms: O13_13  and  C14_14 
REMARK    7  A    between atoms: C25_24  and  N26_25 
REMARK    8  A    between atoms: N26_25  and  C27_26 
ROOT
ATOM      1  C11 ZIN A   1      19.551   0.583  10.238  0.00  0.00     0.069 A 
ATOM      2  C12 ZIN A   1      19.230   1.827   9.674  0.00  0.00     0.098 A 
ATOM      3  C20 ZIN A   1      18.961   1.941   8.328  0.00  0.00     0.071 A 
ATOM      4  C21 ZIN A   1      19.008   0.804   7.513  0.00  0.00     0.075 A 
ATOM      5  N22 ZIN A   1      18.753   0.868   6.196  0.00  0.00    -0.241 NA
ATOM      6  C23 ZIN A   1      18.805  -0.214   5.456  0.00  0.00     0.236 A 
ATOM      7  N24 ZIN A   1      19.103  -1.407   5.944  0.00  0.00    -0.224 NA
ATOM      8  C25 ZIN A   1      19.372  -1.582   7.232  0.00  0.00     0.142 A 
ATOM      9  C35 ZIN A   1      19.333  -0.452   8.084  0.00  0.00     0.041 A 
ATOM     10  C36 ZIN A   1      19.608  -0.548   9.452  0.00  0.00     0.050 A 
ENDROOT
BRANCH   1  11
ATOM     11  N10 ZIN A   1      19.822   0.491  11.608  0.00  0.00    -0.321 N 
ATOM     12  C8  ZIN A   1      18.844   0.136  12.467  0.00  0.00     0.245 C 
ATOM     13  O9  ZIN A   1      17.708  -0.021  12.062  0.00  0.00    -0.268 OA
ATOM     14  H47 ZIN A   1      20.713   0.682  11.939  0.00  0.00     0.169 HD
BRANCH  12  15
ATOM     15  C7  ZIN A   1      19.152  -0.058  13.891  0.00  0.00     0.072 C 
ATOM     16  C6  ZIN A   1      18.693  -1.131  14.529  0.00  0.00     0.006 C 
BRANCH  16  17
ATOM     17  C5  ZIN A   1      19.008  -1.332  15.990  0.00  0.00     0.261 C 
BRANCH  17  18
ATOM     18  N2  ZIN A   1      18.547  -0.166  16.756  0.00  0.00    -0.076 N 
ATOM     19  C1  ZIN A   1      17.092  -0.244  16.937  0.00  0.00     0.269 C 
ATOM     20  H3  ZIN A   1      18.779   0.678  16.253  0.00  0.00     0.279 HD
ATOM     21  C4  ZIN A   1      19.206  -0.150  18.068  0.00  0.00     0.269 C 
ENDBRANCH  17  18
ENDBRANCH  16  17
ENDBRANCH  12  15
ENDBRANCH   1  11
BRANCH   2  22
ATOM     22  O13 ZIN A   1      19.183   2.931  10.465  0.00  0.00    -0.341 OA
BRANCH  22  23
ATOM     23  C14 ZIN A   1      17.888   3.431  10.805  0.00  0.00     0.154 C 
ATOM     24  C19 ZIN A   1      17.633   4.798  10.132  0.00  0.00     0.200 C 
ATOM     25  O18 ZIN A   1      16.964   5.631  11.093  0.00  0.00    -0.389 OA
ATOM     26  C17 ZIN A   1      16.731   4.894  12.304  0.00  0.00     0.170 C 
ATOM     27  C16 ZIN A   1      17.809   3.781  12.315  0.00  0.00     0.061 C 
ENDBRANCH  22  23
ENDBRANCH   2  22
BRANCH   8  28
ATOM     28  N26 ZIN A   1      19.682  -2.832   7.727  0.00  0.00    -0.340 N 
ATOM     29  H56 ZIN A   1      20.608  -3.075   7.885  0.00  0.00     0.167 HD
BRANCH  28  30
ATOM     30  C27 ZIN A   1      18.662  -3.749   8.001  0.00  0.00     0.035 A 
ATOM     31  C34 ZIN A   1      18.134  -3.840   9.283  0.00  0.00     0.056 A 
ATOM     32  C32 ZIN A   1      17.124  -4.744   9.551  0.00  0.00     0.074 A 
ATOM     33  C30 ZIN A   1      16.644  -5.566   8.543  0.00  0.00     0.138 A 
ATOM     34 Cl33 ZIN A   1      16.460  -4.854  11.151  0.00  0.00    -0.081 Cl
ATOM     35  C29 ZIN A   1      17.172  -5.479   7.267  0.00  0.00     0.046 A 
ATOM     36  F31 ZIN A   1      15.658  -6.452   8.807  0.00  0.00    -0.204 F 
ATOM     37  C28 ZIN A   1      18.179  -4.574   6.994  0.00  0.00     0.032 A 
ENDBRANCH  28  30
ENDBRANCH   8  28
TORSDOF 8
ENDMDL
MODEL 2
REMARK VINA RESULT:      -8.9      3.551      8.821
REMARK  8 active torsions:
REMARK  status: ('A' for Active; 'I' for Inactive)
REMARK    1  A    between atoms: N2_2  and  C5_5 
REMARK    2  A    between atoms: C5_5  and  C6_6 
REMARK    3  A    between atoms: C7_7  and  C8_8 
REMARK       I    between atoms: C8_8  and  N10_10 
REMARK    4  A    between atoms: N10_10  and  C11_11 
REMARK    5  A    between atoms: C12_12  and  O13_13 
REMARK    6  A    between atoms: O13_13  and  C14_14 
REMARK    7  A    between atoms: C25_24  and  N26_25 
REMARK    8  A    between atoms: N26_25  and  C27_26 
ROOT
ATOM      1  C11 ZIN A   1      19.585  -1.570  10.470  0.00  0.00     0.069 A 
ATOM      2  C12 ZIN A   1      19.171  -2.714  11.169  0.00  0.00     0.098 A 
ATOM      3  C20 ZIN A   1      18.939  -2.663  12.526  0.00  0.00     0.071 A 
ATOM      4  C21 ZIN A   1      19.119  -1.458  13.215  0.00  0.00     0.075 A 
ATOM      5  N22 ZIN A   1      18.905  -1.362  14.537  0.00  0.00    -0.241 NA
ATOM      6  C23 ZIN A   1      19.081  -0.221  15.158  0.00  0.00     0.236 A 
ATOM      7  N24 ZIN A   1      19.471   0.883  14.540  0.00  0.00    -0.224 NA
ATOM      8  C25 ZIN A   1      19.710   0.898  13.235  0.00  0.00     0.142 A 
ATOM      9  C35 ZIN A   1      19.538  -0.304  12.508  0.00  0.00     0.041 A 
ATOM     10  C36 ZIN A   1      19.773  -0.375  11.131  0.00  0.00     0.050 A 
ENDROOT
BRANCH   1  11
ATOM     11  N10 ZIN A   1      19.816  -1.644   9.091  0.00  0.00    -0.321 N 
ATOM     12  C8  ZIN A   1      18.872  -1.224   8.226  0.00  0.00     0.245 C 
ATOM     13  O9  ZIN A   1      17.788  -0.858   8.639  0.00  0.00    -0.268 OA
ATOM     14  H47 ZIN A   1      20.655  -1.999   8.759  0.00  0.00     0.169 HD
BRANCH  12  15
ATOM     15  C7  ZIN A   1      19.153  -1.208   6.783  0.00  0.00     0.072 C 
ATOM     16  C6  ZIN A   1      18.651  -2.158   5.998  0.00  0.00     0.006 C 
BRANCH  16  17
ATOM     17  C5  ZIN A   1      18.939  -2.143   4.518  0.00  0.00     0.261 C 
BRANCH  17  18
ATOM     18  N2  ZIN A   1      18.220  -3.247   3.868  0.00  0.00    -0.076 N 
ATOM     19  C1  ZIN A   1      18.282  -4.441   4.719  0.00  0.00     0.269 C 
ATOM     20  H3  ZIN A   1      18.649  -3.446   2.976  0.00  0.00     0.279 HD
ATOM     21  C4  ZIN A   1      16.817  -2.864   3.661  0.00  0.00     0.269 C 
ENDBRANCH  17  18
ENDBRANCH  16  17
ENDBRANCH  12  15
ENDBRANCH   1  11
BRANCH   2  22
ATOM     22  O13 ZIN A   1      18.996  -3.883  10.500  0.00  0.00    -0.341 OA
BRANCH  22  23
ATOM     23  C14 ZIN A   1      17.651  -4.330  10.316  0.00  0.00     0.154 C 
ATOM     24  C19 ZIN A   1      17.496  -5.803  10.753  0.00  0.00     0.200 C 
ATOM     25  O18 ZIN A   1      16.646  -6.449   9.791  0.00  0.00    -0.389 OA
ATOM     26  C17 ZIN A   1      16.210  -5.499   8.806  0.00  0.00     0.170 C 
ATOM     27  C16 ZIN A   1      17.289  -4.388   8.808  0.00  0.00     0.061 C 
ENDBRANCH  22  23
ENDBRANCH   2  22
BRANCH   8  28
ATOM     28  N26 ZIN A   1      20.116   2.057  12.604  0.00  0.00    -0.340 N 
ATOM     29  H56 ZIN A   1      21.058   2.287  12.574  0.00  0.00     0.167 HD
BRANCH  28  30
ATOM     30  C27 ZIN A   1      19.171   2.897  12.007  0.00  0.00     0.035 A 
ATOM     31  C34 ZIN A   1      18.324   3.663  12.798  0.00  0.00     0.056 A 
ATOM     32  C32 ZIN A   1      17.393   4.495  12.206  0.00  0.00     0.074 A 
ATOM     33  C30 ZIN A   1      17.297   4.558  10.825  0.00  0.00     0.138 A 
ATOM     34 Cl33 ZIN A   1      16.338   5.458  13.193  0.00  0.00    -0.081 Cl
ATOM     35  C29 ZIN A   1      18.137   3.792  10.036  0.00  0.00     0.046 A 
ATOM     36  F31 ZIN A   1      16.384   5.369  10.247  0.00  0.00    -0.204 F 
ATOM     37  C28 ZIN A   1      19.073   2.961  10.624  0.00  0.00     0.032 A 
ENDBRANCH  28  30
ENDBRANCH   8  28
TORSDOF 8
ENDMDL
MODEL 3
REMARK VINA RESULT:      -8.7      3.590      9.196
REMARK  8 active torsions:
REMARK  status: ('A' for Active; 'I' for Inactive)
REMARK    1  A    between atoms: N2_2  and  C5_5 
REMARK    2  A    between atoms: C5_5  and  C6_6 
REMARK    3  A    between atoms: C7_7  and  C8_8 
REMARK       I    between atoms: C8_8  and  N10_10 
REMARK    4  A    between atoms: N10_10  and  C11_11 
REMARK    5  A    between atoms: C12_12  and  O13_13 
REMARK    6  A    between atoms: O13_13  and  C14_14 
REMARK    7  A    between atoms: C25_24  and  N26_25 
REMARK    8  A    between atoms: N26_25  and  C27_26 
ROOT
ATOM      1  C11 ZIN A   1      19.778   0.050  12.255  0.00  0.00     0.069 A 
ATOM      2  C12 ZIN A   1      19.511  -1.271  12.648  0.00  0.00     0.098 A 
ATOM      3  C20 ZIN A   1      19.185  -1.565  13.953  0.00  0.00     0.071 A 
ATOM      4  C21 ZIN A   1      19.119  -0.535  14.900  0.00  0.00     0.075 A 
ATOM      5  N22 ZIN A   1      18.805  -0.774  16.183  0.00  0.00    -0.241 NA
ATOM      6  C23 ZIN A   1      18.750   0.210  17.049  0.00  0.00     0.236 A 
ATOM      7  N24 ZIN A   1      18.994   1.469  16.724  0.00  0.00    -0.224 NA
ATOM      8  C25 ZIN A   1      19.313   1.815  15.483  0.00  0.00     0.142 A 
ATOM      9  C35 ZIN A   1      19.389   0.798  14.502  0.00  0.00     0.041 A 
ATOM     10  C36 ZIN A   1      19.724   1.077  13.173  0.00  0.00     0.050 A 
ENDROOT
BRANCH   1  11
ATOM     11  N10 ZIN A   1      20.109   0.325  10.924  0.00  0.00    -0.321 N 
ATOM     12  C8  ZIN A   1      19.153   0.723  10.060  0.00  0.00     0.245 C 
ATOM     13  O9  ZIN A   1      17.991   0.763  10.416  0.00  0.00    -0.268 OA
ATOM     14  H47 ZIN A   1      21.026   0.228  10.623  0.00  0.00     0.169 HD
BRANCH  12  15
ATOM     15  C7  ZIN A   1      19.517   1.109   8.689  0.00  0.00     0.072 C 
ATOM     16  C6  ZIN A   1      18.699   0.824   7.679  0.00  0.00     0.006 C 
BRANCH  16  17
ATOM     17  C5  ZIN A   1      19.072   1.218   6.273  0.00  0.00     0.261 C 
BRANCH  17  18
ATOM     18  N2  ZIN A   1      18.410   0.318   5.319  0.00  0.00    -0.076 N 
ATOM     19  C1  ZIN A   1      19.370  -0.687   4.847  0.00  0.00     0.269 C 
ATOM     20  H3  ZIN A   1      18.070   0.853   4.534  0.00  0.00     0.279 HD
ATOM     21  C4  ZIN A   1      17.282  -0.352   5.979  0.00  0.00     0.269 C 
ENDBRANCH  17  18
ENDBRANCH  16  17
ENDBRANCH  12  15
ENDBRANCH   1  11
BRANCH   2  22
ATOM     22  O13 ZIN A   1      19.575  -2.271  11.730  0.00  0.00    -0.341 OA
BRANCH  22  23
ATOM     23  C14 ZIN A   1      18.342  -2.887  11.356  0.00  0.00     0.154 C 
ATOM     24  C19 ZIN A   1      18.367  -4.400  11.664  0.00  0.00     0.200 C 
ATOM     25  O18 ZIN A   1      17.733  -5.073  10.564  0.00  0.00    -0.389 OA
ATOM     26  C17 ZIN A   1      17.265  -4.112   9.605  0.00  0.00     0.170 C 
ATOM     27  C16 ZIN A   1      18.156  -2.862   9.815  0.00  0.00     0.061 C 
ENDBRANCH  22  23
ENDBRANCH   2  22
BRANCH   8  28
ATOM     28  N26 ZIN A   1      19.565   3.133  15.159  0.00  0.00    -0.340 N 
ATOM     29  H56 ZIN A   1      20.480   3.451  15.097  0.00  0.00     0.167 HD
BRANCH  28  30
ATOM     30  C27 ZIN A   1      18.502   4.010  14.919  0.00  0.00     0.035 A 
ATOM     31  C34 ZIN A   1      17.994   4.152  13.634  0.00  0.00     0.056 A 
ATOM     32  C32 ZIN A   1      16.942   5.016  13.399  0.00  0.00     0.074 A 
ATOM     33  C30 ZIN A   1      16.400   5.748  14.444  0.00  0.00     0.138 A 
ATOM     34 Cl33 ZIN A   1      16.302   5.190  11.795  0.00  0.00    -0.081 Cl
ATOM     35  C29 ZIN A   1      16.908   5.611  15.724  0.00  0.00     0.046 A 
ATOM     36  F31 ZIN A   1      15.373   6.596  14.213  0.00  0.00    -0.204 F 
ATOM     37  C28 ZIN A   1      17.958   4.745  15.964  0.00  0.00     0.032 A 
ENDBRANCH  28  30
ENDBRANCH   8  28
TORSDOF 8
ENDMDL
MODEL 4
REMARK VINA RESULT:      -8.7      1.849      2.119
REMARK  8 active torsions:
REMARK  status: ('A' for Active; 'I' for Inactive)
REMARK    1  A    between atoms: N2_2  and  C5_5 
REMARK    2  A    between atoms: C5_5  and  C6_6 
REMARK    3  A    between atoms: C7_7  and  C8_8 
REMARK       I    between atoms: C8_8  and  N10_10 
REMARK    4  A    between atoms: N10_10  and  C11_11 
REMARK    5  A    between atoms: C12_12  and  O13_13 
REMARK    6  A    between atoms: O13_13  and  C14_14 
REMARK    7  A    between atoms: C25_24  and  N26_25 
REMARK    8  A    between atoms: N26_25  and  C27_26 
ROOT
ATOM      1  C11 ZIN A   1      18.815  -0.697  10.027  0.00  0.00     0.069 A 
ATOM      2  C12 ZIN A   1      18.190   0.467   9.552  0.00  0.00     0.098 A 
ATOM      3  C20 ZIN A   1      18.035   0.681   8.201  0.00  0.00     0.071 A 
ATOM      4  C21 ZIN A   1      18.505  -0.272   7.290  0.00  0.00     0.075 A 
ATOM      5  N22 ZIN A   1      18.376  -0.105   5.963  0.00  0.00    -0.241 NA
ATOM      6  C23 ZIN A   1      18.827  -1.014   5.132  0.00  0.00     0.236 A 
ATOM      7  N24 ZIN A   1      19.423  -2.125   5.534  0.00  0.00    -0.224 NA
ATOM      8  C25 ZIN A   1      19.602  -2.389   6.821  0.00  0.00     0.142 A 
ATOM      9  C35 ZIN A   1      19.137  -1.446   7.769  0.00  0.00     0.041 A 
ATOM     10  C36 ZIN A   1      19.291  -1.645   9.146  0.00  0.00     0.050 A 
ENDROOT
BRANCH   1  11
ATOM     11  N10 ZIN A   1      18.963  -0.893  11.404  0.00  0.00    -0.321 N 
ATOM     12  C8  ZIN A   1      18.048  -1.613  12.085  0.00  0.00     0.245 C 
ATOM     13  O9  ZIN A   1      17.052  -2.020  11.519  0.00  0.00    -0.268 OA
ATOM     14  H47 ZIN A   1      19.724  -0.512  11.869  0.00  0.00     0.169 HD
BRANCH  12  15
ATOM     15  C7  ZIN A   1      18.256  -1.904  13.511  0.00  0.00     0.072 C 
ATOM     16  C6  ZIN A   1      18.835  -0.999  14.296  0.00  0.00     0.006 C 
BRANCH  16  17
ATOM     17  C5  ZIN A   1      19.048  -1.297  15.759  0.00  0.00     0.261 C 
BRANCH  17  18
ATOM     18  N2  ZIN A   1      18.525  -0.187  16.566  0.00  0.00    -0.076 N 
ATOM     19  C1  ZIN A   1      17.082  -0.367  16.769  0.00  0.00     0.269 C 
ATOM     20  H3  ZIN A   1      18.691   0.685  16.086  0.00  0.00     0.279 HD
ATOM     21  C4  ZIN A   1      19.204  -0.165  17.868  0.00  0.00     0.269 C 
ENDBRANCH  17  18
ENDBRANCH  16  17
ENDBRANCH  12  15
ENDBRANCH   1  11
BRANCH   2  22
ATOM     22  O13 ZIN A   1      17.732   1.391  10.437  0.00  0.00    -0.341 OA
BRANCH  22  23
ATOM     23  C14 ZIN A   1      18.341   2.683  10.399  0.00  0.00     0.154 C 
ATOM     24  C19 ZIN A   1      19.629   2.709  11.251  0.00  0.00     0.200 C 
ATOM     25  O18 ZIN A   1      19.654   3.962  11.952  0.00  0.00    -0.389 OA
ATOM     26  C17 ZIN A   1      18.515   4.755  11.582  0.00  0.00     0.170 C 
ATOM     27  C16 ZIN A   1      17.449   3.736  11.108  0.00  0.00     0.061 C 
ENDBRANCH  22  23
ENDBRANCH   2  22
BRANCH   8  28
ATOM     28  N26 ZIN A   1      20.226  -3.552   7.226  0.00  0.00    -0.340 N 
ATOM     29  H56 ZIN A   1      21.185  -3.562   7.370  0.00  0.00     0.167 HD
BRANCH  28  30
ATOM     30  C27 ZIN A   1      19.475  -4.714   7.427  0.00  0.00     0.035 A 
ATOM     31  C34 ZIN A   1      18.886  -5.358   6.347  0.00  0.00     0.056 A 
ATOM     32  C32 ZIN A   1      18.147  -6.508   6.547  0.00  0.00     0.074 A 
ATOM     33  C30 ZIN A   1      17.988  -7.015   7.828  0.00  0.00     0.138 A 
ATOM     34 Cl33 ZIN A   1      17.414  -7.316   5.197  0.00  0.00    -0.081 Cl
ATOM     35  C29 ZIN A   1      18.571  -6.373   8.906  0.00  0.00     0.046 A 
ATOM     36  F31 ZIN A   1      17.262  -8.138   8.024  0.00  0.00    -0.204 F 
ATOM     37  C28 ZIN A   1      19.314  -5.224   8.708  0.00  0.00     0.032 A 
ENDBRANCH  28  30
ENDBRANCH   8  28
TORSDOF 8
ENDMDL
MODEL 5
REMARK VINA RESULT:      -8.6      4.269      9.781
REMARK  8 active torsions:
REMARK  status: ('A' for Active; 'I' for Inactive)
REMARK    1  A    between atoms: N2_2  and  C5_5 
REMARK    2  A    between atoms: C5_5  and  C6_6 
REMARK    3  A    between atoms: C7_7  and  C8_8 
REMARK       I    between atoms: C8_8  and  N10_10 
REMARK    4  A    between atoms: N10_10  and  C11_11 
REMARK    5  A    between atoms: C12_12  and  O13_13 
REMARK    6  A    between atoms: O13_13  and  C14_14 
REMARK    7  A    between atoms: C25_24  and  N26_25 
REMARK    8  A    between atoms: N26_25  and  C27_26 
ROOT
ATOM      1  C11 ZIN A   1      18.388   0.736  13.493  0.00  0.00     0.069 A 
ATOM      2  C12 ZIN A   1      18.211  -0.628  13.775  0.00  0.00     0.098 A 
ATOM      3  C20 ZIN A   1      18.415  -1.116  15.046  0.00  0.00     0.071 A 
ATOM      4  C21 ZIN A   1      18.804  -0.243  16.069  0.00  0.00     0.075 A 
ATOM      5  N22 ZIN A   1      19.015  -0.674  17.323  0.00  0.00    -0.241 NA
ATOM      6  C23 ZIN A   1      19.379   0.166  18.263  0.00  0.00     0.236 A 
ATOM      7  N24 ZIN A   1      19.557   1.458  18.044  0.00  0.00    -0.224 NA
ATOM      8  C25 ZIN A   1      19.376   1.989  16.841  0.00  0.00     0.142 A 
ATOM      9  C35 ZIN A   1      18.983   1.133  15.784  0.00  0.00     0.041 A 
ATOM     10  C36 ZIN A   1      18.776   1.611  14.485  0.00  0.00     0.050 A 
ENDROOT
BRANCH   1  11
ATOM     11  N10 ZIN A   1      18.176   1.210  12.193  0.00  0.00    -0.321 N 
ATOM     12  C8  ZIN A   1      19.223   1.398  11.365  0.00  0.00     0.245 C 
ATOM     13  O9  ZIN A   1      20.357   1.236  11.773  0.00  0.00    -0.268 OA
ATOM     14  H47 ZIN A   1      17.275   1.403  11.889  0.00  0.00     0.169 HD
BRANCH  12  15
ATOM     15  C7  ZIN A   1      18.992   1.799   9.970  0.00  0.00     0.072 C 
ATOM     16  C6  ZIN A   1      19.367   0.996   8.977  0.00  0.00     0.006 C 
BRANCH  16  17
ATOM     17  C5  ZIN A   1      19.131   1.406   7.546  0.00  0.00     0.261 C 
BRANCH  17  18
ATOM     18  N2  ZIN A   1      18.840   0.216   6.736  0.00  0.00    -0.076 N 
ATOM     19  C1  ZIN A   1      17.406  -0.087   6.808  0.00  0.00     0.269 C 
ATOM     20  H3  ZIN A   1      19.368  -0.569   7.091  0.00  0.00     0.279 HD
ATOM     21  C4  ZIN A   1      19.219   0.468   5.340  0.00  0.00     0.269 C 
ENDBRANCH  17  18
ENDBRANCH  16  17
ENDBRANCH  12  15
ENDBRANCH   1  11
BRANCH   2  22
ATOM     22  O13 ZIN A   1      17.833  -1.475  12.782  0.00  0.00    -0.341 OA
BRANCH  22  23
ATOM     23  C14 ZIN A   1      18.662  -2.616  12.552  0.00  0.00     0.154 C 
ATOM     24  C19 ZIN A   1      19.701  -2.327  11.446  0.00  0.00     0.200 C 
ATOM     25  O18 ZIN A   1      19.795  -3.504  10.628  0.00  0.00    -0.389 OA
ATOM     26  C17 ZIN A   1      18.938  -4.533  11.147  0.00  0.00     0.170 C 
ATOM     27  C16 ZIN A   1      17.840  -3.783  11.943  0.00  0.00     0.061 C 
ENDBRANCH  22  23
ENDBRANCH   2  22
BRANCH   8  28
ATOM     28  N26 ZIN A   1      19.567   3.339  16.627  0.00  0.00    -0.340 N 
ATOM     29  H56 ZIN A   1      20.442   3.670  16.371  0.00  0.00     0.167 HD
BRANCH  28  30
ATOM     30  C27 ZIN A   1      18.499   4.229  16.778  0.00  0.00     0.035 A 
ATOM     31  C34 ZIN A   1      18.006   4.918  15.678  0.00  0.00     0.056 A 
ATOM     32  C32 ZIN A   1      16.948   5.795  15.829  0.00  0.00     0.074 A 
ATOM     33  C30 ZIN A   1      16.385   5.992  17.080  0.00  0.00     0.138 A 
ATOM     34 Cl33 ZIN A   1      16.328   6.652  14.453  0.00  0.00    -0.081 Cl
ATOM     35  C29 ZIN A   1      16.878   5.310  18.178  0.00  0.00     0.046 A 
ATOM     36  F31 ZIN A   1      15.354   6.853  17.227  0.00  0.00    -0.204 F 
ATOM     37  C28 ZIN A   1      17.933   4.429  18.030  0.00  0.00     0.032 A 
ENDBRANCH  28  30
ENDBRANCH   8  28
TORSDOF 8
ENDMDL
MODEL 6
REMARK VINA RESULT:      -8.6      3.226      5.661
REMARK  8 active torsions:
REMARK  status: ('A' for Active; 'I' for Inactive)
REMARK    1  A    between atoms: N2_2  and  C5_5 
REMARK    2  A    between atoms: C5_5  and  C6_6 
REMARK    3  A    between atoms: C7_7  and  C8_8 
REMARK       I    between atoms: C8_8  and  N10_10 
REMARK    4  A    between atoms: N10_10  and  C11_11 
REMARK    5  A    between atoms: C12_12  and  O13_13 
REMARK    6  A    between atoms: O13_13  and  C14_14 
REMARK    7  A    between atoms: C25_24  and  N26_25 
REMARK    8  A    between atoms: N26_25  and  C27_26 
ROOT
ATOM      1  C11 ZIN A   1      18.978   0.930  12.650  0.00  0.00     0.069 A 
ATOM      2  C12 ZIN A   1      18.163   0.272  13.583  0.00  0.00     0.098 A 
ATOM      3  C20 ZIN A   1      17.669  -0.987  13.322  0.00  0.00     0.071 A 
ATOM      4  C21 ZIN A   1      17.984  -1.617  12.112  0.00  0.00     0.075 A 
ATOM      5  N22 ZIN A   1      17.526  -2.844  11.815  0.00  0.00    -0.241 NA
ATOM      6  C23 ZIN A   1      17.837  -3.411  10.674  0.00  0.00     0.236 A 
ATOM      7  N24 ZIN A   1      18.602  -2.828   9.764  0.00  0.00    -0.224 NA
ATOM      8  C25 ZIN A   1      19.107  -1.617   9.957  0.00  0.00     0.142 A 
ATOM      9  C35 ZIN A   1      18.808  -0.952  11.170  0.00  0.00     0.041 A 
ATOM     10  C36 ZIN A   1      19.296   0.329  11.450  0.00  0.00     0.050 A 
ENDROOT
BRANCH   1  11
ATOM     11  N10 ZIN A   1      19.467   2.210  12.936  0.00  0.00    -0.321 N 
ATOM     12  C8  ZIN A   1      18.782   3.300  12.533  0.00  0.00     0.245 C 
ATOM     13  O9  ZIN A   1      17.784   3.171  11.850  0.00  0.00    -0.268 OA
ATOM     14  H47 ZIN A   1      20.299   2.313  13.423  0.00  0.00     0.169 HD
BRANCH  12  15
ATOM     15  C7  ZIN A   1      19.243   4.641  12.920  0.00  0.00     0.072 C 
ATOM     16  C6  ZIN A   1      19.497   4.913  14.197  0.00  0.00     0.006 C 
BRANCH  16  17
ATOM     17  C5  ZIN A   1      19.969   6.289  14.595  0.00  0.00     0.261 C 
BRANCH  17  18
ATOM     18  N2  ZIN A   1      19.102   6.817  15.657  0.00  0.00    -0.076 N 
ATOM     19  C1  ZIN A   1      17.936   7.475  15.056  0.00  0.00     0.269 C 
ATOM     20  H3  ZIN A   1      19.619   7.486  16.209  0.00  0.00     0.279 HD
ATOM     21  C4  ZIN A   1      18.655   5.714  16.518  0.00  0.00     0.269 C 
ENDBRANCH  17  18
ENDBRANCH  16  17
ENDBRANCH  12  15
ENDBRANCH   1  11
BRANCH   2  22
ATOM     22  O13 ZIN A   1      17.857   0.883  14.758  0.00  0.00    -0.341 OA
BRANCH  22  23
ATOM     23  C14 ZIN A   1      18.546   0.429  15.924  0.00  0.00     0.154 C 
ATOM     24  C19 ZIN A   1      17.553  -0.128  16.967  0.00  0.00     0.200 C 
ATOM     25  O18 ZIN A   1      17.993   0.317  18.260  0.00  0.00    -0.389 OA
ATOM     26  C17 ZIN A   1      19.209   1.072  18.131  0.00  0.00     0.170 C 
ATOM     27  C16 ZIN A   1      19.196   1.617  16.681  0.00  0.00     0.061 C 
ENDBRANCH  22  23
ENDBRANCH   2  22
BRANCH   8  28
ATOM     28  N26 ZIN A   1      19.903  -1.021   9.000  0.00  0.00    -0.340 N 
ATOM     29  H56 ZIN A   1      20.806  -0.746   9.224  0.00  0.00     0.167 HD
BRANCH  28  30
ATOM     30  C27 ZIN A   1      19.409  -0.816   7.708  0.00  0.00     0.035 A 
ATOM     31  C34 ZIN A   1      19.439  -1.848   6.779  0.00  0.00     0.056 A 
ATOM     32  C32 ZIN A   1      18.947  -1.644   5.504  0.00  0.00     0.074 A 
ATOM     33  C30 ZIN A   1      18.432  -0.407   5.149  0.00  0.00     0.138 A 
ATOM     34 Cl33 ZIN A   1      18.979  -2.935   4.344  0.00  0.00    -0.081 Cl
ATOM     35  C29 ZIN A   1      18.405   0.624   6.073  0.00  0.00     0.046 A 
ATOM     36  F31 ZIN A   1      17.955  -0.207   3.901  0.00  0.00    -0.204 F 
ATOM     37  C28 ZIN A   1      18.893   0.422   7.350  0.00  0.00     0.032 A 
ENDBRANCH  28  30
ENDBRANCH   8  28
TORSDOF 8
ENDMDL
MODEL 7
REMARK VINA RESULT:      -8.5      3.459      7.842
REMARK  8 active torsions:
REMARK  status: ('A' for Active; 'I' for Inactive)
REMARK    1  A    between atoms: N2_2  and  C5_5 
REMARK    2  A    between atoms: C5_5  and  C6_6 
REMARK    3  A    between atoms: C7_7  and  C8_8 
REMARK       I    between atoms: C8_8  and  N10_10 
REMARK    4  A    between atoms: N10_10  and  C11_11 
REMARK    5  A    between atoms: C12_12  and  O13_13 
REMARK    6  A    between atoms: O13_13  and  C14_14 
REMARK    7  A    between atoms: C25_24  and  N26_25 
REMARK    8  A    between atoms: N26_25  and  C27_26 
ROOT
ATOM      1  C11 ZIN A   1      18.657  -0.261  10.818  0.00  0.00     0.069 A 
ATOM      2  C12 ZIN A   1      17.836   0.332   9.846  0.00  0.00     0.098 A 
ATOM      3  C20 ZIN A   1      17.365   1.614  10.011  0.00  0.00     0.071 A 
ATOM      4  C21 ZIN A   1      17.708   2.337  11.161  0.00  0.00     0.075 A 
ATOM      5  N22 ZIN A   1      17.272   3.590  11.364  0.00  0.00    -0.241 NA
ATOM      6  C23 ZIN A   1      17.609   4.243  12.451  0.00  0.00     0.236 A 
ATOM      7  N24 ZIN A   1      18.380   3.725  13.393  0.00  0.00    -0.224 NA
ATOM      8  C25 ZIN A   1      18.865   2.494  13.291  0.00  0.00     0.142 A 
ATOM      9  C35 ZIN A   1      18.537   1.737  12.141  0.00  0.00     0.041 A 
ATOM     10  C36 ZIN A   1      19.002   0.430  11.959  0.00  0.00     0.050 A 
ENDROOT
BRANCH   1  11
ATOM     11  N10 ZIN A   1      19.124  -1.568  10.630  0.00  0.00    -0.321 N 
ATOM     12  C8  ZIN A   1      18.334  -2.616  10.937  0.00  0.00     0.245 C 
ATOM     13  O9  ZIN A   1      17.250  -2.429  11.455  0.00  0.00    -0.268 OA
ATOM     14  H47 ZIN A   1      20.016  -1.717  10.279  0.00  0.00     0.169 HD
BRANCH  12  15
ATOM     15  C7  ZIN A   1      18.785  -3.985  10.646  0.00  0.00     0.072 C 
ATOM     16  C6  ZIN A   1      18.492  -4.546   9.476  0.00  0.00     0.006 C 
BRANCH  16  17
ATOM     17  C5  ZIN A   1      18.954  -5.949   9.176  0.00  0.00     0.261 C 
BRANCH  17  18
ATOM     18  N2  ZIN A   1      19.187  -6.091   7.733  0.00  0.00    -0.076 N 
ATOM     19  C1  ZIN A   1      18.036  -5.556   6.996  0.00  0.00     0.269 C 
ATOM     20  H3  ZIN A   1      19.306  -7.068   7.507  0.00  0.00     0.279 HD
ATOM     21  C4  ZIN A   1      20.398  -5.351   7.356  0.00  0.00     0.269 C 
ENDBRANCH  17  18
ENDBRANCH  16  17
ENDBRANCH  12  15
ENDBRANCH   1  11
BRANCH   2  22
ATOM     22  O13 ZIN A   1      17.503  -0.369   8.730  0.00  0.00    -0.341 OA
BRANCH  22  23
ATOM     23  C14 ZIN A   1      18.248  -0.090   7.543  0.00  0.00     0.154 C 
ATOM     24  C19 ZIN A   1      17.312   0.024   6.321  0.00  0.00     0.200 C 
ATOM     25  O18 ZIN A   1      17.963  -0.631   5.220  0.00  0.00    -0.389 OA
ATOM     26  C17 ZIN A   1      19.254  -1.111   5.627  0.00  0.00     0.170 C 
ATOM     27  C16 ZIN A   1      19.153  -1.292   7.163  0.00  0.00     0.061 C 
ENDBRANCH  22  23
ENDBRANCH   2  22
BRANCH   8  28
ATOM     28  N26 ZIN A   1      19.668   1.966  14.282  0.00  0.00    -0.340 N 
ATOM     29  H56 ZIN A   1      20.611   1.814  14.111  0.00  0.00     0.167 HD
BRANCH  28  30
ATOM     30  C27 ZIN A   1      19.124   1.652  15.531  0.00  0.00     0.035 A 
ATOM     31  C34 ZIN A   1      18.306   0.539  15.674  0.00  0.00     0.056 A 
ATOM     32  C32 ZIN A   1      17.771   0.229  16.910  0.00  0.00     0.074 A 
ATOM     33  C30 ZIN A   1      18.044   1.033  18.005  0.00  0.00     0.138 A 
ATOM     34 Cl33 ZIN A   1      16.753  -1.165  17.090  0.00  0.00    -0.081 Cl
ATOM     35  C29 ZIN A   1      18.856   2.145  17.864  0.00  0.00     0.046 A 
ATOM     36  F31 ZIN A   1      17.518   0.731  19.213  0.00  0.00    -0.204 F 
ATOM     37  C28 ZIN A   1      19.396   2.457  16.630  0.00  0.00     0.032 A 
ENDBRANCH  28  30
ENDBRANCH   8  28
TORSDOF 8
ENDMDL
MODEL 8
REMARK VINA RESULT:      -8.3      3.902      6.907
REMARK  8 active torsions:
REMARK  status: ('A' for Active; 'I' for Inactive)
REMARK    1  A    between atoms: N2_2  and  C5_5 
REMARK    2  A    between atoms: C5_5  and  C6_6 
REMARK    3  A    between atoms: C7_7  and  C8_8 
REMARK       I    between atoms: C8_8  and  N10_10 
REMARK    4  A    between atoms: N10_10  and  C11_11 
REMARK    5  A    between atoms: C12_12  and  O13_13 
REMARK    6  A    between atoms: O13_13  and  C14_14 
REMARK    7  A    between atoms: C25_24  and  N26_25 
REMARK    8  A    between atoms: N26_25  and  C27_26 
ROOT
ATOM      1  C11 ZIN A   1      17.940  -0.525  12.322  0.00  0.00     0.069 A 
ATOM      2  C12 ZIN A   1      17.545  -1.516  11.410  0.00  0.00     0.098 A 
ATOM      3  C20 ZIN A   1      17.701  -1.327  10.055  0.00  0.00     0.071 A 
ATOM      4  C21 ZIN A   1      18.261  -0.135   9.581  0.00  0.00     0.075 A 
ATOM      5  N22 ZIN A   1      18.433   0.093   8.269  0.00  0.00    -0.241 NA
ATOM      6  C23 ZIN A   1      18.960   1.219   7.853  0.00  0.00     0.236 A 
ATOM      7  N24 ZIN A   1      19.347   2.181   8.676  0.00  0.00    -0.224 NA
ATOM      8  C25 ZIN A   1      19.222   2.059   9.991  0.00  0.00     0.142 A 
ATOM      9  C35 ZIN A   1      18.660   0.865  10.503  0.00  0.00     0.041 A 
ATOM     10  C36 ZIN A   1      18.488   0.659  11.876  0.00  0.00     0.050 A 
ENDROOT
BRANCH   1  11
ATOM     11  N10 ZIN A   1      17.769  -0.737  13.695  0.00  0.00    -0.321 N 
ATOM     12  C8  ZIN A   1      18.818  -1.115  14.454  0.00  0.00     0.245 C 
ATOM     13  O9  ZIN A   1      19.891  -1.352  13.933  0.00  0.00    -0.268 OA
ATOM     14  H47 ZIN A   1      16.897  -0.613  14.100  0.00  0.00     0.169 HD
BRANCH  12  15
ATOM     15  C7  ZIN A   1      18.662  -1.240  15.910  0.00  0.00     0.072 C 
ATOM     16  C6  ZIN A   1      19.080  -0.262  16.709  0.00  0.00     0.006 C 
BRANCH  16  17
ATOM     17  C5  ZIN A   1      18.922  -0.390  18.203  0.00  0.00     0.261 C 
BRANCH  17  18
ATOM     18  N2  ZIN A   1      18.438   0.882  18.756  0.00  0.00    -0.076 N 
ATOM     19  C1  ZIN A   1      19.254   1.985  18.233  0.00  0.00     0.269 C 
ATOM     20  H3  ZIN A   1      18.508   0.859  19.762  0.00  0.00     0.279 HD
ATOM     21  C4  ZIN A   1      17.035   1.083  18.368  0.00  0.00     0.269 C 
ENDBRANCH  17  18
ENDBRANCH  16  17
ENDBRANCH  12  15
ENDBRANCH   1  11
BRANCH   2  22
ATOM     22  O13 ZIN A   1      17.002  -2.674  11.869  0.00  0.00    -0.341 OA
BRANCH  22  23
ATOM     23  C14 ZIN A   1      17.790  -3.858  11.734  0.00  0.00     0.154 C 
ATOM     24  C19 ZIN A   1      19.228  -3.513  11.288  0.00  0.00     0.200 C 
ATOM     25  O18 ZIN A   1      19.624  -4.497  10.319  0.00  0.00    -0.389 OA
ATOM     26  C17 ZIN A   1      18.577  -5.465  10.145  0.00  0.00     0.170 C 
ATOM     27  C16 ZIN A   1      17.276  -4.732  10.559  0.00  0.00     0.061 C 
ENDBRANCH  22  23
ENDBRANCH   2  22
BRANCH   8  28
ATOM     28  N26 ZIN A   1      19.629   3.071  10.838  0.00  0.00    -0.340 N 
ATOM     29  H56 ZIN A   1      20.575   3.224  10.989  0.00  0.00     0.167 HD
BRANCH  28  30
ATOM     30  C27 ZIN A   1      18.679   3.874  11.476  0.00  0.00     0.035 A 
ATOM     31  C34 ZIN A   1      18.846   4.222  12.810  0.00  0.00     0.056 A 
ATOM     32  C32 ZIN A   1      17.908   5.019  13.438  0.00  0.00     0.074 A 
ATOM     33  C30 ZIN A   1      16.796   5.463  12.739  0.00  0.00     0.138 A 
ATOM     34 Cl33 ZIN A   1      18.118   5.459  15.104  0.00  0.00    -0.081 Cl
ATOM     35  C29 ZIN A   1      16.627   5.114  11.411  0.00  0.00     0.046 A 
ATOM     36  F31 ZIN A   1      15.877   6.239  13.355  0.00  0.00    -0.204 F 
ATOM     37  C28 ZIN A   1      17.565   4.320  10.778  0.00  0.00     0.032 A 
ENDBRANCH  28  30
ENDBRANCH   8  28
TORSDOF 8
ENDMDL
MODEL 9
REMARK VINA RESULT:      -8.3      3.418      7.651
REMARK  8 active torsions:
REMARK  status: ('A' for Active; 'I' for Inactive)
REMARK    1  A    between atoms: N2_2  and  C5_5 
REMARK    2  A    between atoms: C5_5  and  C6_6 
REMARK    3  A    between atoms: C7_7  and  C8_8 
REMARK       I    between atoms: C8_8  and  N10_10 
REMARK    4  A    between atoms: N10_10  and  C11_11 
REMARK    5  A    between atoms: C12_12  and  O13_13 
REMARK    6  A    between atoms: O13_13  and  C14_14 
REMARK    7  A    between atoms: C25_24  and  N26_25 
REMARK    8  A    between atoms: N26_25  and  C27_26 
ROOT
ATOM      1  C11 ZIN A   1      18.983  -0.921   9.795  0.00  0.00     0.069 A 
ATOM      2  C12 ZIN A   1      18.378  -0.144   8.795  0.00  0.00     0.098 A 
ATOM      3  C20 ZIN A   1      18.228   1.215   8.955  0.00  0.00     0.071 A 
ATOM      4  C21 ZIN A   1      18.684   1.830  10.127  0.00  0.00     0.075 A 
ATOM      5  N22 ZIN A   1      18.560   3.152  10.325  0.00  0.00    -0.241 NA
ATOM      6  C23 ZIN A   1      18.996   3.702  11.434  0.00  0.00     0.236 A 
ATOM      7  N24 ZIN A   1      19.572   3.010  12.403  0.00  0.00    -0.224 NA
ATOM      8  C25 ZIN A   1      19.745   1.698  12.309  0.00  0.00     0.142 A 
ATOM      9  C35 ZIN A   1      19.295   1.045  11.136  0.00  0.00     0.041 A 
ATOM     10  C36 ZIN A   1      19.434  -0.336  10.959  0.00  0.00     0.050 A 
ENDROOT
BRANCH   1  11
ATOM     11  N10 ZIN A   1      19.123  -2.301   9.613  0.00  0.00    -0.321 N 
ATOM     12  C8  ZIN A   1      18.265  -3.152  10.212  0.00  0.00     0.245 C 
ATOM     13  O9  ZIN A   1      17.422  -2.725  10.977  0.00  0.00    -0.268 OA
ATOM     14  H47 ZIN A   1      19.838  -2.646   9.055  0.00  0.00     0.169 HD
BRANCH  12  15
ATOM     15  C7  ZIN A   1      18.351  -4.594   9.940  0.00  0.00     0.072 C 
ATOM     16  C6  ZIN A   1      17.970  -5.070   8.757  0.00  0.00     0.006 C 
BRANCH  16  17
ATOM     17  C5  ZIN A   1      18.057  -6.549   8.478  0.00  0.00     0.261 C 
BRANCH  17  18
ATOM     18  N2  ZIN A   1      17.471  -6.835   7.161  0.00  0.00    -0.076 N 
ATOM     19  C1  ZIN A   1      18.317  -6.253   6.112  0.00  0.00     0.269 C 
ATOM     20  H3  ZIN A   1      16.547  -6.431   7.111  0.00  0.00     0.279 HD
ATOM     21  C4  ZIN A   1      17.381  -8.288   6.969  0.00  0.00     0.269 C 
ENDBRANCH  17  18
ENDBRANCH  16  17
ENDBRANCH  12  15
ENDBRANCH   1  11
BRANCH   2  22
ATOM     22  O13 ZIN A   1      17.936  -0.740   7.657  0.00  0.00    -0.341 OA
BRANCH  22  23
ATOM     23  C14 ZIN A   1      18.864  -0.844   6.576  0.00  0.00     0.154 C 
ATOM     24  C19 ZIN A   1      18.460   0.087   5.413  0.00  0.00     0.200 C 
ATOM     25  O18 ZIN A   1      18.688  -0.631   4.189  0.00  0.00    -0.389 OA
ATOM     26  C17 ZIN A   1      19.247  -1.923   4.475  0.00  0.00     0.170 C 
ATOM     27  C16 ZIN A   1      18.795  -2.249   5.921  0.00  0.00     0.061 C 
ENDBRANCH  22  23
ENDBRANCH   2  22
BRANCH   8  28
ATOM     28  N26 ZIN A   1      20.348   0.988  13.328  0.00  0.00    -0.340 N 
ATOM     29  H56 ZIN A   1      21.303   0.819  13.302  0.00  0.00     0.167 HD
BRANCH  28  30
ATOM     30  C27 ZIN A   1      19.582   0.514  14.398  0.00  0.00     0.035 A 
ATOM     31  C34 ZIN A   1      19.253   1.362  15.447  0.00  0.00     0.056 A 
ATOM     32  C32 ZIN A   1      18.493   0.893  16.502  0.00  0.00     0.074 A 
ATOM     33  C30 ZIN A   1      18.069  -0.427  16.517  0.00  0.00     0.138 A 
ATOM     34 Cl33 ZIN A   1      18.076   1.953  17.811  0.00  0.00    -0.081 Cl
ATOM     35  C29 ZIN A   1      18.400  -1.275  15.474  0.00  0.00     0.046 A 
ATOM     36  F31 ZIN A   1      17.330  -0.887  17.551  0.00  0.00    -0.204 F 
ATOM     37  C28 ZIN A   1      19.156  -0.807  14.416  0.00  0.00     0.032 A 
ENDBRANCH  28  30
ENDBRANCH   8  28
TORSDOF 8
ENDMDL
