MODEL 1
REMARK VINA RESULT:      -6.2      0.000      0.000
REMARK  1 active torsions:
REMARK  status: ('A' for Active; 'I' for Inactive)
REMARK    1  A    between atoms: C4_3  and  C6_4 
ROOT
ATOM      1  C1  ZIN A   1      17.918   3.631  10.243  0.00  0.00     0.046 C 
ATOM      2  C2  ZIN A   1      18.263   2.372  11.042  0.00  0.00     0.251 C 
ATOM      3  C4  ZIN A   1      19.322   1.562  10.290  0.00  0.00     0.187 C 
ATOM      4  O12 ZIN A   1      19.694   0.427  11.075  0.00  0.00    -0.377 OA
ATOM      5  C13 ZIN A   1      20.213   0.764  12.365  0.00  0.00     0.199 C 
ATOM      6  C14 ZIN A   1      19.163   1.566  13.138  0.00  0.00     0.298 C 
ATOM      7  N15 ZIN A   1      18.790   2.756  12.360  0.00  0.00     0.093 N 
ATOM      8  C16 ZIN A   1      17.823   3.583  13.094  0.00  0.00     0.310 C 
ENDROOT
BRANCH   3   9
ATOM      9  C6  ZIN A   1      18.759   1.100   8.971  0.00  0.00    -0.027 A 
ATOM     10  C11 ZIN A   1      17.690   0.222   8.945  0.00  0.00     0.010 A 
ATOM     11  C10 ZIN A   1      17.172  -0.199   7.735  0.00  0.00     0.001 A 
ATOM     12  C9  ZIN A   1      17.727   0.249   6.551  0.00  0.00     0.000 A 
ATOM     13  C8  ZIN A   1      18.799   1.123   6.578  0.00  0.00     0.001 A 
ATOM     14  C7  ZIN A   1      19.315   1.547   7.788  0.00  0.00     0.010 A 
ENDBRANCH   3   9
TORSDOF 1
ENDMDL
MODEL 2
REMARK VINA RESULT:      -6.0      1.348      2.643
REMARK  1 active torsions:
REMARK  status: ('A' for Active; 'I' for Inactive)
REMARK    1  A    between atoms: C4_3  and  C6_4 
ROOT
ATOM      1  C1  ZIN A   1      19.773  -0.868  10.299  0.00  0.00     0.046 C 
ATOM      2  C2  ZIN A   1      19.439   0.605  10.546  0.00  0.00     0.251 C 
ATOM      3  C4  ZIN A   1      18.063   0.923   9.957  0.00  0.00     0.187 C 
ATOM      4  O12 ZIN A   1      17.723   2.279  10.255  0.00  0.00    -0.377 OA
ATOM      5  C13 ZIN A   1      17.695   2.571  11.655  0.00  0.00     0.199 C 
ATOM      6  C14 ZIN A   1      19.067   2.269  12.262  0.00  0.00     0.298 C 
ATOM      7  N15 ZIN A   1      19.421   0.868  11.993  0.00  0.00     0.093 N 
ATOM      8  C16 ZIN A   1      20.709   0.522  12.608  0.00  0.00     0.310 C 
ENDROOT
BRANCH   3   9
ATOM      9  C6  ZIN A   1      18.098   0.729   8.462  0.00  0.00    -0.027 A 
ATOM     10  C11 ZIN A   1      19.025   1.415   7.698  0.00  0.00     0.010 A 
ATOM     11  C10 ZIN A   1      19.059   1.235   6.328  0.00  0.00     0.001 A 
ATOM     12  C9  ZIN A   1      18.162   0.376   5.721  0.00  0.00     0.000 A 
ATOM     13  C8  ZIN A   1      17.233  -0.306   6.485  0.00  0.00     0.001 A 
ATOM     14  C7  ZIN A   1      17.201  -0.128   7.855  0.00  0.00     0.010 A 
ENDBRANCH   3   9
TORSDOF 1
ENDMDL
MODEL 3
REMARK VINA RESULT:      -6.0      1.439      2.247
REMARK  1 active torsions:
REMARK  status: ('A' for Active; 'I' for Inactive)
REMARK    1  A    between atoms: C4_3  and  C6_4 
ROOT
ATOM      1  C1  ZIN A   1      17.445   4.760  10.193  0.00  0.00     0.046 C 
ATOM      2  C2  ZIN A   1      17.501   3.813  11.394  0.00  0.00     0.251 C 
ATOM      3  C4  ZIN A   1      18.700   2.873  11.250  0.00  0.00     0.187 C 
ATOM      4  O12 ZIN A   1      18.791   2.042  12.410  0.00  0.00    -0.377 OA
ATOM      5  C13 ZIN A   1      18.932   2.771  13.632  0.00  0.00     0.199 C 
ATOM      6  C14 ZIN A   1      17.735   3.711  13.800  0.00  0.00     0.298 C 
ATOM      7  N15 ZIN A   1      17.643   4.596  12.631  0.00  0.00     0.093 N 
ATOM      8  C16 ZIN A   1      16.538   5.553  12.779  0.00  0.00     0.310 C 
ENDROOT
BRANCH   3   9
ATOM      9  C6  ZIN A   1      18.521   2.012  10.026  0.00  0.00    -0.027 A 
ATOM     10  C11 ZIN A   1      19.281   2.252   8.895  0.00  0.00     0.010 A 
ATOM     11  C10 ZIN A   1      19.119   1.460   7.774  0.00  0.00     0.001 A 
ATOM     12  C9  ZIN A   1      18.191   0.435   7.779  0.00  0.00     0.000 A 
ATOM     13  C8  ZIN A   1      17.428   0.199   8.908  0.00  0.00     0.001 A 
ATOM     14  C7  ZIN A   1      17.592   0.989  10.031  0.00  0.00     0.010 A 
ENDBRANCH   3   9
TORSDOF 1
ENDMDL
MODEL 4
REMARK VINA RESULT:      -5.9      1.840      2.957
REMARK  1 active torsions:
REMARK  status: ('A' for Active; 'I' for Inactive)
REMARK    1  A    between atoms: C4_3  and  C6_4 
ROOT
ATOM      1  C1  ZIN A   1      18.981   1.885  13.048  0.00  0.00     0.046 C 
ATOM      2  C2  ZIN A   1      18.515   3.212  12.447  0.00  0.00     0.251 C 
ATOM      3  C4  ZIN A   1      17.373   2.954  11.461  0.00  0.00     0.187 C 
ATOM      4  O12 ZIN A   1      16.891   4.203  10.958  0.00  0.00    -0.377 OA
ATOM      5  C13 ZIN A   1      16.418   5.090  11.976  0.00  0.00     0.199 C 
ATOM      6  C14 ZIN A   1      17.550   5.369  12.968  0.00  0.00     0.298 C 
ATOM      7  N15 ZIN A   1      18.039   4.098  13.520  0.00  0.00     0.093 N 
ATOM      8  C16 ZIN A   1      19.090   4.326  14.519  0.00  0.00     0.310 C 
ENDROOT
BRANCH   3   9
ATOM      9  C6  ZIN A   1      17.876   2.111  10.317  0.00  0.00    -0.027 A 
ATOM     10  C11 ZIN A   1      17.402   0.823  10.147  0.00  0.00     0.010 A 
ATOM     11  C10 ZIN A   1      17.860   0.052   9.096  0.00  0.00     0.001 A 
ATOM     12  C9  ZIN A   1      18.800   0.564   8.220  0.00  0.00     0.000 A 
ATOM     13  C8  ZIN A   1      19.276   1.851   8.393  0.00  0.00     0.001 A 
ATOM     14  C7  ZIN A   1      18.815   2.623   9.443  0.00  0.00     0.010 A 
ENDBRANCH   3   9
TORSDOF 1
ENDMDL
MODEL 5
REMARK VINA RESULT:      -5.8      2.947      6.034
REMARK  1 active torsions:
REMARK  status: ('A' for Active; 'I' for Inactive)
REMARK    1  A    between atoms: C4_3  and  C6_4 
ROOT
ATOM      1  C1  ZIN A   1      17.720  -1.669  11.971  0.00  0.00     0.046 C 
ATOM      2  C2  ZIN A   1      17.994  -0.164  12.010  0.00  0.00     0.251 C 
ATOM      3  C4  ZIN A   1      19.099   0.128  13.028  0.00  0.00     0.187 C 
ATOM      4  O12 ZIN A   1      19.404   1.525  13.007  0.00  0.00    -0.377 OA
ATOM      5  C13 ZIN A   1      19.829   2.003  11.727  0.00  0.00     0.199 C 
ATOM      6  C14 ZIN A   1      18.731   1.729  10.696  0.00  0.00     0.298 C 
ATOM      7  N15 ZIN A   1      18.426   0.291  10.680  0.00  0.00     0.093 N 
ATOM      8  C16 ZIN A   1      17.415  -0.021   9.662  0.00  0.00     0.310 C 
ENDROOT
BRANCH   3   9
ATOM      9  C6  ZIN A   1      18.631  -0.265  14.406  0.00  0.00    -0.027 A 
ATOM     10  C11 ZIN A   1      17.567   0.398  14.989  0.00  0.00     0.010 A 
ATOM     11  C10 ZIN A   1      17.136   0.035  16.251  0.00  0.00     0.001 A 
ATOM     12  C9  ZIN A   1      17.774  -0.984  16.934  0.00  0.00     0.000 A 
ATOM     13  C8  ZIN A   1      18.841  -1.643  16.351  0.00  0.00     0.001 A 
ATOM     14  C7  ZIN A   1      19.270  -1.282  15.088  0.00  0.00     0.010 A 
ENDBRANCH   3   9
TORSDOF 1
ENDMDL
MODEL 6
REMARK VINA RESULT:      -5.7      2.348      3.478
REMARK  1 active torsions:
REMARK  status: ('A' for Active; 'I' for Inactive)
REMARK    1  A    between atoms: C4_3  and  C6_4 
ROOT
ATOM      1  C1  ZIN A   1      18.875  -2.395   9.641  0.00  0.00     0.046 C 
ATOM      2  C2  ZIN A   1      18.547  -1.212  10.553  0.00  0.00     0.251 C 
ATOM      3  C4  ZIN A   1      17.420  -0.384   9.931  0.00  0.00     0.187 C 
ATOM      4  O12 ZIN A   1      17.065   0.677  10.822  0.00  0.00    -0.377 OA
ATOM      5  C13 ZIN A   1      16.639   0.228  12.111  0.00  0.00     0.199 C 
ATOM      6  C14 ZIN A   1      17.758  -0.595  12.756  0.00  0.00     0.298 C 
ATOM      7  N15 ZIN A   1      18.114  -1.710  11.868  0.00  0.00     0.093 N 
ATOM      8  C16 ZIN A   1      19.149  -2.557  12.476  0.00  0.00     0.310 C 
ENDROOT
BRANCH   3   9
ATOM      9  C6  ZIN A   1      17.885   0.194   8.619  0.00  0.00    -0.027 A 
ATOM     10  C11 ZIN A   1      18.821   1.212   8.606  0.00  0.00     0.010 A 
ATOM     11  C10 ZIN A   1      19.251   1.739   7.403  0.00  0.00     0.001 A 
ATOM     12  C9  ZIN A   1      18.737   1.257   6.214  0.00  0.00     0.000 A 
ATOM     13  C8  ZIN A   1      17.797   0.243   6.228  0.00  0.00     0.001 A 
ATOM     14  C7  ZIN A   1      17.370  -0.287   7.431  0.00  0.00     0.010 A 
ENDBRANCH   3   9
TORSDOF 1
ENDMDL
MODEL 7
REMARK VINA RESULT:      -5.6      2.547      4.135
REMARK  1 active torsions:
REMARK  status: ('A' for Active; 'I' for Inactive)
REMARK    1  A    between atoms: C4_3  and  C6_4 
ROOT
ATOM      1  C1  ZIN A   1      16.807   0.306  11.063  0.00  0.00     0.046 C 
ATOM      2  C2  ZIN A   1      18.320   0.480  10.916  0.00  0.00     0.251 C 
ATOM      3  C4  ZIN A   1      18.803   1.576  11.870  0.00  0.00     0.187 C 
ATOM      4  O12 ZIN A   1      20.227   1.683  11.784  0.00  0.00    -0.377 OA
ATOM      5  C13 ZIN A   1      20.916   0.471  12.100  0.00  0.00     0.199 C 
ATOM      6  C14 ZIN A   1      20.454  -0.636  11.149  0.00  0.00     0.298 C 
ATOM      7  N15 ZIN A   1      18.995  -0.784  11.247  0.00  0.00     0.093 N 
ATOM      8  C16 ZIN A   1      18.517  -1.876  10.389  0.00  0.00     0.310 C 
ENDROOT
BRANCH   3   9
ATOM      9  C6  ZIN A   1      18.175   2.891  11.486  0.00  0.00    -0.027 A 
ATOM     10  C11 ZIN A   1      17.429   3.597  12.412  0.00  0.00     0.010 A 
ATOM     11  C10 ZIN A   1      16.856   4.805  12.062  0.00  0.00     0.001 A 
ATOM     12  C9  ZIN A   1      17.020   5.302  10.782  0.00  0.00     0.000 A 
ATOM     13  C8  ZIN A   1      17.763   4.594   9.856  0.00  0.00     0.001 A 
ATOM     14  C7  ZIN A   1      18.339   3.388  10.207  0.00  0.00     0.010 A 
ENDBRANCH   3   9
TORSDOF 1
ENDMDL
MODEL 8
REMARK VINA RESULT:      -5.5      2.912      5.799
REMARK  1 active torsions:
REMARK  status: ('A' for Active; 'I' for Inactive)
REMARK    1  A    between atoms: C4_3  and  C6_4 
ROOT
ATOM      1  C1  ZIN A   1      18.747   3.216  15.146  0.00  0.00     0.046 C 
ATOM      2  C2  ZIN A   1      18.875   2.605  13.749  0.00  0.00     0.251 C 
ATOM      3  C4  ZIN A   1      17.807   1.525  13.564  0.00  0.00     0.187 C 
ATOM      4  O12 ZIN A   1      17.882   1.009  12.232  0.00  0.00    -0.377 OA
ATOM      5  C13 ZIN A   1      17.702   2.003  11.219  0.00  0.00     0.199 C 
ATOM      6  C14 ZIN A   1      18.769   3.088  11.381  0.00  0.00     0.298 C 
ATOM      7  N15 ZIN A   1      18.687   3.653  12.735  0.00  0.00     0.093 N 
ATOM      8  C16 ZIN A   1      19.660   4.739  12.913  0.00  0.00     0.310 C 
ENDROOT
BRANCH   3   9
ATOM      9  C6  ZIN A   1      18.042   0.409  14.550  0.00  0.00    -0.027 A 
ATOM     10  C11 ZIN A   1      19.114  -0.448  14.381  0.00  0.00     0.010 A 
ATOM     11  C10 ZIN A   1      19.331  -1.468  15.287  0.00  0.00     0.001 A 
ATOM     12  C9  ZIN A   1      18.472  -1.638  16.357  0.00  0.00     0.000 A 
ATOM     13  C8  ZIN A   1      17.398  -0.783  16.523  0.00  0.00     0.001 A 
ATOM     14  C7  ZIN A   1      17.182   0.240  15.619  0.00  0.00     0.010 A 
ENDBRANCH   3   9
TORSDOF 1
ENDMDL
MODEL 9
REMARK VINA RESULT:      -5.5      3.290      4.353
REMARK  1 active torsions:
REMARK  status: ('A' for Active; 'I' for Inactive)
REMARK    1  A    between atoms: C4_3  and  C6_4 
ROOT
ATOM      1  C1  ZIN A   1      19.800  -0.382   9.655  0.00  0.00     0.046 C 
ATOM      2  C2  ZIN A   1      19.205   0.017  11.007  0.00  0.00     0.251 C 
ATOM      3  C4  ZIN A   1      19.681  -0.962  12.084  0.00  0.00     0.187 C 
ATOM      4  O12 ZIN A   1      19.184  -0.542  13.357  0.00  0.00    -0.377 OA
ATOM      5  C13 ZIN A   1      19.595   0.776  13.730  0.00  0.00     0.199 C 
ATOM      6  C14 ZIN A   1      19.119   1.772  12.670  0.00  0.00     0.298 C 
ATOM      7  N15 ZIN A   1      19.647   1.376  11.357  0.00  0.00     0.093 N 
ATOM      8  C16 ZIN A   1      19.258   2.339  10.319  0.00  0.00     0.310 C 
ENDROOT
BRANCH   3   9
ATOM      9  C6  ZIN A   1      19.165  -2.343  11.772  0.00  0.00    -0.027 A 
ATOM     10  C11 ZIN A   1      17.803  -2.574  11.708  0.00  0.00     0.010 A 
ATOM     11  C10 ZIN A   1      17.329  -3.840  11.418  0.00  0.00     0.001 A 
ATOM     12  C9  ZIN A   1      18.218  -4.877  11.201  0.00  0.00     0.000 A 
ATOM     13  C8  ZIN A   1      19.579  -4.647  11.269  0.00  0.00     0.001 A 
ATOM     14  C7  ZIN A   1      20.052  -3.380  11.556  0.00  0.00     0.010 A 
ENDBRANCH   3   9
TORSDOF 1
ENDMDL
