MODEL 1
REMARK VINA RESULT:      -7.9      0.000      0.000
REMARK  11 active torsions:
REMARK  status: ('A' for Active; 'I' for Inactive)
REMARK    1  A    between atoms: O2_2  and  C3_3 
REMARK    2  A    between atoms: C12_12  and  O13_13 
REMARK    3  A    between atoms: C14_14  and  C15_15 
REMARK    4  A    between atoms: C15_15  and  C16_16 
REMARK    5  A    between atoms: C17_17  and  C19_19 
REMARK    6  A    between atoms: C19_19  and  C20_20 
REMARK    7  A    between atoms: C20_20  and  C21_21 
REMARK    8  A    between atoms: C21_21  and  O23_23 
REMARK    9  A    between atoms: O23_23  and  C24_24 
REMARK   10  A    between atoms: C24_24  and  C25_25 
REMARK   11  A    between atoms: C25_25  and  N26_26 
ROOT
ATOM      1  C15 ZIN A   1      17.781   1.343   9.366  0.00  0.00     0.072 C 
ENDROOT
BRANCH   1   2
ATOM      2  C14 ZIN A   1      18.131   0.044   8.687  0.00  0.00     0.013 A 
ATOM      3  C3  ZIN A   1      17.930  -1.158   9.349  0.00  0.00     0.084 A 
ATOM      4  C4  ZIN A   1      18.251  -2.363   8.727  0.00  0.00    -0.018 A 
ATOM      5  C5  ZIN A   1      18.025  -3.667   9.448  0.00  0.00     0.052 C 
ATOM      6  C6  ZIN A   1      18.773  -2.363   7.458  0.00  0.00    -0.006 A 
ATOM      7  C11 ZIN A   1      19.218  -3.459   6.523  0.00  0.00     0.219 A 
ATOM      8  C7  ZIN A   1      18.987  -1.157   6.780  0.00  0.00     0.082 A 
ATOM      9  O10 ZIN A   1      19.681  -2.800   5.312  0.00  0.00    -0.313 OA
ATOM     10  C8  ZIN A   1      19.548  -1.471   5.459  0.00  0.00     0.297 A 
ATOM     11  O9  ZIN A   1      19.850  -0.646   4.620  0.00  0.00    -0.259 OA
ATOM     12  C12 ZIN A   1      18.663   0.055   7.408  0.00  0.00     0.091 A 
BRANCH   3  13
ATOM     13  O2  ZIN A   1      17.413  -1.162  10.603  0.00  0.00    -0.355 OA
ATOM     14  C1  ZIN A   1      18.334  -1.336  11.683  0.00  0.00     0.210 C 
ENDBRANCH   3  13
BRANCH  12  15
ATOM     15  O13 ZIN A   1      18.864   1.232   6.765  0.00  0.00    -0.359 OA
ATOM     16  H40 ZIN A   1      19.492   1.820   7.207  0.00  0.00     0.217 HD
ENDBRANCH  12  15
ENDBRANCH   1   2
BRANCH   1  17
ATOM     17  C16 ZIN A   1      18.949   1.805  10.198  0.00  0.00    -0.020 C 
ATOM     18  C17 ZIN A   1      18.931   2.993  10.750  0.00  0.00    -0.087 C 
ATOM     19  C18 ZIN A   1      17.819   3.957  10.427  0.00  0.00     0.043 C 
BRANCH  18  20
ATOM     20  C19 ZIN A   1      20.022   3.395  11.709  0.00  0.00     0.043 C 
BRANCH  20  21
ATOM     21  C20 ZIN A   1      19.759   4.817  12.211  0.00  0.00     0.115 C 
BRANCH  21  22
ATOM     22  C21 ZIN A   1      19.403   4.774  13.675  0.00  0.00     0.259 C 
ATOM     23  O22 ZIN A   1      20.108   5.329  14.485  0.00  0.00    -0.265 OA
BRANCH  22  24
ATOM     24  O23 ZIN A   1      18.303   4.120  14.079  0.00  0.00    -0.320 OA
BRANCH  24  25
ATOM     25  C24 ZIN A   1      18.458   3.184  15.179  0.00  0.00     0.209 C 
BRANCH  25  26
ATOM     26  C25 ZIN A   1      18.361   1.753  14.648  0.00  0.00     0.299 C 
BRANCH  26  27
ATOM     27  N26 ZIN A   1      18.356   0.812  15.777  0.00  0.00     0.094 N 
ATOM     28  C31 ZIN A   1      18.947  -0.478  15.389  0.00  0.00     0.298 C 
ATOM     29  C30 ZIN A   1      18.868  -1.445  16.573  0.00  0.00     0.198 C 
ATOM     30  O29 ZIN A   1      19.528  -0.865  17.701  0.00  0.00    -0.388 OA
ATOM     31  C28 ZIN A   1      18.978   0.392  18.106  0.00  0.00     0.198 C 
ATOM     32  C27 ZIN A   1      19.057   1.378  16.938  0.00  0.00     0.298 C 
ENDBRANCH  26  27
ENDBRANCH  25  26
ENDBRANCH  24  25
ENDBRANCH  22  24
ENDBRANCH  21  22
ENDBRANCH  20  21
ENDBRANCH  18  20
ENDBRANCH   1  17
TORSDOF 11
ENDMDL
MODEL 2
REMARK VINA RESULT:      -7.8      2.708      5.656
REMARK  11 active torsions:
REMARK  status: ('A' for Active; 'I' for Inactive)
REMARK    1  A    between atoms: O2_2  and  C3_3 
REMARK    2  A    between atoms: C12_12  and  O13_13 
REMARK    3  A    between atoms: C14_14  and  C15_15 
REMARK    4  A    between atoms: C15_15  and  C16_16 
REMARK    5  A    between atoms: C17_17  and  C19_19 
REMARK    6  A    between atoms: C19_19  and  C20_20 
REMARK    7  A    between atoms: C20_20  and  C21_21 
REMARK    8  A    between atoms: C21_21  and  O23_23 
REMARK    9  A    between atoms: O23_23  and  C24_24 
REMARK   10  A    between atoms: C24_24  and  C25_25 
REMARK   11  A    between atoms: C25_25  and  N26_26 
ROOT
ATOM      1  C15 ZIN A   1      19.186  -1.318  14.127  0.00  0.00     0.072 C 
ENDROOT
BRANCH   1   2
ATOM      2  C14 ZIN A   1      19.041  -0.692  12.763  0.00  0.00     0.013 A 
ATOM      3  C3  ZIN A   1      18.569  -1.449  11.702  0.00  0.00     0.084 A 
ATOM      4  C4  ZIN A   1      18.432  -0.877  10.439  0.00  0.00    -0.018 A 
ATOM      5  C5  ZIN A   1      17.912  -1.702   9.290  0.00  0.00     0.052 C 
ATOM      6  C6  ZIN A   1      18.771   0.437  10.240  0.00  0.00    -0.006 A 
ATOM      7  C11 ZIN A   1      18.746   1.341   9.033  0.00  0.00     0.219 A 
ATOM      8  C7  ZIN A   1      19.255   1.212  11.301  0.00  0.00     0.082 A 
ATOM      9  O10 ZIN A   1      19.235   2.635   9.481  0.00  0.00    -0.313 OA
ATOM     10  C8  ZIN A   1      19.529   2.562  10.791  0.00  0.00     0.297 A 
ATOM     11  O9  ZIN A   1      19.961   3.481  11.457  0.00  0.00    -0.259 OA
ATOM     12  C12 ZIN A   1      19.392   0.634  12.572  0.00  0.00     0.091 A 
BRANCH   3  13
ATOM     13  O2  ZIN A   1      18.232  -2.749  11.895  0.00  0.00    -0.355 OA
ATOM     14  C1  ZIN A   1      19.257  -3.723  11.681  0.00  0.00     0.210 C 
ENDBRANCH   3  13
BRANCH  12  15
ATOM     15  O13 ZIN A   1      19.859   1.372  13.610  0.00  0.00    -0.359 OA
ATOM     16  H40 ZIN A   1      19.961   2.312  13.410  0.00  0.00     0.217 HD
ENDBRANCH  12  15
ENDBRANCH   1   2
BRANCH   1  17
ATOM     17  C16 ZIN A   1      18.123  -0.771  15.045  0.00  0.00    -0.020 C 
ATOM     18  C17 ZIN A   1      18.268  -0.866  16.344  0.00  0.00    -0.087 C 
ATOM     19  C18 ZIN A   1      19.416  -1.655  16.918  0.00  0.00     0.043 C 
BRANCH  18  20
ATOM     20  C19 ZIN A   1      17.288  -0.183  17.263  0.00  0.00     0.043 C 
BRANCH  20  21
ATOM     21  C20 ZIN A   1      18.013   0.273  18.531  0.00  0.00     0.115 C 
BRANCH  21  22
ATOM     22  C21 ZIN A   1      18.750   1.558  18.253  0.00  0.00     0.259 C 
ATOM     23  O22 ZIN A   1      19.912   1.668  18.566  0.00  0.00    -0.265 OA
BRANCH  22  24
ATOM     24  O23 ZIN A   1      18.116   2.580  17.658  0.00  0.00    -0.320 OA
BRANCH  24  25
ATOM     25  C24 ZIN A   1      18.741   3.146  16.475  0.00  0.00     0.209 C 
BRANCH  25  26
ATOM     26  C25 ZIN A   1      18.749   4.672  16.582  0.00  0.00     0.299 C 
BRANCH  26  27
ATOM     27  N26 ZIN A   1      18.056   5.247  15.422  0.00  0.00     0.094 N 
ATOM     28  C31 ZIN A   1      17.840   4.231  14.381  0.00  0.00     0.298 C 
ATOM     29  C30 ZIN A   1      17.170   4.885  13.169  0.00  0.00     0.198 C 
ATOM     30  O29 ZIN A   1      15.950   5.506  13.582  0.00  0.00    -0.388 OA
ATOM     31  C28 ZIN A   1      16.123   6.500  14.595  0.00  0.00     0.198 C 
ATOM     32  C27 ZIN A   1      16.782   5.864  15.821  0.00  0.00     0.298 C 
ENDBRANCH  26  27
ENDBRANCH  25  26
ENDBRANCH  24  25
ENDBRANCH  22  24
ENDBRANCH  21  22
ENDBRANCH  20  21
ENDBRANCH  18  20
ENDBRANCH   1  17
TORSDOF 11
ENDMDL
MODEL 3
REMARK VINA RESULT:      -7.8      2.407      9.421
REMARK  11 active torsions:
REMARK  status: ('A' for Active; 'I' for Inactive)
REMARK    1  A    between atoms: O2_2  and  C3_3 
REMARK    2  A    between atoms: C12_12  and  O13_13 
REMARK    3  A    between atoms: C14_14  and  C15_15 
REMARK    4  A    between atoms: C15_15  and  C16_16 
REMARK    5  A    between atoms: C17_17  and  C19_19 
REMARK    6  A    between atoms: C19_19  and  C20_20 
REMARK    7  A    between atoms: C20_20  and  C21_21 
REMARK    8  A    between atoms: C21_21  and  O23_23 
REMARK    9  A    between atoms: O23_23  and  C24_24 
REMARK   10  A    between atoms: C24_24  and  C25_25 
REMARK   11  A    between atoms: C25_25  and  N26_26 
ROOT
ATOM      1  C15 ZIN A   1      17.785  -0.641  13.200  0.00  0.00     0.072 C 
ENDROOT
BRANCH   1   2
ATOM      2  C14 ZIN A   1      18.215   0.345  14.257  0.00  0.00     0.013 A 
ATOM      3  C3  ZIN A   1      18.311   1.693  13.947  0.00  0.00     0.084 A 
ATOM      4  C4  ZIN A   1      18.708   2.610  14.918  0.00  0.00    -0.018 A 
ATOM      5  C5  ZIN A   1      18.804   4.074  14.579  0.00  0.00     0.052 C 
ATOM      6  C6  ZIN A   1      19.011   2.179  16.185  0.00  0.00    -0.006 A 
ATOM      7  C11 ZIN A   1      19.461   2.886  17.439  0.00  0.00     0.219 A 
ATOM      8  C7  ZIN A   1      18.925   0.819  16.511  0.00  0.00     0.082 A 
ATOM      9  O10 ZIN A   1      19.615   1.858  18.455  0.00  0.00    -0.313 OA
ATOM     10  C8  ZIN A   1      19.306   0.664  17.921  0.00  0.00     0.297 A 
ATOM     11  O9  ZIN A   1      19.338  -0.393  18.519  0.00  0.00    -0.259 OA
ATOM     12  C12 ZIN A   1      18.525  -0.101  15.530  0.00  0.00     0.091 A 
BRANCH   3  13
ATOM     13  O2  ZIN A   1      18.011   2.123  12.695  0.00  0.00    -0.355 OA
ATOM     14  C1  ZIN A   1      19.102   2.279  11.785  0.00  0.00     0.210 C 
ENDBRANCH   3  13
BRANCH  12  15
ATOM     15  O13 ZIN A   1      18.436  -1.421  15.830  0.00  0.00    -0.359 OA
ATOM     16  H40 ZIN A   1      18.727  -2.007  15.118  0.00  0.00     0.217 HD
ENDBRANCH  12  15
ENDBRANCH   1   2
BRANCH   1  17
ATOM     17  C16 ZIN A   1      18.998  -1.341  12.644  0.00  0.00    -0.020 C 
ATOM     18  C17 ZIN A   1      18.883  -2.542  12.131  0.00  0.00    -0.087 C 
ATOM     19  C18 ZIN A   1      17.576  -3.284  12.239  0.00  0.00     0.043 C 
BRANCH  18  20
ATOM     20  C19 ZIN A   1      20.057  -3.179  11.434  0.00  0.00     0.043 C 
BRANCH  20  21
ATOM     21  C20 ZIN A   1      19.763  -4.661  11.194  0.00  0.00     0.115 C 
BRANCH  21  22
ATOM     22  C21 ZIN A   1      19.572  -4.903   9.719  0.00  0.00     0.259 C 
ATOM     23  O22 ZIN A   1      20.391  -5.541   9.100  0.00  0.00    -0.265 OA
BRANCH  22  24
ATOM     24  O23 ZIN A   1      18.492  -4.410   9.092  0.00  0.00    -0.320 OA
BRANCH  24  25
ATOM     25  C24 ZIN A   1      18.729  -3.531   7.961  0.00  0.00     0.209 C 
BRANCH  25  26
ATOM     26  C25 ZIN A   1      18.425  -2.087   8.364  0.00  0.00     0.299 C 
BRANCH  26  27
ATOM     27  N26 ZIN A   1      18.963  -1.172   7.348  0.00  0.00     0.094 N 
ATOM     28  C31 ZIN A   1      18.792  -1.727   5.997  0.00  0.00     0.298 C 
ATOM     29  C30 ZIN A   1      19.418  -0.773   4.976  0.00  0.00     0.198 C 
ATOM     30  O29 ZIN A   1      18.821   0.519   5.111  0.00  0.00    -0.388 OA
ATOM     31  C28 ZIN A   1      18.968   1.090   6.414  0.00  0.00     0.198 C 
ATOM     32  C27 ZIN A   1      18.339   0.155   7.449  0.00  0.00     0.298 C 
ENDBRANCH  26  27
ENDBRANCH  25  26
ENDBRANCH  24  25
ENDBRANCH  22  24
ENDBRANCH  21  22
ENDBRANCH  20  21
ENDBRANCH  18  20
ENDBRANCH   1  17
TORSDOF 11
ENDMDL
MODEL 4
REMARK VINA RESULT:      -7.7      1.949      4.422
REMARK  11 active torsions:
REMARK  status: ('A' for Active; 'I' for Inactive)
REMARK    1  A    between atoms: O2_2  and  C3_3 
REMARK    2  A    between atoms: C12_12  and  O13_13 
REMARK    3  A    between atoms: C14_14  and  C15_15 
REMARK    4  A    between atoms: C15_15  and  C16_16 
REMARK    5  A    between atoms: C17_17  and  C19_19 
REMARK    6  A    between atoms: C19_19  and  C20_20 
REMARK    7  A    between atoms: C20_20  and  C21_21 
REMARK    8  A    between atoms: C21_21  and  O23_23 
REMARK    9  A    between atoms: O23_23  and  C24_24 
REMARK   10  A    between atoms: C24_24  and  C25_25 
REMARK   11  A    between atoms: C25_25  and  N26_26 
ROOT
ATOM      1  C15 ZIN A   1      20.000  -0.247  12.652  0.00  0.00     0.072 C 
ENDROOT
BRANCH   1   2
ATOM      2  C14 ZIN A   1      19.456  -0.476  11.265  0.00  0.00     0.013 A 
ATOM      3  C3  ZIN A   1      18.976  -1.727  10.908  0.00  0.00     0.084 A 
ATOM      4  C4  ZIN A   1      18.472  -1.945   9.627  0.00  0.00    -0.018 A 
ATOM      5  C5  ZIN A   1      17.945  -3.304   9.246  0.00  0.00     0.052 C 
ATOM      6  C6  ZIN A   1      18.455  -0.923   8.713  0.00  0.00    -0.006 A 
ATOM      7  C11 ZIN A   1      17.991  -0.823   7.281  0.00  0.00     0.219 A 
ATOM      8  C7  ZIN A   1      18.942   0.344   9.057  0.00  0.00     0.082 A 
ATOM      9  O10 ZIN A   1      18.247   0.547   6.864  0.00  0.00    -0.313 OA
ATOM     10  C8  ZIN A   1      18.795   1.222   7.888  0.00  0.00     0.297 A 
ATOM     11  O9  ZIN A   1      19.124   2.391   7.853  0.00  0.00    -0.259 OA
ATOM     12  C12 ZIN A   1      19.449   0.561  10.348  0.00  0.00     0.091 A 
BRANCH   3  13
ATOM     13  O2  ZIN A   1      18.991  -2.740  11.810  0.00  0.00    -0.355 OA
ATOM     14  C1  ZIN A   1      20.082  -3.660  11.733  0.00  0.00     0.210 C 
ENDBRANCH   3  13
BRANCH  12  15
ATOM     15  O13 ZIN A   1      19.925   1.783  10.697  0.00  0.00    -0.359 OA
ATOM     16  H40 ZIN A   1      20.813   1.765  11.077  0.00  0.00     0.217 HD
ENDBRANCH  12  15
ENDBRANCH   1   2
BRANCH   1  17
ATOM     17  C16 ZIN A   1      18.933   0.379  13.512  0.00  0.00    -0.020 C 
ATOM     18  C17 ZIN A   1      18.620  -0.161  14.665  0.00  0.00    -0.087 C 
ATOM     19  C18 ZIN A   1      19.213  -1.489  15.060  0.00  0.00     0.043 C 
BRANCH  18  20
ATOM     20  C19 ZIN A   1      17.670   0.547  15.596  0.00  0.00     0.043 C 
BRANCH  20  21
ATOM     21  C20 ZIN A   1      18.149   0.375  17.039  0.00  0.00     0.115 C 
BRANCH  21  22
ATOM     22  C21 ZIN A   1      19.176   1.431  17.356  0.00  0.00     0.259 C 
ATOM     23  O22 ZIN A   1      19.854   1.335  18.353  0.00  0.00    -0.265 OA
BRANCH  22  24
ATOM     24  O23 ZIN A   1      19.340   2.477  16.532  0.00  0.00    -0.320 OA
BRANCH  24  25
ATOM     25  C24 ZIN A   1      19.198   3.802  17.111  0.00  0.00     0.209 C 
BRANCH  25  26
ATOM     26  C25 ZIN A   1      18.421   4.700  16.147  0.00  0.00     0.299 C 
BRANCH  26  27
ATOM     27  N26 ZIN A   1      18.679   4.274  14.766  0.00  0.00     0.094 N 
ATOM     28  C31 ZIN A   1      17.423   4.143  14.012  0.00  0.00     0.298 C 
ATOM     29  C30 ZIN A   1      17.733   3.640  12.599  0.00  0.00     0.198 C 
ATOM     30  O29 ZIN A   1      18.651   4.537  11.970  0.00  0.00    -0.388 OA
ATOM     31  C28 ZIN A   1      19.885   4.688  12.677  0.00  0.00     0.198 C 
ATOM     32  C27 ZIN A   1      19.598   5.201  14.090  0.00  0.00     0.298 C 
ENDBRANCH  26  27
ENDBRANCH  25  26
ENDBRANCH  24  25
ENDBRANCH  22  24
ENDBRANCH  21  22
ENDBRANCH  20  21
ENDBRANCH  18  20
ENDBRANCH   1  17
TORSDOF 11
ENDMDL
MODEL 5
REMARK VINA RESULT:      -7.7      2.743      8.187
REMARK  11 active torsions:
REMARK  status: ('A' for Active; 'I' for Inactive)
REMARK    1  A    between atoms: O2_2  and  C3_3 
REMARK    2  A    between atoms: C12_12  and  O13_13 
REMARK    3  A    between atoms: C14_14  and  C15_15 
REMARK    4  A    between atoms: C15_15  and  C16_16 
REMARK    5  A    between atoms: C17_17  and  C19_19 
REMARK    6  A    between atoms: C19_19  and  C20_20 
REMARK    7  A    between atoms: C20_20  and  C21_21 
REMARK    8  A    between atoms: C21_21  and  O23_23 
REMARK    9  A    between atoms: O23_23  and  C24_24 
REMARK   10  A    between atoms: C24_24  and  C25_25 
REMARK   11  A    between atoms: C25_25  and  N26_26 
ROOT
ATOM      1  C15 ZIN A   1      20.179  -0.119   9.704  0.00  0.00     0.072 C 
ENDROOT
BRANCH   1   2
ATOM      2  C14 ZIN A   1      19.767   0.241  11.108  0.00  0.00     0.013 A 
ATOM      3  C3  ZIN A   1      19.567  -0.759  12.048  0.00  0.00     0.084 A 
ATOM      4  C4  ZIN A   1      19.186  -0.434  13.348  0.00  0.00    -0.018 A 
ATOM      5  C5  ZIN A   1      18.976  -1.523  14.368  0.00  0.00     0.052 C 
ATOM      6  C6  ZIN A   1      19.002   0.879  13.701  0.00  0.00    -0.006 A 
ATOM      7  C11 ZIN A   1      18.602   1.559  14.987  0.00  0.00     0.219 A 
ATOM      8  C7  ZIN A   1      19.194   1.900  12.761  0.00  0.00     0.082 A 
ATOM      9  O10 ZIN A   1      18.584   2.985  14.707  0.00  0.00    -0.313 OA
ATOM     10  C8  ZIN A   1      18.927   3.184  13.422  0.00  0.00     0.297 A 
ATOM     11  O9  ZIN A   1      19.003   4.270  12.884  0.00  0.00    -0.259 OA
ATOM     12  C12 ZIN A   1      19.578   1.569  11.453  0.00  0.00     0.091 A 
BRANCH   3  13
ATOM     13  O2  ZIN A   1      19.749  -2.059  11.703  0.00  0.00    -0.355 OA
ATOM     14  C1  ZIN A   1      18.574  -2.831  11.442  0.00  0.00     0.210 C 
ENDBRANCH   3  13
BRANCH  12  15
ATOM     15  O13 ZIN A   1      19.769   2.546  10.531  0.00  0.00    -0.359 OA
ATOM     16  H40 ZIN A   1      20.324   3.274  10.839  0.00  0.00     0.217 HD
ENDBRANCH  12  15
ENDBRANCH   1   2
BRANCH   1  17
ATOM     17  C16 ZIN A   1      18.953  -0.437   8.887  0.00  0.00    -0.020 C 
ATOM     18  C17 ZIN A   1      18.640   0.311   7.858  0.00  0.00    -0.087 C 
ATOM     19  C18 ZIN A   1      19.412   1.576   7.583  0.00  0.00     0.043 C 
BRANCH  18  20
ATOM     20  C19 ZIN A   1      17.509  -0.094   6.948  0.00  0.00     0.043 C 
BRANCH  20  21
ATOM     21  C20 ZIN A   1      17.891   0.208   5.497  0.00  0.00     0.115 C 
BRANCH  21  22
ATOM     22  C21 ZIN A   1      18.727  -0.922   4.952  0.00  0.00     0.259 C 
ATOM     23  O22 ZIN A   1      19.852  -0.708   4.565  0.00  0.00    -0.265 OA
BRANCH  22  24
ATOM     24  O23 ZIN A   1      18.223  -2.164   4.898  0.00  0.00    -0.320 OA
BRANCH  24  25
ATOM     25  C24 ZIN A   1      19.134  -3.259   5.184  0.00  0.00     0.209 C 
BRANCH  25  26
ATOM     26  C25 ZIN A   1      19.408  -3.315   6.688  0.00  0.00     0.299 C 
BRANCH  26  27
ATOM     27  N26 ZIN A   1      18.769  -4.508   7.258  0.00  0.00     0.094 N 
ATOM     28  C31 ZIN A   1      18.660  -5.577   6.254  0.00  0.00     0.298 C 
ATOM     29  C30 ZIN A   1      17.937  -6.777   6.870  0.00  0.00     0.198 C 
ATOM     30  O29 ZIN A   1      18.640  -7.202   8.040  0.00  0.00    -0.388 OA
ATOM     31  C28 ZIN A   1      18.764  -6.186   9.039  0.00  0.00     0.198 C 
ATOM     32  C27 ZIN A   1      19.495  -4.980   8.445  0.00  0.00     0.298 C 
ENDBRANCH  26  27
ENDBRANCH  25  26
ENDBRANCH  24  25
ENDBRANCH  22  24
ENDBRANCH  21  22
ENDBRANCH  20  21
ENDBRANCH  18  20
ENDBRANCH   1  17
TORSDOF 11
ENDMDL
MODEL 6
REMARK VINA RESULT:      -7.7      2.527      8.523
REMARK  11 active torsions:
REMARK  status: ('A' for Active; 'I' for Inactive)
REMARK    1  A    between atoms: O2_2  and  C3_3 
REMARK    2  A    between atoms: C12_12  and  O13_13 
REMARK    3  A    between atoms: C14_14  and  C15_15 
REMARK    4  A    between atoms: C15_15  and  C16_16 
REMARK    5  A    between atoms: C17_17  and  C19_19 
REMARK    6  A    between atoms: C19_19  and  C20_20 
REMARK    7  A    between atoms: C20_20  and  C21_21 
REMARK    8  A    between atoms: C21_21  and  O23_23 
REMARK    9  A    between atoms: O23_23  and  C24_24 
REMARK   10  A    between atoms: C24_24  and  C25_25 
REMARK   11  A    between atoms: C25_25  and  N26_26 
ROOT
ATOM      1  C15 ZIN A   1      17.794  -0.645  13.506  0.00  0.00     0.072 C 
ENDROOT
BRANCH   1   2
ATOM      2  C14 ZIN A   1      18.286   0.451  14.415  0.00  0.00     0.013 A 
ATOM      3  C3  ZIN A   1      18.583   0.169  15.740  0.00  0.00     0.084 A 
ATOM      4  C4  ZIN A   1      19.039   1.178  16.586  0.00  0.00    -0.018 A 
ATOM      5  C5  ZIN A   1      19.366   0.866  18.024  0.00  0.00     0.052 C 
ATOM      6  C6  ZIN A   1      19.190   2.456  16.111  0.00  0.00    -0.006 A 
ATOM      7  C11 ZIN A   1      19.649   3.747  16.742  0.00  0.00     0.219 A 
ATOM      8  C7  ZIN A   1      18.889   2.757  14.777  0.00  0.00     0.082 A 
ATOM      9  O10 ZIN A   1      19.584   4.758  15.699  0.00  0.00    -0.313 OA
ATOM     10  C8  ZIN A   1      19.146   4.187  14.563  0.00  0.00     0.297 A 
ATOM     11  O9  ZIN A   1      18.984   4.772  13.511  0.00  0.00    -0.259 OA
ATOM     12  C12 ZIN A   1      18.430   1.739  13.927  0.00  0.00     0.091 A 
BRANCH   3  13
ATOM     13  O2  ZIN A   1      18.435  -1.094  16.213  0.00  0.00    -0.355 OA
ATOM     14  C1  ZIN A   1      17.187  -1.411  16.834  0.00  0.00     0.210 C 
ENDBRANCH   3  13
BRANCH  12  15
ATOM     15  O13 ZIN A   1      18.134   2.014  12.632  0.00  0.00    -0.359 OA
ATOM     16  H40 ZIN A   1      18.567   2.808  12.290  0.00  0.00     0.217 HD
ENDBRANCH  12  15
ENDBRANCH   1   2
BRANCH   1  17
ATOM     17  C16 ZIN A   1      18.967  -1.447  13.005  0.00  0.00    -0.020 C 
ATOM     18  C17 ZIN A   1      18.781  -2.405  12.130  0.00  0.00    -0.087 C 
ATOM     19  C18 ZIN A   1      17.382  -2.809  11.742  0.00  0.00     0.043 C 
BRANCH  18  20
ATOM     20  C19 ZIN A   1      19.966  -3.100  11.510  0.00  0.00     0.043 C 
BRANCH  20  21
ATOM     21  C20 ZIN A   1      19.598  -4.554  11.203  0.00  0.00     0.115 C 
BRANCH  21  22
ATOM     22  C21 ZIN A   1      19.594  -4.765   9.711  0.00  0.00     0.259 C 
ATOM     23  O22 ZIN A   1      20.333  -5.583   9.214  0.00  0.00    -0.265 OA
BRANCH  22  24
ATOM     24  O23 ZIN A   1      18.769  -4.046   8.934  0.00  0.00    -0.320 OA
BRANCH  24  25
ATOM     25  C24 ZIN A   1      19.310  -3.548   7.681  0.00  0.00     0.209 C 
BRANCH  25  26
ATOM     26  C25 ZIN A   1      18.608  -2.241   7.307  0.00  0.00     0.299 C 
BRANCH  26  27
ATOM     27  N26 ZIN A   1      18.532  -1.371   8.488  0.00  0.00     0.094 N 
ATOM     28  C31 ZIN A   1      19.742  -0.544   8.611  0.00  0.00     0.298 C 
ATOM     29  C30 ZIN A   1      19.648   0.302   9.884  0.00  0.00     0.198 C 
ATOM     30  O29 ZIN A   1      18.455   1.089   9.840  0.00  0.00    -0.388 OA
ATOM     31  C28 ZIN A   1      17.258   0.315   9.722  0.00  0.00     0.198 C 
ATOM     32  C27 ZIN A   1      17.328  -0.530   8.448  0.00  0.00     0.298 C 
ENDBRANCH  26  27
ENDBRANCH  25  26
ENDBRANCH  24  25
ENDBRANCH  22  24
ENDBRANCH  21  22
ENDBRANCH  20  21
ENDBRANCH  18  20
ENDBRANCH   1  17
TORSDOF 11
ENDMDL
MODEL 7
REMARK VINA RESULT:      -7.7      2.315      7.668
REMARK  11 active torsions:
REMARK  status: ('A' for Active; 'I' for Inactive)
REMARK    1  A    between atoms: O2_2  and  C3_3 
REMARK    2  A    between atoms: C12_12  and  O13_13 
REMARK    3  A    between atoms: C14_14  and  C15_15 
REMARK    4  A    between atoms: C15_15  and  C16_16 
REMARK    5  A    between atoms: C17_17  and  C19_19 
REMARK    6  A    between atoms: C19_19  and  C20_20 
REMARK    7  A    between atoms: C20_20  and  C21_21 
REMARK    8  A    between atoms: C21_21  and  O23_23 
REMARK    9  A    between atoms: O23_23  and  C24_24 
REMARK   10  A    between atoms: C24_24  and  C25_25 
REMARK   11  A    between atoms: C25_25  and  N26_26 
ROOT
ATOM      1  C15 ZIN A   1      19.356   1.912   9.831  0.00  0.00     0.072 C 
ENDROOT
BRANCH   1   2
ATOM      2  C14 ZIN A   1      19.147   1.912  11.323  0.00  0.00     0.013 A 
ATOM      3  C3  ZIN A   1      18.704   3.062  11.959  0.00  0.00     0.084 A 
ATOM      4  C4  ZIN A   1      18.509   3.069  13.339  0.00  0.00    -0.018 A 
ATOM      5  C5  ZIN A   1      18.021   4.319  14.025  0.00  0.00     0.052 C 
ATOM      6  C6  ZIN A   1      18.761   1.939  14.074  0.00  0.00    -0.006 A 
ATOM      7  C11 ZIN A   1      18.657   1.615  15.543  0.00  0.00     0.219 A 
ATOM      8  C7  ZIN A   1      19.215   0.772  13.446  0.00  0.00     0.082 A 
ATOM      9  O10 ZIN A   1      19.072   0.229  15.687  0.00  0.00    -0.313 OA
ATOM     10  C8  ZIN A   1      19.394  -0.260  14.477  0.00  0.00     0.297 A 
ATOM     11  O9  ZIN A   1      19.780  -1.392  14.265  0.00  0.00    -0.259 OA
ATOM     12  C12 ZIN A   1      19.410   0.767  12.057  0.00  0.00     0.091 A 
BRANCH   3  13
ATOM     13  O2  ZIN A   1      18.453   4.182  11.236  0.00  0.00    -0.355 OA
ATOM     14  C1  ZIN A   1      17.115   4.366  10.769  0.00  0.00     0.210 C 
ENDBRANCH   3  13
BRANCH  12  15
ATOM     15  O13 ZIN A   1      19.849  -0.355  11.434  0.00  0.00    -0.359 OA
ATOM     16  H40 ZIN A   1      20.397  -0.184  10.656  0.00  0.00     0.217 HD
ENDBRANCH  12  15
ENDBRANCH   1   2
BRANCH   1  17
ATOM     17  C16 ZIN A   1      18.335   1.013   9.181  0.00  0.00    -0.020 C 
ATOM     18  C17 ZIN A   1      18.334   0.856   7.880  0.00  0.00    -0.087 C 
ATOM     19  C18 ZIN A   1      19.248   1.690   7.020  0.00  0.00     0.043 C 
BRANCH  18  20
ATOM     20  C19 ZIN A   1      17.421  -0.161   7.245  0.00  0.00     0.043 C 
BRANCH  20  21
ATOM     21  C20 ZIN A   1      17.787  -0.321   5.768  0.00  0.00     0.115 C 
BRANCH  21  22
ATOM     22  C21 ZIN A   1      18.698  -1.510   5.603  0.00  0.00     0.259 C 
ATOM     23  O22 ZIN A   1      19.741  -1.393   5.004  0.00  0.00    -0.265 OA
BRANCH  22  24
ATOM     24  O23 ZIN A   1      18.352  -2.698   6.122  0.00  0.00    -0.320 OA
BRANCH  24  25
ATOM     25  C24 ZIN A   1      19.210  -3.239   7.162  0.00  0.00     0.209 C 
BRANCH  25  26
ATOM     26  C25 ZIN A   1      18.578  -4.509   7.735  0.00  0.00     0.299 C 
BRANCH  26  27
ATOM     27  N26 ZIN A   1      18.400  -4.356   9.185  0.00  0.00     0.094 N 
ATOM     28  C31 ZIN A   1      19.670  -4.570   9.896  0.00  0.00     0.298 C 
ATOM     29  C30 ZIN A   1      19.428  -4.460  11.404  0.00  0.00     0.198 C 
ATOM     30  O29 ZIN A   1      18.850  -3.186  11.698  0.00  0.00    -0.388 OA
ATOM     31  C28 ZIN A   1      17.613  -2.945  11.023  0.00  0.00     0.198 C 
ATOM     32  C27 ZIN A   1      17.835  -3.039   9.512  0.00  0.00     0.298 C 
ENDBRANCH  26  27
ENDBRANCH  25  26
ENDBRANCH  24  25
ENDBRANCH  22  24
ENDBRANCH  21  22
ENDBRANCH  20  21
ENDBRANCH  18  20
ENDBRANCH   1  17
TORSDOF 11
ENDMDL
MODEL 8
REMARK VINA RESULT:      -7.6      2.862      8.557
REMARK  11 active torsions:
REMARK  status: ('A' for Active; 'I' for Inactive)
REMARK    1  A    between atoms: O2_2  and  C3_3 
REMARK    2  A    between atoms: C12_12  and  O13_13 
REMARK    3  A    between atoms: C14_14  and  C15_15 
REMARK    4  A    between atoms: C15_15  and  C16_16 
REMARK    5  A    between atoms: C17_17  and  C19_19 
REMARK    6  A    between atoms: C19_19  and  C20_20 
REMARK    7  A    between atoms: C20_20  and  C21_21 
REMARK    8  A    between atoms: C21_21  and  O23_23 
REMARK    9  A    between atoms: O23_23  and  C24_24 
REMARK   10  A    between atoms: C24_24  and  C25_25 
REMARK   11  A    between atoms: C25_25  and  N26_26 
ROOT
ATOM      1  C15 ZIN A   1      19.276  -1.864  12.610  0.00  0.00     0.072 C 
ENDROOT
BRANCH   1   2
ATOM      2  C14 ZIN A   1      18.999  -0.425  12.256  0.00  0.00     0.013 A 
ATOM      3  C3  ZIN A   1      18.483   0.435  13.214  0.00  0.00     0.084 A 
ATOM      4  C4  ZIN A   1      18.225   1.766  12.894  0.00  0.00    -0.018 A 
ATOM      5  C5  ZIN A   1      17.669   2.699  13.939  0.00  0.00     0.052 C 
ATOM      6  C6  ZIN A   1      18.475   2.229  11.627  0.00  0.00    -0.006 A 
ATOM      7  C11 ZIN A   1      18.313   3.575  10.966  0.00  0.00     0.219 A 
ATOM      8  C7  ZIN A   1      18.991   1.371  10.648  0.00  0.00     0.082 A 
ATOM      9  O10 ZIN A   1      18.761   3.412   9.592  0.00  0.00    -0.313 OA
ATOM     10  C8  ZIN A   1      19.153   2.139   9.407  0.00  0.00     0.297 A 
ATOM     11  O9  ZIN A   1      19.579   1.689   8.362  0.00  0.00    -0.259 OA
ATOM     12  C12 ZIN A   1      19.250   0.030  10.973  0.00  0.00     0.091 A 
BRANCH   3  13
ATOM     13  O2  ZIN A   1      18.234  -0.019  14.468  0.00  0.00    -0.355 OA
ATOM     14  C1  ZIN A   1      19.210   0.276  15.469  0.00  0.00     0.210 C 
ENDBRANCH   3  13
BRANCH  12  15
ATOM     15  O13 ZIN A   1      19.750  -0.814  10.036  0.00  0.00    -0.359 OA
ATOM     16  H40 ZIN A   1      19.820  -0.426   9.154  0.00  0.00     0.217 HD
ENDBRANCH  12  15
ENDBRANCH   1   2
BRANCH   1  17
ATOM     17  C16 ZIN A   1      18.092  -2.713  12.224  0.00  0.00    -0.020 C 
ATOM     18  C17 ZIN A   1      18.279  -3.905  11.713  0.00  0.00    -0.087 C 
ATOM     19  C18 ZIN A   1      19.671  -4.366  11.367  0.00  0.00     0.043 C 
BRANCH  18  20
ATOM     20  C19 ZIN A   1      17.102  -4.815  11.475  0.00  0.00     0.043 C 
BRANCH  20  21
ATOM     21  C20 ZIN A   1      17.575  -6.080  10.755  0.00  0.00     0.115 C 
BRANCH  21  22
ATOM     22  C21 ZIN A   1      16.968  -6.131   9.377  0.00  0.00     0.259 C 
ATOM     23  O22 ZIN A   1      16.534  -7.173   8.945  0.00  0.00    -0.265 OA
BRANCH  22  24
ATOM     24  O23 ZIN A   1      16.908  -5.018   8.629  0.00  0.00    -0.320 OA
BRANCH  24  25
ATOM     25  C24 ZIN A   1      18.122  -4.622   7.936  0.00  0.00     0.209 C 
BRANCH  25  26
ATOM     26  C25 ZIN A   1      18.293  -3.105   8.033  0.00  0.00     0.299 C 
BRANCH  26  27
ATOM     27  N26 ZIN A   1      18.370  -2.534   6.682  0.00  0.00     0.094 N 
ATOM     28  C31 ZIN A   1      19.267  -1.370   6.653  0.00  0.00     0.298 C 
ATOM     29  C30 ZIN A   1      19.272  -0.771   5.244  0.00  0.00     0.198 C 
ATOM     30  O29 ZIN A   1      19.659  -1.777   4.305  0.00  0.00    -0.388 OA
ATOM     31  C28 ZIN A   1      18.806  -2.925   4.306  0.00  0.00     0.198 C 
ATOM     32  C27 ZIN A   1      18.797  -3.546   5.705  0.00  0.00     0.298 C 
ENDBRANCH  26  27
ENDBRANCH  25  26
ENDBRANCH  24  25
ENDBRANCH  22  24
ENDBRANCH  21  22
ENDBRANCH  20  21
ENDBRANCH  18  20
ENDBRANCH   1  17
TORSDOF 11
ENDMDL
MODEL 9
REMARK VINA RESULT:      -7.6      1.588      2.313
REMARK  11 active torsions:
REMARK  status: ('A' for Active; 'I' for Inactive)
REMARK    1  A    between atoms: O2_2  and  C3_3 
REMARK    2  A    between atoms: C12_12  and  O13_13 
REMARK    3  A    between atoms: C14_14  and  C15_15 
REMARK    4  A    between atoms: C15_15  and  C16_16 
REMARK    5  A    between atoms: C17_17  and  C19_19 
REMARK    6  A    between atoms: C19_19  and  C20_20 
REMARK    7  A    between atoms: C20_20  and  C21_21 
REMARK    8  A    between atoms: C21_21  and  O23_23 
REMARK    9  A    between atoms: O23_23  and  C24_24 
REMARK   10  A    between atoms: C24_24  and  C25_25 
REMARK   11  A    between atoms: C25_25  and  N26_26 
ROOT
ATOM      1  C15 ZIN A   1      17.393  -0.426   9.387  0.00  0.00     0.072 C 
ENDROOT
BRANCH   1   2
ATOM      2  C14 ZIN A   1      17.962  -1.821   9.395  0.00  0.00     0.013 A 
ATOM      3  C3  ZIN A   1      17.797  -2.629  10.510  0.00  0.00     0.084 A 
ATOM      4  C4  ZIN A   1      18.320  -3.920  10.525  0.00  0.00    -0.018 A 
ATOM      5  C5  ZIN A   1      18.133  -4.797  11.736  0.00  0.00     0.052 C 
ATOM      6  C6  ZIN A   1      19.007  -4.395   9.435  0.00  0.00    -0.006 A 
ATOM      7  C11 ZIN A   1      19.683  -5.708   9.130  0.00  0.00     0.219 A 
ATOM      8  C7  ZIN A   1      19.187  -3.589   8.305  0.00  0.00     0.082 A 
ATOM      9  O10 ZIN A   1      20.236  -5.581   7.791  0.00  0.00    -0.313 OA
ATOM     10  C8  ZIN A   1      19.950  -4.358   7.313  0.00  0.00     0.297 A 
ATOM     11  O9  ZIN A   1      20.277  -3.947   6.218  0.00  0.00    -0.259 OA
ATOM     12  C12 ZIN A   1      18.658  -2.289   8.293  0.00  0.00     0.091 A 
BRANCH   3  13
ATOM     13  O2  ZIN A   1      17.119  -2.163  11.589  0.00  0.00    -0.355 OA
ATOM     14  C1  ZIN A   1      17.898  -1.705  12.697  0.00  0.00     0.210 C 
ENDBRANCH   3  13
BRANCH  12  15
ATOM     15  O13 ZIN A   1      18.824  -1.495   7.205  0.00  0.00    -0.359 OA
ATOM     16  H40 ZIN A   1      19.745  -1.395   6.928  0.00  0.00     0.217 HD
ENDBRANCH  12  15
ENDBRANCH   1   2
BRANCH   1  17
ATOM     17  C16 ZIN A   1      18.216   0.457  10.291  0.00  0.00    -0.020 C 
ATOM     18  C17 ZIN A   1      18.809   1.520   9.805  0.00  0.00    -0.087 C 
ATOM     19  C18 ZIN A   1      18.799   1.775   8.320  0.00  0.00     0.043 C 
BRANCH  18  20
ATOM     20  C19 ZIN A   1      19.499   2.487  10.732  0.00  0.00     0.043 C 
BRANCH  20  21
ATOM     21  C20 ZIN A   1      18.685   3.780  10.815  0.00  0.00     0.115 C 
BRANCH  21  22
ATOM     22  C21 ZIN A   1      18.459   4.139  12.261  0.00  0.00     0.259 C 
ATOM     23  O22 ZIN A   1      17.855   5.146  12.546  0.00  0.00    -0.265 OA
BRANCH  22  24
ATOM     24  O23 ZIN A   1      18.927   3.340  13.232  0.00  0.00    -0.320 OA
BRANCH  24  25
ATOM     25  C24 ZIN A   1      18.001   2.974  14.290  0.00  0.00     0.209 C 
BRANCH  25  26
ATOM     26  C25 ZIN A   1      18.280   1.538  14.737  0.00  0.00     0.299 C 
BRANCH  26  27
ATOM     27  N26 ZIN A   1      18.403   1.496  16.200  0.00  0.00     0.094 N 
ATOM     28  C31 ZIN A   1      19.015   0.234  16.641  0.00  0.00     0.298 C 
ATOM     29  C30 ZIN A   1      19.070   0.206  18.171  0.00  0.00     0.198 C 
ATOM     30  O29 ZIN A   1      19.789   1.350  18.638  0.00  0.00    -0.388 OA
ATOM     31  C28 ZIN A   1      19.220   2.597  18.227  0.00  0.00     0.198 C 
ATOM     32  C27 ZIN A   1      19.167   2.648  16.699  0.00  0.00     0.298 C 
ENDBRANCH  26  27
ENDBRANCH  25  26
ENDBRANCH  24  25
ENDBRANCH  22  24
ENDBRANCH  21  22
ENDBRANCH  20  21
ENDBRANCH  18  20
ENDBRANCH   1  17
TORSDOF 11
ENDMDL
