MODEL 1
REMARK VINA RESULT:      -6.5      0.000      0.000
REMARK  4 active torsions:
REMARK  status: ('A' for Active; 'I' for Inactive)
REMARK    1  A    between atoms: N1_1  and  C2_2 
REMARK    2  A    between atoms: C5_5  and  S6_6 
REMARK    3  A    between atoms: S6_6  and  N9_9 
REMARK    4  A    between atoms: N9_9  and  C10_10 
ROOT
ATOM      1  S6  ZIN A   1      17.352   1.134  11.282  0.00  0.00     0.276 S 
ATOM      2  O7  ZIN A   1      17.073   2.514  11.469  0.00  0.00    -0.200 OA
ATOM      3  O8  ZIN A   1      16.395   0.109  11.515  0.00  0.00    -0.200 OA
ENDROOT
BRANCH   1   4
ATOM      4  C5  ZIN A   1      17.876   0.954   9.609  0.00  0.00     0.080 A 
ATOM      5  C4  ZIN A   1      18.834   1.806   9.090  0.00  0.00     0.027 A 
ATOM      6  C3  ZIN A   1      19.247   1.668   7.780  0.00  0.00     0.030 A 
ATOM      7  C2  ZIN A   1      18.699   0.672   6.982  0.00  0.00     0.025 A 
ATOM      8  C17 ZIN A   1      17.733  -0.179   7.504  0.00  0.00     0.030 A 
ATOM      9  C16 ZIN A   1      17.329  -0.039   8.818  0.00  0.00     0.027 A 
BRANCH   7  10
ATOM     10  N1  ZIN A   1      19.115   0.530   5.656  0.00  0.00    -0.399 N 
ATOM     11  H18 ZIN A   1      19.925   0.037   5.452  0.00  0.00     0.156 HD
ATOM     12  H19 ZIN A   1      18.590   0.919   4.939  0.00  0.00     0.156 HD
ENDBRANCH   7  10
ENDBRANCH   1   4
BRANCH   1  13
ATOM     13  N9  ZIN A   1      18.654   0.785  12.243  0.00  0.00    -0.109 N 
ATOM     14  H22 ZIN A   1      19.553   0.968  11.928  0.00  0.00     0.198 HD
BRANCH  13  15
ATOM     15  C10 ZIN A   1      18.460   0.233  13.498  0.00  0.00     0.735 A 
ATOM     16  N15 ZIN A   1      18.939  -0.976  13.752  0.00  0.00    -0.074 NA
ATOM     17  C14 ZIN A   1      18.774  -1.531  14.942  0.00  0.00     0.138 A 
ATOM     18  C13 ZIN A   1      18.083  -0.838  15.922  0.00  0.00     0.040 A 
ATOM     19  C12 ZIN A   1      17.591   0.423  15.620  0.00  0.00     0.138 A 
ATOM     20  N11 ZIN A   1      17.795   0.923  14.412  0.00  0.00    -0.074 NA
ENDBRANCH  13  15
ENDBRANCH   1  13
TORSDOF 4
ENDMDL
MODEL 2
REMARK VINA RESULT:      -6.4      2.142      2.937
REMARK  4 active torsions:
REMARK  status: ('A' for Active; 'I' for Inactive)
REMARK    1  A    between atoms: N1_1  and  C2_2 
REMARK    2  A    between atoms: C5_5  and  S6_6 
REMARK    3  A    between atoms: S6_6  and  N9_9 
REMARK    4  A    between atoms: N9_9  and  C10_10 
ROOT
ATOM      1  S6  ZIN A   1      17.172   0.765  11.427  0.00  0.00     0.276 S 
ATOM      2  O7  ZIN A   1      17.352   2.082  11.927  0.00  0.00    -0.200 OA
ATOM      3  O8  ZIN A   1      15.910   0.113  11.392  0.00  0.00    -0.200 OA
ENDROOT
BRANCH   1   4
ATOM      4  C5  ZIN A   1      17.773   0.774   9.771  0.00  0.00     0.080 A 
ATOM      5  C4  ZIN A   1      17.260  -0.116   8.845  0.00  0.00     0.027 A 
ATOM      6  C3  ZIN A   1      17.729  -0.110   7.546  0.00  0.00     0.030 A 
ATOM      7  C2  ZIN A   1      18.717   0.789   7.170  0.00  0.00     0.025 A 
ATOM      8  C17 ZIN A   1      19.235   1.679   8.104  0.00  0.00     0.030 A 
ATOM      9  C16 ZIN A   1      18.757   1.672   9.400  0.00  0.00     0.027 A 
BRANCH   7  10
ATOM     10  N1  ZIN A   1      19.194   0.797   5.857  0.00  0.00    -0.399 N 
ATOM     11  H18 ZIN A   1      19.764   0.076   5.544  0.00  0.00     0.156 HD
ATOM     12  H19 ZIN A   1      18.951   1.519   5.257  0.00  0.00     0.156 HD
ENDBRANCH   7  10
ENDBRANCH   1   4
BRANCH   1  13
ATOM     13  N9  ZIN A   1      18.179  -0.212  12.309  0.00  0.00    -0.109 N 
ATOM     14  H22 ZIN A   1      18.626   0.137  13.095  0.00  0.00     0.198 HD
BRANCH  13  15
ATOM     15  C10 ZIN A   1      18.381  -1.526  11.921  0.00  0.00     0.735 A 
ATOM     16  N15 ZIN A   1      17.333  -2.321  11.764  0.00  0.00    -0.074 NA
ATOM     17  C14 ZIN A   1      17.491  -3.580  11.391  0.00  0.00     0.138 A 
ATOM     18  C13 ZIN A   1      18.771  -4.066  11.174  0.00  0.00     0.040 A 
ATOM     19  C12 ZIN A   1      19.844  -3.208  11.352  0.00  0.00     0.138 A 
ATOM     20  N11 ZIN A   1      19.617  -1.958  11.721  0.00  0.00    -0.074 NA
ENDBRANCH  13  15
ENDBRANCH   1  13
TORSDOF 4
ENDMDL
MODEL 3
REMARK VINA RESULT:      -6.3      1.280      1.817
REMARK  4 active torsions:
REMARK  status: ('A' for Active; 'I' for Inactive)
REMARK    1  A    between atoms: N1_1  and  C2_2 
REMARK    2  A    between atoms: C5_5  and  S6_6 
REMARK    3  A    between atoms: S6_6  and  N9_9 
REMARK    4  A    between atoms: N9_9  and  C10_10 
ROOT
ATOM      1  S6  ZIN A   1      18.412   2.202  10.848  0.00  0.00     0.276 S 
ATOM      2  O7  ZIN A   1      18.756   3.554  10.580  0.00  0.00    -0.200 OA
ATOM      3  O8  ZIN A   1      17.249   1.825  11.574  0.00  0.00    -0.200 OA
ENDROOT
BRANCH   1   4
ATOM      4  C5  ZIN A   1      18.304   1.396   9.285  0.00  0.00     0.080 A 
ATOM      5  C4  ZIN A   1      17.456   0.316   9.122  0.00  0.00     0.027 A 
ATOM      6  C3  ZIN A   1      17.370  -0.318   7.898  0.00  0.00     0.030 A 
ATOM      7  C2  ZIN A   1      18.136   0.130   6.830  0.00  0.00     0.025 A 
ATOM      8  C17 ZIN A   1      18.991   1.213   6.998  0.00  0.00     0.030 A 
ATOM      9  C16 ZIN A   1      19.068   1.846   8.223  0.00  0.00     0.027 A 
BRANCH   7  10
ATOM     10  N1  ZIN A   1      18.050  -0.509   5.590  0.00  0.00    -0.399 N 
ATOM     11  H18 ZIN A   1      18.651  -0.255   4.872  0.00  0.00     0.156 HD
ATOM     12  H19 ZIN A   1      17.395  -1.209   5.450  0.00  0.00     0.156 HD
ENDBRANCH   7  10
ENDBRANCH   1   4
BRANCH   1  13
ATOM     13  N9  ZIN A   1      19.700   1.542  11.653  0.00  0.00    -0.109 N 
ATOM     14  H22 ZIN A   1      20.601   1.833  11.446  0.00  0.00     0.198 HD
BRANCH  13  15
ATOM     15  C10 ZIN A   1      19.489   0.573  12.619  0.00  0.00     0.735 A 
ATOM     16  N15 ZIN A   1      19.324  -0.687  12.245  0.00  0.00    -0.074 NA
ATOM     17  C14 ZIN A   1      19.125  -1.637  13.143  0.00  0.00     0.138 A 
ATOM     18  C13 ZIN A   1      19.079  -1.300  14.486  0.00  0.00     0.040 A 
ATOM     19  C12 ZIN A   1      19.251   0.029  14.842  0.00  0.00     0.138 A 
ATOM     20  N11 ZIN A   1      19.452   0.930  13.894  0.00  0.00    -0.074 NA
ENDBRANCH  13  15
ENDBRANCH   1  13
TORSDOF 4
ENDMDL
MODEL 4
REMARK VINA RESULT:      -6.3      1.731      6.623
REMARK  4 active torsions:
REMARK  status: ('A' for Active; 'I' for Inactive)
REMARK    1  A    between atoms: N1_1  and  C2_2 
REMARK    2  A    between atoms: C5_5  and  S6_6 
REMARK    3  A    between atoms: S6_6  and  N9_9 
REMARK    4  A    between atoms: N9_9  and  C10_10 
ROOT
ATOM      1  S6  ZIN A   1      17.478  -0.388  12.052  0.00  0.00     0.276 S 
ATOM      2  O7  ZIN A   1      16.888  -1.658  11.811  0.00  0.00    -0.200 OA
ATOM      3  O8  ZIN A   1      16.804   0.840  11.813  0.00  0.00    -0.200 OA
ENDROOT
BRANCH   1   4
ATOM      4  C5  ZIN A   1      17.951  -0.374  13.749  0.00  0.00     0.080 A 
ATOM      5  C4  ZIN A   1      18.729  -1.398  14.258  0.00  0.00     0.027 A 
ATOM      6  C3  ZIN A   1      19.102  -1.389  15.588  0.00  0.00     0.030 A 
ATOM      7  C2  ZIN A   1      18.694  -0.351  16.415  0.00  0.00     0.025 A 
ATOM      8  C17 ZIN A   1      17.908   0.674  15.902  0.00  0.00     0.030 A 
ATOM      9  C16 ZIN A   1      17.544   0.662  14.570  0.00  0.00     0.027 A 
BRANCH   7  10
ATOM     10  N1  ZIN A   1      19.069  -0.340  17.761  0.00  0.00    -0.399 N 
ATOM     11  H18 ZIN A   1      19.999  -0.201  18.003  0.00  0.00     0.156 HD
ATOM     12  H19 ZIN A   1      18.401  -0.464  18.451  0.00  0.00     0.156 HD
ENDBRANCH   7  10
ENDBRANCH   1   4
BRANCH   1  13
ATOM     13  N9  ZIN A   1      18.869  -0.341  11.155  0.00  0.00    -0.109 N 
ATOM     14  H22 ZIN A   1      19.704  -0.648  11.540  0.00  0.00     0.198 HD
BRANCH  13  15
ATOM     15  C10 ZIN A   1      18.839   0.138   9.857  0.00  0.00     0.735 A 
ATOM     16  N15 ZIN A   1      18.333  -0.624   8.898  0.00  0.00    -0.074 NA
ATOM     17  C14 ZIN A   1      18.285  -0.195   7.648  0.00  0.00     0.138 A 
ATOM     18  C13 ZIN A   1      18.782   1.063   7.345  0.00  0.00     0.040 A 
ATOM     19  C12 ZIN A   1      19.308   1.832   8.371  0.00  0.00     0.138 A 
ATOM     20  N11 ZIN A   1      19.321   1.345   9.601  0.00  0.00    -0.074 NA
ENDBRANCH  13  15
ENDBRANCH   1  13
TORSDOF 4
ENDMDL
MODEL 5
REMARK VINA RESULT:      -6.2      2.309      2.948
REMARK  4 active torsions:
REMARK  status: ('A' for Active; 'I' for Inactive)
REMARK    1  A    between atoms: N1_1  and  C2_2 
REMARK    2  A    between atoms: C5_5  and  S6_6 
REMARK    3  A    between atoms: S6_6  and  N9_9 
REMARK    4  A    between atoms: N9_9  and  C10_10 
ROOT
ATOM      1  S6  ZIN A   1      19.063   0.793   9.198  0.00  0.00     0.276 S 
ATOM      2  O7  ZIN A   1      19.455   2.123   8.889  0.00  0.00    -0.200 OA
ATOM      3  O8  ZIN A   1      17.839   0.474   9.847  0.00  0.00    -0.200 OA
ENDROOT
BRANCH   1   4
ATOM      4  C5  ZIN A   1      19.063  -0.092   7.674  0.00  0.00     0.080 A 
ATOM      5  C4  ZIN A   1      18.873   0.584   6.483  0.00  0.00     0.027 A 
ATOM      6  C3  ZIN A   1      18.873  -0.108   5.287  0.00  0.00     0.030 A 
ATOM      7  C2  ZIN A   1      19.064  -1.483   5.282  0.00  0.00     0.025 A 
ATOM      8  C17 ZIN A   1      19.250  -2.160   6.481  0.00  0.00     0.030 A 
ATOM      9  C16 ZIN A   1      19.255  -1.462   7.673  0.00  0.00     0.027 A 
BRANCH   7  10
ATOM     10  N1  ZIN A   1      19.065  -2.185   4.074  0.00  0.00    -0.399 N 
ATOM     11  H18 ZIN A   1      19.900  -2.515   3.706  0.00  0.00     0.156 HD
ATOM     12  H19 ZIN A   1      18.231  -2.347   3.607  0.00  0.00     0.156 HD
ENDBRANCH   7  10
ENDBRANCH   1   4
BRANCH   1  13
ATOM     13  N9  ZIN A   1      20.270   0.155  10.136  0.00  0.00    -0.109 N 
ATOM     14  H22 ZIN A   1      21.181   0.133   9.804  0.00  0.00     0.198 HD
BRANCH  13  15
ATOM     15  C10 ZIN A   1      19.977  -0.346  11.393  0.00  0.00     0.735 A 
ATOM     16  N15 ZIN A   1      20.109   0.442  12.449  0.00  0.00    -0.074 NA
ATOM     17  C14 ZIN A   1      19.834  -0.004  13.663  0.00  0.00     0.138 A 
ATOM     18  C13 ZIN A   1      19.414  -1.315  13.823  0.00  0.00     0.040 A 
ATOM     19  C12 ZIN A   1      19.291  -2.113  12.697  0.00  0.00     0.138 A 
ATOM     20  N11 ZIN A   1      19.578  -1.603  11.510  0.00  0.00    -0.074 NA
ENDBRANCH  13  15
ENDBRANCH   1  13
TORSDOF 4
ENDMDL
MODEL 6
REMARK VINA RESULT:      -6.2      3.470      4.004
REMARK  4 active torsions:
REMARK  status: ('A' for Active; 'I' for Inactive)
REMARK    1  A    between atoms: N1_1  and  C2_2 
REMARK    2  A    between atoms: C5_5  and  S6_6 
REMARK    3  A    between atoms: S6_6  and  N9_9 
REMARK    4  A    between atoms: N9_9  and  C10_10 
ROOT
ATOM      1  S6  ZIN A   1      18.284   1.815  10.502  0.00  0.00     0.276 S 
ATOM      2  O7  ZIN A   1      17.082   1.394  11.132  0.00  0.00    -0.200 OA
ATOM      3  O8  ZIN A   1      19.576   1.523  11.017  0.00  0.00    -0.200 OA
ENDROOT
BRANCH   1   4
ATOM      4  C5  ZIN A   1      18.242   1.163   8.865  0.00  0.00     0.080 A 
ATOM      5  C4  ZIN A   1      17.403   0.105   8.565  0.00  0.00     0.027 A 
ATOM      6  C3  ZIN A   1      17.368  -0.408   7.283  0.00  0.00     0.030 A 
ATOM      7  C2  ZIN A   1      18.176   0.140   6.295  0.00  0.00     0.025 A 
ATOM      8  C17 ZIN A   1      19.021   1.200   6.601  0.00  0.00     0.030 A 
ATOM      9  C16 ZIN A   1      19.047   1.712   7.883  0.00  0.00     0.027 A 
BRANCH   7  10
ATOM     10  N1  ZIN A   1      18.143  -0.377   4.997  0.00  0.00    -0.399 N 
ATOM     11  H18 ZIN A   1      18.793  -0.080   4.341  0.00  0.00     0.156 HD
ATOM     12  H19 ZIN A   1      17.474  -1.036   4.755  0.00  0.00     0.156 HD
ENDBRANCH   7  10
ENDBRANCH   1   4
BRANCH   1  13
ATOM     13  N9  ZIN A   1      18.192   3.464  10.375  0.00  0.00    -0.109 N 
ATOM     14  H22 ZIN A   1      18.384   3.896   9.528  0.00  0.00     0.198 HD
BRANCH  13  15
ATOM     15  C10 ZIN A   1      17.843   4.224  11.478  0.00  0.00     0.735 A 
ATOM     16  N15 ZIN A   1      16.614   4.712  11.563  0.00  0.00    -0.074 NA
ATOM     17  C14 ZIN A   1      16.247   5.439  12.605  0.00  0.00     0.138 A 
ATOM     18  C13 ZIN A   1      17.167   5.696  13.609  0.00  0.00     0.040 A 
ATOM     19  C12 ZIN A   1      18.446   5.174  13.485  0.00  0.00     0.138 A 
ATOM     20  N11 ZIN A   1      18.747   4.451  12.419  0.00  0.00    -0.074 NA
ENDBRANCH  13  15
ENDBRANCH   1  13
TORSDOF 4
ENDMDL
MODEL 7
REMARK VINA RESULT:      -6.2      2.727      5.964
REMARK  4 active torsions:
REMARK  status: ('A' for Active; 'I' for Inactive)
REMARK    1  A    between atoms: N1_1  and  C2_2 
REMARK    2  A    between atoms: C5_5  and  S6_6 
REMARK    3  A    between atoms: S6_6  and  N9_9 
REMARK    4  A    between atoms: N9_9  and  C10_10 
ROOT
ATOM      1  S6  ZIN A   1      17.279  -0.589  11.700  0.00  0.00     0.276 S 
ATOM      2  O7  ZIN A   1      17.490  -1.931  11.285  0.00  0.00    -0.200 OA
ATOM      3  O8  ZIN A   1      16.008   0.046  11.662  0.00  0.00    -0.200 OA
ENDROOT
BRANCH   1   4
ATOM      4  C5  ZIN A   1      17.833  -0.492  13.370  0.00  0.00     0.080 A 
ATOM      5  C4  ZIN A   1      18.724  -1.432  13.858  0.00  0.00     0.027 A 
ATOM      6  C3  ZIN A   1      19.160  -1.358  15.166  0.00  0.00     0.030 A 
ATOM      7  C2  ZIN A   1      18.704  -0.340  15.992  0.00  0.00     0.025 A 
ATOM      8  C17 ZIN A   1      17.805   0.600  15.501  0.00  0.00     0.030 A 
ATOM      9  C16 ZIN A   1      17.377   0.524  14.190  0.00  0.00     0.027 A 
BRANCH   7  10
ATOM     10  N1  ZIN A   1      19.143  -0.262  17.316  0.00  0.00    -0.399 N 
ATOM     11  H18 ZIN A   1      20.087  -0.148  17.508  0.00  0.00     0.156 HD
ATOM     12  H19 ZIN A   1      18.504  -0.317  18.043  0.00  0.00     0.156 HD
ENDBRANCH   7  10
ENDBRANCH   1   4
BRANCH   1  13
ATOM     13  N9  ZIN A   1      18.298   0.347  10.790  0.00  0.00    -0.109 N 
ATOM     14  H22 ZIN A   1      18.817  -0.054  10.076  0.00  0.00     0.198 HD
BRANCH  13  15
ATOM     15  C10 ZIN A   1      18.409   1.702  11.051  0.00  0.00     0.735 A 
ATOM     16  N15 ZIN A   1      19.509   2.162  11.627  0.00  0.00    -0.074 NA
ATOM     17  C14 ZIN A   1      19.649   3.451  11.886  0.00  0.00     0.138 A 
ATOM     18  C13 ZIN A   1      18.623   4.322  11.556  0.00  0.00     0.040 A 
ATOM     19  C12 ZIN A   1      17.483   3.807  10.958  0.00  0.00     0.138 A 
ATOM     20  N11 ZIN A   1      17.410   2.507  10.722  0.00  0.00    -0.074 NA
ENDBRANCH  13  15
ENDBRANCH   1  13
TORSDOF 4
ENDMDL
MODEL 8
REMARK VINA RESULT:      -6.1      3.236      3.852
REMARK  4 active torsions:
REMARK  status: ('A' for Active; 'I' for Inactive)
REMARK    1  A    between atoms: N1_1  and  C2_2 
REMARK    2  A    between atoms: C5_5  and  S6_6 
REMARK    3  A    between atoms: S6_6  and  N9_9 
REMARK    4  A    between atoms: N9_9  and  C10_10 
ROOT
ATOM      1  S6  ZIN A   1      19.325   0.334  10.058  0.00  0.00     0.276 S 
ATOM      2  O7  ZIN A   1      18.017   0.304  10.609  0.00  0.00    -0.200 OA
ATOM      3  O8  ZIN A   1      20.384  -0.493  10.522  0.00  0.00    -0.200 OA
ENDROOT
BRANCH   1   4
ATOM      4  C5  ZIN A   1      19.149  -0.005   8.337  0.00  0.00     0.080 A 
ATOM      5  C4  ZIN A   1      18.918   1.031   7.450  0.00  0.00     0.027 A 
ATOM      6  C3  ZIN A   1      18.780   0.769   6.101  0.00  0.00     0.030 A 
ATOM      7  C2  ZIN A   1      18.871  -0.536   5.636  0.00  0.00     0.025 A 
ATOM      8  C17 ZIN A   1      19.098  -1.576   6.531  0.00  0.00     0.030 A 
ATOM      9  C16 ZIN A   1      19.242  -1.306   7.878  0.00  0.00     0.027 A 
BRANCH   7  10
ATOM     10  N1  ZIN A   1      18.731  -0.805   4.272  0.00  0.00    -0.399 N 
ATOM     11  H18 ZIN A   1      19.182  -0.246   3.619  0.00  0.00     0.156 HD
ATOM     12  H19 ZIN A   1      18.189  -1.553   3.979  0.00  0.00     0.156 HD
ENDBRANCH   7  10
ENDBRANCH   1   4
BRANCH   1  13
ATOM     13  N9  ZIN A   1      19.856   1.897  10.197  0.00  0.00    -0.109 N 
ATOM     14  H22 ZIN A   1      20.739   2.139   9.880  0.00  0.00     0.198 HD
BRANCH  13  15
ATOM     15  C10 ZIN A   1      19.037   2.856  10.768  0.00  0.00     0.735 A 
ATOM     16  N15 ZIN A   1      19.111   3.076  12.072  0.00  0.00    -0.074 NA
ATOM     17  C14 ZIN A   1      18.346   3.988  12.648  0.00  0.00     0.138 A 
ATOM     18  C13 ZIN A   1      17.454   4.710  11.873  0.00  0.00     0.040 A 
ATOM     19  C12 ZIN A   1      17.399   4.452  10.512  0.00  0.00     0.138 A 
ATOM     20  N11 ZIN A   1      18.196   3.529   9.997  0.00  0.00    -0.074 NA
ENDBRANCH  13  15
ENDBRANCH   1  13
TORSDOF 4
ENDMDL
MODEL 9
REMARK VINA RESULT:      -6.1      2.915      7.192
REMARK  4 active torsions:
REMARK  status: ('A' for Active; 'I' for Inactive)
REMARK    1  A    between atoms: N1_1  and  C2_2 
REMARK    2  A    between atoms: C5_5  and  S6_6 
REMARK    3  A    between atoms: S6_6  and  N9_9 
REMARK    4  A    between atoms: N9_9  and  C10_10 
ROOT
ATOM      1  S6  ZIN A   1      19.120  -0.045  14.453  0.00  0.00     0.276 S 
ATOM      2  O7  ZIN A   1      19.636  -1.308  14.849  0.00  0.00    -0.200 OA
ATOM      3  O8  ZIN A   1      17.868   0.113  13.800  0.00  0.00    -0.200 OA
ENDROOT
BRANCH   1   4
ATOM      4  C5  ZIN A   1      19.049   0.942  15.911  0.00  0.00     0.080 A 
ATOM      5  C4  ZIN A   1      19.242   2.309  15.830  0.00  0.00     0.027 A 
ATOM      6  C3  ZIN A   1      19.187   3.085  16.971  0.00  0.00     0.030 A 
ATOM      7  C2  ZIN A   1      18.936   2.492  18.201  0.00  0.00     0.025 A 
ATOM      8  C17 ZIN A   1      18.747   1.118  18.280  0.00  0.00     0.030 A 
ATOM      9  C16 ZIN A   1      18.798   0.348  17.135  0.00  0.00     0.027 A 
BRANCH   7  10
ATOM     10  N1  ZIN A   1      18.880   3.275  19.357  0.00  0.00    -0.399 N 
ATOM     11  H18 ZIN A   1      19.651   3.331  19.942  0.00  0.00     0.156 HD
ATOM     12  H19 ZIN A   1      18.071   3.765  19.570  0.00  0.00     0.156 HD
ENDBRANCH   7  10
ENDBRANCH   1   4
BRANCH   1  13
ATOM     13  N9  ZIN A   1      20.257   0.633  13.457  0.00  0.00    -0.109 N 
ATOM     14  H22 ZIN A   1      21.177   0.707  13.752  0.00  0.00     0.198 HD
BRANCH  13  15
ATOM     15  C10 ZIN A   1      19.891   1.095  12.205  0.00  0.00     0.735 A 
ATOM     16  N15 ZIN A   1      19.858   0.246  11.188  0.00  0.00    -0.074 NA
ATOM     17  C14 ZIN A   1      19.509   0.653   9.979  0.00  0.00     0.138 A 
ATOM     18  C13 ZIN A   1      19.186   1.986   9.781  0.00  0.00     0.040 A 
ATOM     19  C12 ZIN A   1      19.235   2.848  10.866  0.00  0.00     0.138 A 
ATOM     20  N11 ZIN A   1      19.587   2.375  12.050  0.00  0.00    -0.074 NA
ENDBRANCH  13  15
ENDBRANCH   1  13
TORSDOF 4
ENDMDL
