MODEL 1
REMARK VINA RESULT:      -8.1      0.000      0.000
REMARK  6 active torsions:
REMARK  status: ('A' for Active; 'I' for Inactive)
REMARK    1  A    between atoms: C5_5  and  C6_6 
REMARK    2  A    between atoms: C6_6  and  O7_7 
REMARK    3  A    between atoms: O7_7  and  N8_8 
REMARK    4  A    between atoms: C9_9  and  C10_10 
REMARK    5  A    between atoms: C9_9  and  C17_17 
REMARK    6  A    between atoms: C10_10  and  N11_11 
ROOT
ATOM      1  N8  ZIN A   1      18.491   2.934  11.556  0.00  0.00    -0.136 NA
ATOM      2  C9  ZIN A   1      19.117   1.917  11.062  0.00  0.00     0.091 C 
ENDROOT
BRANCH   2   3
ATOM      3  C10 ZIN A   1      20.271   1.304  11.815  0.00  0.00     0.191 C 
BRANCH   3   4
ATOM      4  N11 ZIN A   1      20.179  -0.156  11.747  0.00  0.00    -0.346 N 
ATOM      5  C16 ZIN A   1      20.781  -0.956  10.841  0.00  0.00     0.182 A 
ATOM      6  N14 ZIN A   1      20.466  -2.195  11.103  0.00  0.00    -0.361 N 
ATOM      7  C13 ZIN A   1      19.653  -2.230  12.169  0.00  0.00     0.106 A 
ATOM      8  H15 ZIN A   1      20.770  -2.969  10.602  0.00  0.00     0.166 HD
ATOM      9  C12 ZIN A   1      19.461  -0.965  12.587  0.00  0.00     0.109 A 
ENDBRANCH   3   4
ENDBRANCH   2   3
BRANCH   2  10
ATOM     10  C17 ZIN A   1      18.703   1.353   9.763  0.00  0.00     0.014 A 
ATOM     11  C23 ZIN A   1      17.604   0.493   9.691  0.00  0.00     0.048 A 
ATOM     12  C22 ZIN A   1      17.217  -0.025   8.471  0.00  0.00     0.048 A 
ATOM     13 Cl24 ZIN A   1      16.719   0.088  11.127  0.00  0.00    -0.083 Cl
ATOM     14  C20 ZIN A   1      17.923   0.296   7.324  0.00  0.00     0.035 A 
ATOM     15  C19 ZIN A   1      19.016   1.143   7.391  0.00  0.00     0.025 A 
ATOM     16 Cl21 ZIN A   1      17.435  -0.366   5.795  0.00  0.00    -0.084 Cl
ATOM     17  C18 ZIN A   1      19.409   1.673   8.602  0.00  0.00     0.017 A 
ENDBRANCH   2  10
BRANCH   1  18
ATOM     18  O7  ZIN A   1      18.889   3.475  12.803  0.00  0.00    -0.252 OA
BRANCH  18  19
ATOM     19  C6  ZIN A   1      17.858   3.478  13.792  0.00  0.00     0.244 C 
BRANCH  19  20
ATOM     20  C5  ZIN A   1      18.214   2.512  14.893  0.00  0.00    -0.010 A 
ATOM     21  C4  ZIN A   1      17.765   1.206  14.838  0.00  0.00     0.013 A 
ATOM     22  C3  ZIN A   1      18.091   0.321  15.848  0.00  0.00     0.024 A 
ATOM     23  C2  ZIN A   1      18.867   0.742  16.914  0.00  0.00     0.035 A 
ATOM     24 Cl1  ZIN A   1      19.276  -0.372  18.182  0.00  0.00    -0.084 Cl
ATOM     25  C27 ZIN A   1      19.311   2.050  16.972  0.00  0.00     0.048 A 
ATOM     26  C25 ZIN A   1      18.989   2.934  15.958  0.00  0.00     0.044 A 
ATOM     27 Cl26 ZIN A   1      19.553   4.575  16.027  0.00  0.00    -0.084 Cl
ENDBRANCH  19  20
ENDBRANCH  18  19
ENDBRANCH   1  18
TORSDOF 6
ENDMDL
MODEL 2
REMARK VINA RESULT:      -8.1      2.096      7.076
REMARK  6 active torsions:
REMARK  status: ('A' for Active; 'I' for Inactive)
REMARK    1  A    between atoms: C5_5  and  C6_6 
REMARK    2  A    between atoms: C6_6  and  O7_7 
REMARK    3  A    between atoms: O7_7  and  N8_8 
REMARK    4  A    between atoms: C9_9  and  C10_10 
REMARK    5  A    between atoms: C9_9  and  C17_17 
REMARK    6  A    between atoms: C10_10  and  N11_11 
ROOT
ATOM      1  N8  ZIN A   1      17.258  -0.504  12.282  0.00  0.00    -0.136 NA
ATOM      2  C9  ZIN A   1      18.443  -0.530  12.800  0.00  0.00     0.091 C 
ENDROOT
BRANCH   2   3
ATOM      3  C10 ZIN A   1      19.651  -0.687  11.912  0.00  0.00     0.191 C 
BRANCH   3   4
ATOM      4  N11 ZIN A   1      19.674  -2.040  11.352  0.00  0.00    -0.346 N 
ATOM      5  C16 ZIN A   1      19.563  -2.369  10.047  0.00  0.00     0.182 A 
ATOM      6  N14 ZIN A   1      19.629  -3.668   9.936  0.00  0.00    -0.361 N 
ATOM      7  C13 ZIN A   1      19.776  -4.209  11.154  0.00  0.00     0.106 A 
ATOM      8  H15 ZIN A   1      19.578  -4.164   9.103  0.00  0.00     0.166 HD
ATOM      9  C12 ZIN A   1      19.806  -3.208  12.054  0.00  0.00     0.109 A 
ENDBRANCH   3   4
ENDBRANCH   2   3
BRANCH   2  10
ATOM     10  C17 ZIN A   1      18.614  -0.404  14.260  0.00  0.00     0.014 A 
ATOM     11  C23 ZIN A   1      18.826   0.852  14.835  0.00  0.00     0.048 A 
ATOM     12  C22 ZIN A   1      18.979   0.964  16.203  0.00  0.00     0.048 A 
ATOM     13 Cl24 ZIN A   1      18.884   2.269  13.835  0.00  0.00    -0.083 Cl
ATOM     14  C20 ZIN A   1      18.934  -0.166  17.002  0.00  0.00     0.035 A 
ATOM     15  C19 ZIN A   1      18.730  -1.413  16.437  0.00  0.00     0.025 A 
ATOM     16 Cl21 ZIN A   1      19.134  -0.017  18.720  0.00  0.00    -0.084 Cl
ATOM     17  C18 ZIN A   1      18.570  -1.538  15.072  0.00  0.00     0.017 A 
ENDBRANCH   2  10
BRANCH   1  18
ATOM     18  O7  ZIN A   1      17.095  -0.626  10.881  0.00  0.00    -0.252 OA
BRANCH  18  19
ATOM     19  C6  ZIN A   1      16.957   0.624  10.201  0.00  0.00     0.244 C 
BRANCH  19  20
ATOM     20  C5  ZIN A   1      17.591   0.525   8.837  0.00  0.00    -0.010 A 
ATOM     21  C4  ZIN A   1      17.102  -0.377   7.911  0.00  0.00     0.013 A 
ATOM     22  C3  ZIN A   1      17.683  -0.468   6.661  0.00  0.00     0.024 A 
ATOM     23  C2  ZIN A   1      18.755   0.345   6.336  0.00  0.00     0.035 A 
ATOM     24 Cl1  ZIN A   1      19.485   0.230   4.764  0.00  0.00    -0.084 Cl
ATOM     25  C27 ZIN A   1      19.249   1.243   7.264  0.00  0.00     0.048 A 
ATOM     26  C25 ZIN A   1      18.663   1.337   8.513  0.00  0.00     0.044 A 
ATOM     27 Cl26 ZIN A   1      19.277   2.470   9.676  0.00  0.00    -0.084 Cl
ENDBRANCH  19  20
ENDBRANCH  18  19
ENDBRANCH   1  18
TORSDOF 6
ENDMDL
MODEL 3
REMARK VINA RESULT:      -8.1      1.524      1.965
REMARK  6 active torsions:
REMARK  status: ('A' for Active; 'I' for Inactive)
REMARK    1  A    between atoms: C5_5  and  C6_6 
REMARK    2  A    between atoms: C6_6  and  O7_7 
REMARK    3  A    between atoms: O7_7  and  N8_8 
REMARK    4  A    between atoms: C9_9  and  C10_10 
REMARK    5  A    between atoms: C9_9  and  C17_17 
REMARK    6  A    between atoms: C10_10  and  N11_11 
ROOT
ATOM      1  N8  ZIN A   1      17.337   1.596  10.928  0.00  0.00    -0.136 NA
ATOM      2  C9  ZIN A   1      17.461   0.460  10.322  0.00  0.00     0.091 C 
ENDROOT
BRANCH   2   3
ATOM      3  C10 ZIN A   1      17.250  -0.826  11.081  0.00  0.00     0.191 C 
BRANCH   3   4
ATOM      4  N11 ZIN A   1      18.525  -1.535  11.206  0.00  0.00    -0.346 N 
ATOM      5  C16 ZIN A   1      19.750  -0.973  11.285  0.00  0.00     0.182 A 
ATOM      6  N14 ZIN A   1      20.640  -1.922  11.390  0.00  0.00    -0.361 N 
ATOM      7  C13 ZIN A   1      20.022  -3.112  11.373  0.00  0.00     0.106 A 
ATOM      8  H15 ZIN A   1      21.598  -1.787  11.464  0.00  0.00     0.166 HD
ATOM      9  C12 ZIN A   1      18.698  -2.892  11.258  0.00  0.00     0.109 A 
ENDBRANCH   3   4
ENDBRANCH   2   3
BRANCH   2  10
ATOM     10  C17 ZIN A   1      17.807   0.421   8.888  0.00  0.00     0.014 A 
ATOM     11  C23 ZIN A   1      18.752   1.311   8.371  0.00  0.00     0.048 A 
ATOM     12  C22 ZIN A   1      19.076   1.265   7.030  0.00  0.00     0.048 A 
ATOM     13 Cl24 ZIN A   1      19.526   2.463   9.413  0.00  0.00    -0.083 Cl
ATOM     14  C20 ZIN A   1      18.458   0.347   6.197  0.00  0.00     0.035 A 
ATOM     15  C19 ZIN A   1      17.517  -0.533   6.703  0.00  0.00     0.025 A 
ATOM     16 Cl21 ZIN A   1      18.866   0.300   4.509  0.00  0.00    -0.084 Cl
ATOM     17  C18 ZIN A   1      17.189  -0.502   8.043  0.00  0.00     0.017 A 
ENDBRANCH   2  10
BRANCH   1  18
ATOM     18  O7  ZIN A   1      17.005   1.633  12.304  0.00  0.00    -0.252 OA
BRANCH  18  19
ATOM     19  C6  ZIN A   1      17.856   2.475  13.085  0.00  0.00     0.244 C 
BRANCH  19  20
ATOM     20  C5  ZIN A   1      18.187   1.788  14.384  0.00  0.00    -0.010 A 
ATOM     21  C4  ZIN A   1      17.860   0.457  14.566  0.00  0.00     0.013 A 
ATOM     22  C3  ZIN A   1      18.163  -0.173  15.758  0.00  0.00     0.024 A 
ATOM     23  C2  ZIN A   1      18.794   0.529  16.770  0.00  0.00     0.035 A 
ATOM     24 Cl1  ZIN A   1      19.176  -0.264  18.267  0.00  0.00    -0.084 Cl
ATOM     25  C27 ZIN A   1      19.116   1.862  16.591  0.00  0.00     0.048 A 
ATOM     26  C25 ZIN A   1      18.817   2.490  15.396  0.00  0.00     0.044 A 
ATOM     27 Cl26 ZIN A   1      19.227   4.162  15.169  0.00  0.00    -0.084 Cl
ENDBRANCH  19  20
ENDBRANCH  18  19
ENDBRANCH   1  18
TORSDOF 6
ENDMDL
MODEL 4
REMARK VINA RESULT:      -8.0      2.327      3.112
REMARK  6 active torsions:
REMARK  status: ('A' for Active; 'I' for Inactive)
REMARK    1  A    between atoms: C5_5  and  C6_6 
REMARK    2  A    between atoms: C6_6  and  O7_7 
REMARK    3  A    between atoms: O7_7  and  N8_8 
REMARK    4  A    between atoms: C9_9  and  C10_10 
REMARK    5  A    between atoms: C9_9  and  C17_17 
REMARK    6  A    between atoms: C10_10  and  N11_11 
ROOT
ATOM      1  N8  ZIN A   1      20.574  -0.359  10.321  0.00  0.00    -0.136 NA
ATOM      2  C9  ZIN A   1      19.474  -0.769   9.778  0.00  0.00     0.091 C 
ENDROOT
BRANCH   2   3
ATOM      3  C10 ZIN A   1      18.423  -1.445  10.622  0.00  0.00     0.191 C 
BRANCH   3   4
ATOM      4  N11 ZIN A   1      18.562  -2.898  10.505  0.00  0.00    -0.346 N 
ATOM      5  C16 ZIN A   1      19.613  -3.638  10.920  0.00  0.00     0.182 A 
ATOM      6  N14 ZIN A   1      19.374  -4.892  10.648  0.00  0.00    -0.361 N 
ATOM      7  C13 ZIN A   1      18.179  -4.996  10.048  0.00  0.00     0.106 A 
ATOM      8  H15 ZIN A   1      19.970  -5.633  10.845  0.00  0.00     0.166 HD
ATOM      9  C12 ZIN A   1      17.655  -3.759   9.949  0.00  0.00     0.109 A 
ENDBRANCH   3   4
ENDBRANCH   2   3
BRANCH   2  10
ATOM     10  C17 ZIN A   1      19.246  -0.575   8.333  0.00  0.00     0.014 A 
ATOM     11  C23 ZIN A   1      18.911   0.690   7.841  0.00  0.00     0.048 A 
ATOM     12  C22 ZIN A   1      18.705   0.866   6.487  0.00  0.00     0.048 A 
ATOM     13 Cl24 ZIN A   1      18.768   2.037   8.925  0.00  0.00    -0.083 Cl
ATOM     14  C20 ZIN A   1      18.818  -0.208   5.621  0.00  0.00     0.035 A 
ATOM     15  C19 ZIN A   1      19.144  -1.464   6.105  0.00  0.00     0.025 A 
ATOM     16 Cl21 ZIN A   1      18.550   0.020   3.921  0.00  0.00    -0.084 Cl
ATOM     17  C18 ZIN A   1      19.358  -1.653   7.455  0.00  0.00     0.017 A 
ENDBRANCH   2  10
BRANCH   1  18
ATOM     18  O7  ZIN A   1      20.792  -0.546  11.708  0.00  0.00    -0.252 OA
BRANCH  18  19
ATOM     19  C6  ZIN A   1      20.600   0.634  12.491  0.00  0.00     0.244 C 
BRANCH  19  20
ATOM     20  C5  ZIN A   1      19.637   0.341  13.613  0.00  0.00    -0.010 A 
ATOM     21  C4  ZIN A   1      19.575  -0.929  14.157  0.00  0.00     0.013 A 
ATOM     22  C3  ZIN A   1      18.691  -1.198  15.184  0.00  0.00     0.024 A 
ATOM     23  C2  ZIN A   1      17.868  -0.197  15.669  0.00  0.00     0.035 A 
ATOM     24 Cl1  ZIN A   1      16.758  -0.537  16.960  0.00  0.00    -0.084 Cl
ATOM     25  C27 ZIN A   1      17.925   1.071  15.121  0.00  0.00     0.048 A 
ATOM     26  C25 ZIN A   1      18.813   1.342  14.096  0.00  0.00     0.044 A 
ATOM     27 Cl26 ZIN A   1      18.890   2.936  13.412  0.00  0.00    -0.084 Cl
ENDBRANCH  19  20
ENDBRANCH  18  19
ENDBRANCH   1  18
TORSDOF 6
ENDMDL
MODEL 5
REMARK VINA RESULT:      -7.9      2.101      3.757
REMARK  6 active torsions:
REMARK  status: ('A' for Active; 'I' for Inactive)
REMARK    1  A    between atoms: C5_5  and  C6_6 
REMARK    2  A    between atoms: C6_6  and  O7_7 
REMARK    3  A    between atoms: O7_7  and  N8_8 
REMARK    4  A    between atoms: C9_9  and  C10_10 
REMARK    5  A    between atoms: C9_9  and  C17_17 
REMARK    6  A    between atoms: C10_10  and  N11_11 
ROOT
ATOM      1  N8  ZIN A   1      20.046   1.128  10.552  0.00  0.00    -0.136 NA
ATOM      2  C9  ZIN A   1      18.871   1.084  10.015  0.00  0.00     0.091 C 
ENDROOT
BRANCH   2   3
ATOM      3  C10 ZIN A   1      17.658   1.468  10.825  0.00  0.00     0.191 C 
BRANCH   3   4
ATOM      4  N11 ZIN A   1      17.656   2.915  11.048  0.00  0.00    -0.346 N 
ATOM      5  C16 ZIN A   1      17.817   3.871  10.107  0.00  0.00     0.182 A 
ATOM      6  N14 ZIN A   1      17.755   5.040  10.683  0.00  0.00    -0.361 N 
ATOM      7  C13 ZIN A   1      17.562   4.875  12.000  0.00  0.00     0.106 A 
ATOM      8  H15 ZIN A   1      17.839   5.894  10.231  0.00  0.00     0.166 HD
ATOM      9  C12 ZIN A   1      17.497   3.553  12.249  0.00  0.00     0.109 A 
ENDBRANCH   3   4
ENDBRANCH   2   3
BRANCH   2  10
ATOM     10  C17 ZIN A   1      18.715   0.662   8.610  0.00  0.00     0.014 A 
ATOM     11  C23 ZIN A   1      18.279  -0.632   8.311  0.00  0.00     0.048 A 
ATOM     12  C22 ZIN A   1      18.129  -1.019   6.995  0.00  0.00     0.048 A 
ATOM     13 Cl24 ZIN A   1      17.914  -1.745   9.592  0.00  0.00    -0.083 Cl
ATOM     14  C20 ZIN A   1      18.421  -0.132   5.972  0.00  0.00     0.035 A 
ATOM     15  C19 ZIN A   1      18.859   1.149   6.263  0.00  0.00     0.025 A 
ATOM     16 Cl21 ZIN A   1      18.238  -0.629   4.318  0.00  0.00    -0.084 Cl
ATOM     17  C18 ZIN A   1      19.007   1.550   7.574  0.00  0.00     0.017 A 
ENDBRANCH   2  10
BRANCH   1  18
ATOM     18  O7  ZIN A   1      20.195   1.533  11.901  0.00  0.00    -0.252 OA
BRANCH  18  19
ATOM     19  C6  ZIN A   1      20.655   0.497  12.772  0.00  0.00     0.244 C 
BRANCH  19  20
ATOM     20  C5  ZIN A   1      19.637   0.266  13.858  0.00  0.00    -0.010 A 
ATOM     21  C4  ZIN A   1      19.326   1.283  14.742  0.00  0.00     0.013 A 
ATOM     22  C3  ZIN A   1      18.393   1.071  15.739  0.00  0.00     0.024 A 
ATOM     23  C2  ZIN A   1      17.770  -0.159  15.854  0.00  0.00     0.035 A 
ATOM     24 Cl1  ZIN A   1      16.597  -0.424  17.106  0.00  0.00    -0.084 Cl
ATOM     25  C27 ZIN A   1      18.085  -1.179  14.974  0.00  0.00     0.048 A 
ATOM     26  C25 ZIN A   1      19.015  -0.964  13.973  0.00  0.00     0.044 A 
ATOM     27 Cl26 ZIN A   1      19.406  -2.242  12.864  0.00  0.00    -0.084 Cl
ENDBRANCH  19  20
ENDBRANCH  18  19
ENDBRANCH   1  18
TORSDOF 6
ENDMDL
MODEL 6
REMARK VINA RESULT:      -7.8      3.034      4.739
REMARK  6 active torsions:
REMARK  status: ('A' for Active; 'I' for Inactive)
REMARK    1  A    between atoms: C5_5  and  C6_6 
REMARK    2  A    between atoms: C6_6  and  O7_7 
REMARK    3  A    between atoms: O7_7  and  N8_8 
REMARK    4  A    between atoms: C9_9  and  C10_10 
REMARK    5  A    between atoms: C9_9  and  C17_17 
REMARK    6  A    between atoms: C10_10  and  N11_11 
ROOT
ATOM      1  N8  ZIN A   1      19.663   0.776  11.562  0.00  0.00    -0.136 NA
ATOM      2  C9  ZIN A   1      19.642  -0.173  12.440  0.00  0.00     0.091 C 
ENDROOT
BRANCH   2   3
ATOM      3  C10 ZIN A   1      20.136   0.084  13.841  0.00  0.00     0.191 C 
BRANCH   3   4
ATOM      4  N11 ZIN A   1      19.079  -0.243  14.800  0.00  0.00    -0.346 N 
ATOM      5  C16 ZIN A   1      19.022  -1.342  15.584  0.00  0.00     0.182 A 
ATOM      6  N14 ZIN A   1      17.936  -1.284  16.305  0.00  0.00    -0.361 N 
ATOM      7  C13 ZIN A   1      17.264  -0.162  16.006  0.00  0.00     0.106 A 
ATOM      8  H15 ZIN A   1      17.657  -1.949  16.954  0.00  0.00     0.166 HD
ATOM      9  C12 ZIN A   1      17.963   0.503  15.066  0.00  0.00     0.109 A 
ENDBRANCH   3   4
ENDBRANCH   2   3
BRANCH   2  10
ATOM     10  C17 ZIN A   1      19.133  -1.508  12.072  0.00  0.00     0.014 A 
ATOM     11  C23 ZIN A   1      17.778  -1.687  11.783  0.00  0.00     0.048 A 
ATOM     12  C22 ZIN A   1      17.309  -2.937  11.433  0.00  0.00     0.048 A 
ATOM     13 Cl24 ZIN A   1      16.688  -0.338  11.851  0.00  0.00    -0.083 Cl
ATOM     14  C20 ZIN A   1      18.177  -4.014  11.380  0.00  0.00     0.035 A 
ATOM     15  C19 ZIN A   1      19.520  -3.845  11.671  0.00  0.00     0.025 A 
ATOM     16 Cl21 ZIN A   1      17.578  -5.586  10.947  0.00  0.00    -0.084 Cl
ATOM     17  C18 ZIN A   1      20.002  -2.599  12.016  0.00  0.00     0.017 A 
ENDBRANCH   2  10
BRANCH   1  18
ATOM     18  O7  ZIN A   1      20.152   2.058  11.916  0.00  0.00    -0.252 OA
BRANCH  18  19
ATOM     19  C6  ZIN A   1      19.544   3.131  11.194  0.00  0.00     0.244 C 
BRANCH  19  20
ATOM     20  C5  ZIN A   1      18.565   3.846  12.089  0.00  0.00    -0.010 A 
ATOM     21  C4  ZIN A   1      18.615   3.659  13.458  0.00  0.00     0.013 A 
ATOM     22  C3  ZIN A   1      17.716   4.313  14.279  0.00  0.00     0.024 A 
ATOM     23  C2  ZIN A   1      16.766   5.158  13.730  0.00  0.00     0.035 A 
ATOM     24 Cl1  ZIN A   1      15.639   5.981  14.762  0.00  0.00    -0.084 Cl
ATOM     25  C27 ZIN A   1      16.713   5.341  12.360  0.00  0.00     0.048 A 
ATOM     26  C25 ZIN A   1      17.616   4.689  11.540  0.00  0.00     0.044 A 
ATOM     27 Cl26 ZIN A   1      17.553   4.925   9.821  0.00  0.00    -0.084 Cl
ENDBRANCH  19  20
ENDBRANCH  18  19
ENDBRANCH   1  18
TORSDOF 6
ENDMDL
MODEL 7
REMARK VINA RESULT:      -7.7      2.326      3.370
REMARK  6 active torsions:
REMARK  status: ('A' for Active; 'I' for Inactive)
REMARK    1  A    between atoms: C5_5  and  C6_6 
REMARK    2  A    between atoms: C6_6  and  O7_7 
REMARK    3  A    between atoms: O7_7  and  N8_8 
REMARK    4  A    between atoms: C9_9  and  C10_10 
REMARK    5  A    between atoms: C9_9  and  C17_17 
REMARK    6  A    between atoms: C10_10  and  N11_11 
ROOT
ATOM      1  N8  ZIN A   1      17.279   3.036  11.193  0.00  0.00    -0.136 NA
ATOM      2  C9  ZIN A   1      18.348   2.448  10.763  0.00  0.00     0.091 C 
ENDROOT
BRANCH   2   3
ATOM      3  C10 ZIN A   1      19.629   2.543  11.553  0.00  0.00     0.191 C 
BRANCH   3   4
ATOM      4  N11 ZIN A   1      19.771   1.358  12.400  0.00  0.00    -0.346 N 
ATOM      5  C16 ZIN A   1      20.418   0.217  12.080  0.00  0.00     0.182 A 
ATOM      6  N14 ZIN A   1      20.332  -0.610  13.087  0.00  0.00    -0.361 N 
ATOM      7  C13 ZIN A   1      19.628  -0.034  14.073  0.00  0.00     0.106 A 
ATOM      8  H15 ZIN A   1      20.715  -1.501  13.115  0.00  0.00     0.166 HD
ATOM      9  C12 ZIN A   1      19.268   1.197  13.663  0.00  0.00     0.109 A 
ENDBRANCH   3   4
ENDBRANCH   2   3
BRANCH   2  10
ATOM     10  C17 ZIN A   1      18.314   1.682   9.503  0.00  0.00     0.014 A 
ATOM     11  C23 ZIN A   1      17.594   0.486   9.429  0.00  0.00     0.048 A 
ATOM     12  C22 ZIN A   1      17.561  -0.223   8.245  0.00  0.00     0.048 A 
ATOM     13 Cl24 ZIN A   1      16.732  -0.099  10.817  0.00  0.00    -0.083 Cl
ATOM     14  C20 ZIN A   1      18.249   0.242   7.137  0.00  0.00     0.035 A 
ATOM     15  C19 ZIN A   1      18.970   1.423   7.207  0.00  0.00     0.025 A 
ATOM     16 Cl21 ZIN A   1      18.209  -0.659   5.653  0.00  0.00    -0.084 Cl
ATOM     17  C18 ZIN A   1      19.005   2.144   8.382  0.00  0.00     0.017 A 
ENDBRANCH   2  10
BRANCH   1  18
ATOM     18  O7  ZIN A   1      17.312   3.772  12.402  0.00  0.00    -0.252 OA
BRANCH  18  19
ATOM     19  C6  ZIN A   1      17.220   5.187  12.224  0.00  0.00     0.244 C 
BRANCH  19  20
ATOM     20  C5  ZIN A   1      17.194   5.862  13.572  0.00  0.00    -0.010 A 
ATOM     21  C4  ZIN A   1      15.996   6.298  14.104  0.00  0.00     0.013 A 
ATOM     22  C3  ZIN A   1      15.972   6.918  15.339  0.00  0.00     0.024 A 
ATOM     23  C2  ZIN A   1      17.150   7.102  16.043  0.00  0.00     0.035 A 
ATOM     24 Cl1  ZIN A   1      17.119   7.879  17.595  0.00  0.00    -0.084 Cl
ATOM     25  C27 ZIN A   1      18.350   6.671  15.508  0.00  0.00     0.048 A 
ATOM     26  C25 ZIN A   1      18.372   6.047  14.274  0.00  0.00     0.044 A 
ATOM     27 Cl26 ZIN A   1      19.878   5.500  13.605  0.00  0.00    -0.084 Cl
ENDBRANCH  19  20
ENDBRANCH  18  19
ENDBRANCH   1  18
TORSDOF 6
ENDMDL
MODEL 8
REMARK VINA RESULT:      -7.7      2.348      7.842
REMARK  6 active torsions:
REMARK  status: ('A' for Active; 'I' for Inactive)
REMARK    1  A    between atoms: C5_5  and  C6_6 
REMARK    2  A    between atoms: C6_6  and  O7_7 
REMARK    3  A    between atoms: O7_7  and  N8_8 
REMARK    4  A    between atoms: C9_9  and  C10_10 
REMARK    5  A    between atoms: C9_9  and  C17_17 
REMARK    6  A    between atoms: C10_10  and  N11_11 
ROOT
ATOM      1  N8  ZIN A   1      18.907  -2.045  11.371  0.00  0.00    -0.136 NA
ATOM      2  C9  ZIN A   1      19.410  -1.078  12.066  0.00  0.00     0.091 C 
ENDROOT
BRANCH   2   3
ATOM      3  C10 ZIN A   1      20.503  -0.219  11.482  0.00  0.00     0.191 C 
BRANCH   3   4
ATOM      4  N11 ZIN A   1      19.946   1.077  11.085  0.00  0.00    -0.346 N 
ATOM      5  C16 ZIN A   1      20.004   2.224  11.795  0.00  0.00     0.182 A 
ATOM      6  N14 ZIN A   1      19.401   3.164  11.119  0.00  0.00    -0.361 N 
ATOM      7  C13 ZIN A   1      18.936   2.654   9.969  0.00  0.00     0.106 A 
ATOM      8  H15 ZIN A   1      19.303   4.086  11.405  0.00  0.00     0.166 HD
ATOM      9  C12 ZIN A   1      19.267   1.349   9.929  0.00  0.00     0.109 A 
ENDBRANCH   3   4
ENDBRANCH   2   3
BRANCH   2  10
ATOM     10  C17 ZIN A   1      18.915  -0.814  13.431  0.00  0.00     0.014 A 
ATOM     11  C23 ZIN A   1      17.731  -0.095  13.620  0.00  0.00     0.048 A 
ATOM     12  C22 ZIN A   1      17.270   0.143  14.899  0.00  0.00     0.048 A 
ATOM     13 Cl24 ZIN A   1      16.836   0.484  12.251  0.00  0.00    -0.083 Cl
ATOM     14  C20 ZIN A   1      17.984  -0.317  15.992  0.00  0.00     0.035 A 
ATOM     15  C19 ZIN A   1      19.160  -1.025  15.811  0.00  0.00     0.025 A 
ATOM     16 Cl21 ZIN A   1      17.400  -0.007  17.598  0.00  0.00    -0.084 Cl
ATOM     17  C18 ZIN A   1      19.629  -1.275  14.538  0.00  0.00     0.017 A 
ENDBRANCH   2  10
BRANCH   1  18
ATOM     18  O7  ZIN A   1      19.383  -2.299  10.061  0.00  0.00    -0.252 OA
BRANCH  18  19
ATOM     19  C6  ZIN A   1      18.395  -2.832   9.177  0.00  0.00     0.244 C 
BRANCH  19  20
ATOM     20  C5  ZIN A   1      18.425  -2.073   7.875  0.00  0.00    -0.010 A 
ATOM     21  C4  ZIN A   1      17.727  -0.887   7.751  0.00  0.00     0.013 A 
ATOM     22  C3  ZIN A   1      17.752  -0.191   6.557  0.00  0.00     0.024 A 
ATOM     23  C2  ZIN A   1      18.477  -0.683   5.485  0.00  0.00     0.035 A 
ATOM     24 Cl1  ZIN A   1      18.509   0.193   3.986  0.00  0.00    -0.084 Cl
ATOM     25  C27 ZIN A   1      19.170  -1.873   5.607  0.00  0.00     0.048 A 
ATOM     26  C25 ZIN A   1      19.148  -2.566   6.804  0.00  0.00     0.044 A 
ATOM     27 Cl26 ZIN A   1      20.024  -4.057   6.959  0.00  0.00    -0.084 Cl
ENDBRANCH  19  20
ENDBRANCH  18  19
ENDBRANCH   1  18
TORSDOF 6
ENDMDL
MODEL 9
REMARK VINA RESULT:      -7.4      2.666      3.861
REMARK  6 active torsions:
REMARK  status: ('A' for Active; 'I' for Inactive)
REMARK    1  A    between atoms: C5_5  and  C6_6 
REMARK    2  A    between atoms: C6_6  and  O7_7 
REMARK    3  A    between atoms: O7_7  and  N8_8 
REMARK    4  A    between atoms: C9_9  and  C10_10 
REMARK    5  A    between atoms: C9_9  and  C17_17 
REMARK    6  A    between atoms: C10_10  and  N11_11 
ROOT
ATOM      1  N8  ZIN A   1      17.536   1.624  10.023  0.00  0.00    -0.136 NA
ATOM      2  C9  ZIN A   1      17.679   0.378  10.340  0.00  0.00     0.091 C 
ENDROOT
BRANCH   2   3
ATOM      3  C10 ZIN A   1      17.347  -0.088  11.734  0.00  0.00     0.191 C 
BRANCH   3   4
ATOM      4  N11 ZIN A   1      18.462   0.221  12.632  0.00  0.00    -0.346 N 
ATOM      5  C16 ZIN A   1      19.757  -0.113  12.445  0.00  0.00     0.182 A 
ATOM      6  N14 ZIN A   1      20.454   0.336  13.454  0.00  0.00    -0.361 N 
ATOM      7  C13 ZIN A   1      19.636   0.959  14.315  0.00  0.00     0.106 A 
ATOM      8  H15 ZIN A   1      21.412   0.231  13.564  0.00  0.00     0.166 HD
ATOM      9  C12 ZIN A   1      18.385   0.898  13.819  0.00  0.00     0.109 A 
ENDBRANCH   3   4
ENDBRANCH   2   3
BRANCH   2  10
ATOM     10  C17 ZIN A   1      18.165  -0.588   9.336  0.00  0.00     0.014 A 
ATOM     11  C23 ZIN A   1      18.895  -0.143   8.230  0.00  0.00     0.048 A 
ATOM     12  C22 ZIN A   1      19.352  -1.053   7.298  0.00  0.00     0.048 A 
ATOM     13 Cl24 ZIN A   1      19.238   1.547   8.036  0.00  0.00    -0.083 Cl
ATOM     14  C20 ZIN A   1      19.078  -2.402   7.451  0.00  0.00     0.035 A 
ATOM     15  C19 ZIN A   1      18.350  -2.847   8.541  0.00  0.00     0.025 A 
ATOM     16 Cl21 ZIN A   1      19.650  -3.539   6.270  0.00  0.00    -0.084 Cl
ATOM     17  C18 ZIN A   1      17.892  -1.949   9.483  0.00  0.00     0.017 A 
ENDBRANCH   2  10
BRANCH   1  18
ATOM     18  O7  ZIN A   1      17.071   2.551  10.987  0.00  0.00    -0.252 OA
BRANCH  18  19
ATOM     19  C6  ZIN A   1      17.419   3.908  10.705  0.00  0.00     0.244 C 
BRANCH  19  20
ATOM     20  C5  ZIN A   1      17.807   4.603  11.984  0.00  0.00    -0.010 A 
ATOM     21  C4  ZIN A   1      16.890   5.399  12.644  0.00  0.00     0.013 A 
ATOM     22  C3  ZIN A   1      17.246   6.038  13.817  0.00  0.00     0.024 A 
ATOM     23  C2  ZIN A   1      18.521   5.881  14.330  0.00  0.00     0.035 A 
ATOM     24 Cl1  ZIN A   1      18.968   6.683  15.804  0.00  0.00    -0.084 Cl
ATOM     25  C27 ZIN A   1      19.441   5.089  13.667  0.00  0.00     0.048 A 
ATOM     26  C25 ZIN A   1      19.083   4.446  12.496  0.00  0.00     0.044 A 
ATOM     27 Cl26 ZIN A   1      20.235   3.447  11.667  0.00  0.00    -0.084 Cl
ENDBRANCH  19  20
ENDBRANCH  18  19
ENDBRANCH   1  18
TORSDOF 6
ENDMDL
