MODEL 1
REMARK VINA RESULT:      -9.5      0.000      0.000
REMARK  10 active torsions:
REMARK  status: ('A' for Active; 'I' for Inactive)
REMARK    1  A    between atoms: O2_2  and  C3_3 
REMARK    2  A    between atoms: C3_3  and  C5_5 
REMARK    3  A    between atoms: C7_6  and  O9_7 
REMARK    4  A    between atoms: C11_9  and  O13_10 
REMARK    5  A    between atoms: O13_10  and  C14_11 
REMARK    6  A    between atoms: C14_11  and  C16_13 
REMARK    7  A    between atoms: C18_15  and  O19_16 
REMARK    8  A    between atoms: C21_18  and  O22_19 
REMARK    9  A    between atoms: C24_21  and  O25_22 
REMARK   10  A    between atoms: C41_37  and  O42_38 
ROOT
ATOM      1  C5  ZIN A   1      19.354  -0.956  13.476  0.00  0.00     0.121 C 
ATOM      2  C7  ZIN A   1      18.672  -0.589  14.796  0.00  0.00     0.164 C 
ATOM      3  C11 ZIN A   1      19.157   0.788  15.254  0.00  0.00     0.162 C 
ATOM      4  C28 ZIN A   1      18.800   1.830  14.193  0.00  0.00     0.042 C 
ATOM      5  C29 ZIN A   1      19.481   1.470  12.871  0.00  0.00     0.019 C 
ATOM      6  C31 ZIN A   1      19.093   2.498  11.806  0.00  0.00     0.240 C 
ATOM      7  N32 ZIN A   1      17.633   2.532  11.645  0.00  0.00    -0.061 N 
ATOM      8  H33 ZIN A   1      17.200   2.787  12.520  0.00  0.00     0.280 HD
ATOM      9  C34 ZIN A   1      17.308   3.540  10.618  0.00  0.00     0.240 C 
ATOM     10  C35 ZIN A   1      18.245   3.349   9.417  0.00  0.00     0.069 C 
ATOM     11  C36 ZIN A   1      18.239   1.889   9.043  0.00  0.00    -0.019 A 
ATOM     12  C37 ZIN A   1      17.738   0.920   9.847  0.00  0.00     0.048 A 
ATOM     13  N38 ZIN A   1      17.872  -0.299   9.241  0.00  0.00    -0.357 N 
ATOM     14  C39 ZIN A   1      18.469  -0.146   8.022  0.00  0.00     0.046 A 
ATOM     15  C40 ZIN A   1      18.822  -1.062   7.035  0.00  0.00     0.067 A 
ATOM     16  C41 ZIN A   1      19.425  -0.555   5.891  0.00  0.00     0.070 A 
ATOM     17  C44 ZIN A   1      19.672   0.801   5.726  0.00  0.00     0.038 A 
ATOM     18  C45 ZIN A   1      19.334   1.725   6.684  0.00  0.00     0.017 A 
ATOM     19  C46 ZIN A   1      18.724   1.241   7.846  0.00  0.00    -0.001 A 
ATOM     20  C47 ZIN A   1      17.140   1.216  11.215  0.00  0.00     0.238 C 
ATOM     21  C49 ZIN A   1      17.508   0.127  12.214  0.00  0.00     0.045 C 
ATOM     22  C50 ZIN A   1      19.008   0.087  12.413  0.00  0.00     0.010 C 
ATOM     23  H77 ZIN A   1      17.586  -1.145   9.620  0.00  0.00     0.166 HD
ENDROOT
BRANCH   3  24
ATOM     24  O13 ZIN A   1      18.517   1.135  16.509  0.00  0.00    -0.309 OA
BRANCH  24  25
ATOM     25  C14 ZIN A   1      19.194   1.956  17.335  0.00  0.00     0.294 C 
ATOM     26  O15 ZIN A   1      19.957   1.493  18.161  0.00  0.00    -0.259 OA
BRANCH  25  27
ATOM     27  C16 ZIN A   1      19.008   3.416  17.239  0.00  0.00     0.045 A 
ATOM     28  C27 ZIN A   1      19.858   4.178  16.431  0.00  0.00     0.057 A 
ATOM     29  C24 ZIN A   1      19.679   5.545  16.340  0.00  0.00     0.105 A 
ATOM     30  C21 ZIN A   1      18.658   6.165  17.056  0.00  0.00     0.135 A 
ATOM     31  C18 ZIN A   1      17.813   5.409  17.864  0.00  0.00     0.105 A 
ATOM     32  C17 ZIN A   1      17.985   4.041  17.957  0.00  0.00     0.057 A 
BRANCH  29  33
ATOM     33  O25 ZIN A   1      20.503   6.287  15.552  0.00  0.00    -0.353 OA
ATOM     34  C26 ZIN A   1      20.388   6.104  14.139  0.00  0.00     0.210 C 
ENDBRANCH  29  33
BRANCH  30  35
ATOM     35  O22 ZIN A   1      18.487   7.510  16.966  0.00  0.00    -0.351 OA
ATOM     36  C23 ZIN A   1      17.632   7.987  15.925  0.00  0.00     0.210 C 
ENDBRANCH  30  35
BRANCH  31  37
ATOM     37  O19 ZIN A   1      16.817   6.018  18.564  0.00  0.00    -0.353 OA
ATOM     38  C20 ZIN A   1      15.478   5.618  18.267  0.00  0.00     0.210 C 
ENDBRANCH  31  37
ENDBRANCH  25  27
ENDBRANCH  24  25
ENDBRANCH   3  24
BRANCH   2  39
ATOM     39  O9  ZIN A   1      18.998  -1.565  15.788  0.00  0.00    -0.387 OA
ATOM     40  C10 ZIN A   1      17.923  -1.871  16.678  0.00  0.00     0.202 C 
ENDBRANCH   2  39
BRANCH   1  41
ATOM     41  C3  ZIN A   1      18.876  -2.311  13.024  0.00  0.00     0.265 C 
ATOM     42  O4  ZIN A   1      17.758  -2.680  13.300  0.00  0.00    -0.265 OA
BRANCH  41  43
ATOM     43  O2  ZIN A   1      19.690  -3.108  12.316  0.00  0.00    -0.326 OA
ATOM     44  C1  ZIN A   1      19.141  -3.711  11.114  0.00  0.00     0.213 C 
ENDBRANCH  41  43
ENDBRANCH   1  41
BRANCH  16  45
ATOM     45  O42 ZIN A   1      19.787  -1.414   4.901  0.00  0.00    -0.356 OA
ATOM     46  C43 ZIN A   1      18.834  -2.409   4.525  0.00  0.00     0.210 C 
ENDBRANCH  16  45
TORSDOF 10
ENDMDL
MODEL 2
REMARK VINA RESULT:      -9.2      3.617     10.506
REMARK  10 active torsions:
REMARK  status: ('A' for Active; 'I' for Inactive)
REMARK    1  A    between atoms: O2_2  and  C3_3 
REMARK    2  A    between atoms: C3_3  and  C5_5 
REMARK    3  A    between atoms: C7_6  and  O9_7 
REMARK    4  A    between atoms: C11_9  and  O13_10 
REMARK    5  A    between atoms: O13_10  and  C14_11 
REMARK    6  A    between atoms: C14_11  and  C16_13 
REMARK    7  A    between atoms: C18_15  and  O19_16 
REMARK    8  A    between atoms: C21_18  and  O22_19 
REMARK    9  A    between atoms: C24_21  and  O25_22 
REMARK   10  A    between atoms: C41_37  and  O42_38 
ROOT
ATOM      1  C5  ZIN A   1      18.144  -2.679  10.950  0.00  0.00     0.121 C 
ATOM      2  C7  ZIN A   1      18.879  -3.759  10.153  0.00  0.00     0.164 C 
ATOM      3  C11 ZIN A   1      18.278  -3.853   8.749  0.00  0.00     0.162 C 
ATOM      4  C28 ZIN A   1      18.432  -2.507   8.040  0.00  0.00     0.042 C 
ATOM      5  C29 ZIN A   1      17.697  -1.423   8.831  0.00  0.00     0.019 C 
ATOM      6  C31 ZIN A   1      17.883  -0.074   8.134  0.00  0.00     0.240 C 
ATOM      7  N32 ZIN A   1      19.313   0.244   8.023  0.00  0.00    -0.061 N 
ATOM      8  H33 ZIN A   1      19.780  -0.471   7.485  0.00  0.00     0.280 HD
ATOM      9  C34 ZIN A   1      19.442   1.544   7.339  0.00  0.00     0.240 C 
ATOM     10  C35 ZIN A   1      18.444   2.535   7.956  0.00  0.00     0.069 C 
ATOM     11  C36 ZIN A   1      18.586   2.474   9.456  0.00  0.00    -0.019 A 
ATOM     12  C37 ZIN A   1      19.254   1.484  10.097  0.00  0.00     0.048 A 
ATOM     13  N38 ZIN A   1      19.213   1.700  11.447  0.00  0.00    -0.357 N 
ATOM     14  C39 ZIN A   1      18.512   2.841  11.713  0.00  0.00     0.046 A 
ATOM     15  C40 ZIN A   1      18.191   3.481  12.907  0.00  0.00     0.067 A 
ATOM     16  C41 ZIN A   1      17.447   4.651  12.814  0.00  0.00     0.070 A 
ATOM     17  C44 ZIN A   1      17.037   5.170  11.593  0.00  0.00     0.038 A 
ATOM     18  C45 ZIN A   1      17.340   4.558  10.402  0.00  0.00     0.017 A 
ATOM     19  C46 ZIN A   1      18.088   3.377  10.468  0.00  0.00    -0.001 A 
ATOM     20  C47 ZIN A   1      19.917   0.330   9.360  0.00  0.00     0.238 C 
ATOM     21  C49 ZIN A   1      19.753  -0.972  10.133  0.00  0.00     0.045 C 
ATOM     22  C50 ZIN A   1      18.287  -1.332  10.241  0.00  0.00     0.010 C 
ATOM     23  H77 ZIN A   1      19.621   1.127  12.116  0.00  0.00     0.166 HD
ENDROOT
BRANCH   3  24
ATOM     24  O13 ZIN A   1      18.969  -4.882   7.993  0.00  0.00    -0.309 OA
BRANCH  24  25
ATOM     25  C14 ZIN A   1      18.277  -6.003   7.711  0.00  0.00     0.294 C 
ATOM     26  O15 ZIN A   1      18.625  -7.066   8.185  0.00  0.00    -0.259 OA
BRANCH  25  27
ATOM     27  C16 ZIN A   1      17.099  -5.940   6.827  0.00  0.00     0.045 A 
ATOM     28  C27 ZIN A   1      15.856  -6.392   7.281  0.00  0.00     0.057 A 
ATOM     29  C24 ZIN A   1      14.753  -6.328   6.452  0.00  0.00     0.105 A 
ATOM     30  C21 ZIN A   1      14.879  -5.820   5.161  0.00  0.00     0.135 A 
ATOM     31  C18 ZIN A   1      16.116  -5.373   4.704  0.00  0.00     0.105 A 
ATOM     32  C17 ZIN A   1      17.222  -5.431   5.531  0.00  0.00     0.057 A 
BRANCH  29  33
ATOM     33  O25 ZIN A   1      13.544  -6.765   6.895  0.00  0.00    -0.353 OA
ATOM     34  C26 ZIN A   1      13.051  -6.191   8.107  0.00  0.00     0.210 C 
ENDBRANCH  29  33
BRANCH  30  35
ATOM     35  O22 ZIN A   1      13.793  -5.761   4.347  0.00  0.00    -0.351 OA
ATOM     36  C23 ZIN A   1      13.559  -6.886   3.497  0.00  0.00     0.210 C 
ENDBRANCH  30  35
BRANCH  31  37
ATOM     37  O19 ZIN A   1      16.236  -4.878   3.443  0.00  0.00    -0.353 OA
ATOM     38  C20 ZIN A   1      16.581  -3.497   3.318  0.00  0.00     0.210 C 
ENDBRANCH  31  37
ENDBRANCH  25  27
ENDBRANCH  24  25
ENDBRANCH   3  24
BRANCH   2  39
ATOM     39  O9  ZIN A   1      18.743  -5.017  10.817  0.00  0.00    -0.387 OA
ATOM     40  C10 ZIN A   1      17.392  -5.374  11.116  0.00  0.00     0.202 C 
ENDBRANCH   2  39
BRANCH   1  41
ATOM     41  C3  ZIN A   1      18.737  -2.585  12.331  0.00  0.00     0.265 C 
ATOM     42  O4  ZIN A   1      19.827  -3.059  12.555  0.00  0.00    -0.265 OA
BRANCH  41  43
ATOM     43  O2  ZIN A   1      18.057  -1.976  13.315  0.00  0.00    -0.326 OA
ATOM     44  C1  ZIN A   1      18.830  -1.206  14.273  0.00  0.00     0.213 C 
ENDBRANCH  41  43
ENDBRANCH   1  41
BRANCH  16  45
ATOM     45  O42 ZIN A   1      17.111   5.310  13.955  0.00  0.00    -0.356 OA
ATOM     46  C43 ZIN A   1      17.867   5.005  15.127  0.00  0.00     0.210 C 
ENDBRANCH  16  45
TORSDOF 10
ENDMDL
MODEL 3
REMARK VINA RESULT:      -9.2      3.543     10.592
REMARK  10 active torsions:
REMARK  status: ('A' for Active; 'I' for Inactive)
REMARK    1  A    between atoms: O2_2  and  C3_3 
REMARK    2  A    between atoms: C3_3  and  C5_5 
REMARK    3  A    between atoms: C7_6  and  O9_7 
REMARK    4  A    between atoms: C11_9  and  O13_10 
REMARK    5  A    between atoms: O13_10  and  C14_11 
REMARK    6  A    between atoms: C14_11  and  C16_13 
REMARK    7  A    between atoms: C18_15  and  O19_16 
REMARK    8  A    between atoms: C21_18  and  O22_19 
REMARK    9  A    between atoms: C24_21  and  O25_22 
REMARK   10  A    between atoms: C41_37  and  O42_38 
ROOT
ATOM      1  C5  ZIN A   1      18.204  -2.933  10.680  0.00  0.00     0.121 C 
ATOM      2  C7  ZIN A   1      18.931  -3.973   9.825  0.00  0.00     0.164 C 
ATOM      3  C11 ZIN A   1      18.312  -4.006   8.426  0.00  0.00     0.162 C 
ATOM      4  C28 ZIN A   1      18.454  -2.628   7.777  0.00  0.00     0.042 C 
ATOM      5  C29 ZIN A   1      17.726  -1.584   8.626  0.00  0.00     0.019 C 
ATOM      6  C31 ZIN A   1      17.900  -0.203   7.988  0.00  0.00     0.240 C 
ATOM      7  N32 ZIN A   1      19.328   0.124   7.874  0.00  0.00    -0.061 N 
ATOM      8  H33 ZIN A   1      19.789  -0.565   7.298  0.00  0.00     0.280 HD
ATOM      9  C34 ZIN A   1      19.444   1.454   7.249  0.00  0.00     0.240 C 
ATOM     10  C35 ZIN A   1      18.451   2.412   7.922  0.00  0.00     0.069 C 
ATOM     11  C36 ZIN A   1      18.613   2.283   9.416  0.00  0.00    -0.019 A 
ATOM     12  C37 ZIN A   1      19.291   1.268  10.003  0.00  0.00     0.048 A 
ATOM     13  N38 ZIN A   1      19.268   1.422  11.362  0.00  0.00    -0.357 N 
ATOM     14  C39 ZIN A   1      18.567   2.548  11.688  0.00  0.00     0.046 A 
ATOM     15  C40 ZIN A   1      18.259   3.132  12.914  0.00  0.00     0.067 A 
ATOM     16  C41 ZIN A   1      17.512   4.303  12.883  0.00  0.00     0.070 A 
ATOM     17  C44 ZIN A   1      17.084   4.875  11.692  0.00  0.00     0.038 A 
ATOM     18  C45 ZIN A   1      17.374   4.319  10.471  0.00  0.00     0.017 A 
ATOM     19  C46 ZIN A   1      18.126   3.139  10.474  0.00  0.00    -0.001 A 
ATOM     20  C47 ZIN A   1      19.948   0.150   9.206  0.00  0.00     0.238 C 
ATOM     21  C49 ZIN A   1      19.797  -1.185   9.921  0.00  0.00     0.045 C 
ATOM     22  C50 ZIN A   1      18.334  -1.555  10.031  0.00  0.00     0.010 C 
ATOM     23  H77 ZIN A   1      19.686   0.821  11.999  0.00  0.00     0.166 HD
ENDROOT
BRANCH   3  24
ATOM     24  O13 ZIN A   1      18.996  -4.997   7.616  0.00  0.00    -0.309 OA
BRANCH  24  25
ATOM     25  C14 ZIN A   1      18.267  -6.047   7.190  0.00  0.00     0.294 C 
ATOM     26  O15 ZIN A   1      18.507  -7.162   7.610  0.00  0.00    -0.259 OA
BRANCH  25  27
ATOM     27  C16 ZIN A   1      17.181  -5.844   6.214  0.00  0.00     0.045 A 
ATOM     28  C27 ZIN A   1      17.455  -5.261   4.973  0.00  0.00     0.057 A 
ATOM     29  C24 ZIN A   1      16.436  -5.076   4.058  0.00  0.00     0.105 A 
ATOM     30  C21 ZIN A   1      15.136  -5.462   4.374  0.00  0.00     0.135 A 
ATOM     31  C18 ZIN A   1      14.860  -6.039   5.611  0.00  0.00     0.105 A 
ATOM     32  C17 ZIN A   1      15.875  -6.230   6.528  0.00  0.00     0.057 A 
BRANCH  29  33
ATOM     33  O25 ZIN A   1      16.702  -4.512   2.850  0.00  0.00    -0.353 OA
ATOM     34  C26 ZIN A   1      17.812  -5.038   2.119  0.00  0.00     0.210 C 
ENDBRANCH  29  33
BRANCH  30  35
ATOM     35  O22 ZIN A   1      14.135  -5.276   3.474  0.00  0.00    -0.351 OA
ATOM     36  C23 ZIN A   1      13.896  -6.332   2.542  0.00  0.00     0.210 C 
ENDBRANCH  30  35
BRANCH  31  37
ATOM     37  O19 ZIN A   1      13.588  -6.415   5.917  0.00  0.00    -0.353 OA
ATOM     38  C20 ZIN A   1      13.221  -6.398   7.297  0.00  0.00     0.210 C 
ENDBRANCH  31  37
ENDBRANCH  25  27
ENDBRANCH  24  25
ENDBRANCH   3  24
BRANCH   2  39
ATOM     39  O9  ZIN A   1      18.807  -5.261  10.433  0.00  0.00    -0.387 OA
ATOM     40  C10 ZIN A   1      17.456  -5.663  10.674  0.00  0.00     0.202 C 
ENDBRANCH   2  39
BRANCH   1  41
ATOM     41  C3  ZIN A   1      18.814  -2.900  12.057  0.00  0.00     0.265 C 
ATOM     42  O4  ZIN A   1      19.930  -3.330  12.233  0.00  0.00    -0.265 OA
BRANCH  41  43
ATOM     43  O2  ZIN A   1      18.119  -2.394  13.087  0.00  0.00    -0.326 OA
ATOM     44  C1  ZIN A   1      18.679  -1.230  13.752  0.00  0.00     0.213 C 
ENDBRANCH  41  43
ENDBRANCH   1  41
BRANCH  16  45
ATOM     45  O42 ZIN A   1      17.188   4.908  14.057  0.00  0.00    -0.356 OA
ATOM     46  C43 ZIN A   1      16.741   6.263  13.987  0.00  0.00     0.210 C 
ENDBRANCH  16  45
TORSDOF 10
ENDMDL
MODEL 4
REMARK VINA RESULT:      -8.9      2.721     10.168
REMARK  10 active torsions:
REMARK  status: ('A' for Active; 'I' for Inactive)
REMARK    1  A    between atoms: O2_2  and  C3_3 
REMARK    2  A    between atoms: C3_3  and  C5_5 
REMARK    3  A    between atoms: C7_6  and  O9_7 
REMARK    4  A    between atoms: C11_9  and  O13_10 
REMARK    5  A    between atoms: O13_10  and  C14_11 
REMARK    6  A    between atoms: C14_11  and  C16_13 
REMARK    7  A    between atoms: C18_15  and  O19_16 
REMARK    8  A    between atoms: C21_18  and  O22_19 
REMARK    9  A    between atoms: C24_21  and  O25_22 
REMARK   10  A    between atoms: C41_37  and  O42_38 
ROOT
ATOM      1  C5  ZIN A   1      18.208  -2.256  11.759  0.00  0.00     0.121 C 
ATOM      2  C7  ZIN A   1      19.052  -3.332  11.072  0.00  0.00     0.164 C 
ATOM      3  C11 ZIN A   1      18.550  -3.537   9.641  0.00  0.00     0.162 C 
ATOM      4  C28 ZIN A   1      18.677  -2.224   8.867  0.00  0.00     0.042 C 
ATOM      5  C29 ZIN A   1      17.833  -1.144   9.548  0.00  0.00     0.019 C 
ATOM      6  C31 ZIN A   1      17.989   0.175   8.787  0.00  0.00     0.240 C 
ATOM      7  N32 ZIN A   1      19.404   0.570   8.749  0.00  0.00    -0.061 N 
ATOM      8  H33 ZIN A   1      19.944  -0.144   8.283  0.00  0.00     0.280 HD
ATOM      9  C34 ZIN A   1      19.505   1.837   8.001  0.00  0.00     0.240 C 
ATOM     10  C35 ZIN A   1      18.416   2.798   8.496  0.00  0.00     0.069 C 
ATOM     11  C36 ZIN A   1      18.462   2.826  10.003  0.00  0.00    -0.019 A 
ATOM     12  C37 ZIN A   1      19.140   1.913  10.740  0.00  0.00     0.048 A 
ATOM     13  N38 ZIN A   1      18.999   2.198  12.071  0.00  0.00    -0.357 N 
ATOM     14  C39 ZIN A   1      18.219   3.309  12.227  0.00  0.00     0.046 A 
ATOM     15  C40 ZIN A   1      17.785   3.992  13.359  0.00  0.00     0.067 A 
ATOM     16  C41 ZIN A   1      16.986   5.110  13.153  0.00  0.00     0.070 A 
ATOM     17  C44 ZIN A   1      16.629   5.537  11.881  0.00  0.00     0.038 A 
ATOM     18  C45 ZIN A   1      17.044   4.881  10.749  0.00  0.00     0.017 A 
ATOM     19  C46 ZIN A   1      17.850   3.752  10.928  0.00  0.00    -0.001 A 
ATOM     20  C47 ZIN A   1      19.913   0.762  10.113  0.00  0.00     0.238 C 
ATOM     21  C49 ZIN A   1      19.770  -0.504  10.948  0.00  0.00     0.045 C 
ATOM     22  C50 ZIN A   1      18.323  -0.943  10.985  0.00  0.00     0.010 C 
ATOM     23  H77 ZIN A   1      19.393   1.687  12.796  0.00  0.00     0.166 HD
ENDROOT
BRANCH   3  24
ATOM     24  O13 ZIN A   1      19.345  -4.562   8.990  0.00  0.00    -0.309 OA
BRANCH  24  25
ATOM     25  C14 ZIN A   1      18.681  -5.487   8.270  0.00  0.00     0.294 C 
ATOM     26  O15 ZIN A   1      18.521  -6.605   8.718  0.00  0.00    -0.259 OA
BRANCH  25  27
ATOM     27  C16 ZIN A   1      18.148  -5.142   6.939  0.00  0.00     0.045 A 
ATOM     28  C27 ZIN A   1      16.977  -5.747   6.475  0.00  0.00     0.057 A 
ATOM     29  C24 ZIN A   1      16.478  -5.419   5.229  0.00  0.00     0.105 A 
ATOM     30  C21 ZIN A   1      17.144  -4.492   4.432  0.00  0.00     0.135 A 
ATOM     31  C18 ZIN A   1      18.314  -3.890   4.890  0.00  0.00     0.105 A 
ATOM     32  C17 ZIN A   1      18.816  -4.212   6.137  0.00  0.00     0.057 A 
BRANCH  29  33
ATOM     33  O25 ZIN A   1      15.337  -6.006   4.778  0.00  0.00    -0.353 OA
ATOM     34  C26 ZIN A   1      15.021  -7.297   5.302  0.00  0.00     0.210 C 
ENDBRANCH  29  33
BRANCH  30  35
ATOM     35  O22 ZIN A   1      16.654  -4.174   3.206  0.00  0.00    -0.351 OA
ATOM     36  C23 ZIN A   1      17.064  -4.994   2.111  0.00  0.00     0.210 C 
ENDBRANCH  30  35
BRANCH  31  37
ATOM     37  O19 ZIN A   1      18.964  -2.985   4.109  0.00  0.00    -0.353 OA
ATOM     38  C20 ZIN A   1      19.115  -1.665   4.635  0.00  0.00     0.210 C 
ENDBRANCH  31  37
ENDBRANCH  25  27
ENDBRANCH  24  25
ENDBRANCH   3  24
BRANCH   2  39
ATOM     39  O9  ZIN A   1      18.942  -4.559  11.797  0.00  0.00    -0.387 OA
ATOM     40  C10 ZIN A   1      17.613  -5.081  11.860  0.00  0.00     0.202 C 
ENDBRANCH   2  39
BRANCH   1  41
ATOM     41  C3  ZIN A   1      18.702  -2.054  13.167  0.00  0.00     0.265 C 
ATOM     42  O4  ZIN A   1      19.827  -2.382  13.466  0.00  0.00    -0.265 OA
BRANCH  41  43
ATOM     43  O2  ZIN A   1      17.895  -1.510  14.091  0.00  0.00    -0.326 OA
ATOM     44  C1  ZIN A   1      18.341  -0.275  14.711  0.00  0.00     0.213 C 
ENDBRANCH  41  43
ENDBRANCH   1  41
BRANCH  16  45
ATOM     45  O42 ZIN A   1      16.539   5.807  14.231  0.00  0.00    -0.356 OA
ATOM     46  C43 ZIN A   1      17.237   5.616  15.462  0.00  0.00     0.210 C 
ENDBRANCH  16  45
TORSDOF 10
ENDMDL
MODEL 5
REMARK VINA RESULT:      -8.9      2.540     10.086
REMARK  10 active torsions:
REMARK  status: ('A' for Active; 'I' for Inactive)
REMARK    1  A    between atoms: O2_2  and  C3_3 
REMARK    2  A    between atoms: C3_3  and  C5_5 
REMARK    3  A    between atoms: C7_6  and  O9_7 
REMARK    4  A    between atoms: C11_9  and  O13_10 
REMARK    5  A    between atoms: O13_10  and  C14_11 
REMARK    6  A    between atoms: C14_11  and  C16_13 
REMARK    7  A    between atoms: C18_15  and  O19_16 
REMARK    8  A    between atoms: C21_18  and  O22_19 
REMARK    9  A    between atoms: C24_21  and  O25_22 
REMARK   10  A    between atoms: C41_37  and  O42_38 
ROOT
ATOM      1  C5  ZIN A   1      18.108  -1.802  12.250  0.00  0.00     0.121 C 
ATOM      2  C7  ZIN A   1      18.952  -2.764  11.411  0.00  0.00     0.164 C 
ATOM      3  C11 ZIN A   1      18.390  -2.825   9.989  0.00  0.00     0.162 C 
ATOM      4  C28 ZIN A   1      18.442  -1.430   9.363  0.00  0.00     0.042 C 
ATOM      5  C29 ZIN A   1      17.598  -0.464  10.197  0.00  0.00     0.019 C 
ATOM      6  C31 ZIN A   1      17.680   0.937   9.585  0.00  0.00     0.240 C 
ATOM      7  N32 ZIN A   1      19.079   1.383   9.531  0.00  0.00    -0.061 N 
ATOM      8  H33 ZIN A   1      19.618   0.745   8.964  0.00  0.00     0.280 HD
ATOM      9  C34 ZIN A   1      19.107   2.728   8.928  0.00  0.00     0.240 C 
ATOM     10  C35 ZIN A   1      18.014   3.590   9.574  0.00  0.00     0.069 C 
ATOM     11  C36 ZIN A   1      18.129   3.451  11.071  0.00  0.00    -0.019 A 
ATOM     12  C37 ZIN A   1      18.867   2.486  11.671  0.00  0.00     0.048 A 
ATOM     13  N38 ZIN A   1      18.779   2.615  13.030  0.00  0.00    -0.357 N 
ATOM     14  C39 ZIN A   1      17.975   3.673  13.344  0.00  0.00     0.046 A 
ATOM     15  C40 ZIN A   1      17.573   4.210  14.564  0.00  0.00     0.067 A 
ATOM     16  C41 ZIN A   1      16.733   5.315  14.519  0.00  0.00     0.070 A 
ATOM     17  C44 ZIN A   1      16.304   5.869  13.320  0.00  0.00     0.038 A 
ATOM     18  C45 ZIN A   1      16.686   5.359  12.104  0.00  0.00     0.017 A 
ATOM     19  C46 ZIN A   1      17.532   4.245  12.121  0.00  0.00    -0.001 A 
ATOM     20  C47 ZIN A   1      19.645   1.439  10.886  0.00  0.00     0.238 C 
ATOM     21  C49 ZIN A   1      19.578   0.084  11.577  0.00  0.00     0.045 C 
ATOM     22  C50 ZIN A   1      18.148  -0.407  11.625  0.00  0.00     0.010 C 
ATOM     23  H77 ZIN A   1      19.221   2.040  13.675  0.00  0.00     0.166 HD
ENDROOT
BRANCH   3  24
ATOM     24  O13 ZIN A   1      19.185  -3.743   9.193  0.00  0.00    -0.309 OA
BRANCH  24  25
ATOM     25  C14 ZIN A   1      18.522  -4.713   8.534  0.00  0.00     0.294 C 
ATOM     26  O15 ZIN A   1      18.091  -5.673   9.142  0.00  0.00    -0.259 OA
BRANCH  25  27
ATOM     27  C16 ZIN A   1      18.322  -4.611   7.077  0.00  0.00     0.045 A 
ATOM     28  C27 ZIN A   1      18.891  -3.551   6.364  0.00  0.00     0.057 A 
ATOM     29  C24 ZIN A   1      18.705  -3.461   4.998  0.00  0.00     0.105 A 
ATOM     30  C21 ZIN A   1      17.945  -4.419   4.331  0.00  0.00     0.135 A 
ATOM     31  C18 ZIN A   1      17.374  -5.473   5.040  0.00  0.00     0.105 A 
ATOM     32  C17 ZIN A   1      17.559  -5.571   6.406  0.00  0.00     0.057 A 
BRANCH  29  33
ATOM     33  O25 ZIN A   1      19.261  -2.432   4.304  0.00  0.00    -0.353 OA
ATOM     34  C26 ZIN A   1      19.311  -1.161   4.956  0.00  0.00     0.210 C 
ENDBRANCH  29  33
BRANCH  30  35
ATOM     35  O22 ZIN A   1      17.761  -4.325   2.989  0.00  0.00    -0.351 OA
ATOM     36  C23 ZIN A   1      16.516  -3.785   2.541  0.00  0.00     0.210 C 
ENDBRANCH  30  35
BRANCH  31  37
ATOM     37  O19 ZIN A   1      16.631  -6.407   4.386  0.00  0.00    -0.353 OA
ATOM     38  C20 ZIN A   1      16.840  -7.773   4.750  0.00  0.00     0.210 C 
ENDBRANCH  31  37
ENDBRANCH  25  27
ENDBRANCH  24  25
ENDBRANCH   3  24
BRANCH   2  39
ATOM     39  O9  ZIN A   1      18.912  -4.068  11.996  0.00  0.00    -0.387 OA
ATOM     40  C10 ZIN A   1      17.595  -4.607  12.127  0.00  0.00     0.202 C 
ENDBRANCH   2  39
BRANCH   1  41
ATOM     41  C3  ZIN A   1      18.661  -1.741  13.650  0.00  0.00     0.265 C 
ATOM     42  O4  ZIN A   1      19.795  -2.100  13.868  0.00  0.00    -0.265 OA
BRANCH  41  43
ATOM     43  O2  ZIN A   1      17.896  -1.289  14.655  0.00  0.00    -0.326 OA
ATOM     44  C1  ZIN A   1      18.579  -0.859  15.862  0.00  0.00     0.213 C 
ENDBRANCH  41  43
ENDBRANCH   1  41
BRANCH  16  45
ATOM     45  O42 ZIN A   1      16.315   5.872  15.688  0.00  0.00    -0.356 OA
ATOM     46  C43 ZIN A   1      14.961   6.323  15.744  0.00  0.00     0.210 C 
ENDBRANCH  16  45
TORSDOF 10
ENDMDL
MODEL 6
REMARK VINA RESULT:      -8.7      3.219     10.503
REMARK  10 active torsions:
REMARK  status: ('A' for Active; 'I' for Inactive)
REMARK    1  A    between atoms: O2_2  and  C3_3 
REMARK    2  A    between atoms: C3_3  and  C5_5 
REMARK    3  A    between atoms: C7_6  and  O9_7 
REMARK    4  A    between atoms: C11_9  and  O13_10 
REMARK    5  A    between atoms: O13_10  and  C14_11 
REMARK    6  A    between atoms: C14_11  and  C16_13 
REMARK    7  A    between atoms: C18_15  and  O19_16 
REMARK    8  A    between atoms: C21_18  and  O22_19 
REMARK    9  A    between atoms: C24_21  and  O25_22 
REMARK   10  A    between atoms: C41_37  and  O42_38 
ROOT
ATOM      1  C5  ZIN A   1      18.567  -0.280  10.686  0.00  0.00     0.121 C 
ATOM      2  C7  ZIN A   1      17.945  -1.651  10.411  0.00  0.00     0.164 C 
ATOM      3  C11 ZIN A   1      18.800  -2.738  11.066  0.00  0.00     0.162 C 
ATOM      4  C28 ZIN A   1      18.854  -2.500  12.575  0.00  0.00     0.042 C 
ATOM      5  C29 ZIN A   1      19.477  -1.131  12.857  0.00  0.00     0.019 C 
ATOM      6  C31 ZIN A   1      19.498  -0.886  14.367  0.00  0.00     0.240 C 
ATOM      7  N32 ZIN A   1      18.134  -0.956  14.909  0.00  0.00    -0.061 N 
ATOM      8  H33 ZIN A   1      17.744  -1.869  14.730  0.00  0.00     0.280 HD
ATOM      9  C34 ZIN A   1      18.206  -0.723  16.363  0.00  0.00     0.240 C 
ATOM     10  C35 ZIN A   1      19.115   0.484  16.631  0.00  0.00     0.069 C 
ATOM     11  C36 ZIN A   1      18.684   1.609  15.725  0.00  0.00    -0.019 A 
ATOM     12  C37 ZIN A   1      17.856   1.433  14.667  0.00  0.00     0.048 A 
ATOM     13  N38 ZIN A   1      17.647   2.630  14.040  0.00  0.00    -0.357 N 
ATOM     14  C39 ZIN A   1      18.341   3.616  14.681  0.00  0.00     0.046 A 
ATOM     15  C40 ZIN A   1      18.459   4.982  14.438  0.00  0.00     0.067 A 
ATOM     16  C41 ZIN A   1      19.265   5.708  15.306  0.00  0.00     0.070 A 
ATOM     17  C44 ZIN A   1      19.929   5.112  16.370  0.00  0.00     0.038 A 
ATOM     18  C45 ZIN A   1      19.829   3.768  16.630  0.00  0.00     0.017 A 
ATOM     19  C46 ZIN A   1      19.023   3.013  15.771  0.00  0.00    -0.001 A 
ATOM     20  C47 ZIN A   1      17.289   0.073  14.287  0.00  0.00     0.238 C 
ATOM     21  C49 ZIN A   1      17.234  -0.086  12.773  0.00  0.00     0.045 C 
ATOM     22  C50 ZIN A   1      18.632  -0.039  12.194  0.00  0.00     0.010 C 
ATOM     23  H77 ZIN A   1      17.089   2.759  13.256  0.00  0.00     0.166 HD
ENDROOT
BRANCH   3  24
ATOM     24  O13 ZIN A   1      18.216  -4.040  10.800  0.00  0.00    -0.309 OA
BRANCH  24  25
ATOM     25  C14 ZIN A   1      18.816  -4.800   9.864  0.00  0.00     0.294 C 
ATOM     26  O15 ZIN A   1      19.994  -5.076   9.969  0.00  0.00    -0.259 OA
BRANCH  25  27
ATOM     27  C16 ZIN A   1      18.043  -5.295   8.710  0.00  0.00     0.045 A 
ATOM     28  C27 ZIN A   1      16.823  -5.949   8.912  0.00  0.00     0.057 A 
ATOM     29  C24 ZIN A   1      16.099  -6.408   7.829  0.00  0.00     0.105 A 
ATOM     30  C21 ZIN A   1      16.585  -6.227   6.536  0.00  0.00     0.135 A 
ATOM     31  C18 ZIN A   1      17.801  -5.580   6.332  0.00  0.00     0.105 A 
ATOM     32  C17 ZIN A   1      18.529  -5.115   7.412  0.00  0.00     0.057 A 
BRANCH  29  33
ATOM     33  O25 ZIN A   1      14.911  -7.041   8.025  0.00  0.00    -0.353 OA
ATOM     34  C26 ZIN A   1      13.770  -6.218   8.273  0.00  0.00     0.210 C 
ENDBRANCH  29  33
BRANCH  30  35
ATOM     35  O22 ZIN A   1      15.872  -6.683   5.473  0.00  0.00    -0.351 OA
ATOM     36  C23 ZIN A   1      14.969  -5.763   4.857  0.00  0.00     0.210 C 
ENDBRANCH  30  35
BRANCH  31  37
ATOM     37  O19 ZIN A   1      18.274  -5.406   5.069  0.00  0.00    -0.353 OA
ATOM     38  C20 ZIN A   1      18.278  -4.072   4.556  0.00  0.00     0.210 C 
ENDBRANCH  31  37
ENDBRANCH  25  27
ENDBRANCH  24  25
ENDBRANCH   3  24
BRANCH   2  39
ATOM     39  O9  ZIN A   1      17.887  -1.873   9.000  0.00  0.00    -0.387 OA
ATOM     40  C10 ZIN A   1      19.132  -1.675   8.327  0.00  0.00     0.202 C 
ENDBRANCH   2  39
BRANCH   1  41
ATOM     41  C3  ZIN A   1      17.725   0.791  10.042  0.00  0.00     0.265 C 
ATOM     42  O4  ZIN A   1      16.546   0.599   9.851  0.00  0.00    -0.265 OA
BRANCH  41  43
ATOM     43  O2  ZIN A   1      18.282   1.957   9.681  0.00  0.00    -0.326 OA
ATOM     44  C1  ZIN A   1      19.184   1.933   8.543  0.00  0.00     0.213 C 
ENDBRANCH  41  43
ENDBRANCH   1  41
BRANCH  16  45
ATOM     45  O42 ZIN A   1      19.409   7.046  15.107  0.00  0.00    -0.356 OA
ATOM     46  C43 ZIN A   1      18.213   7.824  15.041  0.00  0.00     0.210 C 
ENDBRANCH  16  45
TORSDOF 10
ENDMDL
MODEL 7
REMARK VINA RESULT:      -8.6      3.155      6.190
REMARK  10 active torsions:
REMARK  status: ('A' for Active; 'I' for Inactive)
REMARK    1  A    between atoms: O2_2  and  C3_3 
REMARK    2  A    between atoms: C3_3  and  C5_5 
REMARK    3  A    between atoms: C7_6  and  O9_7 
REMARK    4  A    between atoms: C11_9  and  O13_10 
REMARK    5  A    between atoms: O13_10  and  C14_11 
REMARK    6  A    between atoms: C14_11  and  C16_13 
REMARK    7  A    between atoms: C18_15  and  O19_16 
REMARK    8  A    between atoms: C21_18  and  O22_19 
REMARK    9  A    between atoms: C24_21  and  O25_22 
REMARK   10  A    between atoms: C41_37  and  O42_38 
ROOT
ATOM      1  C5  ZIN A   1      17.979  -0.428   8.475  0.00  0.00     0.121 C 
ATOM      2  C7  ZIN A   1      19.080  -0.088   9.482  0.00  0.00     0.164 C 
ATOM      3  C11 ZIN A   1      18.811  -0.821  10.798  0.00  0.00     0.162 C 
ATOM      4  C28 ZIN A   1      18.804  -2.329  10.546  0.00  0.00     0.042 C 
ATOM      5  C29 ZIN A   1      17.703  -2.676   9.542  0.00  0.00     0.019 C 
ATOM      6  C31 ZIN A   1      17.722  -4.182   9.269  0.00  0.00     0.240 C 
ATOM      7  N32 ZIN A   1      19.038  -4.585   8.756  0.00  0.00    -0.061 N 
ATOM      8  H33 ZIN A   1      19.750  -4.365   9.436  0.00  0.00     0.280 HD
ATOM      9  C34 ZIN A   1      19.011  -6.040   8.518  0.00  0.00     0.240 C 
ATOM     10  C35 ZIN A   1      17.715  -6.402   7.779  0.00  0.00     0.069 C 
ATOM     11  C36 ZIN A   1      17.562  -5.461   6.610  0.00  0.00    -0.019 A 
ATOM     12  C37 ZIN A   1      18.288  -4.326   6.473  0.00  0.00     0.048 A 
ATOM     13  N38 ZIN A   1      17.929  -3.684   5.319  0.00  0.00    -0.357 N 
ATOM     14  C39 ZIN A   1      16.953  -4.394   4.679  0.00  0.00     0.046 A 
ATOM     15  C40 ZIN A   1      16.264  -4.170   3.491  0.00  0.00     0.067 A 
ATOM     16  C41 ZIN A   1      15.315  -5.116   3.125  0.00  0.00     0.070 A 
ATOM     17  C44 ZIN A   1      15.055  -6.238   3.900  0.00  0.00     0.038 A 
ATOM     18  C45 ZIN A   1      15.720  -6.483   5.075  0.00  0.00     0.017 A 
ATOM     19  C46 ZIN A   1      16.682  -5.545   5.467  0.00  0.00    -0.001 A 
ATOM     20  C47 ZIN A   1      19.326  -3.886   7.496  0.00  0.00     0.238 C 
ATOM     21  C49 ZIN A   1      19.301  -2.374   7.676  0.00  0.00     0.045 C 
ATOM     22  C50 ZIN A   1      17.960  -1.936   8.225  0.00  0.00     0.010 C 
ATOM     23  H77 ZIN A   1      18.310  -2.850   5.003  0.00  0.00     0.166 HD
ENDROOT
BRANCH   3  24
ATOM     24  O13 ZIN A   1      19.850  -0.494  11.756  0.00  0.00    -0.309 OA
BRANCH  24  25
ATOM     25  C14 ZIN A   1      19.547  -0.639  13.061  0.00  0.00     0.294 C 
ATOM     26  O15 ZIN A   1      19.557  -1.744  13.567  0.00  0.00    -0.259 OA
BRANCH  25  27
ATOM     27  C16 ZIN A   1      19.203   0.542  13.874  0.00  0.00     0.045 A 
ATOM     28  C27 ZIN A   1      19.234   1.818  13.303  0.00  0.00     0.057 A 
ATOM     29  C24 ZIN A   1      18.906   2.922  14.066  0.00  0.00     0.105 A 
ATOM     30  C21 ZIN A   1      18.552   2.767  15.404  0.00  0.00     0.135 A 
ATOM     31  C18 ZIN A   1      18.524   1.497  15.976  0.00  0.00     0.105 A 
ATOM     32  C17 ZIN A   1      18.848   0.388  15.217  0.00  0.00     0.057 A 
BRANCH  29  33
ATOM     33  O25 ZIN A   1      18.934   4.163  13.511  0.00  0.00    -0.353 OA
ATOM     34  C26 ZIN A   1      19.682   4.317  12.303  0.00  0.00     0.210 C 
ENDBRANCH  29  33
BRANCH  30  35
ATOM     35  O22 ZIN A   1      18.234   3.855  16.153  0.00  0.00    -0.351 OA
ATOM     36  C23 ZIN A   1      19.320   4.601  16.706  0.00  0.00     0.210 C 
ENDBRANCH  30  35
BRANCH  31  37
ATOM     37  O19 ZIN A   1      18.179   1.348  17.283  0.00  0.00    -0.353 OA
ATOM     38  C20 ZIN A   1      19.239   1.105  18.210  0.00  0.00     0.210 C 
ENDBRANCH  31  37
ENDBRANCH  25  27
ENDBRANCH  24  25
ENDBRANCH   3  24
BRANCH   2  39
ATOM     39  O9  ZIN A   1      19.095   1.322   9.714  0.00  0.00    -0.387 OA
ATOM     40  C10 ZIN A   1      17.855   1.846  10.195  0.00  0.00     0.202 C 
ENDBRANCH   2  39
BRANCH   1  41
ATOM     41  C3  ZIN A   1      18.245   0.292   7.179  0.00  0.00     0.265 C 
ATOM     42  O4  ZIN A   1      19.181   1.052   7.091  0.00  0.00    -0.265 OA
BRANCH  41  43
ATOM     43  O2  ZIN A   1      17.443   0.091   6.122  0.00  0.00    -0.326 OA
ATOM     44  C1  ZIN A   1      18.085  -0.209   4.854  0.00  0.00     0.213 C 
ENDBRANCH  41  43
ENDBRANCH   1  41
BRANCH  16  45
ATOM     45  O42 ZIN A   1      14.617  -4.937   1.971  0.00  0.00    -0.356 OA
ATOM     46  C43 ZIN A   1      13.266  -5.399   1.952  0.00  0.00     0.210 C 
ENDBRANCH  16  45
TORSDOF 10
ENDMDL
MODEL 8
REMARK VINA RESULT:      -8.5      3.201      6.112
REMARK  10 active torsions:
REMARK  status: ('A' for Active; 'I' for Inactive)
REMARK    1  A    between atoms: O2_2  and  C3_3 
REMARK    2  A    between atoms: C3_3  and  C5_5 
REMARK    3  A    between atoms: C7_6  and  O9_7 
REMARK    4  A    between atoms: C11_9  and  O13_10 
REMARK    5  A    between atoms: O13_10  and  C14_11 
REMARK    6  A    between atoms: C14_11  and  C16_13 
REMARK    7  A    between atoms: C18_15  and  O19_16 
REMARK    8  A    between atoms: C21_18  and  O22_19 
REMARK    9  A    between atoms: C24_21  and  O25_22 
REMARK   10  A    between atoms: C41_37  and  O42_38 
ROOT
ATOM      1  C5  ZIN A   1      17.379  -0.144   8.754  0.00  0.00     0.121 C 
ATOM      2  C7  ZIN A   1      18.281   0.803   9.549  0.00  0.00     0.164 C 
ATOM      3  C11 ZIN A   1      17.944   0.696  11.038  0.00  0.00     0.162 C 
ATOM      4  C28 ZIN A   1      18.179  -0.740  11.508  0.00  0.00     0.042 C 
ATOM      5  C29 ZIN A   1      17.278  -1.692  10.718  0.00  0.00     0.019 C 
ATOM      6  C31 ZIN A   1      17.541  -3.130  11.171  0.00  0.00     0.240 C 
ATOM      7  N32 ZIN A   1      18.957  -3.471  10.973  0.00  0.00    -0.061 N 
ATOM      8  H33 ZIN A   1      19.536  -2.845  11.513  0.00  0.00     0.280 HD
ATOM      9  C34 ZIN A   1      19.162  -4.857  11.430  0.00  0.00     0.240 C 
ATOM     10  C35 ZIN A   1      18.038  -5.740  10.871  0.00  0.00     0.069 C 
ATOM     11  C36 ZIN A   1      17.911  -5.462   9.395  0.00  0.00    -0.019 A 
ATOM     12  C37 ZIN A   1      18.485  -4.395   8.790  0.00  0.00     0.048 A 
ATOM     13  N38 ZIN A   1      18.196  -4.410   7.453  0.00  0.00    -0.357 N 
ATOM     14  C39 ZIN A   1      17.421  -5.496   7.160  0.00  0.00     0.046 A 
ATOM     15  C40 ZIN A   1      16.869  -5.953   5.966  0.00  0.00     0.067 A 
ATOM     16  C41 ZIN A   1      16.116  -7.119   6.026  0.00  0.00     0.070 A 
ATOM     17  C44 ZIN A   1      15.915  -7.807   7.215  0.00  0.00     0.038 A 
ATOM     18  C45 ZIN A   1      16.447  -7.377   8.405  0.00  0.00     0.017 A 
ATOM     19  C46 ZIN A   1      17.210  -6.205   8.373  0.00  0.00    -0.001 A 
ATOM     20  C47 ZIN A   1      19.308  -3.364   9.550  0.00  0.00     0.238 C 
ATOM     21  C49 ZIN A   1      19.051  -1.963   9.012  0.00  0.00     0.045 C 
ATOM     22  C50 ZIN A   1      17.602  -1.581   9.226  0.00  0.00     0.010 C 
ATOM     23  H77 ZIN A   1      18.496  -3.749   6.809  0.00  0.00     0.166 HD
ENDROOT
BRANCH   3  24
ATOM     24  O13 ZIN A   1      18.793   1.599  11.793  0.00  0.00    -0.309 OA
BRANCH  24  25
ATOM     25  C14 ZIN A   1      18.178   2.492  12.593  0.00  0.00     0.294 C 
ATOM     26  O15 ZIN A   1      17.311   3.214  12.142  0.00  0.00    -0.259 OA
BRANCH  25  27
ATOM     27  C16 ZIN A   1      18.558   2.593  14.014  0.00  0.00     0.045 A 
ATOM     28  C27 ZIN A   1      18.528   1.459  14.830  0.00  0.00     0.057 A 
ATOM     29  C24 ZIN A   1      18.889   1.556  16.160  0.00  0.00     0.105 A 
ATOM     30  C21 ZIN A   1      19.276   2.784  16.691  0.00  0.00     0.135 A 
ATOM     31  C18 ZIN A   1      19.303   3.917  15.881  0.00  0.00     0.105 A 
ATOM     32  C17 ZIN A   1      18.946   3.825  14.549  0.00  0.00     0.057 A 
BRANCH  29  33
ATOM     33  O25 ZIN A   1      18.862   0.452  16.954  0.00  0.00    -0.353 OA
ATOM     34  C26 ZIN A   1      18.149  -0.684  16.461  0.00  0.00     0.210 C 
ENDBRANCH  29  33
BRANCH  30  35
ATOM     35  O22 ZIN A   1      19.626   2.878  18.000  0.00  0.00    -0.351 OA
ATOM     36  C23 ZIN A   1      18.594   3.227  18.924  0.00  0.00     0.210 C 
ENDBRANCH  30  35
BRANCH  31  37
ATOM     37  O19 ZIN A   1      19.680   5.116  16.402  0.00  0.00    -0.353 OA
ATOM     38  C20 ZIN A   1      20.635   5.875  15.658  0.00  0.00     0.210 C 
ENDBRANCH  31  37
ENDBRANCH  25  27
ENDBRANCH  24  25
ENDBRANCH   3  24
BRANCH   2  39
ATOM     39  O9  ZIN A   1      18.069   2.146   9.107  0.00  0.00    -0.387 OA
ATOM     40  C10 ZIN A   1      19.274   2.870   8.849  0.00  0.00     0.202 C 
ENDBRANCH   2  39
BRANCH   1  41
ATOM     41  C3  ZIN A   1      17.711  -0.039   7.288  0.00  0.00     0.265 C 
ATOM     42  O4  ZIN A   1      16.844  -0.193   6.460  0.00  0.00    -0.265 OA
BRANCH  41  43
ATOM     43  O2  ZIN A   1      18.969   0.224   6.901  0.00  0.00    -0.326 OA
ATOM     44  C1  ZIN A   1      19.229   0.242   5.473  0.00  0.00     0.213 C 
ENDBRANCH  41  43
ENDBRANCH   1  41
BRANCH  16  45
ATOM     45  O42 ZIN A   1      15.559  -7.602   4.883  0.00  0.00    -0.356 OA
ATOM     46  C43 ZIN A   1      14.792  -6.688   4.099  0.00  0.00     0.210 C 
ENDBRANCH  16  45
TORSDOF 10
ENDMDL
MODEL 9
REMARK VINA RESULT:      -8.5      2.871      5.794
REMARK  10 active torsions:
REMARK  status: ('A' for Active; 'I' for Inactive)
REMARK    1  A    between atoms: O2_2  and  C3_3 
REMARK    2  A    between atoms: C3_3  and  C5_5 
REMARK    3  A    between atoms: C7_6  and  O9_7 
REMARK    4  A    between atoms: C11_9  and  O13_10 
REMARK    5  A    between atoms: O13_10  and  C14_11 
REMARK    6  A    between atoms: C14_11  and  C16_13 
REMARK    7  A    between atoms: C18_15  and  O19_16 
REMARK    8  A    between atoms: C21_18  and  O22_19 
REMARK    9  A    between atoms: C24_21  and  O25_22 
REMARK   10  A    between atoms: C41_37  and  O42_38 
ROOT
ATOM      1  C5  ZIN A   1      18.016   1.006   9.056  0.00  0.00     0.121 C 
ATOM      2  C7  ZIN A   1      18.849   1.904   9.974  0.00  0.00     0.164 C 
ATOM      3  C11 ZIN A   1      18.222   1.926  11.369  0.00  0.00     0.162 C 
ATOM      4  C28 ZIN A   1      18.197   0.506  11.937  0.00  0.00     0.042 C 
ATOM      5  C29 ZIN A   1      17.364  -0.396  11.025  0.00  0.00     0.019 C 
ATOM      6  C31 ZIN A   1      17.370  -1.822  11.580  0.00  0.00     0.240 C 
ATOM      7  N32 ZIN A   1      18.749  -2.318  11.681  0.00  0.00    -0.061 N 
ATOM      8  H33 ZIN A   1      19.281  -1.722  12.298  0.00  0.00     0.280 HD
ATOM      9  C34 ZIN A   1      18.705  -3.687  12.227  0.00  0.00     0.240 C 
ATOM     10  C35 ZIN A   1      17.616  -4.483  11.494  0.00  0.00     0.069 C 
ATOM     11  C36 ZIN A   1      17.808  -4.287  10.012  0.00  0.00    -0.019 A 
ATOM     12  C37 ZIN A   1      18.605  -3.325   9.488  0.00  0.00     0.048 A 
ATOM     13  N38 ZIN A   1      18.579  -3.395   8.122  0.00  0.00    -0.357 N 
ATOM     14  C39 ZIN A   1      17.756  -4.412   7.727  0.00  0.00     0.046 A 
ATOM     15  C40 ZIN A   1      17.397  -4.884   6.468  0.00  0.00     0.067 A 
ATOM     16  C41 ZIN A   1      16.519  -5.961   6.426  0.00  0.00     0.070 A 
ATOM     17  C44 ZIN A   1      16.016  -6.548   7.579  0.00  0.00     0.038 A 
ATOM     18  C45 ZIN A   1      16.354  -6.100   8.832  0.00  0.00     0.017 A 
ATOM     19  C46 ZIN A   1      17.237  -5.017   8.903  0.00  0.00    -0.001 A 
ATOM     20  C47 ZIN A   1      19.378  -2.339  10.353  0.00  0.00     0.238 C 
ATOM     21  C49 ZIN A   1      19.389  -0.955   9.717  0.00  0.00     0.045 C 
ATOM     22  C50 ZIN A   1      17.980  -0.413   9.622  0.00  0.00     0.010 C 
ATOM     23  H77 ZIN A   1      19.070  -2.811   7.524  0.00  0.00     0.166 HD
ENDROOT
BRANCH   3  24
ATOM     24  O13 ZIN A   1      19.007   2.783  12.240  0.00  0.00    -0.309 OA
BRANCH  24  25
ATOM     25  C14 ZIN A   1      18.401   3.246  13.350  0.00  0.00     0.294 C 
ATOM     26  O15 ZIN A   1      17.614   4.170  13.272  0.00  0.00    -0.259 OA
BRANCH  25  27
ATOM     27  C16 ZIN A   1      18.693   2.635  14.660  0.00  0.00     0.045 A 
ATOM     28  C27 ZIN A   1      18.689   3.420  15.816  0.00  0.00     0.057 A 
ATOM     29  C24 ZIN A   1      18.960   2.844  17.042  0.00  0.00     0.105 A 
ATOM     30  C21 ZIN A   1      19.243   1.483  17.127  0.00  0.00     0.135 A 
ATOM     31  C18 ZIN A   1      19.252   0.699  15.976  0.00  0.00     0.105 A 
ATOM     32  C17 ZIN A   1      18.979   1.269  14.747  0.00  0.00     0.057 A 
BRANCH  29  33
ATOM     33  O25 ZIN A   1      18.953   3.607  18.168  0.00  0.00    -0.353 OA
ATOM     34  C26 ZIN A   1      17.760   4.343  18.446  0.00  0.00     0.210 C 
ENDBRANCH  29  33
BRANCH  30  35
ATOM     35  O22 ZIN A   1      19.512   0.919  18.333  0.00  0.00    -0.351 OA
ATOM     36  C23 ZIN A   1      18.442   0.224  18.977  0.00  0.00     0.210 C 
ENDBRANCH  30  35
BRANCH  31  37
ATOM     37  O19 ZIN A   1      19.530  -0.630  16.061  0.00  0.00    -0.353 OA
ATOM     38  C20 ZIN A   1      18.486  -1.536  15.699  0.00  0.00     0.210 C 
ENDBRANCH  31  37
ENDBRANCH  25  27
ENDBRANCH  24  25
ENDBRANCH   3  24
BRANCH   2  39
ATOM     39  O9  ZIN A   1      18.880   3.231   9.442  0.00  0.00    -0.387 OA
ATOM     40  C10 ZIN A   1      17.760   4.034   9.817  0.00  0.00     0.202 C 
ENDBRANCH   2  39
BRANCH   1  41
ATOM     41  C3  ZIN A   1      18.633   0.983   7.682  0.00  0.00     0.265 C 
ATOM     42  O4  ZIN A   1      19.732   1.456   7.505  0.00  0.00    -0.265 OA
BRANCH  41  43
ATOM     43  O2  ZIN A   1      17.965   0.438   6.654  0.00  0.00    -0.326 OA
ATOM     44  C1  ZIN A   1      18.675  -0.541   5.851  0.00  0.00     0.213 C 
ENDBRANCH  41  43
ENDBRANCH   1  41
BRANCH  16  45
ATOM     45  O42 ZIN A   1      16.141  -6.455   5.217  0.00  0.00    -0.356 OA
ATOM     46  C43 ZIN A   1      14.743  -6.660   5.009  0.00  0.00     0.210 C 
ENDBRANCH  16  45
TORSDOF 10
ENDMDL
