MODEL 1
REMARK VINA RESULT:      -8.5      0.000      0.000
REMARK  3 active torsions:
REMARK  status: ('A' for Active; 'I' for Inactive)
REMARK    1  A    between atoms: C7_7  and  C8_8 
REMARK    2  A    between atoms: N13_13  and  C14_14 
REMARK    3  A    between atoms: C14_14  and  C15_15 
ROOT
ATOM      1  C8  <0> d   1      19.225   0.442   9.359  0.00  0.00     0.077 C 
ATOM      2  N9  <0> d   1      20.136  -0.413   9.670  0.00  0.00    -0.281 NA
ATOM      3  C10 <0> d   1      20.705  -0.478  11.015  0.00  0.00     0.219 C 
ATOM      4  C11 <0> d   1      19.621  -0.859  11.985  0.00  0.00     0.100 C 
ATOM      5  S12 <0> d   1      19.744  -2.238  12.786  0.00  0.00    -0.063 SA
ATOM      6  N13 <0> d   1      18.563  -0.079  12.196  0.00  0.00    -0.331 N 
ATOM      7  C19 <0> d   1      18.361   1.162  11.614  0.00  0.00     0.048 A 
ATOM      8  C20 <0> d   1      17.828   2.169  12.421  0.00  0.00     0.032 A 
ATOM      9  C21 <0> d   1      17.596   3.428  11.913  0.00  0.00     0.026 A 
ATOM     10  C22 <0> d   1      17.890   3.708  10.587  0.00  0.00     0.035 A 
ATOM     11 Cl23 <0> d   1      17.597   5.295   9.949  0.00  0.00    -0.084 Cl
ATOM     12  C24 <0> d   1      18.415   2.726   9.776  0.00  0.00     0.040 A 
ATOM     13  C25 <0> d   1      18.662   1.443  10.278  0.00  0.00     0.022 A 
ENDROOT
BRANCH   1  14
ATOM     14  C7  <0> d   1      18.710   0.420   7.972  0.00  0.00     0.032 A 
ATOM     15  C2  <0> d   1      17.434  -0.082   7.704  0.00  0.00     0.129 A 
ATOM     16  F1  <0> d   1      16.664  -0.546   8.712  0.00  0.00    -0.205 F 
ATOM     17  C3  <0> d   1      16.960  -0.099   6.405  0.00  0.00     0.043 A 
ATOM     18  C4  <0> d   1      17.749   0.374   5.373  0.00  0.00     0.003 A 
ATOM     19  C5  <0> d   1      19.016   0.868   5.632  0.00  0.00     0.001 A 
ATOM     20  C6  <0> d   1      19.502   0.890   6.923  0.00  0.00     0.017 A 
ENDBRANCH   1  14
BRANCH   6  21
ATOM     21  C14 <0> d   1      17.534  -0.571  13.115  0.00  0.00     0.247 C 
BRANCH  21  22
ATOM     22  C15 <0> d   1      17.903  -0.182  14.548  0.00  0.00     0.403 C 
ATOM     23  F16 <0> d   1      19.170   0.410  14.559  0.00  0.00    -0.169 F 
ATOM     24  F17 <0> d   1      16.960   0.725  15.042  0.00  0.00    -0.169 F 
ATOM     25  F18 <0> d   1      17.916  -1.326  15.354  0.00  0.00    -0.169 F 
ENDBRANCH  21  22
ENDBRANCH   6  21
TORSDOF 3
ENDMDL
MODEL 2
REMARK VINA RESULT:      -8.2      3.371      5.130
REMARK  3 active torsions:
REMARK  status: ('A' for Active; 'I' for Inactive)
REMARK    1  A    between atoms: C7_7  and  C8_8 
REMARK    2  A    between atoms: N13_13  and  C14_14 
REMARK    3  A    between atoms: C14_14  and  C15_15 
ROOT
ATOM      1  C8  <0> d   1      19.280  -1.268  11.449  0.00  0.00     0.077 C 
ATOM      2  N9  <0> d   1      19.857  -0.877  12.530  0.00  0.00    -0.281 NA
ATOM      3  C10 <0> d   1      20.408   0.470  12.667  0.00  0.00     0.219 C 
ATOM      4  C11 <0> d   1      19.286   1.467  12.574  0.00  0.00     0.100 C 
ATOM      5  S12 <0> d   1      18.959   2.390  13.838  0.00  0.00    -0.063 SA
ATOM      6  N13 <0> d   1      18.559   1.602  11.467  0.00  0.00    -0.331 N 
ATOM      7  C19 <0> d   1      18.769   0.908  10.286  0.00  0.00     0.048 A 
ATOM      8  C20 <0> d   1      18.629   1.618   9.092  0.00  0.00     0.032 A 
ATOM      9  C21 <0> d   1      18.821   0.997   7.878  0.00  0.00     0.026 A 
ATOM     10  C22 <0> d   1      19.155  -0.347   7.830  0.00  0.00     0.035 A 
ATOM     11 Cl23 <0> d   1      19.396  -1.128   6.299  0.00  0.00    -0.084 Cl
ATOM     12  C24 <0> d   1      19.297  -1.064   8.998  0.00  0.00     0.040 A 
ATOM     13  C25 <0> d   1      19.111  -0.446  10.240  0.00  0.00     0.022 A 
ENDROOT
BRANCH   1  14
ATOM     14  C7  <0> d   1      18.749  -2.650  11.416  0.00  0.00     0.032 A 
ATOM     15  C2  <0> d   1      19.625  -3.739  11.416  0.00  0.00     0.129 A 
ATOM     16  F1  <0> d   1      20.960  -3.534  11.450  0.00  0.00    -0.205 F 
ATOM     17  C3  <0> d   1      19.121  -5.026  11.385  0.00  0.00     0.043 A 
ATOM     18  C4  <0> d   1      17.755  -5.236  11.349  0.00  0.00     0.003 A 
ATOM     19  C5  <0> d   1      16.884  -4.160  11.344  0.00  0.00     0.001 A 
ATOM     20  C6  <0> d   1      17.372  -2.870  11.373  0.00  0.00     0.017 A 
ENDBRANCH   1  14
BRANCH   6  21
ATOM     21  C14 <0> d   1      17.449   2.558  11.500  0.00  0.00     0.247 C 
BRANCH  21  22
ATOM     22  C15 <0> d   1      17.968   3.952  11.141  0.00  0.00     0.403 C 
ATOM     23  F16 <0> d   1      17.414   4.356   9.922  0.00  0.00    -0.169 F 
ATOM     24  F17 <0> d   1      17.601   4.857  12.143  0.00  0.00    -0.169 F 
ATOM     25  F18 <0> d   1      19.362   3.918  11.032  0.00  0.00    -0.169 F 
ENDBRANCH  21  22
ENDBRANCH   6  21
TORSDOF 3
ENDMDL
MODEL 3
REMARK VINA RESULT:      -8.2      4.275      5.368
REMARK  3 active torsions:
REMARK  status: ('A' for Active; 'I' for Inactive)
REMARK    1  A    between atoms: C7_7  and  C8_8 
REMARK    2  A    between atoms: N13_13  and  C14_14 
REMARK    3  A    between atoms: C14_14  and  C15_15 
ROOT
ATOM      1  C8  <0> d   1      18.795  -4.048   9.830  0.00  0.00     0.077 C 
ATOM      2  N9  <0> d   1      19.410  -4.331  10.923  0.00  0.00    -0.281 NA
ATOM      3  C10 <0> d   1      20.395  -3.424  11.510  0.00  0.00     0.219 C 
ATOM      4  C11 <0> d   1      19.709  -2.144  11.900  0.00  0.00     0.100 C 
ATOM      5  S12 <0> d   1      19.659  -1.725  13.442  0.00  0.00    -0.063 SA
ATOM      6  N13 <0> d   1      19.142  -1.350  10.994  0.00  0.00    -0.331 N 
ATOM      7  C19 <0> d   1      19.160  -1.563   9.625  0.00  0.00     0.048 A 
ATOM      8  C20 <0> d   1      19.350  -0.449   8.805  0.00  0.00     0.032 A 
ATOM      9  C21 <0> d   1      19.378  -0.582   7.434  0.00  0.00     0.026 A 
ATOM     10  C22 <0> d   1      19.214  -1.829   6.853  0.00  0.00     0.035 A 
ATOM     11 Cl23 <0> d   1      19.250  -1.994   5.125  0.00  0.00    -0.084 Cl
ATOM     12  C24 <0> d   1      19.025  -2.940   7.646  0.00  0.00     0.040 A 
ATOM     13  C25 <0> d   1      19.000  -2.823   9.041  0.00  0.00     0.022 A 
ENDROOT
BRANCH   1  14
ATOM     14  C7  <0> d   1      17.810  -5.031   9.323  0.00  0.00     0.032 A 
ATOM     15  C2  <0> d   1      18.243  -6.244   8.783  0.00  0.00     0.129 A 
ATOM     16  F1  <0> d   1      19.563  -6.527   8.725  0.00  0.00    -0.205 F 
ATOM     17  C3  <0> d   1      17.318  -7.157   8.312  0.00  0.00     0.043 A 
ATOM     18  C4  <0> d   1      15.967  -6.868   8.371  0.00  0.00     0.003 A 
ATOM     19  C5  <0> d   1      15.533  -5.665   8.901  0.00  0.00     0.001 A 
ATOM     20  C6  <0> d   1      16.445  -4.745   9.373  0.00  0.00     0.017 A 
ENDBRANCH   1  14
BRANCH   6  21
ATOM     21  C14 <0> d   1      18.445  -0.157  11.483  0.00  0.00     0.247 C 
BRANCH  21  22
ATOM     22  C15 <0> d   1      16.938  -0.418  11.498  0.00  0.00     0.403 C 
ATOM     23  F16 <0> d   1      16.353   0.281  12.559  0.00  0.00    -0.169 F 
ATOM     24  F17 <0> d   1      16.379   0.014  10.290  0.00  0.00    -0.169 F 
ATOM     25  F18 <0> d   1      16.702  -1.788  11.656  0.00  0.00    -0.169 F 
ENDBRANCH  21  22
ENDBRANCH   6  21
TORSDOF 3
ENDMDL
MODEL 4
REMARK VINA RESULT:      -8.1      3.630      4.970
REMARK  3 active torsions:
REMARK  status: ('A' for Active; 'I' for Inactive)
REMARK    1  A    between atoms: C7_7  and  C8_8 
REMARK    2  A    between atoms: N13_13  and  C14_14 
REMARK    3  A    between atoms: C14_14  and  C15_15 
ROOT
ATOM      1  C8  <0> d   1      19.343  -2.060  10.153  0.00  0.00     0.077 C 
ATOM      2  N9  <0> d   1      20.020  -1.835  11.223  0.00  0.00    -0.281 NA
ATOM      3  C10 <0> d   1      20.686  -0.556  11.460  0.00  0.00     0.219 C 
ATOM      4  C11 <0> d   1      19.644   0.525  11.557  0.00  0.00     0.100 C 
ATOM      5  S12 <0> d   1      19.477   1.323  12.933  0.00  0.00    -0.063 SA
ATOM      6  N13 <0> d   1      18.858   0.835  10.528  0.00  0.00    -0.331 N 
ATOM      7  C19 <0> d   1      18.934   0.264   9.268  0.00  0.00     0.048 A 
ATOM      8  C20 <0> d   1      18.773   1.111   8.170  0.00  0.00     0.032 A 
ATOM      9  C21 <0> d   1      18.833   0.616   6.886  0.00  0.00     0.026 A 
ATOM     10  C22 <0> d   1      19.054  -0.735   6.671  0.00  0.00     0.035 A 
ATOM     11 Cl23 <0> d   1      19.130  -1.356   5.052  0.00  0.00    -0.084 Cl
ATOM     12  C24 <0> d   1      19.215  -1.586   7.743  0.00  0.00     0.040 A 
ATOM     13  C25 <0> d   1      19.162  -1.098   9.054  0.00  0.00     0.022 A 
ENDROOT
BRANCH   1  14
ATOM     14  C7  <0> d   1      18.702  -3.387  10.013  0.00  0.00     0.032 A 
ATOM     15  C2  <0> d   1      17.497  -3.658  10.667  0.00  0.00     0.129 A 
ATOM     16  F1  <0> d   1      16.910  -2.706  11.426  0.00  0.00    -0.205 F 
ATOM     17  C3  <0> d   1      16.905  -4.899  10.532  0.00  0.00     0.043 A 
ATOM     18  C4  <0> d   1      17.506  -5.873   9.756  0.00  0.00     0.003 A 
ATOM     19  C5  <0> d   1      18.702  -5.612   9.110  0.00  0.00     0.001 A 
ATOM     20  C6  <0> d   1      19.304  -4.378   9.237  0.00  0.00     0.017 A 
ENDBRANCH   1  14
BRANCH   6  21
ATOM     21  C14 <0> d   1      17.835   1.860  10.746  0.00  0.00     0.247 C 
BRANCH  21  22
ATOM     22  C15 <0> d   1      18.453   3.246  10.555  0.00  0.00     0.403 C 
ATOM     23  F16 <0> d   1      19.839   3.123  10.407  0.00  0.00    -0.169 F 
ATOM     24  F17 <0> d   1      17.914   3.843   9.410  0.00  0.00    -0.169 F 
ATOM     25  F18 <0> d   1      18.172   4.041  11.671  0.00  0.00    -0.169 F 
ENDBRANCH  21  22
ENDBRANCH   6  21
TORSDOF 3
ENDMDL
MODEL 5
REMARK VINA RESULT:      -8.0      4.640      6.447
REMARK  3 active torsions:
REMARK  status: ('A' for Active; 'I' for Inactive)
REMARK    1  A    between atoms: C7_7  and  C8_8 
REMARK    2  A    between atoms: N13_13  and  C14_14 
REMARK    3  A    between atoms: C14_14  and  C15_15 
ROOT
ATOM      1  C8  <0> d   1      17.608   3.615  13.313  0.00  0.00     0.077 C 
ATOM      2  N9  <0> d   1      16.822   4.629  13.226  0.00  0.00    -0.281 NA
ATOM      3  C10 <0> d   1      16.436   5.410  14.400  0.00  0.00     0.219 C 
ATOM      4  C11 <0> d   1      17.664   6.057  14.980  0.00  0.00     0.100 C 
ATOM      5  S12 <0> d   1      17.764   7.653  15.005  0.00  0.00    -0.063 SA
ATOM      6  N13 <0> d   1      18.669   5.337  15.473  0.00  0.00    -0.331 N 
ATOM      7  C19 <0> d   1      18.688   3.954  15.564  0.00  0.00     0.048 A 
ATOM      8  C20 <0> d   1      19.231   3.396  16.723  0.00  0.00     0.032 A 
ATOM      9  C21 <0> d   1      19.286   2.029  16.885  0.00  0.00     0.026 A 
ATOM     10  C22 <0> d   1      18.803   1.191  15.893  0.00  0.00     0.035 A 
ATOM     11 Cl23 <0> d   1      18.875  -0.531  16.100  0.00  0.00    -0.084 Cl
ATOM     12  C24 <0> d   1      18.265   1.724  14.742  0.00  0.00     0.040 A 
ATOM     13  C25 <0> d   1      18.196   3.111  14.564  0.00  0.00     0.022 A 
ENDROOT
BRANCH   1  14
ATOM     14  C7  <0> d   1      17.942   2.897  12.062  0.00  0.00     0.032 A 
ATOM     15  C2  <0> d   1      18.900   3.416  11.188  0.00  0.00     0.129 A 
ATOM     16  F1  <0> d   1      19.529   4.575  11.484  0.00  0.00    -0.205 F 
ATOM     17  C3  <0> d   1      19.207   2.740  10.022  0.00  0.00     0.043 A 
ATOM     18  C4  <0> d   1      18.562   1.554   9.719  0.00  0.00     0.003 A 
ATOM     19  C5  <0> d   1      17.609   1.038  10.579  0.00  0.00     0.001 A 
ATOM     20  C6  <0> d   1      17.292   1.703  11.745  0.00  0.00     0.017 A 
ENDBRANCH   1  14
BRANCH   6  21
ATOM     21  C14 <0> d   1      19.845   6.063  15.958  0.00  0.00     0.247 C 
BRANCH  21  22
ATOM     22  C15 <0> d   1      20.911   6.096  14.861  0.00  0.00     0.403 C 
ATOM     23  F16 <0> d   1      22.165   5.831  15.419  0.00  0.00    -0.169 F 
ATOM     24  F17 <0> d   1      20.615   5.128  13.895  0.00  0.00    -0.169 F 
ATOM     25  F18 <0> d   1      20.925   7.361  14.262  0.00  0.00    -0.169 F 
ENDBRANCH  21  22
ENDBRANCH   6  21
TORSDOF 3
ENDMDL
MODEL 6
REMARK VINA RESULT:      -8.0      3.180      6.876
REMARK  3 active torsions:
REMARK  status: ('A' for Active; 'I' for Inactive)
REMARK    1  A    between atoms: C7_7  and  C8_8 
REMARK    2  A    between atoms: N13_13  and  C14_14 
REMARK    3  A    between atoms: C14_14  and  C15_15 
ROOT
ATOM      1  C8  <0> d   1      19.233  -0.758  12.965  0.00  0.00     0.077 C 
ATOM      2  N9  <0> d   1      20.147   0.091  12.655  0.00  0.00    -0.281 NA
ATOM      3  C10 <0> d   1      20.682   0.189  11.298  0.00  0.00     0.219 C 
ATOM      4  C11 <0> d   1      19.579   0.614  10.368  0.00  0.00     0.100 C 
ATOM      5  S12 <0> d   1      19.701   2.015   9.606  0.00  0.00    -0.063 SA
ATOM      6  N13 <0> d   1      18.504  -0.144  10.163  0.00  0.00    -0.331 N 
ATOM      7  C19 <0> d   1      18.298  -1.398  10.714  0.00  0.00     0.048 A 
ATOM      8  C20 <0> d   1      17.729  -2.374   9.892  0.00  0.00     0.032 A 
ATOM      9  C21 <0> d   1      17.492  -3.644  10.369  0.00  0.00     0.026 A 
ATOM     10  C22 <0> d   1      17.816  -3.967  11.677  0.00  0.00     0.035 A 
ATOM     11 Cl23 <0> d   1      17.516  -5.568  12.276  0.00  0.00    -0.084 Cl
ATOM     12  C24 <0> d   1      18.377  -3.018  12.503  0.00  0.00     0.040 A 
ATOM     13  C25 <0> d   1      18.630  -1.724  12.032  0.00  0.00     0.022 A 
ENDROOT
BRANCH   1  14
ATOM     14  C7  <0> d   1      18.755  -0.770  14.366  0.00  0.00     0.032 A 
ATOM     15  C2  <0> d   1      17.630  -0.026  14.731  0.00  0.00     0.129 A 
ATOM     16  F1  <0> d   1      16.971   0.704  13.804  0.00  0.00    -0.205 F 
ATOM     17  C3  <0> d   1      17.190  -0.043  16.041  0.00  0.00     0.043 A 
ATOM     18  C4  <0> d   1      17.864  -0.790  16.990  0.00  0.00     0.003 A 
ATOM     19  C5  <0> d   1      18.982  -1.524  16.634  0.00  0.00     0.001 A 
ATOM     20  C6  <0> d   1      19.433  -1.516  15.331  0.00  0.00     0.017 A 
ENDBRANCH   1  14
BRANCH   6  21
ATOM     21  C14 <0> d   1      17.459   0.390   9.287  0.00  0.00     0.247 C 
BRANCH  21  22
ATOM     22  C15 <0> d   1      17.804   0.072   7.831  0.00  0.00     0.403 C 
ATOM     23  F16 <0> d   1      18.920  -0.770   7.788  0.00  0.00    -0.169 F 
ATOM     24  F17 <0> d   1      16.716  -0.564   7.223  0.00  0.00    -0.169 F 
ATOM     25  F18 <0> d   1      18.089   1.260   7.148  0.00  0.00    -0.169 F 
ENDBRANCH  21  22
ENDBRANCH   6  21
TORSDOF 3
ENDMDL
MODEL 7
REMARK VINA RESULT:      -7.5      2.374      6.246
REMARK  3 active torsions:
REMARK  status: ('A' for Active; 'I' for Inactive)
REMARK    1  A    between atoms: C7_7  and  C8_8 
REMARK    2  A    between atoms: N13_13  and  C14_14 
REMARK    3  A    between atoms: C14_14  and  C15_15 
ROOT
ATOM      1  C8  <0> d   1      17.643   0.264  13.274  0.00  0.00     0.077 C 
ATOM      2  N9  <0> d   1      16.787  -0.459  12.643  0.00  0.00    -0.281 NA
ATOM      3  C10 <0> d   1      16.356  -0.135  11.284  0.00  0.00     0.219 C 
ATOM      4  C11 <0> d   1      17.539  -0.233  10.361  0.00  0.00     0.100 C 
ATOM      5  S12 <0> d   1      17.526  -1.326   9.194  0.00  0.00    -0.063 SA
ATOM      6  N13 <0> d   1      18.596   0.566  10.489  0.00  0.00    -0.331 N 
ATOM      7  C19 <0> d   1      18.713   1.588  11.417  0.00  0.00     0.048 A 
ATOM      8  C20 <0> d   1      19.302   2.780  10.987  0.00  0.00     0.032 A 
ATOM      9  C21 <0> d   1      19.455   3.840  11.853  0.00  0.00     0.026 A 
ATOM     10  C22 <0> d   1      19.025   3.733  13.166  0.00  0.00     0.035 A 
ATOM     11 Cl23 <0> d   1      19.219   5.071  14.255  0.00  0.00    -0.084 Cl
ATOM     12  C24 <0> d   1      18.442   2.566  13.608  0.00  0.00     0.040 A 
ATOM     13  C25 <0> d   1      18.274   1.480  12.739  0.00  0.00     0.022 A 
ENDROOT
BRANCH   1  14
ATOM     14  C7  <0> d   1      18.018  -0.156  14.643  0.00  0.00     0.032 A 
ATOM     15  C2  <0> d   1      19.006  -1.125  14.835  0.00  0.00     0.129 A 
ATOM     16  F1  <0> d   1      19.627  -1.679  13.771  0.00  0.00    -0.205 F 
ATOM     17  C3  <0> d   1      19.350  -1.512  16.117  0.00  0.00     0.043 A 
ATOM     18  C4  <0> d   1      18.714  -0.945  17.207  0.00  0.00     0.003 A 
ATOM     19  C5  <0> d   1      17.731   0.011  17.022  0.00  0.00     0.001 A 
ATOM     20  C6  <0> d   1      17.377   0.406  15.748  0.00  0.00     0.017 A 
ENDBRANCH   1  14
BRANCH   6  21
ATOM     21  C14 <0> d   1      19.722   0.348   9.578  0.00  0.00     0.247 C 
BRANCH  21  22
ATOM     22  C15 <0> d   1      19.456   1.074   8.257  0.00  0.00     0.403 C 
ATOM     23  F16 <0> d   1      20.377   2.115   8.103  0.00  0.00    -0.169 F 
ATOM     24  F17 <0> d   1      19.589   0.172   7.196  0.00  0.00    -0.169 F 
ATOM     25  F18 <0> d   1      18.158   1.597   8.264  0.00  0.00    -0.169 F 
ENDBRANCH  21  22
ENDBRANCH   6  21
TORSDOF 3
ENDMDL
MODEL 8
REMARK VINA RESULT:      -7.5      3.397      4.467
REMARK  3 active torsions:
REMARK  status: ('A' for Active; 'I' for Inactive)
REMARK    1  A    between atoms: C7_7  and  C8_8 
REMARK    2  A    between atoms: N13_13  and  C14_14 
REMARK    3  A    between atoms: C14_14  and  C15_15 
ROOT
ATOM      1  C8  <0> d   1      19.381  -2.504  10.085  0.00  0.00     0.077 C 
ATOM      2  N9  <0> d   1      20.374  -2.392  10.896  0.00  0.00    -0.281 NA
ATOM      3  C10 <0> d   1      21.057  -1.118  11.108  0.00  0.00     0.219 C 
ATOM      4  C11 <0> d   1      20.088  -0.141  11.717  0.00  0.00     0.100 C 
ATOM      5  S12 <0> d   1      20.377   0.430  13.182  0.00  0.00    -0.063 SA
ATOM      6  N13 <0> d   1      18.997   0.261  11.068  0.00  0.00    -0.331 N 
ATOM      7  C19 <0> d   1      18.657  -0.111   9.777  0.00  0.00     0.048 A 
ATOM      8  C20 <0> d   1      18.121   0.876   8.946  0.00  0.00     0.032 A 
ATOM      9  C21 <0> d   1      17.757   0.583   7.651  0.00  0.00     0.026 A 
ATOM     10  C22 <0> d   1      17.918  -0.702   7.158  0.00  0.00     0.035 A 
ATOM     11 Cl23 <0> d   1      17.458  -1.069   5.525  0.00  0.00    -0.084 Cl
ATOM     12  C24 <0> d   1      18.444  -1.689   7.963  0.00  0.00     0.040 A 
ATOM     13  C25 <0> d   1      18.825  -1.406   9.280  0.00  0.00     0.022 A 
ENDROOT
BRANCH   1  14
ATOM     14  C7  <0> d   1      18.755  -3.839   9.948  0.00  0.00     0.032 A 
ATOM     15  C2  <0> d   1      17.577  -4.136  10.638  0.00  0.00     0.129 A 
ATOM     16  F1  <0> d   1      17.002  -3.204  11.429  0.00  0.00    -0.205 F 
ATOM     17  C3  <0> d   1      16.999  -5.384  10.505  0.00  0.00     0.043 A 
ATOM     18  C4  <0> d   1      17.587  -6.339   9.696  0.00  0.00     0.003 A 
ATOM     19  C5  <0> d   1      18.757  -6.051   9.014  0.00  0.00     0.001 A 
ATOM     20  C6  <0> d   1      19.346  -4.809   9.139  0.00  0.00     0.017 A 
ENDBRANCH   1  14
BRANCH   6  21
ATOM     21  C14 <0> d   1      18.087   1.166  11.773  0.00  0.00     0.247 C 
BRANCH  21  22
ATOM     22  C15 <0> d   1      17.000   0.350  12.474  0.00  0.00     0.403 C 
ATOM     23  F16 <0> d   1      16.628   0.990  13.661  0.00  0.00    -0.169 F 
ATOM     24  F17 <0> d   1      15.886   0.240  11.635  0.00  0.00    -0.169 F 
ATOM     25  F18 <0> d   1      17.489  -0.928  12.767  0.00  0.00    -0.169 F 
ENDBRANCH  21  22
ENDBRANCH   6  21
TORSDOF 3
ENDMDL
MODEL 9
REMARK VINA RESULT:      -7.4      3.776      5.567
REMARK  3 active torsions:
REMARK  status: ('A' for Active; 'I' for Inactive)
REMARK    1  A    between atoms: C7_7  and  C8_8 
REMARK    2  A    between atoms: N13_13  and  C14_14 
REMARK    3  A    between atoms: C14_14  and  C15_15 
ROOT
ATOM      1  C8  <0> d   1      19.076   2.197  12.977  0.00  0.00     0.077 C 
ATOM      2  N9  <0> d   1      19.988   2.124  12.073  0.00  0.00    -0.281 NA
ATOM      3  C10 <0> d   1      20.755   0.900  11.848  0.00  0.00     0.219 C 
ATOM      4  C11 <0> d   1      19.819  -0.184  11.388  0.00  0.00     0.100 C 
ATOM      5  S12 <0> d   1      20.007  -0.807   9.927  0.00  0.00    -0.063 SA
ATOM      6  N13 <0> d   1      18.837  -0.638  12.165  0.00  0.00    -0.331 N 
ATOM      7  C19 <0> d   1      18.597  -0.227  13.466  0.00  0.00     0.048 A 
ATOM      8  C20 <0> d   1      18.236  -1.209  14.391  0.00  0.00     0.032 A 
ATOM      9  C21 <0> d   1      17.979  -0.878  15.703  0.00  0.00     0.026 A 
ATOM     10  C22 <0> d   1      18.076   0.441  16.119  0.00  0.00     0.035 A 
ATOM     11 Cl23 <0> d   1      17.752   0.856  17.773  0.00  0.00    -0.084 Cl
ATOM     12  C24 <0> d   1      18.431   1.423  15.220  0.00  0.00     0.040 A 
ATOM     13  C25 <0> d   1      18.701   1.102  13.884  0.00  0.00     0.022 A 
ENDROOT
BRANCH   1  14
ATOM     14  C7  <0> d   1      18.353   3.482  13.119  0.00  0.00     0.032 A 
ATOM     15  C2  <0> d   1      17.378   3.845  12.187  0.00  0.00     0.129 A 
ATOM     16  F1  <0> d   1      17.087   3.023  11.155  0.00  0.00    -0.205 F 
ATOM     17  C3  <0> d   1      16.707   5.046  12.327  0.00  0.00     0.043 A 
ATOM     18  C4  <0> d   1      17.005   5.888  13.383  0.00  0.00     0.003 A 
ATOM     19  C5  <0> d   1      17.974   5.535  14.305  0.00  0.00     0.001 A 
ATOM     20  C6  <0> d   1      18.652   4.340  14.178  0.00  0.00     0.017 A 
ENDBRANCH   1  14
BRANCH   6  21
ATOM     21  C14 <0> d   1      17.943  -1.651  11.599  0.00  0.00     0.247 C 
BRANCH  21  22
ATOM     22  C15 <0> d   1      18.561  -3.037  11.786  0.00  0.00     0.403 C 
ATOM     23  F16 <0> d   1      17.735  -3.811  12.608  0.00  0.00    -0.169 F 
ATOM     24  F17 <0> d   1      18.693  -3.660  10.539  0.00  0.00    -0.169 F 
ATOM     25  F18 <0> d   1      19.822  -2.911  12.378  0.00  0.00    -0.169 F 
ENDBRANCH  21  22
ENDBRANCH   6  21
TORSDOF 3
ENDMDL
