MODEL 1
REMARK VINA RESULT:      -8.2      0.000      0.000
REMARK  7 active torsions:
REMARK  status: ('A' for Active; 'I' for Inactive)
REMARK    1  A    between atoms: O1_1  and  C2_2 
REMARK    2  A    between atoms: C2_2  and  C3_3 
REMARK    3  A    between atoms: C3_3  and  N4_4 
REMARK    4  A    between atoms: N8_8  and  C9_9 
REMARK    5  A    between atoms: C9_9  and  C10_10 
REMARK    6  A    between atoms: C10_10  and  C11_11 
REMARK    7  A    between atoms: C11_11  and  N12_12 
ROOT
ATOM      1  N12 ZIN A   1      18.398  -1.706   8.618  0.00  0.00    -0.345 N 
ATOM      2  C13 ZIN A   1      18.473  -1.205   7.321  0.00  0.00     0.052 A 
ATOM      3  C14 ZIN A   1      17.943   0.052   7.058  0.00  0.00     0.031 A 
ATOM      4  C15 ZIN A   1      18.003   0.583   5.782  0.00  0.00     0.002 A 
ATOM      5  C16 ZIN A   1      18.593  -0.133   4.759  0.00  0.00     0.002 A 
ATOM      6  C17 ZIN A   1      19.121  -1.386   5.010  0.00  0.00     0.021 A 
ATOM      7  C18 ZIN A   1      19.064  -1.927   6.287  0.00  0.00     0.032 A 
ATOM      8  S19 ZIN A   1      19.739  -3.526   6.578  0.00  0.00    -0.086 SA
ATOM      9  C20 ZIN A   1      19.010  -4.007   8.107  0.00  0.00     0.032 A 
ATOM     10  C21 ZIN A   1      19.023  -5.345   8.475  0.00  0.00     0.023 A 
ATOM     11  C22 ZIN A   1      18.455  -5.743   9.671  0.00  0.00     0.025 A 
ATOM     12  C23 ZIN A   1      17.869  -4.807  10.503  0.00  0.00     0.036 A 
ATOM     13 Cl24 ZIN A   1      17.155  -5.308  12.005  0.00  0.00    -0.084 Cl
ATOM     14  C25 ZIN A   1      17.853  -3.472  10.143  0.00  0.00     0.054 A 
ATOM     15  C26 ZIN A   1      18.430  -3.060   8.943  0.00  0.00     0.053 A 
ENDROOT
BRANCH   1  16
ATOM     16  C11 ZIN A   1      18.283  -0.743   9.716  0.00  0.00     0.131 C 
BRANCH  16  17
ATOM     17  C10 ZIN A   1      19.672  -0.205  10.068  0.00  0.00     0.050 C 
BRANCH  17  18
ATOM     18  C9  ZIN A   1      20.225  -0.970  11.272  0.00  0.00     0.274 C 
BRANCH  18  19
ATOM     19  N8  ZIN A   1      19.507  -0.558  12.485  0.00  0.00     0.091 N 
ATOM     20  C7  ZIN A   1      20.261   0.466  13.221  0.00  0.00     0.300 C 
ATOM     21  C6  ZIN A   1      19.454   0.909  14.444  0.00  0.00     0.265 C 
ATOM     22  N4  ZIN A   1      19.198  -0.250  15.308  0.00  0.00    -0.066 N 
ATOM     23  H5  ZIN A   1      20.075  -0.652  15.600  0.00  0.00     0.280 HD
ATOM     24  C28 ZIN A   1      18.423  -1.253  14.566  0.00  0.00     0.265 C 
ATOM     25  C27 ZIN A   1      19.221  -1.715  13.346  0.00  0.00     0.300 C 
BRANCH  22  26
ATOM     26  C3  ZIN A   1      18.438   0.180  16.490  0.00  0.00     0.260 C 
BRANCH  26  27
ATOM     27  C2  ZIN A   1      19.183  -0.246  17.757  0.00  0.00     0.192 C 
BRANCH  27  28
ATOM     28  O1  ZIN A   1      19.871   0.880  18.306  0.00  0.00    -0.399 OA
ATOM     29  H29 ZIN A   1      20.818   0.896  18.111  0.00  0.00     0.209 HD
ENDBRANCH  27  28
ENDBRANCH  26  27
ENDBRANCH  22  26
ENDBRANCH  18  19
ENDBRANCH  17  18
ENDBRANCH  16  17
ENDBRANCH   1  16
TORSDOF 7
ENDMDL
MODEL 2
REMARK VINA RESULT:      -8.2      1.353      1.573
REMARK  7 active torsions:
REMARK  status: ('A' for Active; 'I' for Inactive)
REMARK    1  A    between atoms: O1_1  and  C2_2 
REMARK    2  A    between atoms: C2_2  and  C3_3 
REMARK    3  A    between atoms: C3_3  and  N4_4 
REMARK    4  A    between atoms: N8_8  and  C9_9 
REMARK    5  A    between atoms: C9_9  and  C10_10 
REMARK    6  A    between atoms: C10_10  and  C11_11 
REMARK    7  A    between atoms: C11_11  and  N12_12 
ROOT
ATOM      1  N12 ZIN A   1      18.555  -1.768   8.541  0.00  0.00    -0.345 N 
ATOM      2  C13 ZIN A   1      18.569  -1.284   7.235  0.00  0.00     0.052 A 
ATOM      3  C14 ZIN A   1      18.054  -0.018   6.985  0.00  0.00     0.031 A 
ATOM      4  C15 ZIN A   1      18.055   0.496   5.702  0.00  0.00     0.002 A 
ATOM      5  C16 ZIN A   1      18.570  -0.246   4.657  0.00  0.00     0.002 A 
ATOM      6  C17 ZIN A   1      19.084  -1.508   4.894  0.00  0.00     0.021 A 
ATOM      7  C18 ZIN A   1      19.085  -2.032   6.180  0.00  0.00     0.032 A 
ATOM      8  S19 ZIN A   1      19.739  -3.643   6.454  0.00  0.00    -0.086 SA
ATOM      9  C20 ZIN A   1      19.085  -4.088   8.028  0.00  0.00     0.032 A 
ATOM     10  C21 ZIN A   1      19.089  -5.422   8.411  0.00  0.00     0.023 A 
ATOM     11  C22 ZIN A   1      18.579  -5.793   9.642  0.00  0.00     0.025 A 
ATOM     12  C23 ZIN A   1      18.062  -4.833  10.493  0.00  0.00     0.036 A 
ATOM     13 Cl24 ZIN A   1      17.421  -5.299  12.038  0.00  0.00    -0.084 Cl
ATOM     14  C25 ZIN A   1      18.057  -3.502  10.117  0.00  0.00     0.054 A 
ATOM     15  C26 ZIN A   1      18.574  -3.119   8.882  0.00  0.00     0.053 A 
ENDROOT
BRANCH   1  16
ATOM     16  C11 ZIN A   1      18.524  -0.789   9.631  0.00  0.00     0.131 C 
BRANCH  16  17
ATOM     17  C10 ZIN A   1      19.937  -0.255   9.876  0.00  0.00     0.050 C 
BRANCH  17  18
ATOM     18  C9  ZIN A   1      20.360  -0.571  11.312  0.00  0.00     0.274 C 
BRANCH  18  19
ATOM     19  N8  ZIN A   1      19.641   0.313  12.239  0.00  0.00     0.091 N 
ATOM     20  C7  ZIN A   1      19.844   1.724  11.885  0.00  0.00     0.300 C 
ATOM     21  C6  ZIN A   1      19.035   2.608  12.838  0.00  0.00     0.265 C 
ATOM     22  N4  ZIN A   1      19.468   2.364  14.220  0.00  0.00    -0.066 N 
ATOM     23  H5  ZIN A   1      20.451   2.574  14.305  0.00  0.00     0.280 HD
ATOM     24  C28 ZIN A   1      19.236   0.956  14.566  0.00  0.00     0.265 C 
ATOM     25  C27 ZIN A   1      20.049   0.060  13.629  0.00  0.00     0.300 C 
BRANCH  22  26
ATOM     26  C3  ZIN A   1      18.702   3.225  15.131  0.00  0.00     0.260 C 
BRANCH  26  27
ATOM     27  C2  ZIN A   1      19.375   3.240  16.505  0.00  0.00     0.192 C 
BRANCH  27  28
ATOM     28  O1  ZIN A   1      20.615   3.947  16.420  0.00  0.00    -0.399 OA
ATOM     29  H29 ZIN A   1      20.863   4.404  17.236  0.00  0.00     0.209 HD
ENDBRANCH  27  28
ENDBRANCH  26  27
ENDBRANCH  22  26
ENDBRANCH  18  19
ENDBRANCH  17  18
ENDBRANCH  16  17
ENDBRANCH   1  16
TORSDOF 7
ENDMDL
MODEL 3
REMARK VINA RESULT:      -8.1      4.513      9.045
REMARK  7 active torsions:
REMARK  status: ('A' for Active; 'I' for Inactive)
REMARK    1  A    between atoms: O1_1  and  C2_2 
REMARK    2  A    between atoms: C2_2  and  C3_3 
REMARK    3  A    between atoms: C3_3  and  N4_4 
REMARK    4  A    between atoms: N8_8  and  C9_9 
REMARK    5  A    between atoms: C9_9  and  C10_10 
REMARK    6  A    between atoms: C10_10  and  C11_11 
REMARK    7  A    between atoms: C11_11  and  N12_12 
ROOT
ATOM      1  N12 ZIN A   1      18.405   1.235  13.704  0.00  0.00    -0.345 N 
ATOM      2  C13 ZIN A   1      18.524   0.586  14.930  0.00  0.00     0.052 A 
ATOM      3  C14 ZIN A   1      18.215  -0.767  15.004  0.00  0.00     0.031 A 
ATOM      4  C15 ZIN A   1      18.325  -1.444  16.205  0.00  0.00     0.002 A 
ATOM      5  C16 ZIN A   1      18.744  -0.779  17.341  0.00  0.00     0.002 A 
ATOM      6  C17 ZIN A   1      19.052   0.567  17.279  0.00  0.00     0.021 A 
ATOM      7  C18 ZIN A   1      18.943   1.255  16.077  0.00  0.00     0.032 A 
ATOM      8  S19 ZIN A   1      19.335   2.970  16.027  0.00  0.00    -0.086 SA
ATOM      9  C20 ZIN A   1      18.584   3.517  14.530  0.00  0.00     0.032 A 
ATOM     10  C21 ZIN A   1      18.374   4.875  14.334  0.00  0.00     0.023 A 
ATOM     11  C22 ZIN A   1      17.785   5.326  13.166  0.00  0.00     0.025 A 
ATOM     12  C23 ZIN A   1      17.403   4.422  12.192  0.00  0.00     0.036 A 
ATOM     13 Cl24 ZIN A   1      16.662   4.988  10.727  0.00  0.00    -0.084 Cl
ATOM     14  C25 ZIN A   1      17.611   3.068  12.382  0.00  0.00     0.054 A 
ATOM     15  C26 ZIN A   1      18.209   2.605  13.552  0.00  0.00     0.053 A 
ENDROOT
BRANCH   1  16
ATOM     16  C11 ZIN A   1      18.500   0.420  12.489  0.00  0.00     0.131 C 
BRANCH  16  17
ATOM     17  C10 ZIN A   1      19.947   0.415  11.991  0.00  0.00     0.050 C 
BRANCH  17  18
ATOM     18  C9  ZIN A   1      20.144  -0.740  11.007  0.00  0.00     0.274 C 
BRANCH  18  19
ATOM     19  N8  ZIN A   1      19.315  -0.515   9.816  0.00  0.00     0.091 N 
ATOM     20  C7  ZIN A   1      19.135  -1.760   9.057  0.00  0.00     0.300 C 
ATOM     21  C6  ZIN A   1      18.221  -1.495   7.858  0.00  0.00     0.265 C 
ATOM     22  N4  ZIN A   1      18.821  -0.463   7.003  0.00  0.00    -0.066 N 
ATOM     23  H5  ZIN A   1      19.726  -0.774   6.685  0.00  0.00     0.280 HD
ATOM     24  C28 ZIN A   1      18.972   0.782   7.768  0.00  0.00     0.265 C 
ATOM     25  C27 ZIN A   1      19.893   0.536   8.965  0.00  0.00     0.300 C 
BRANCH  22  26
ATOM     26  C3  ZIN A   1      17.951  -0.222   5.843  0.00  0.00     0.260 C 
BRANCH  26  27
ATOM     27  C2  ZIN A   1      18.806  -0.117   4.578  0.00  0.00     0.192 C 
BRANCH  27  28
ATOM     28  O1  ZIN A   1      19.917  -1.011   4.678  0.00  0.00    -0.399 OA
ATOM     29  H29 ZIN A   1      19.706  -1.927   4.451  0.00  0.00     0.209 HD
ENDBRANCH  27  28
ENDBRANCH  26  27
ENDBRANCH  22  26
ENDBRANCH  18  19
ENDBRANCH  17  18
ENDBRANCH  16  17
ENDBRANCH   1  16
TORSDOF 7
ENDMDL
MODEL 4
REMARK VINA RESULT:      -8.0      4.357      9.000
REMARK  7 active torsions:
REMARK  status: ('A' for Active; 'I' for Inactive)
REMARK    1  A    between atoms: O1_1  and  C2_2 
REMARK    2  A    between atoms: C2_2  and  C3_3 
REMARK    3  A    between atoms: C3_3  and  N4_4 
REMARK    4  A    between atoms: N8_8  and  C9_9 
REMARK    5  A    between atoms: C9_9  and  C10_10 
REMARK    6  A    between atoms: C10_10  and  C11_11 
REMARK    7  A    between atoms: C11_11  and  N12_12 
ROOT
ATOM      1  N12 ZIN A   1      18.318   1.299  14.349  0.00  0.00    -0.345 N 
ATOM      2  C13 ZIN A   1      18.367   0.887  15.679  0.00  0.00     0.052 A 
ATOM      3  C14 ZIN A   1      17.873  -0.370  16.008  0.00  0.00     0.031 A 
ATOM      4  C15 ZIN A   1      17.909  -0.813  17.318  0.00  0.00     0.002 A 
ATOM      5  C16 ZIN A   1      18.436  -0.008  18.309  0.00  0.00     0.002 A 
ATOM      6  C17 ZIN A   1      18.928   1.244  17.992  0.00  0.00     0.021 A 
ATOM      7  C18 ZIN A   1      18.895   1.698  16.680  0.00  0.00     0.032 A 
ATOM      8  S19 ZIN A   1      19.522   3.299  16.304  0.00  0.00    -0.086 SA
ATOM      9  C20 ZIN A   1      18.829   3.649  14.723  0.00  0.00     0.032 A 
ATOM     10  C21 ZIN A   1      18.807   4.960  14.267  0.00  0.00     0.023 A 
ATOM     11  C22 ZIN A   1      18.266   5.257  13.030  0.00  0.00     0.025 A 
ATOM     12  C23 ZIN A   1      17.744   4.245  12.244  0.00  0.00     0.036 A 
ATOM     13 Cl24 ZIN A   1      17.064   4.619  10.690  0.00  0.00    -0.084 Cl
ATOM     14  C25 ZIN A   1      17.764   2.937  12.692  0.00  0.00     0.054 A 
ATOM     15  C26 ZIN A   1      18.313   2.628  13.935  0.00  0.00     0.053 A 
ENDROOT
BRANCH   1  16
ATOM     16  C11 ZIN A   1      18.277   0.261  13.315  0.00  0.00     0.131 C 
BRANCH  16  17
ATOM     17  C10 ZIN A   1      19.692  -0.265  13.064  0.00  0.00     0.050 C 
BRANCH  17  18
ATOM     18  C9  ZIN A   1      20.163   0.181  11.678  0.00  0.00     0.274 C 
BRANCH  18  19
ATOM     19  N8  ZIN A   1      19.519  -0.650  10.652  0.00  0.00     0.091 N 
ATOM     20  C7  ZIN A   1      19.709  -2.079  10.936  0.00  0.00     0.300 C 
ATOM     21  C6  ZIN A   1      18.976  -2.908   9.879  0.00  0.00     0.265 C 
ATOM     22  N4  ZIN A   1      19.504  -2.582   8.548  0.00  0.00    -0.066 N 
ATOM     23  H5  ZIN A   1      20.492  -2.782   8.520  0.00  0.00     0.280 HD
ATOM     24  C28 ZIN A   1      19.285  -1.157   8.269  0.00  0.00     0.265 C 
ATOM     25  C27 ZIN A   1      20.021  -0.314   9.312  0.00  0.00     0.300 C 
BRANCH  22  26
ATOM     26  C3  ZIN A   1      18.812  -3.392   7.536  0.00  0.00     0.260 C 
BRANCH  26  27
ATOM     27  C2  ZIN A   1      19.707  -4.561   7.120  0.00  0.00     0.192 C 
BRANCH  27  28
ATOM     28  O1  ZIN A   1      21.013  -4.072   6.805  0.00  0.00    -0.399 OA
ATOM     29  H29 ZIN A   1      21.316  -3.359   7.384  0.00  0.00     0.209 HD
ENDBRANCH  27  28
ENDBRANCH  26  27
ENDBRANCH  22  26
ENDBRANCH  18  19
ENDBRANCH  17  18
ENDBRANCH  16  17
ENDBRANCH   1  16
TORSDOF 7
ENDMDL
MODEL 5
REMARK VINA RESULT:      -8.0      3.106      5.347
REMARK  7 active torsions:
REMARK  status: ('A' for Active; 'I' for Inactive)
REMARK    1  A    between atoms: O1_1  and  C2_2 
REMARK    2  A    between atoms: C2_2  and  C3_3 
REMARK    3  A    between atoms: C3_3  and  N4_4 
REMARK    4  A    between atoms: N8_8  and  C9_9 
REMARK    5  A    between atoms: C9_9  and  C10_10 
REMARK    6  A    between atoms: C10_10  and  C11_11 
REMARK    7  A    between atoms: C11_11  and  N12_12 
ROOT
ATOM      1  N12 ZIN A   1      19.351  -1.066  11.705  0.00  0.00    -0.345 N 
ATOM      2  C13 ZIN A   1      19.365  -2.291  11.042  0.00  0.00     0.052 A 
ATOM      3  C14 ZIN A   1      20.005  -3.369  11.643  0.00  0.00     0.031 A 
ATOM      4  C15 ZIN A   1      20.036  -4.601  11.016  0.00  0.00     0.002 A 
ATOM      5  C16 ZIN A   1      19.429  -4.770   9.787  0.00  0.00     0.002 A 
ATOM      6  C17 ZIN A   1      18.791  -3.704   9.180  0.00  0.00     0.021 A 
ATOM      7  C18 ZIN A   1      18.756  -2.462   9.802  0.00  0.00     0.032 A 
ATOM      8  S19 ZIN A   1      17.943  -1.120   9.005  0.00  0.00    -0.086 SA
ATOM      9  C20 ZIN A   1      18.574   0.295   9.843  0.00  0.00     0.032 A 
ATOM     10  C21 ZIN A   1      18.438   1.546   9.257  0.00  0.00     0.023 A 
ATOM     11  C22 ZIN A   1      18.927   2.671   9.897  0.00  0.00     0.025 A 
ATOM     12  C23 ZIN A   1      19.555   2.548  11.123  0.00  0.00     0.036 A 
ATOM     13 Cl24 ZIN A   1      20.170   3.960  11.926  0.00  0.00    -0.084 Cl
ATOM     14  C25 ZIN A   1      19.693   1.305  11.712  0.00  0.00     0.054 A 
ATOM     15  C26 ZIN A   1      19.197   0.168  11.078  0.00  0.00     0.053 A 
ENDROOT
BRANCH   1  16
ATOM     16  C11 ZIN A   1      19.502  -1.077  13.163  0.00  0.00     0.131 C 
BRANCH  16  17
ATOM     17  C10 ZIN A   1      18.119  -1.073  13.818  0.00  0.00     0.050 C 
BRANCH  17  18
ATOM     18  C9  ZIN A   1      18.263  -0.765  15.310  0.00  0.00     0.274 C 
BRANCH  18  19
ATOM     19  N8  ZIN A   1      18.688   0.630  15.483  0.00  0.00     0.091 N 
ATOM     20  C7  ZIN A   1      18.767   0.983  16.907  0.00  0.00     0.300 C 
ATOM     21  C6  ZIN A   1      19.267   2.422  17.046  0.00  0.00     0.265 C 
ATOM     22  N4  ZIN A   1      18.347   3.331  16.349  0.00  0.00    -0.066 N 
ATOM     23  H5  ZIN A   1      17.425   3.245  16.748  0.00  0.00     0.280 HD
ATOM     24  C28 ZIN A   1      18.298   2.980  14.924  0.00  0.00     0.265 C 
ATOM     25  C27 ZIN A   1      17.788   1.547  14.768  0.00  0.00     0.300 C 
BRANCH  22  26
ATOM     26  C3  ZIN A   1      18.820   4.714  16.498  0.00  0.00     0.260 C 
BRANCH  26  27
ATOM     27  C2  ZIN A   1      19.862   5.015  15.419  0.00  0.00     0.192 C 
BRANCH  27  28
ATOM     28  O1  ZIN A   1      21.142   5.192  16.029  0.00  0.00    -0.399 OA
ATOM     29  H29 ZIN A   1      21.770   4.482  15.837  0.00  0.00     0.209 HD
ENDBRANCH  27  28
ENDBRANCH  26  27
ENDBRANCH  22  26
ENDBRANCH  18  19
ENDBRANCH  17  18
ENDBRANCH  16  17
ENDBRANCH   1  16
TORSDOF 7
ENDMDL
MODEL 6
REMARK VINA RESULT:      -7.6      2.138      3.494
REMARK  7 active torsions:
REMARK  status: ('A' for Active; 'I' for Inactive)
REMARK    1  A    between atoms: O1_1  and  C2_2 
REMARK    2  A    between atoms: C2_2  and  C3_3 
REMARK    3  A    between atoms: C3_3  and  N4_4 
REMARK    4  A    between atoms: N8_8  and  C9_9 
REMARK    5  A    between atoms: C9_9  and  C10_10 
REMARK    6  A    between atoms: C10_10  and  C11_11 
REMARK    7  A    between atoms: C11_11  and  N12_12 
ROOT
ATOM      1  N12 ZIN A   1      18.046  -0.786  11.141  0.00  0.00    -0.345 N 
ATOM      2  C13 ZIN A   1      18.142   0.527  10.685  0.00  0.00     0.052 A 
ATOM      3  C14 ZIN A   1      17.597   1.545  11.459  0.00  0.00     0.031 A 
ATOM      4  C15 ZIN A   1      17.677   2.860  11.039  0.00  0.00     0.002 A 
ATOM      5  C16 ZIN A   1      18.300   3.172   9.847  0.00  0.00     0.002 A 
ATOM      6  C17 ZIN A   1      18.843   2.167   9.069  0.00  0.00     0.021 A 
ATOM      7  C18 ZIN A   1      18.767   0.843   9.482  0.00  0.00     0.032 A 
ATOM      8  S19 ZIN A   1      19.461  -0.419   8.470  0.00  0.00    -0.086 SA
ATOM      9  C20 ZIN A   1      18.706  -1.890   9.075  0.00  0.00     0.032 A 
ATOM     10  C21 ZIN A   1      18.733  -3.037   8.294  0.00  0.00     0.023 A 
ATOM     11  C22 ZIN A   1      18.146  -4.203   8.750  0.00  0.00     0.025 A 
ATOM     12  C23 ZIN A   1      17.527  -4.227   9.986  0.00  0.00     0.036 A 
ATOM     13 Cl24 ZIN A   1      16.788  -5.691  10.558  0.00  0.00    -0.084 Cl
ATOM     14  C25 ZIN A   1      17.498  -3.088  10.770  0.00  0.00     0.054 A 
ATOM     15  C26 ZIN A   1      18.093  -1.911  10.322  0.00  0.00     0.053 A 
ENDROOT
BRANCH   1  16
ATOM     16  C11 ZIN A   1      17.892  -0.997  12.583  0.00  0.00     0.131 C 
BRANCH  16  17
ATOM     17  C10 ZIN A   1      19.219  -0.701  13.286  0.00  0.00     0.050 C 
BRANCH  17  18
ATOM     18  C9  ZIN A   1      19.281  -1.474  14.605  0.00  0.00     0.274 C 
BRANCH  18  19
ATOM     19  N8  ZIN A   1      19.108  -0.542  15.727  0.00  0.00     0.091 N 
ATOM     20  C7  ZIN A   1      18.176  -1.086  16.724  0.00  0.00     0.300 C 
ATOM     21  C6  ZIN A   1      18.069  -0.113  17.901  0.00  0.00     0.265 C 
ATOM     22  N4  ZIN A   1      17.591   1.189  17.418  0.00  0.00    -0.066 N 
ATOM     23  H5  ZIN A   1      16.690   1.075  16.981  0.00  0.00     0.280 HD
ATOM     24  C28 ZIN A   1      18.545   1.730  16.441  0.00  0.00     0.265 C 
ATOM     25  C27 ZIN A   1      18.655   0.774  15.252  0.00  0.00     0.300 C 
BRANCH  22  26
ATOM     26  C3  ZIN A   1      17.472   2.117  18.552  0.00  0.00     0.260 C 
BRANCH  26  27
ATOM     27  C2  ZIN A   1      18.579   3.169  18.467  0.00  0.00     0.192 C 
BRANCH  27  28
ATOM     28  O1  ZIN A   1      19.596   2.868  19.425  0.00  0.00    -0.399 OA
ATOM     29  H29 ZIN A   1      20.482   3.153  19.161  0.00  0.00     0.209 HD
ENDBRANCH  27  28
ENDBRANCH  26  27
ENDBRANCH  22  26
ENDBRANCH  18  19
ENDBRANCH  17  18
ENDBRANCH  16  17
ENDBRANCH   1  16
TORSDOF 7
ENDMDL
MODEL 7
REMARK VINA RESULT:      -7.4      2.281      4.150
REMARK  7 active torsions:
REMARK  status: ('A' for Active; 'I' for Inactive)
REMARK    1  A    between atoms: O1_1  and  C2_2 
REMARK    2  A    between atoms: C2_2  and  C3_3 
REMARK    3  A    between atoms: C3_3  and  N4_4 
REMARK    4  A    between atoms: N8_8  and  C9_9 
REMARK    5  A    between atoms: C9_9  and  C10_10 
REMARK    6  A    between atoms: C10_10  and  C11_11 
REMARK    7  A    between atoms: C11_11  and  N12_12 
ROOT
ATOM      1  N12 ZIN A   1      18.587  -1.952   9.477  0.00  0.00    -0.345 N 
ATOM      2  C13 ZIN A   1      19.027  -3.086   8.798  0.00  0.00     0.052 A 
ATOM      3  C14 ZIN A   1      19.245  -4.255   9.519  0.00  0.00     0.031 A 
ATOM      4  C15 ZIN A   1      19.678  -5.400   8.878  0.00  0.00     0.002 A 
ATOM      5  C16 ZIN A   1      19.896  -5.392   7.514  0.00  0.00     0.002 A 
ATOM      6  C17 ZIN A   1      19.684  -4.235   6.788  0.00  0.00     0.021 A 
ATOM      7  C18 ZIN A   1      19.250  -3.079   7.424  0.00  0.00     0.032 A 
ATOM      8  S19 ZIN A   1      18.994  -1.618   6.478  0.00  0.00    -0.086 SA
ATOM      9  C20 ZIN A   1      18.972  -0.343   7.692  0.00  0.00     0.032 A 
ATOM     10  C21 ZIN A   1      19.150   0.976   7.295  0.00  0.00     0.023 A 
ATOM     11  C22 ZIN A   1      19.138   1.992   8.233  0.00  0.00     0.025 A 
ATOM     12  C23 ZIN A   1      18.949   1.695   9.570  0.00  0.00     0.036 A 
ATOM     13 Cl24 ZIN A   1      18.935   2.972  10.748  0.00  0.00    -0.084 Cl
ATOM     14  C25 ZIN A   1      18.770   0.384   9.972  0.00  0.00     0.054 A 
ATOM     15  C26 ZIN A   1      18.775  -0.645   9.034  0.00  0.00     0.053 A 
ENDROOT
BRANCH   1  16
ATOM     16  C11 ZIN A   1      17.871  -2.148  10.741  0.00  0.00     0.131 C 
BRANCH  16  17
ATOM     17  C10 ZIN A   1      18.846  -1.987  11.908  0.00  0.00     0.050 C 
BRANCH  17  18
ATOM     18  C9  ZIN A   1      18.064  -1.934  13.222  0.00  0.00     0.274 C 
BRANCH  18  19
ATOM     19  N8  ZIN A   1      18.512  -0.780  14.013  0.00  0.00     0.091 N 
ATOM     20  C7  ZIN A   1      18.446  -1.070  15.452  0.00  0.00     0.300 C 
ATOM     21  C6  ZIN A   1      18.975   0.132  16.237  0.00  0.00     0.265 C 
ATOM     22  N4  ZIN A   1      18.167   1.317  15.921  0.00  0.00    -0.066 N 
ATOM     23  H5  ZIN A   1      17.204   1.142  16.164  0.00  0.00     0.280 HD
ATOM     24  C28 ZIN A   1      18.264   1.608  14.485  0.00  0.00     0.265 C 
ATOM     25  C27 ZIN A   1      17.728   0.419  13.686  0.00  0.00     0.300 C 
BRANCH  22  26
ATOM     26  C3  ZIN A   1      18.665   2.467  16.689  0.00  0.00     0.260 C 
BRANCH  26  27
ATOM     27  C2  ZIN A   1      18.337   2.270  18.171  0.00  0.00     0.192 C 
BRANCH  27  28
ATOM     28  O1  ZIN A   1      19.551   2.213  18.923  0.00  0.00    -0.399 OA
ATOM     29  H29 ZIN A   1      20.226   1.638  18.537  0.00  0.00     0.209 HD
ENDBRANCH  27  28
ENDBRANCH  26  27
ENDBRANCH  22  26
ENDBRANCH  18  19
ENDBRANCH  17  18
ENDBRANCH  16  17
ENDBRANCH   1  16
TORSDOF 7
ENDMDL
MODEL 8
REMARK VINA RESULT:      -7.3      4.006      7.385
REMARK  7 active torsions:
REMARK  status: ('A' for Active; 'I' for Inactive)
REMARK    1  A    between atoms: O1_1  and  C2_2 
REMARK    2  A    between atoms: C2_2  and  C3_3 
REMARK    3  A    between atoms: C3_3  and  N4_4 
REMARK    4  A    between atoms: N8_8  and  C9_9 
REMARK    5  A    between atoms: C9_9  and  C10_10 
REMARK    6  A    between atoms: C10_10  and  C11_11 
REMARK    7  A    between atoms: C11_11  and  N12_12 
ROOT
ATOM      1  N12 ZIN A   1      18.940  -1.153  11.993  0.00  0.00    -0.345 N 
ATOM      2  C13 ZIN A   1      19.005  -0.376  10.840  0.00  0.00     0.052 A 
ATOM      3  C14 ZIN A   1      19.748  -0.840   9.761  0.00  0.00     0.031 A 
ATOM      4  C15 ZIN A   1      19.832  -0.097   8.598  0.00  0.00     0.002 A 
ATOM      5  C16 ZIN A   1      19.176   1.114   8.500  0.00  0.00     0.002 A 
ATOM      6  C17 ZIN A   1      18.435   1.587   9.567  0.00  0.00     0.021 A 
ATOM      7  C18 ZIN A   1      18.346   0.847  10.740  0.00  0.00     0.032 A 
ATOM      8  S19 ZIN A   1      17.402   1.473  12.086  0.00  0.00    -0.086 SA
ATOM      9  C20 ZIN A   1      17.974   0.533  13.460  0.00  0.00     0.032 A 
ATOM     10  C21 ZIN A   1      17.721   0.988  14.747  0.00  0.00     0.023 A 
ATOM     11  C22 ZIN A   1      18.164   0.265  15.840  0.00  0.00     0.025 A 
ATOM     12  C23 ZIN A   1      18.861  -0.914  15.651  0.00  0.00     0.036 A 
ATOM     13 Cl24 ZIN A   1      19.417  -1.820  17.024  0.00  0.00    -0.084 Cl
ATOM     14  C25 ZIN A   1      19.115  -1.373  14.372  0.00  0.00     0.054 A 
ATOM     15  C26 ZIN A   1      18.668  -0.655  13.266  0.00  0.00     0.053 A 
ENDROOT
BRANCH   1  16
ATOM     16  C11 ZIN A   1      19.166  -2.595  11.858  0.00  0.00     0.131 C 
BRANCH  16  17
ATOM     17  C10 ZIN A   1      17.860  -3.279  11.449  0.00  0.00     0.050 C 
BRANCH  17  18
ATOM     18  C9  ZIN A   1      18.042  -4.797  11.502  0.00  0.00     0.274 C 
BRANCH  18  19
ATOM     19  N8  ZIN A   1      17.687  -5.379  10.201  0.00  0.00     0.091 N 
ATOM     20  C7  ZIN A   1      18.441  -4.738   9.114  0.00  0.00     0.300 C 
ATOM     21  C6  ZIN A   1      18.086  -5.410   7.786  0.00  0.00     0.265 C 
ATOM     22  N4  ZIN A   1      16.642  -5.285   7.544  0.00  0.00    -0.066 N 
ATOM     23  H5  ZIN A   1      16.390  -4.309   7.516  0.00  0.00     0.280 HD
ATOM     24  C28 ZIN A   1      15.905  -5.952   8.625  0.00  0.00     0.265 C 
ATOM     25  C27 ZIN A   1      16.240  -5.283   9.959  0.00  0.00     0.300 C 
BRANCH  22  26
ATOM     26  C3  ZIN A   1      16.306  -5.915   6.260  0.00  0.00     0.260 C 
BRANCH  26  27
ATOM     27  C2  ZIN A   1      17.150  -5.287   5.148  0.00  0.00     0.192 C 
BRANCH  27  28
ATOM     28  O1  ZIN A   1      16.581  -4.031   4.772  0.00  0.00    -0.399 OA
ATOM     29  H29 ZIN A   1      17.061  -3.579   4.064  0.00  0.00     0.209 HD
ENDBRANCH  27  28
ENDBRANCH  26  27
ENDBRANCH  22  26
ENDBRANCH  18  19
ENDBRANCH  17  18
ENDBRANCH  16  17
ENDBRANCH   1  16
TORSDOF 7
ENDMDL
MODEL 9
REMARK VINA RESULT:      -7.3      2.593      3.021
REMARK  7 active torsions:
REMARK  status: ('A' for Active; 'I' for Inactive)
REMARK    1  A    between atoms: O1_1  and  C2_2 
REMARK    2  A    between atoms: C2_2  and  C3_3 
REMARK    3  A    between atoms: C3_3  and  N4_4 
REMARK    4  A    between atoms: N8_8  and  C9_9 
REMARK    5  A    between atoms: C9_9  and  C10_10 
REMARK    6  A    between atoms: C10_10  and  C11_11 
REMARK    7  A    between atoms: C11_11  and  N12_12 
ROOT
ATOM      1  N12 ZIN A   1      18.337  -1.673   8.417  0.00  0.00    -0.345 N 
ATOM      2  C13 ZIN A   1      18.408  -1.316   7.072  0.00  0.00     0.052 A 
ATOM      3  C14 ZIN A   1      17.768  -0.155   6.654  0.00  0.00     0.031 A 
ATOM      4  C15 ZIN A   1      17.821   0.232   5.327  0.00  0.00     0.002 A 
ATOM      5  C16 ZIN A   1      18.512  -0.533   4.408  0.00  0.00     0.002 A 
ATOM      6  C17 ZIN A   1      19.151  -1.690   4.814  0.00  0.00     0.021 A 
ATOM      7  C18 ZIN A   1      19.102  -2.087   6.144  0.00  0.00     0.032 A 
ATOM      8  S19 ZIN A   1      19.919  -3.567   6.633  0.00  0.00    -0.086 SA
ATOM      9  C20 ZIN A   1      19.186  -3.943   8.190  0.00  0.00     0.032 A 
ATOM     10  C21 ZIN A   1      19.317  -5.223   8.710  0.00  0.00     0.023 A 
ATOM     11  C22 ZIN A   1      18.749  -5.539   9.931  0.00  0.00     0.025 A 
ATOM     12  C23 ZIN A   1      18.047  -4.578  10.635  0.00  0.00     0.036 A 
ATOM     13 Cl24 ZIN A   1      17.332  -4.976  12.167  0.00  0.00    -0.084 Cl
ATOM     14  C25 ZIN A   1      17.914  -3.300  10.123  0.00  0.00     0.054 A 
ATOM     15  C26 ZIN A   1      18.489  -2.971   8.897  0.00  0.00     0.053 A 
ENDROOT
BRANCH   1  16
ATOM     16  C11 ZIN A   1      18.092  -0.608   9.393  0.00  0.00     0.131 C 
BRANCH  16  17
ATOM     17  C10 ZIN A   1      19.353   0.245   9.544  0.00  0.00     0.050 C 
BRANCH  17  18
ATOM     18  C9  ZIN A   1      19.010   1.713   9.283  0.00  0.00     0.274 C 
BRANCH  18  19
ATOM     19  N8  ZIN A   1      18.699   2.377  10.556  0.00  0.00     0.091 N 
ATOM     20  C7  ZIN A   1      17.750   3.481  10.356  0.00  0.00     0.300 C 
ATOM     21  C6  ZIN A   1      17.409   4.108  11.710  0.00  0.00     0.265 C 
ATOM     22  N4  ZIN A   1      18.638   4.604  12.344  0.00  0.00    -0.066 N 
ATOM     23  H5  ZIN A   1      19.071   5.289  11.745  0.00  0.00     0.280 HD
ATOM     24  C28 ZIN A   1      19.565   3.485  12.559  0.00  0.00     0.265 C 
ATOM     25  C27 ZIN A   1      19.925   2.855  11.212  0.00  0.00     0.300 C 
BRANCH  22  26
ATOM     26  C3  ZIN A   1      18.306   5.221  13.636  0.00  0.00     0.260 C 
BRANCH  26  27
ATOM     27  C2  ZIN A   1      18.607   4.232  14.764  0.00  0.00     0.192 C 
BRANCH  27  28
ATOM     28  O1  ZIN A   1      17.383   3.664  15.239  0.00  0.00    -0.399 OA
ATOM     29  H29 ZIN A   1      16.590   4.101  14.899  0.00  0.00     0.209 HD
ENDBRANCH  27  28
ENDBRANCH  26  27
ENDBRANCH  22  26
ENDBRANCH  18  19
ENDBRANCH  17  18
ENDBRANCH  16  17
ENDBRANCH   1  16
TORSDOF 7
ENDMDL
