MODEL 1
REMARK VINA RESULT:      -8.3      0.000      0.000
REMARK  2 active torsions:
REMARK  status: ('A' for Active; 'I' for Inactive)
REMARK    1  A    between atoms: C10_10  and  C11_11 
REMARK    2  A    between atoms: C18_18  and  O20_19 
ROOT
ATOM      1  C1  ZIN A   1      17.784   2.528  10.651  0.00  0.00     0.159 C 
ATOM      2  N2  ZIN A   1      18.845   1.519  10.627  0.00  0.00    -0.318 N 
ATOM      3  C3  ZIN A   1      18.949   0.727   9.493  0.00  0.00     0.049 A 
ATOM      4  C4  ZIN A   1      18.764   1.350   8.257  0.00  0.00     0.032 A 
ATOM      5  C5  ZIN A   1      18.849   0.627   7.087  0.00  0.00     0.026 A 
ATOM      6  C6  ZIN A   1      19.122  -0.731   7.127  0.00  0.00     0.035 A 
ATOM      7 Cl7  ZIN A   1      19.229  -1.638   5.651  0.00  0.00    -0.084 Cl
ATOM      8  C8  ZIN A   1      19.307  -1.361   8.337  0.00  0.00     0.040 A 
ATOM      9  C9  ZIN A   1      19.222  -0.638   9.537  0.00  0.00     0.022 A 
ATOM     10  C10 ZIN A   1      19.437  -1.375  10.793  0.00  0.00     0.077 C 
ATOM     11  N17 ZIN A   1      20.098  -0.930  11.803  0.00  0.00    -0.247 NA
ATOM     12  C18 ZIN A   1      20.714   0.396  11.799  0.00  0.00     0.335 C 
ATOM     13  C21 ZIN A   1      19.639   1.439  11.692  0.00  0.00     0.274 C 
ATOM     14  O22 ZIN A   1      19.485   2.224  12.604  0.00  0.00    -0.268 OA
ENDROOT
BRANCH  10  15
ATOM     15  C11 ZIN A   1      18.846  -2.729  10.903  0.00  0.00    -0.007 A 
ATOM     16  C16 ZIN A   1      17.481  -2.880  11.143  0.00  0.00     0.014 A 
ATOM     17  C15 ZIN A   1      16.936  -4.144  11.239  0.00  0.00     0.001 A 
ATOM     18  C14 ZIN A   1      17.743  -5.260  11.108  0.00  0.00     0.000 A 
ATOM     19  C13 ZIN A   1      19.099  -5.116  10.875  0.00  0.00     0.001 A 
ATOM     20  C12 ZIN A   1      19.655  -3.858  10.772  0.00  0.00     0.014 A 
ENDBRANCH  10  15
BRANCH  12  21
ATOM     21  O20 ZIN A   1      21.449   0.586  13.010  0.00  0.00    -0.367 OA
ATOM     22  H34 ZIN A   1      21.018   1.177  13.641  0.00  0.00     0.212 HD
ENDBRANCH  12  21
TORSDOF 2
ENDMDL
MODEL 2
REMARK VINA RESULT:      -8.1      3.207      4.912
REMARK  2 active torsions:
REMARK  status: ('A' for Active; 'I' for Inactive)
REMARK    1  A    between atoms: C10_10  and  C11_11 
REMARK    2  A    between atoms: C18_18  and  O20_19 
ROOT
ATOM      1  C1  ZIN A   1      17.573  -0.276  13.245  0.00  0.00     0.159 C 
ATOM      2  N2  ZIN A   1      18.565   0.205  12.281  0.00  0.00    -0.318 N 
ATOM      3  C3  ZIN A   1      18.315   1.419  11.657  0.00  0.00     0.049 A 
ATOM      4  C4  ZIN A   1      17.777   2.442  12.439  0.00  0.00     0.032 A 
ATOM      5  C5  ZIN A   1      17.498   3.674  11.889  0.00  0.00     0.026 A 
ATOM      6  C6  ZIN A   1      17.753   3.910  10.547  0.00  0.00     0.035 A 
ATOM      7 Cl7  ZIN A   1      17.402   5.463   9.857  0.00  0.00    -0.084 Cl
ATOM      8  C8  ZIN A   1      18.283   2.912   9.761  0.00  0.00     0.040 A 
ATOM      9  C9  ZIN A   1      18.570   1.651  10.307  0.00  0.00     0.022 A 
ATOM     10  C10 ZIN A   1      19.140   0.634   9.411  0.00  0.00     0.077 C 
ATOM     11  N17 ZIN A   1      20.079  -0.186   9.730  0.00  0.00    -0.247 NA
ATOM     12  C18 ZIN A   1      20.684  -0.186  11.061  0.00  0.00     0.335 C 
ATOM     13  C21 ZIN A   1      19.640  -0.553  12.077  0.00  0.00     0.274 C 
ATOM     14  O22 ZIN A   1      19.775  -1.571  12.723  0.00  0.00    -0.268 OA
ENDROOT
BRANCH  10  15
ATOM     15  C11 ZIN A   1      18.592   0.546   8.037  0.00  0.00    -0.007 A 
ATOM     16  C16 ZIN A   1      19.308   1.071   6.963  0.00  0.00     0.014 A 
ATOM     17  C15 ZIN A   1      18.795   0.982   5.685  0.00  0.00     0.001 A 
ATOM     18  C14 ZIN A   1      17.567   0.381   5.471  0.00  0.00     0.000 A 
ATOM     19  C13 ZIN A   1      16.849  -0.137   6.534  0.00  0.00     0.001 A 
ATOM     20  C12 ZIN A   1      17.354  -0.058   7.815  0.00  0.00     0.014 A 
ENDBRANCH  10  15
BRANCH  12  21
ATOM     21  O20 ZIN A   1      21.749  -1.137  11.103  0.00  0.00    -0.367 OA
ATOM     22  H34 ZIN A   1      22.563  -0.799  11.500  0.00  0.00     0.212 HD
ENDBRANCH  12  21
TORSDOF 2
ENDMDL
MODEL 3
REMARK VINA RESULT:      -7.5      3.723      6.686
REMARK  2 active torsions:
REMARK  status: ('A' for Active; 'I' for Inactive)
REMARK    1  A    between atoms: C10_10  and  C11_11 
REMARK    2  A    between atoms: C18_18  and  O20_19 
ROOT
ATOM      1  C1  ZIN A   1      17.785  -2.618  12.147  0.00  0.00     0.159 C 
ATOM      2  N2  ZIN A   1      18.820  -1.585  12.229  0.00  0.00    -0.318 N 
ATOM      3  C3  ZIN A   1      18.886  -0.835  13.394  0.00  0.00     0.049 A 
ATOM      4  C4  ZIN A   1      18.697  -1.510  14.601  0.00  0.00     0.032 A 
ATOM      5  C5  ZIN A   1      18.745  -0.832  15.800  0.00  0.00     0.026 A 
ATOM      6  C6  ZIN A   1      18.984   0.532  15.817  0.00  0.00     0.035 A 
ATOM      7 Cl7  ZIN A   1      19.044   1.384  17.329  0.00  0.00    -0.084 Cl
ATOM      8  C8  ZIN A   1      19.173   1.214  14.636  0.00  0.00     0.040 A 
ATOM      9  C9  ZIN A   1      19.125   0.537  13.407  0.00  0.00     0.022 A 
ATOM     10  C10 ZIN A   1      19.341   1.327  12.185  0.00  0.00     0.077 C 
ATOM     11  N17 ZIN A   1      20.029   0.939  11.170  0.00  0.00    -0.247 NA
ATOM     12  C18 ZIN A   1      20.679  -0.371  11.133  0.00  0.00     0.335 C 
ATOM     13  C21 ZIN A   1      19.629  -1.444  11.181  0.00  0.00     0.274 C 
ATOM     14  O22 ZIN A   1      19.509  -2.196  10.237  0.00  0.00    -0.268 OA
ENDROOT
BRANCH  10  15
ATOM     15  C11 ZIN A   1      18.719   2.670  12.118  0.00  0.00    -0.007 A 
ATOM     16  C16 ZIN A   1      17.595   2.881  11.320  0.00  0.00     0.014 A 
ATOM     17  C15 ZIN A   1      17.016   4.132  11.265  0.00  0.00     0.001 A 
ATOM     18  C14 ZIN A   1      17.556   5.179  11.992  0.00  0.00     0.000 A 
ATOM     19  C13 ZIN A   1      18.674   4.977  12.781  0.00  0.00     0.001 A 
ATOM     20  C12 ZIN A   1      19.258   3.729  12.848  0.00  0.00     0.014 A 
ENDBRANCH  10  15
BRANCH  12  21
ATOM     21  O20 ZIN A   1      21.437  -0.496   9.928  0.00  0.00    -0.367 OA
ATOM     22  H34 ZIN A   1      20.936  -0.856   9.184  0.00  0.00     0.212 HD
ENDBRANCH  12  21
TORSDOF 2
ENDMDL
MODEL 4
REMARK VINA RESULT:      -7.4      3.740      5.401
REMARK  2 active torsions:
REMARK  status: ('A' for Active; 'I' for Inactive)
REMARK    1  A    between atoms: C10_10  and  C11_11 
REMARK    2  A    between atoms: C18_18  and  O20_19 
ROOT
ATOM      1  C1  ZIN A   1      20.442  -0.232   9.603  0.00  0.00     0.159 C 
ATOM      2  N2  ZIN A   1      19.185  -0.262  10.353  0.00  0.00    -0.318 N 
ATOM      3  C3  ZIN A   1      18.630   0.955  10.722  0.00  0.00     0.049 A 
ATOM      4  C4  ZIN A   1      18.680   1.991   9.788  0.00  0.00     0.032 A 
ATOM      5  C5  ZIN A   1      18.153   3.229  10.084  0.00  0.00     0.026 A 
ATOM      6  C6  ZIN A   1      17.564   3.457  11.317  0.00  0.00     0.035 A 
ATOM      7 Cl7  ZIN A   1      16.900   5.018  11.686  0.00  0.00    -0.084 Cl
ATOM      8  C8  ZIN A   1      17.506   2.447  12.250  0.00  0.00     0.040 A 
ATOM      9  C9  ZIN A   1      18.040   1.181  11.964  0.00  0.00     0.022 A 
ATOM     10  C10 ZIN A   1      17.939   0.146  13.005  0.00  0.00     0.077 C 
ATOM     11  N17 ZIN A   1      17.658  -1.090  12.789  0.00  0.00    -0.247 NA
ATOM     12  C18 ZIN A   1      17.410  -1.601  11.442  0.00  0.00     0.335 C 
ATOM     13  C21 ZIN A   1      18.659  -1.456  10.622  0.00  0.00     0.274 C 
ATOM     14  O22 ZIN A   1      19.209  -2.451  10.200  0.00  0.00    -0.268 OA
ENDROOT
BRANCH  10  15
ATOM     15  C11 ZIN A   1      18.179   0.560  14.408  0.00  0.00    -0.007 A 
ATOM     16  C16 ZIN A   1      17.464  -0.037  15.445  0.00  0.00     0.014 A 
ATOM     17  C15 ZIN A   1      17.695   0.349  16.750  0.00  0.00     0.001 A 
ATOM     18  C14 ZIN A   1      18.627   1.333  17.028  0.00  0.00     0.000 A 
ATOM     19  C13 ZIN A   1      19.336   1.933  16.002  0.00  0.00     0.001 A 
ATOM     20  C12 ZIN A   1      19.117   1.552  14.694  0.00  0.00     0.014 A 
ENDBRANCH  10  15
BRANCH  12  21
ATOM     21  O20 ZIN A   1      17.042  -2.980  11.514  0.00  0.00    -0.367 OA
ATOM     22  H34 ZIN A   1      16.433  -3.188  12.235  0.00  0.00     0.212 HD
ENDBRANCH  12  21
TORSDOF 2
ENDMDL
MODEL 5
REMARK VINA RESULT:      -7.2      4.082      4.941
REMARK  2 active torsions:
REMARK  status: ('A' for Active; 'I' for Inactive)
REMARK    1  A    between atoms: C10_10  and  C11_11 
REMARK    2  A    between atoms: C18_18  and  O20_19 
ROOT
ATOM      1  C1  ZIN A   1      16.199   5.509  12.612  0.00  0.00     0.159 C 
ATOM      2  N2  ZIN A   1      17.512   4.951  12.945  0.00  0.00    -0.318 N 
ATOM      3  C3  ZIN A   1      18.026   3.977  12.103  0.00  0.00     0.049 A 
ATOM      4  C4  ZIN A   1      17.846   4.156  10.730  0.00  0.00     0.032 A 
ATOM      5  C5  ZIN A   1      18.326   3.229   9.832  0.00  0.00     0.026 A 
ATOM      6  C6  ZIN A   1      18.997   2.104  10.286  0.00  0.00     0.035 A 
ATOM      7 Cl7  ZIN A   1      19.601   0.938   9.151  0.00  0.00    -0.084 Cl
ATOM      8  C8  ZIN A   1      19.183   1.911  11.636  0.00  0.00     0.040 A 
ATOM      9  C9  ZIN A   1      18.699   2.847  12.563  0.00  0.00     0.022 A 
ATOM     10  C10 ZIN A   1      18.938   2.579  13.990  0.00  0.00     0.077 C 
ATOM     11  N17 ZIN A   1      19.269   3.468  14.860  0.00  0.00    -0.247 NA
ATOM     12  C18 ZIN A   1      19.438   4.875  14.499  0.00  0.00     0.335 C 
ATOM     13  C21 ZIN A   1      18.122   5.425  14.030  0.00  0.00     0.274 C 
ATOM     14  O22 ZIN A   1      17.596   6.318  14.660  0.00  0.00    -0.268 OA
ENDROOT
BRANCH  10  15
ATOM     15  C11 ZIN A   1      18.787   1.183  14.460  0.00  0.00    -0.007 A 
ATOM     16  C16 ZIN A   1      17.703   0.828  15.262  0.00  0.00     0.014 A 
ATOM     17  C15 ZIN A   1      17.564  -0.476  15.693  0.00  0.00     0.001 A 
ATOM     18  C14 ZIN A   1      18.505  -1.427  15.340  0.00  0.00     0.000 A 
ATOM     19  C13 ZIN A   1      19.586  -1.080  14.549  0.00  0.00     0.001 A 
ATOM     20  C12 ZIN A   1      19.732   0.219  14.107  0.00  0.00     0.014 A 
ENDBRANCH  10  15
BRANCH  12  21
ATOM     21  O20 ZIN A   1      19.885   5.610  15.640  0.00  0.00    -0.367 OA
ATOM     22  H34 ZIN A   1      20.008   6.555  15.475  0.00  0.00     0.212 HD
ENDBRANCH  12  21
TORSDOF 2
ENDMDL
MODEL 6
REMARK VINA RESULT:      -7.1      4.894      7.489
REMARK  2 active torsions:
REMARK  status: ('A' for Active; 'I' for Inactive)
REMARK    1  A    between atoms: C10_10  and  C11_11 
REMARK    2  A    between atoms: C18_18  and  O20_19 
ROOT
ATOM      1  C1  ZIN A   1      17.321  -0.137  16.282  0.00  0.00     0.159 C 
ATOM      2  N2  ZIN A   1      18.340   0.463  15.418  0.00  0.00    -0.318 N 
ATOM      3  C3  ZIN A   1      18.656   1.797  15.631  0.00  0.00     0.049 A 
ATOM      4  C4  ZIN A   1      18.743   2.231  16.956  0.00  0.00     0.032 A 
ATOM      5  C5  ZIN A   1      19.048   3.542  17.246  0.00  0.00     0.026 A 
ATOM      6  C6  ZIN A   1      19.275   4.446  16.221  0.00  0.00     0.035 A 
ATOM      7 Cl7  ZIN A   1      19.660   6.098  16.591  0.00  0.00    -0.084 Cl
ATOM      8  C8  ZIN A   1      19.193   4.036  14.910  0.00  0.00     0.040 A 
ATOM      9  C9  ZIN A   1      18.882   2.703  14.598  0.00  0.00     0.022 A 
ATOM     10  C10 ZIN A   1      18.816   2.333  13.176  0.00  0.00     0.077 C 
ATOM     11  N17 ZIN A   1      19.267   1.235  12.680  0.00  0.00    -0.247 NA
ATOM     12  C18 ZIN A   1      19.903   0.216  13.513  0.00  0.00     0.335 C 
ATOM     13  C21 ZIN A   1      18.897  -0.317  14.494  0.00  0.00     0.274 C 
ATOM     14  O22 ZIN A   1      18.578  -1.486  14.437  0.00  0.00    -0.268 OA
ENDROOT
BRANCH  10  15
ATOM     15  C11 ZIN A   1      18.184   3.297  12.245  0.00  0.00    -0.007 A 
ATOM     16  C16 ZIN A   1      17.247   4.215  12.718  0.00  0.00     0.014 A 
ATOM     17  C15 ZIN A   1      16.665   5.113  11.847  0.00  0.00     0.001 A 
ATOM     18  C14 ZIN A   1      17.002   5.097  10.505  0.00  0.00     0.000 A 
ATOM     19  C13 ZIN A   1      17.927   4.184  10.029  0.00  0.00     0.001 A 
ATOM     20  C12 ZIN A   1      18.520   3.285  10.891  0.00  0.00     0.014 A 
ENDBRANCH  10  15
BRANCH  12  21
ATOM     21  O20 ZIN A   1      20.378  -0.850  12.688  0.00  0.00    -0.367 OA
ATOM     22  H34 ZIN A   1      19.898  -0.945  11.854  0.00  0.00     0.212 HD
ENDBRANCH  12  21
TORSDOF 2
ENDMDL
MODEL 7
REMARK VINA RESULT:      -7.0      2.317      2.877
REMARK  2 active torsions:
REMARK  status: ('A' for Active; 'I' for Inactive)
REMARK    1  A    between atoms: C10_10  and  C11_11 
REMARK    2  A    between atoms: C18_18  and  O20_19 
ROOT
ATOM      1  C1  ZIN A   1      17.002   0.239  10.751  0.00  0.00     0.159 C 
ATOM      2  N2  ZIN A   1      18.036  -0.759  10.469  0.00  0.00    -0.318 N 
ATOM      3  C3  ZIN A   1      18.303  -1.046   9.138  0.00  0.00     0.049 A 
ATOM      4  C4  ZIN A   1      18.325   0.026   8.244  0.00  0.00     0.032 A 
ATOM      5  C5  ZIN A   1      18.580  -0.182   6.906  0.00  0.00     0.026 A 
ATOM      6  C6  ZIN A   1      18.819  -1.462   6.434  0.00  0.00     0.035 A 
ATOM      7 Cl7  ZIN A   1      19.140  -1.720   4.748  0.00  0.00    -0.084 Cl
ATOM      8  C8  ZIN A   1      18.801  -2.531   7.302  0.00  0.00     0.040 A 
ATOM      9  C9  ZIN A   1      18.541  -2.335   8.667  0.00  0.00     0.022 A 
ATOM     10  C10 ZIN A   1      18.542  -3.521   9.538  0.00  0.00     0.077 C 
ATOM     11  N17 ZIN A   1      19.044  -3.565  10.721  0.00  0.00    -0.247 NA
ATOM     12  C18 ZIN A   1      19.677  -2.399  11.334  0.00  0.00     0.335 C 
ATOM     13  C21 ZIN A   1      18.651  -1.316  11.510  0.00  0.00     0.274 C 
ATOM     14  O22 ZIN A   1      18.369  -0.945  12.630  0.00  0.00    -0.268 OA
ENDROOT
BRANCH  10  15
ATOM     15  C11 ZIN A   1      17.918  -4.758   9.012  0.00  0.00    -0.007 A 
ATOM     16  C16 ZIN A   1      18.714  -5.778   8.493  0.00  0.00     0.014 A 
ATOM     17  C15 ZIN A   1      18.127  -6.929   8.009  0.00  0.00     0.001 A 
ATOM     18  C14 ZIN A   1      16.751  -7.068   8.030  0.00  0.00     0.000 A 
ATOM     19  C13 ZIN A   1      15.955  -6.058   8.539  0.00  0.00     0.001 A 
ATOM     20  C12 ZIN A   1      16.530  -4.904   9.030  0.00  0.00     0.014 A 
ENDBRANCH  10  15
BRANCH  12  21
ATOM     21  O20 ZIN A   1      20.215  -2.760  12.608  0.00  0.00    -0.367 OA
ATOM     22  H34 ZIN A   1      19.982  -3.653  12.894  0.00  0.00     0.212 HD
ENDBRANCH  12  21
TORSDOF 2
ENDMDL
MODEL 8
REMARK VINA RESULT:      -6.9      4.593      7.647
REMARK  2 active torsions:
REMARK  status: ('A' for Active; 'I' for Inactive)
REMARK    1  A    between atoms: C10_10  and  C11_11 
REMARK    2  A    between atoms: C18_18  and  O20_19 
ROOT
ATOM      1  C1  ZIN A   1      16.481  -0.114  11.957  0.00  0.00     0.159 C 
ATOM      2  N2  ZIN A   1      17.706   0.649  12.207  0.00  0.00    -0.318 N 
ATOM      3  C3  ZIN A   1      18.128   0.771  13.523  0.00  0.00     0.049 A 
ATOM      4  C4  ZIN A   1      18.014  -0.356  14.339  0.00  0.00     0.032 A 
ATOM      5  C5  ZIN A   1      18.409  -0.310  15.658  0.00  0.00     0.026 A 
ATOM      6  C6  ZIN A   1      18.925   0.861  16.189  0.00  0.00     0.035 A 
ATOM      7 Cl7  ZIN A   1      19.423   0.915  17.851  0.00  0.00    -0.084 Cl
ATOM      8  C8  ZIN A   1      19.044   1.982  15.398  0.00  0.00     0.040 A 
ATOM      9  C9  ZIN A   1      18.645   1.951  14.053  0.00  0.00     0.022 A 
ATOM     10  C10 ZIN A   1      18.805   3.184  13.266  0.00  0.00     0.077 C 
ATOM     11  N17 ZIN A   1      19.211   3.231  12.047  0.00  0.00    -0.247 NA
ATOM     12  C18 ZIN A   1      19.558   2.021  11.302  0.00  0.00     0.335 C 
ATOM     13  C21 ZIN A   1      18.333   1.166  11.151  0.00  0.00     0.274 C 
ATOM     14  O22 ZIN A   1      17.897   0.946  10.041  0.00  0.00    -0.268 OA
ENDROOT
BRANCH  10  15
ATOM     15  C11 ZIN A   1      18.473   4.467  13.928  0.00  0.00    -0.007 A 
ATOM     16  C16 ZIN A   1      19.488   5.350  14.293  0.00  0.00     0.014 A 
ATOM     17  C15 ZIN A   1      19.173   6.546  14.904  0.00  0.00     0.001 A 
ATOM     18  C14 ZIN A   1      17.852   6.865  15.164  0.00  0.00     0.000 A 
ATOM     19  C13 ZIN A   1      16.840   5.990  14.810  0.00  0.00     0.001 A 
ATOM     20  C12 ZIN A   1      17.143   4.794  14.193  0.00  0.00     0.014 A 
ENDBRANCH  10  15
BRANCH  12  21
ATOM     21  O20 ZIN A   1      20.053   2.380  10.010  0.00  0.00    -0.367 OA
ATOM     22  H34 ZIN A   1      20.215   1.626   9.428  0.00  0.00     0.212 HD
ENDBRANCH  12  21
TORSDOF 2
ENDMDL
MODEL 9
REMARK VINA RESULT:      -6.4      3.288      4.230
REMARK  2 active torsions:
REMARK  status: ('A' for Active; 'I' for Inactive)
REMARK    1  A    between atoms: C10_10  and  C11_11 
REMARK    2  A    between atoms: C18_18  and  O20_19 
ROOT
ATOM      1  C1  ZIN A   1      20.001   2.131   8.611  0.00  0.00     0.159 C 
ATOM      2  N2  ZIN A   1      18.831   1.273   8.813  0.00  0.00    -0.318 N 
ATOM      3  C3  ZIN A   1      18.410   1.061  10.117  0.00  0.00     0.049 A 
ATOM      4  C4  ZIN A   1      18.437   2.154  10.985  0.00  0.00     0.032 A 
ATOM      5  C5  ZIN A   1      18.036   2.020  12.297  0.00  0.00     0.026 A 
ATOM      6  C6  ZIN A   1      17.600   0.792  12.767  0.00  0.00     0.035 A 
ATOM      7 Cl7  ZIN A   1      17.096   0.626  14.420  0.00  0.00    -0.084 Cl
ATOM      8  C8  ZIN A   1      17.567  -0.297  11.926  0.00  0.00     0.040 A 
ATOM      9  C9  ZIN A   1      17.973  -0.175  10.588  0.00  0.00     0.022 A 
ATOM     10  C10 ZIN A   1      17.906  -1.378   9.743  0.00  0.00     0.077 C 
ATOM     11  N17 ZIN A   1      17.514  -1.397   8.518  0.00  0.00    -0.247 NA
ATOM     12  C18 ZIN A   1      17.088  -0.182   7.826  0.00  0.00     0.335 C 
ATOM     13  C21 ZIN A   1      18.250   0.764   7.728  0.00  0.00     0.274 C 
ATOM     14  O22 ZIN A   1      18.678   1.064   6.634  0.00  0.00    -0.268 OA
ENDROOT
BRANCH  10  15
ATOM     15  C11 ZIN A   1      18.323  -2.665  10.349  0.00  0.00    -0.007 A 
ATOM     16  C16 ZIN A   1      17.424  -3.728  10.422  0.00  0.00     0.014 A 
ATOM     17  C15 ZIN A   1      17.820  -4.925  10.983  0.00  0.00     0.001 A 
ATOM     18  C14 ZIN A   1      19.103  -5.068  11.481  0.00  0.00     0.000 A 
ATOM     19  C13 ZIN A   1      19.998  -4.015  11.416  0.00  0.00     0.001 A 
ATOM     20  C12 ZIN A   1      19.616  -2.815  10.853  0.00  0.00     0.014 A 
ENDBRANCH  10  15
BRANCH  12  21
ATOM     21  O20 ZIN A   1      16.629  -0.514   6.514  0.00  0.00    -0.367 OA
ATOM     22  H34 ZIN A   1      17.328  -0.540   5.848  0.00  0.00     0.212 HD
ENDBRANCH  12  21
TORSDOF 2
ENDMDL
