MODEL 1
REMARK VINA RESULT:      -6.6      0.000      0.000
REMARK  4 active torsions:
REMARK  status: ('A' for Active; 'I' for Inactive)
REMARK    1  A    between atoms: O2_2  and  C3_3 
REMARK    2  A    between atoms: C3_3  and  C5_5 
REMARK    3  A    between atoms: C5_5  and  C7_6 
REMARK    4  A    between atoms: C5_5  and  C13_12 
ROOT
ATOM      1  C5  ZIN A   1      19.283   2.024  10.707  0.00  0.00     0.149 C 
ENDROOT
BRANCH   1   2
ATOM      2  C3  ZIN A   1      19.680   0.947  11.682  0.00  0.00     0.269 C 
ATOM      3  O4  ZIN A   1      20.706   0.328  11.514  0.00  0.00    -0.264 OA
BRANCH   2   4
ATOM      4  O2  ZIN A   1      18.897   0.672  12.736  0.00  0.00    -0.326 OA
ATOM      5  C1  ZIN A   1      19.557   0.221  13.948  0.00  0.00     0.213 C 
ENDBRANCH   2   4
ENDBRANCH   1   2
BRANCH   1   6
ATOM      6  C7  ZIN A   1      18.792   1.391   9.431  0.00  0.00    -0.043 A 
ATOM      7  C12 ZIN A   1      19.387   1.714   8.225  0.00  0.00     0.008 A 
ATOM      8  C11 ZIN A   1      18.939   1.130   7.055  0.00  0.00     0.001 A 
ATOM      9  C10 ZIN A   1      17.890   0.231   7.089  0.00  0.00     0.000 A 
ATOM     10  C9  ZIN A   1      17.292  -0.088   8.293  0.00  0.00     0.001 A 
ATOM     11  C8  ZIN A   1      17.741   0.492   9.464  0.00  0.00     0.008 A 
ENDBRANCH   1   6
BRANCH   1  12
ATOM     12  C13 ZIN A   1      18.167   2.875  11.316  0.00  0.00     0.203 C 
ATOM     13  N19 ZIN A   1      18.630   3.456  12.581  0.00  0.00    -0.070 N 
ATOM     14  C18 ZIN A   1      17.541   4.213  13.211  0.00  0.00     0.232 C 
ATOM     15  H20 ZIN A   1      18.927   2.718  13.201  0.00  0.00     0.277 HD
ATOM     16  H21 ZIN A   1      19.407   4.075  12.401  0.00  0.00     0.277 HD
ATOM     17  C17 ZIN A   1      17.143   5.385  12.312  0.00  0.00     0.027 C 
ATOM     18  C16 ZIN A   1      16.674   4.845  10.956  0.00  0.00     0.004 C 
ATOM     19  C15 ZIN A   1      17.792   3.996  10.343  0.00  0.00     0.034 C 
ENDBRANCH   1  12
TORSDOF 4
ENDMDL
MODEL 2
REMARK VINA RESULT:      -6.5      3.280      5.115
REMARK  4 active torsions:
REMARK  status: ('A' for Active; 'I' for Inactive)
REMARK    1  A    between atoms: O2_2  and  C3_3 
REMARK    2  A    between atoms: C3_3  and  C5_5 
REMARK    3  A    between atoms: C5_5  and  C7_6 
REMARK    4  A    between atoms: C5_5  and  C13_12 
ROOT
ATOM      1  C5  ZIN A   1      17.485  -1.320  12.632  0.00  0.00     0.149 C 
ENDROOT
BRANCH   1   2
ATOM      2  C3  ZIN A   1      17.129  -0.339  11.546  0.00  0.00     0.269 C 
ATOM      3  O4  ZIN A   1      16.005   0.102  11.474  0.00  0.00    -0.264 OA
BRANCH   2   4
ATOM      4  O2  ZIN A   1      18.057   0.045  10.657  0.00  0.00    -0.326 OA
ATOM      5  C1  ZIN A   1      17.855   1.326  10.004  0.00  0.00     0.213 C 
ENDBRANCH   2   4
ENDBRANCH   1   2
BRANCH   1   6
ATOM      6  C7  ZIN A   1      18.191  -2.506  12.028  0.00  0.00    -0.043 A 
ATOM      7  C12 ZIN A   1      19.565  -2.621  12.135  0.00  0.00     0.008 A 
ATOM      8  C11 ZIN A   1      20.212  -3.711  11.584  0.00  0.00     0.001 A 
ATOM      9  C10 ZIN A   1      19.487  -4.681  10.918  0.00  0.00     0.000 A 
ATOM     10  C9  ZIN A   1      18.115  -4.563  10.806  0.00  0.00     0.001 A 
ATOM     11  C8  ZIN A   1      17.466  -3.476  11.360  0.00  0.00     0.008 A 
ENDBRANCH   1   6
BRANCH   1  12
ATOM     12  C13 ZIN A   1      18.406  -0.642  13.649  0.00  0.00     0.203 C 
ATOM     13  N19 ZIN A   1      18.205   0.811  13.597  0.00  0.00    -0.070 N 
ATOM     14  C18 ZIN A   1      19.139   1.476  14.514  0.00  0.00     0.232 C 
ATOM     15  H20 ZIN A   1      18.367   1.139  12.658  0.00  0.00     0.277 HD
ATOM     16  H21 ZIN A   1      17.257   1.027  13.869  0.00  0.00     0.277 HD
ATOM     17  C17 ZIN A   1      18.842   1.044  15.952  0.00  0.00     0.027 C 
ATOM     18  C16 ZIN A   1      19.006  -0.475  16.067  0.00  0.00     0.004 C 
ATOM     19  C15 ZIN A   1      18.081  -1.156  15.053  0.00  0.00     0.034 C 
ENDBRANCH   1  12
TORSDOF 4
ENDMDL
MODEL 3
REMARK VINA RESULT:      -6.3      1.722      3.842
REMARK  4 active torsions:
REMARK  status: ('A' for Active; 'I' for Inactive)
REMARK    1  A    between atoms: O2_2  and  C3_3 
REMARK    2  A    between atoms: C3_3  and  C5_5 
REMARK    3  A    between atoms: C5_5  and  C7_6 
REMARK    4  A    between atoms: C5_5  and  C13_12 
ROOT
ATOM      1  C5  ZIN A   1      17.630   1.434  11.431  0.00  0.00     0.149 C 
ENDROOT
BRANCH   1   2
ATOM      2  C3  ZIN A   1      17.772   2.909  11.703  0.00  0.00     0.269 C 
ATOM      3  O4  ZIN A   1      18.749   3.325  12.281  0.00  0.00    -0.264 OA
BRANCH   2   4
ATOM      4  O2  ZIN A   1      16.815   3.761  11.304  0.00  0.00    -0.326 OA
ATOM      5  C1  ZIN A   1      17.232   4.885  10.486  0.00  0.00     0.213 C 
ENDBRANCH   2   4
ENDBRANCH   1   2
BRANCH   1   6
ATOM      6  C7  ZIN A   1      17.985   1.151   9.994  0.00  0.00    -0.043 A 
ATOM      7  C12 ZIN A   1      19.058   1.796   9.407  0.00  0.00     0.008 A 
ATOM      8  C11 ZIN A   1      19.386   1.533   8.091  0.00  0.00     0.001 A 
ATOM      9  C10 ZIN A   1      18.636   0.633   7.358  0.00  0.00     0.000 A 
ATOM     10  C9  ZIN A   1      17.561  -0.007   7.943  0.00  0.00     0.001 A 
ATOM     11  C8  ZIN A   1      17.234   0.252   9.260  0.00  0.00     0.008 A 
ENDBRANCH   1   6
BRANCH   1  12
ATOM     12  C13 ZIN A   1      18.570   0.653  12.352  0.00  0.00     0.203 C 
ATOM     13  N19 ZIN A   1      18.277   0.990  13.750  0.00  0.00    -0.070 N 
ATOM     14  C18 ZIN A   1      19.224   0.304  14.637  0.00  0.00     0.232 C 
ATOM     15  H20 ZIN A   1      18.358   1.987  13.879  0.00  0.00     0.277 HD
ATOM     16  H21 ZIN A   1      17.337   0.699  13.973  0.00  0.00     0.277 HD
ATOM     17  C17 ZIN A   1      19.048  -1.210  14.505  0.00  0.00     0.027 C 
ATOM     18  C16 ZIN A   1      19.313  -1.625  13.055  0.00  0.00     0.004 C 
ATOM     19  C15 ZIN A   1      18.369  -0.848  12.132  0.00  0.00     0.034 C 
ENDBRANCH   1  12
TORSDOF 4
ENDMDL
MODEL 4
REMARK VINA RESULT:      -6.2      2.371      5.017
REMARK  4 active torsions:
REMARK  status: ('A' for Active; 'I' for Inactive)
REMARK    1  A    between atoms: O2_2  and  C3_3 
REMARK    2  A    between atoms: C3_3  and  C5_5 
REMARK    3  A    between atoms: C5_5  and  C7_6 
REMARK    4  A    between atoms: C5_5  and  C13_12 
ROOT
ATOM      1  C5  ZIN A   1      17.280   0.939   9.771  0.00  0.00     0.149 C 
ENDROOT
BRANCH   1   2
ATOM      2  C3  ZIN A   1      16.958  -0.188  10.718  0.00  0.00     0.269 C 
ATOM      3  O4  ZIN A   1      16.129  -0.031  11.584  0.00  0.00    -0.264 OA
BRANCH   2   4
ATOM      4  O2  ZIN A   1      17.591  -1.365  10.601  0.00  0.00    -0.326 OA
ATOM      5  C1  ZIN A   1      17.605  -2.225  11.771  0.00  0.00     0.213 C 
ENDBRANCH   2   4
ENDBRANCH   1   2
BRANCH   1   6
ATOM      6  C7  ZIN A   1      18.084   1.989  10.493  0.00  0.00    -0.043 A 
ATOM      7  C12 ZIN A   1      19.304   1.660  11.055  0.00  0.00     0.008 A 
ATOM      8  C11 ZIN A   1      20.044   2.625  11.713  0.00  0.00     0.001 A 
ATOM      9  C10 ZIN A   1      19.559   3.915  11.819  0.00  0.00     0.000 A 
ATOM     10  C9  ZIN A   1      18.337   4.242  11.263  0.00  0.00     0.001 A 
ATOM     11  C8  ZIN A   1      17.599   3.279  10.601  0.00  0.00     0.008 A 
ENDBRANCH   1   6
BRANCH   1  12
ATOM     12  C13 ZIN A   1      18.091   0.397   8.592  0.00  0.00     0.203 C 
ATOM     13  N19 ZIN A   1      17.294  -0.599   7.867  0.00  0.00    -0.070 N 
ATOM     14  C18 ZIN A   1      18.091  -1.180   6.779  0.00  0.00     0.232 C 
ATOM     15  H20 ZIN A   1      17.011  -1.329   8.502  0.00  0.00     0.277 HD
ATOM     16  H21 ZIN A   1      16.474  -0.154   7.481  0.00  0.00     0.277 HD
ATOM     17  C17 ZIN A   1      18.454  -0.090   5.769  0.00  0.00     0.027 C 
ATOM     18  C16 ZIN A   1      19.267   1.002   6.473  0.00  0.00     0.004 C 
ATOM     19  C15 ZIN A   1      18.454   1.548   7.652  0.00  0.00     0.034 C 
ENDBRANCH   1  12
TORSDOF 4
ENDMDL
MODEL 5
REMARK VINA RESULT:      -6.1      3.390      6.725
REMARK  4 active torsions:
REMARK  status: ('A' for Active; 'I' for Inactive)
REMARK    1  A    between atoms: O2_2  and  C3_3 
REMARK    2  A    between atoms: C3_3  and  C5_5 
REMARK    3  A    between atoms: C5_5  and  C7_6 
REMARK    4  A    between atoms: C5_5  and  C13_12 
ROOT
ATOM      1  C5  ZIN A   1      18.470  -0.668  12.204  0.00  0.00     0.149 C 
ENDROOT
BRANCH   1   2
ATOM      2  C3  ZIN A   1      17.306  -0.072  11.456  0.00  0.00     0.269 C 
ATOM      3  O4  ZIN A   1      16.194  -0.119  11.931  0.00  0.00    -0.264 OA
BRANCH   2   4
ATOM      4  O2  ZIN A   1      17.501   0.513  10.264  0.00  0.00    -0.326 OA
ATOM      5  C1  ZIN A   1      17.831   1.927  10.269  0.00  0.00     0.213 C 
ENDBRANCH   2   4
ENDBRANCH   1   2
BRANCH   1   6
ATOM      6  C7  ZIN A   1      18.394  -0.269  13.654  0.00  0.00    -0.043 A 
ATOM      7  C12 ZIN A   1      18.190  -1.230  14.627  0.00  0.00     0.008 A 
ATOM      8  C11 ZIN A   1      18.126  -0.864  15.958  0.00  0.00     0.001 A 
ATOM      9  C10 ZIN A   1      18.254   0.465  16.316  0.00  0.00     0.000 A 
ATOM     10  C9  ZIN A   1      18.453   1.426  15.344  0.00  0.00     0.001 A 
ATOM     11  C8  ZIN A   1      18.522   1.061  14.013  0.00  0.00     0.008 A 
ENDBRANCH   1   6
BRANCH   1  12
ATOM     12  C13 ZIN A   1      18.418  -2.194  12.092  0.00  0.00     0.203 C 
ATOM     13  N19 ZIN A   1      17.379  -2.579  11.130  0.00  0.00    -0.070 N 
ATOM     14  C18 ZIN A   1      17.270  -4.042  11.073  0.00  0.00     0.232 C 
ATOM     15  H20 ZIN A   1      16.495  -2.188  11.417  0.00  0.00     0.277 HD
ATOM     16  H21 ZIN A   1      17.621  -2.225  10.216  0.00  0.00     0.277 HD
ATOM     17  C17 ZIN A   1      18.584  -4.635  10.559  0.00  0.00     0.027 C 
ATOM     18  C16 ZIN A   1      19.721  -4.243  11.508  0.00  0.00     0.004 C 
ATOM     19  C15 ZIN A   1      19.776  -2.716  11.617  0.00  0.00     0.034 C 
ENDBRANCH   1  12
TORSDOF 4
ENDMDL
MODEL 6
REMARK VINA RESULT:      -6.1      3.049      5.741
REMARK  4 active torsions:
REMARK  status: ('A' for Active; 'I' for Inactive)
REMARK    1  A    between atoms: O2_2  and  C3_3 
REMARK    2  A    between atoms: C3_3  and  C5_5 
REMARK    3  A    between atoms: C5_5  and  C7_6 
REMARK    4  A    between atoms: C5_5  and  C13_12 
ROOT
ATOM      1  C5  ZIN A   1      17.681  -0.885   8.479  0.00  0.00     0.149 C 
ENDROOT
BRANCH   1   2
ATOM      2  C3  ZIN A   1      18.222  -1.943   9.405  0.00  0.00     0.269 C 
ATOM      3  O4  ZIN A   1      17.523  -2.873   9.734  0.00  0.00    -0.264 OA
BRANCH   2   4
ATOM      4  O2  ZIN A   1      19.479  -1.854   9.866  0.00  0.00    -0.326 OA
ATOM      5  C1  ZIN A   1      19.702  -2.226  11.251  0.00  0.00     0.213 C 
ENDBRANCH   2   4
ENDBRANCH   1   2
BRANCH   1   6
ATOM      6  C7  ZIN A   1      17.992   0.479   9.038  0.00  0.00    -0.043 A 
ATOM      7  C12 ZIN A   1      18.869   1.316   8.373  0.00  0.00     0.008 A 
ATOM      8  C11 ZIN A   1      19.150   2.569   8.883  0.00  0.00     0.001 A 
ATOM      9  C10 ZIN A   1      18.562   2.982  10.064  0.00  0.00     0.000 A 
ATOM     10  C9  ZIN A   1      17.690   2.144  10.732  0.00  0.00     0.001 A 
ATOM     11  C8  ZIN A   1      17.405   0.892  10.220  0.00  0.00     0.008 A 
ENDBRANCH   1   6
BRANCH   1  12
ATOM     12  C13 ZIN A   1      18.332  -1.032   7.102  0.00  0.00     0.203 C 
ATOM     13  N19 ZIN A   1      18.676  -2.440   6.872  0.00  0.00    -0.070 N 
ATOM     14  C18 ZIN A   1      19.370  -2.580   5.586  0.00  0.00     0.232 C 
ATOM     15  H20 ZIN A   1      19.277  -2.765   7.614  0.00  0.00     0.277 HD
ATOM     16  H21 ZIN A   1      17.831  -2.993   6.858  0.00  0.00     0.277 HD
ATOM     17  C17 ZIN A   1      18.434  -2.166   4.449  0.00  0.00     0.027 C 
ATOM     18  C16 ZIN A   1      18.012  -0.707   4.647  0.00  0.00     0.004 C 
ATOM     19  C15 ZIN A   1      17.356  -0.559   6.023  0.00  0.00     0.034 C 
ENDBRANCH   1  12
TORSDOF 4
ENDMDL
MODEL 7
REMARK VINA RESULT:      -6.0      2.334      4.354
REMARK  4 active torsions:
REMARK  status: ('A' for Active; 'I' for Inactive)
REMARK    1  A    between atoms: O2_2  and  C3_3 
REMARK    2  A    between atoms: C3_3  and  C5_5 
REMARK    3  A    between atoms: C5_5  and  C7_6 
REMARK    4  A    between atoms: C5_5  and  C13_12 
ROOT
ATOM      1  C5  ZIN A   1      17.673   0.285  10.086  0.00  0.00     0.149 C 
ENDROOT
BRANCH   1   2
ATOM      2  C3  ZIN A   1      17.993   1.591  10.764  0.00  0.00     0.269 C 
ATOM      3  O4  ZIN A   1      17.157   2.462  10.823  0.00  0.00    -0.264 OA
BRANCH   2   4
ATOM      4  O2  ZIN A   1      19.206   1.788  11.303  0.00  0.00    -0.326 OA
ATOM      5  C1  ZIN A   1      19.647   3.164  11.448  0.00  0.00     0.213 C 
ENDBRANCH   2   4
ENDBRANCH   1   2
BRANCH   1   6
ATOM      6  C7  ZIN A   1      17.888   0.422   8.601  0.00  0.00    -0.043 A 
ATOM      7  C12 ZIN A   1      18.944   1.177   8.123  0.00  0.00     0.008 A 
ATOM      8  C11 ZIN A   1      19.144   1.300   6.761  0.00  0.00     0.001 A 
ATOM      9  C10 ZIN A   1      18.284   0.676   5.877  0.00  0.00     0.000 A 
ATOM     10  C9  ZIN A   1      17.226  -0.074   6.355  0.00  0.00     0.001 A 
ATOM     11  C8  ZIN A   1      17.027  -0.200   7.717  0.00  0.00     0.008 A 
ENDBRANCH   1   6
BRANCH   1  12
ATOM     12  C13 ZIN A   1      18.589  -0.812  10.635  0.00  0.00     0.203 C 
ATOM     13  N19 ZIN A   1      18.408  -0.919  12.087  0.00  0.00    -0.070 N 
ATOM     14  C18 ZIN A   1      19.338  -1.915  12.633  0.00  0.00     0.232 C 
ATOM     15  H20 ZIN A   1      18.588  -0.023  12.514  0.00  0.00     0.277 HD
ATOM     16  H21 ZIN A   1      17.460  -1.200  12.287  0.00  0.00     0.277 HD
ATOM     17  C17 ZIN A   1      19.015  -3.292  12.050  0.00  0.00     0.027 C 
ATOM     18  C16 ZIN A   1      19.157  -3.241  10.525  0.00  0.00     0.004 C 
ATOM     19  C15 ZIN A   1      18.237  -2.147   9.974  0.00  0.00     0.034 C 
ENDBRANCH   1  12
TORSDOF 4
ENDMDL
MODEL 8
REMARK VINA RESULT:      -5.8      2.680      5.392
REMARK  4 active torsions:
REMARK  status: ('A' for Active; 'I' for Inactive)
REMARK    1  A    between atoms: O2_2  and  C3_3 
REMARK    2  A    between atoms: C3_3  and  C5_5 
REMARK    3  A    between atoms: C5_5  and  C7_6 
REMARK    4  A    between atoms: C5_5  and  C13_12 
ROOT
ATOM      1  C5  ZIN A   1      19.479   0.952   9.747  0.00  0.00     0.149 C 
ENDROOT
BRANCH   1   2
ATOM      2  C3  ZIN A   1      18.820   1.003   8.394  0.00  0.00     0.269 C 
ATOM      3  O4  ZIN A   1      19.252   1.740   7.538  0.00  0.00    -0.264 OA
BRANCH   2   4
ATOM      4  O2  ZIN A   1      17.753   0.231   8.137  0.00  0.00    -0.326 OA
ATOM      5  C1  ZIN A   1      17.521  -0.135   6.751  0.00  0.00     0.213 C 
ENDBRANCH   2   4
ENDBRANCH   1   2
BRANCH   1   6
ATOM      6  C7  ZIN A   1      19.072   2.161  10.550  0.00  0.00    -0.043 A 
ATOM      7  C12 ZIN A   1      17.751   2.569  10.564  0.00  0.00     0.008 A 
ATOM      8  C11 ZIN A   1      17.377   3.674  11.305  0.00  0.00     0.001 A 
ATOM      9  C10 ZIN A   1      18.325   4.378  12.023  0.00  0.00     0.000 A 
ATOM     10  C9  ZIN A   1      19.646   3.973  12.005  0.00  0.00     0.001 A 
ATOM     11  C8  ZIN A   1      20.020   2.865  11.269  0.00  0.00     0.008 A 
ENDBRANCH   1   6
BRANCH   1  12
ATOM     12  C13 ZIN A   1      19.042  -0.318  10.480  0.00  0.00     0.203 C 
ATOM     13  N19 ZIN A   1      19.498  -1.495   9.732  0.00  0.00    -0.070 N 
ATOM     14  C18 ZIN A   1      19.018  -2.718  10.387  0.00  0.00     0.232 C 
ATOM     15  H20 ZIN A   1      19.138  -1.455   8.791  0.00  0.00     0.277 HD
ATOM     16  H21 ZIN A   1      20.507  -1.504   9.705  0.00  0.00     0.277 HD
ATOM     17  C17 ZIN A   1      19.627  -2.825  11.786  0.00  0.00     0.027 C 
ATOM     18  C16 ZIN A   1      19.211  -1.605  12.613  0.00  0.00     0.004 C 
ATOM     19  C15 ZIN A   1      19.652  -0.332  11.883  0.00  0.00     0.034 C 
ENDBRANCH   1  12
TORSDOF 4
ENDMDL
MODEL 9
REMARK VINA RESULT:      -5.8      1.538      2.209
REMARK  4 active torsions:
REMARK  status: ('A' for Active; 'I' for Inactive)
REMARK    1  A    between atoms: O2_2  and  C3_3 
REMARK    2  A    between atoms: C3_3  and  C5_5 
REMARK    3  A    between atoms: C5_5  and  C7_6 
REMARK    4  A    between atoms: C5_5  and  C13_12 
ROOT
ATOM      1  C5  ZIN A   1      18.664   0.888  11.016  0.00  0.00     0.149 C 
ENDROOT
BRANCH   1   2
ATOM      2  C3  ZIN A   1      17.462   0.184  11.588  0.00  0.00     0.269 C 
ATOM      3  O4  ZIN A   1      16.368   0.368  11.108  0.00  0.00    -0.264 OA
BRANCH   2   4
ATOM      4  O2  ZIN A   1      17.605  -0.650  12.631  0.00  0.00    -0.326 OA
ATOM      5  C1  ZIN A   1      18.940  -1.159  12.890  0.00  0.00     0.213 C 
ENDBRANCH   2   4
ENDBRANCH   1   2
BRANCH   1   6
ATOM      6  C7  ZIN A   1      18.658   0.754   9.515  0.00  0.00    -0.043 A 
ATOM      7  C12 ZIN A   1      18.434  -0.479   8.932  0.00  0.00     0.008 A 
ATOM      8  C11 ZIN A   1      18.424  -0.601   7.555  0.00  0.00     0.001 A 
ATOM      9  C10 ZIN A   1      18.648   0.508   6.761  0.00  0.00     0.000 A 
ATOM     10  C9  ZIN A   1      18.877   1.740   7.344  0.00  0.00     0.001 A 
ATOM     11  C8  ZIN A   1      18.883   1.863   8.721  0.00  0.00     0.008 A 
ENDBRANCH   1   6
BRANCH   1  12
ATOM     12  C13 ZIN A   1      18.615   2.370  11.396  0.00  0.00     0.203 C 
ATOM     13  N19 ZIN A   1      17.648   2.564  12.483  0.00  0.00    -0.070 N 
ATOM     14  C18 ZIN A   1      17.538   3.993  12.802  0.00  0.00     0.232 C 
ATOM     15  H20 ZIN A   1      16.747   2.214  12.197  0.00  0.00     0.277 HD
ATOM     16  H21 ZIN A   1      17.959   2.060  13.300  0.00  0.00     0.277 HD
ATOM     17  C17 ZIN A   1      18.883   4.509  13.316  0.00  0.00     0.027 C 
ATOM     18  C16 ZIN A   1      19.949   4.308  12.233  0.00  0.00     0.004 C 
ATOM     19  C15 ZIN A   1      20.002   2.824  11.855  0.00  0.00     0.034 C 
ENDBRANCH   1  12
TORSDOF 4
ENDMDL
