MODEL 1
REMARK VINA RESULT:      -7.9      0.000      0.000
REMARK  4 active torsions:
REMARK  status: ('A' for Active; 'I' for Inactive)
REMARK    1  A    between atoms: C2_2  and  C6_6 
REMARK    2  A    between atoms: C8_8  and  C9_9 
REMARK    3  A    between atoms: C15_15  and  C16_16 
REMARK    4  A    between atoms: C16_16  and  N17_17 
ROOT
ATOM      1  C1  <0> d   1      19.657   4.534  13.086  0.00  0.00     0.036 C 
ATOM      2  C2  <0> d   1      18.342   3.801  13.360  0.00  0.00     0.069 C 
ATOM      3  C3  <0> d   1      17.650   4.429  14.572  0.00  0.00     0.036 C 
ATOM      4  C4  <0> d   1      17.464   3.910  12.184  0.00  0.00     0.073 C 
ATOM      5  N5  <0> d   1      16.787   3.994  11.275  0.00  0.00    -0.196 NA
ENDROOT
BRANCH   2   6
ATOM      6  C6  <0> d   1      18.627   2.348  13.642  0.00  0.00    -0.035 A 
ATOM      7  C22 <0> d   1      19.065   1.520  12.625  0.00  0.00     0.017 A 
ATOM      8  C15 <0> d   1      19.331   0.188  12.885  0.00  0.00    -0.037 A 
ATOM      9  C14 <0> d   1      19.150  -0.318  14.158  0.00  0.00     0.017 A 
ATOM     10  C8  <0> d   1      18.708   0.510  15.174  0.00  0.00    -0.035 A 
ATOM     11  C7  <0> d   1      18.446   1.842  14.915  0.00  0.00     0.017 A 
BRANCH   8  12
ATOM     12  C16 <0> d   1      19.814  -0.712  11.777  0.00  0.00     0.190 C 
BRANCH  12  13
ATOM     13  N17 <0> d   1      18.930  -1.876  11.672  0.00  0.00    -0.258 N 
ATOM     14  N21 <0> d   1      19.267  -3.215  11.929  0.00  0.00    -0.164 NA
ATOM     15  C20 <0> d   1      18.189  -3.923  11.718  0.00  0.00     0.256 A 
ATOM     16  N19 <0> d   1      17.205  -3.109  11.339  0.00  0.00    -0.234 NA
ATOM     17  C18 <0> d   1      17.637  -1.875  11.308  0.00  0.00     0.230 A 
ENDBRANCH  12  13
ENDBRANCH   8  12
BRANCH  10  18
ATOM     18  C9  <0> d   1      18.511  -0.042  16.562  0.00  0.00     0.069 C 
ATOM     19  C10 <0> d   1      17.015  -0.104  16.880  0.00  0.00     0.036 C 
ATOM     20  C11 <0> d   1      19.108  -1.448  16.641  0.00  0.00     0.036 C 
ATOM     21  C12 <0> d   1      19.183   0.832  17.537  0.00  0.00     0.073 C 
ATOM     22  N13 <0> d   1      19.703   1.507  18.289  0.00  0.00    -0.196 NA
ENDBRANCH  10  18
ENDBRANCH   2   6
TORSDOF 4
ENDMDL
MODEL 2
REMARK VINA RESULT:      -7.9      0.064      4.437
REMARK  4 active torsions:
REMARK  status: ('A' for Active; 'I' for Inactive)
REMARK    1  A    between atoms: C2_2  and  C6_6 
REMARK    2  A    between atoms: C8_8  and  C9_9 
REMARK    3  A    between atoms: C15_15  and  C16_16 
REMARK    4  A    between atoms: C16_16  and  N17_17 
ROOT
ATOM      1  C1  <0> d   1      19.171  -1.411  16.713  0.00  0.00     0.036 C 
ATOM      2  C2  <0> d   1      18.550  -0.016  16.620  0.00  0.00     0.069 C 
ATOM      3  C3  <0> d   1      17.056  -0.099  16.941  0.00  0.00     0.036 C 
ATOM      4  C4  <0> d   1      19.209   0.881  17.584  0.00  0.00     0.073 C 
ATOM      5  N5  <0> d   1      19.718   1.572  18.327  0.00  0.00    -0.196 NA
ENDROOT
BRANCH   2   6
ATOM      6  C6  <0> d   1      18.735   0.523  15.225  0.00  0.00    -0.035 A 
ATOM      7  C22 <0> d   1      19.192  -0.306  14.218  0.00  0.00     0.017 A 
ATOM      8  C15 <0> d   1      19.357   0.188  12.937  0.00  0.00    -0.037 A 
ATOM      9  C14 <0> d   1      19.074   1.513  12.665  0.00  0.00     0.017 A 
ATOM     10  C8  <0> d   1      18.621   2.343  13.673  0.00  0.00    -0.035 A 
ATOM     11  C7  <0> d   1      18.452   1.849  14.953  0.00  0.00     0.017 A 
BRANCH   8  12
ATOM     12  C16 <0> d   1      19.851  -0.719  11.839  0.00  0.00     0.190 C 
BRANCH  12  13
ATOM     13  N17 <0> d   1      18.952  -1.868  11.710  0.00  0.00    -0.258 N 
ATOM     14  N21 <0> d   1      19.280  -3.219  11.905  0.00  0.00    -0.164 NA
ATOM     15  C20 <0> d   1      18.189  -3.907  11.694  0.00  0.00     0.256 A 
ATOM     16  N19 <0> d   1      17.205  -3.068  11.372  0.00  0.00    -0.234 NA
ATOM     17  C18 <0> d   1      17.651  -1.838  11.378  0.00  0.00     0.230 A 
ENDBRANCH  12  13
ENDBRANCH   8  12
BRANCH  10  18
ATOM     18  C9  <0> d   1      18.312   3.788  13.376  0.00  0.00     0.069 C 
ATOM     19  C10 <0> d   1      17.563   4.404  14.560  0.00  0.00     0.036 C 
ATOM     20  C11 <0> d   1      19.617   4.551  13.145  0.00  0.00     0.036 C 
ATOM     21  C12 <0> d   1      17.473   3.872  12.169  0.00  0.00     0.073 C 
ATOM     22  N13 <0> d   1      16.826   3.936  11.237  0.00  0.00    -0.196 NA
ENDBRANCH  10  18
ENDBRANCH   2   6
TORSDOF 4
ENDMDL
MODEL 3
REMARK VINA RESULT:      -7.7      3.412      5.890
REMARK  4 active torsions:
REMARK  status: ('A' for Active; 'I' for Inactive)
REMARK    1  A    between atoms: C2_2  and  C6_6 
REMARK    2  A    between atoms: C8_8  and  C9_9 
REMARK    3  A    between atoms: C15_15  and  C16_16 
REMARK    4  A    between atoms: C16_16  and  N17_17 
ROOT
ATOM      1  C1  <0> d   1      19.964   3.219  11.418  0.00  0.00     0.036 C 
ATOM      2  C2  <0> d   1      18.469   3.019  11.158  0.00  0.00     0.069 C 
ATOM      3  C3  <0> d   1      17.709   3.074  12.485  0.00  0.00     0.036 C 
ATOM      4  C4  <0> d   1      17.979   4.083  10.267  0.00  0.00     0.073 C 
ATOM      5  N5  <0> d   1      17.601   4.905   9.580  0.00  0.00    -0.196 NA
ENDROOT
BRANCH   2   6
ATOM      6  C6  <0> d   1      18.247   1.678  10.507  0.00  0.00    -0.035 A 
ATOM      7  C22 <0> d   1      17.924   0.579  11.281  0.00  0.00     0.017 A 
ATOM      8  C15 <0> d   1      17.716  -0.650  10.684  0.00  0.00    -0.037 A 
ATOM      9  C14 <0> d   1      17.840  -0.783   9.313  0.00  0.00     0.017 A 
ATOM     10  C8  <0> d   1      18.168   0.316   8.540  0.00  0.00    -0.035 A 
ATOM     11  C7  <0> d   1      18.372   1.545   9.137  0.00  0.00     0.017 A 
BRANCH   8  12
ATOM     12  C16 <0> d   1      17.359  -1.847  11.528  0.00  0.00     0.190 C 
BRANCH  12  13
ATOM     13  N17 <0> d   1      18.406  -2.863  11.404  0.00  0.00    -0.258 N 
ATOM     14  N21 <0> d   1      18.320  -4.080  10.708  0.00  0.00    -0.164 NA
ATOM     15  C20 <0> d   1      19.473  -4.679  10.850  0.00  0.00     0.256 A 
ATOM     16  N19 <0> d   1      20.268  -3.914  11.598  0.00  0.00    -0.234 NA
ATOM     17  C18 <0> d   1      19.638  -2.819  11.938  0.00  0.00     0.230 A 
ENDBRANCH  12  13
ENDBRANCH   8  12
BRANCH  10  18
ATOM     18  C9  <0> d   1      18.303   0.171   7.046  0.00  0.00     0.069 C 
ATOM     19  C10 <0> d   1      16.913   0.060   6.416  0.00  0.00     0.036 C 
ATOM     20  C11 <0> d   1      19.025   1.394   6.479  0.00  0.00     0.036 C 
ATOM     21  C12 <0> d   1      19.078  -1.043   6.740  0.00  0.00     0.073 C 
ATOM     22  N13 <0> d   1      19.677  -1.979   6.503  0.00  0.00    -0.196 NA
ENDBRANCH  10  18
ENDBRANCH   2   6
TORSDOF 4
ENDMDL
MODEL 4
REMARK VINA RESULT:      -7.6      3.827      7.455
REMARK  4 active torsions:
REMARK  status: ('A' for Active; 'I' for Inactive)
REMARK    1  A    between atoms: C2_2  and  C6_6 
REMARK    2  A    between atoms: C8_8  and  C9_9 
REMARK    3  A    between atoms: C15_15  and  C16_16 
REMARK    4  A    between atoms: C16_16  and  N17_17 
ROOT
ATOM      1  C1  <0> d   1      19.077   1.124   6.303  0.00  0.00     0.036 C 
ATOM      2  C2  <0> d   1      18.523  -0.302   6.344  0.00  0.00     0.069 C 
ATOM      3  C3  <0> d   1      17.011  -0.269   6.106  0.00  0.00     0.036 C 
ATOM      4  C4  <0> d   1      19.166  -1.109   5.295  0.00  0.00     0.073 C 
ATOM      5  N5  <0> d   1      19.664  -1.732   4.485  0.00  0.00    -0.196 NA
ENDROOT
BRANCH   2   6
ATOM      6  C6  <0> d   1      18.806  -0.912   7.692  0.00  0.00    -0.035 A 
ATOM      7  C22 <0> d   1      19.216  -0.111   8.742  0.00  0.00     0.017 A 
ATOM      8  C15 <0> d   1      19.471  -0.671   9.980  0.00  0.00    -0.037 A 
ATOM      9  C14 <0> d   1      19.325  -2.033  10.166  0.00  0.00     0.017 A 
ATOM     10  C8  <0> d   1      18.919  -2.835   9.115  0.00  0.00    -0.035 A 
ATOM     11  C7  <0> d   1      18.660  -2.274   7.879  0.00  0.00     0.017 A 
BRANCH   8  12
ATOM     12  C16 <0> d   1      19.913   0.204  11.125  0.00  0.00     0.190 C 
BRANCH  12  13
ATOM     13  N17 <0> d   1      19.040   1.377  11.210  0.00  0.00    -0.258 N 
ATOM     14  N21 <0> d   1      19.385   2.705  10.913  0.00  0.00    -0.164 NA
ATOM     15  C20 <0> d   1      18.316   3.428  11.119  0.00  0.00     0.256 A 
ATOM     16  N19 <0> d   1      17.330   2.633  11.533  0.00  0.00    -0.234 NA
ATOM     17  C18 <0> d   1      17.753   1.396  11.592  0.00  0.00     0.230 A 
ENDBRANCH  12  13
ENDBRANCH   8  12
BRANCH  10  18
ATOM     18  C9  <0> d   1      18.760  -4.319   9.319  0.00  0.00     0.069 C 
ATOM     19  C10 <0> d   1      19.187  -4.688  10.741  0.00  0.00     0.036 C 
ATOM     20  C11 <0> d   1      17.296  -4.708   9.108  0.00  0.00     0.036 C 
ATOM     21  C12 <0> d   1      19.604  -5.040   8.351  0.00  0.00     0.073 C 
ATOM     22  N13 <0> d   1      20.255  -5.596   7.604  0.00  0.00    -0.196 NA
ENDBRANCH  10  18
ENDBRANCH   2   6
TORSDOF 4
ENDMDL
MODEL 5
REMARK VINA RESULT:      -7.6      3.596      7.109
REMARK  4 active torsions:
REMARK  status: ('A' for Active; 'I' for Inactive)
REMARK    1  A    between atoms: C2_2  and  C6_6 
REMARK    2  A    between atoms: C8_8  and  C9_9 
REMARK    3  A    between atoms: C15_15  and  C16_16 
REMARK    4  A    between atoms: C16_16  and  N17_17 
ROOT
ATOM      1  C1  <0> d   1      19.026   1.299   6.370  0.00  0.00     0.036 C 
ATOM      2  C2  <0> d   1      18.497  -0.137   6.399  0.00  0.00     0.069 C 
ATOM      3  C3  <0> d   1      17.001  -0.136   6.075  0.00  0.00     0.036 C 
ATOM      4  C4  <0> d   1      19.214  -0.945   5.399  0.00  0.00     0.073 C 
ATOM      5  N5  <0> d   1      19.769  -1.568   4.628  0.00  0.00    -0.196 NA
ENDROOT
BRANCH   2   6
ATOM      6  C6  <0> d   1      18.714  -0.725   7.769  0.00  0.00    -0.035 A 
ATOM      7  C22 <0> d   1      19.171   0.075   8.801  0.00  0.00     0.017 A 
ATOM      8  C15 <0> d   1      19.365  -0.464  10.059  0.00  0.00    -0.037 A 
ATOM      9  C14 <0> d   1      19.113  -1.804  10.284  0.00  0.00     0.017 A 
ATOM     10  C8  <0> d   1      18.660  -2.604   9.251  0.00  0.00    -0.035 A 
ATOM     11  C7  <0> d   1      18.462  -2.065   7.994  0.00  0.00     0.017 A 
BRANCH   8  12
ATOM     12  C16 <0> d   1      19.858   0.410  11.183  0.00  0.00     0.190 C 
BRANCH  12  13
ATOM     13  N17 <0> d   1      19.012   1.602  11.285  0.00  0.00    -0.258 N 
ATOM     14  N21 <0> d   1      19.376   2.921  10.968  0.00  0.00    -0.164 NA
ATOM     15  C20 <0> d   1      18.328   3.667  11.199  0.00  0.00     0.256 A 
ATOM     16  N19 <0> d   1      17.338   2.896  11.646  0.00  0.00    -0.234 NA
ATOM     17  C18 <0> d   1      17.737   1.651  11.702  0.00  0.00     0.230 A 
ENDBRANCH  12  13
ENDBRANCH   8  12
BRANCH  10  18
ATOM     18  C9  <0> d   1      18.385  -4.065   9.497  0.00  0.00     0.069 C 
ATOM     19  C10 <0> d   1      17.877  -4.713   8.208  0.00  0.00     0.036 C 
ATOM     20  C11 <0> d   1      19.673  -4.759   9.944  0.00  0.00     0.036 C 
ATOM     21  C12 <0> d   1      17.364  -4.201  10.549  0.00  0.00     0.073 C 
ATOM     22  N13 <0> d   1      16.576  -4.306  11.362  0.00  0.00    -0.196 NA
ENDBRANCH  10  18
ENDBRANCH   2   6
TORSDOF 4
ENDMDL
MODEL 6
REMARK VINA RESULT:      -7.6      1.516      5.897
REMARK  4 active torsions:
REMARK  status: ('A' for Active; 'I' for Inactive)
REMARK    1  A    between atoms: C2_2  and  C6_6 
REMARK    2  A    between atoms: C8_8  and  C9_9 
REMARK    3  A    between atoms: C15_15  and  C16_16 
REMARK    4  A    between atoms: C16_16  and  N17_17 
ROOT
ATOM      1  C1  <0> d   1      19.142  -1.581  16.703  0.00  0.00     0.036 C 
ATOM      2  C2  <0> d   1      18.480  -0.201  16.685  0.00  0.00     0.069 C 
ATOM      3  C3  <0> d   1      17.017  -0.331  17.115  0.00  0.00     0.036 C 
ATOM      4  C4  <0> d   1      19.187   0.695  17.616  0.00  0.00     0.073 C 
ATOM      5  N5  <0> d   1      19.733   1.386  18.334  0.00  0.00    -0.196 NA
ENDROOT
BRANCH   2   6
ATOM      6  C6  <0> d   1      18.546   0.369  15.292  0.00  0.00    -0.035 A 
ATOM      7  C22 <0> d   1      18.723   1.728  15.108  0.00  0.00     0.017 A 
ATOM      8  C15 <0> d   1      18.788   2.250  13.830  0.00  0.00    -0.037 A 
ATOM      9  C14 <0> d   1      18.668   1.415  12.735  0.00  0.00     0.017 A 
ATOM     10  C8  <0> d   1      18.487   0.057  12.919  0.00  0.00    -0.035 A 
ATOM     11  C7  <0> d   1      18.426  -0.466  14.197  0.00  0.00     0.017 A 
BRANCH   8  12
ATOM     12  C16 <0> d   1      18.985   3.731  13.631  0.00  0.00     0.190 C 
BRANCH  12  13
ATOM     13  N17 <0> d   1      18.123   4.198  12.543  0.00  0.00    -0.258 N 
ATOM     14  N21 <0> d   1      18.457   4.278  11.181  0.00  0.00    -0.164 NA
ATOM     15  C20 <0> d   1      17.404   4.741  10.560  0.00  0.00     0.256 A 
ATOM     16  N19 <0> d   1      16.439   4.960  11.452  0.00  0.00    -0.234 NA
ATOM     17  C18 <0> d   1      16.859   4.637  12.649  0.00  0.00     0.230 A 
ENDBRANCH  12  13
ENDBRANCH   8  12
BRANCH  10  18
ATOM     18  C9  <0> d   1      18.356  -0.853  11.725  0.00  0.00     0.069 C 
ATOM     19  C10 <0> d   1      18.288  -2.307  12.196  0.00  0.00     0.036 C 
ATOM     20  C11 <0> d   1      17.079  -0.506  10.957  0.00  0.00     0.036 C 
ATOM     21  C12 <0> d   1      19.522  -0.677  10.844  0.00  0.00     0.073 C 
ATOM     22  N13 <0> d   1      20.422  -0.541  10.164  0.00  0.00    -0.196 NA
ENDBRANCH  10  18
ENDBRANCH   2   6
TORSDOF 4
ENDMDL
MODEL 7
REMARK VINA RESULT:      -7.6      3.906      8.497
REMARK  4 active torsions:
REMARK  status: ('A' for Active; 'I' for Inactive)
REMARK    1  A    between atoms: C2_2  and  C6_6 
REMARK    2  A    between atoms: C8_8  and  C9_9 
REMARK    3  A    between atoms: C15_15  and  C16_16 
REMARK    4  A    between atoms: C16_16  and  N17_17 
ROOT
ATOM      1  C1  <0> d   1      17.322  -4.799   8.704  0.00  0.00     0.036 C 
ATOM      2  C2  <0> d   1      18.761  -4.402   9.041  0.00  0.00     0.069 C 
ATOM      3  C3  <0> d   1      19.091  -4.845  10.469  0.00  0.00     0.036 C 
ATOM      4  C4  <0> d   1      19.684  -5.055   8.099  0.00  0.00     0.073 C 
ATOM      5  N5  <0> d   1      20.397  -5.559   7.372  0.00  0.00    -0.196 NA
ENDROOT
BRANCH   2   6
ATOM      6  C6  <0> d   1      18.907  -2.906   8.932  0.00  0.00    -0.035 A 
ATOM      7  C22 <0> d   1      19.287  -2.166  10.037  0.00  0.00     0.017 A 
ATOM      8  C15 <0> d   1      19.426  -0.794   9.936  0.00  0.00    -0.037 A 
ATOM      9  C14 <0> d   1      19.176  -0.161   8.732  0.00  0.00     0.017 A 
ATOM     10  C8  <0> d   1      18.792  -0.901   7.629  0.00  0.00    -0.035 A 
ATOM     11  C7  <0> d   1      18.657  -2.273   7.729  0.00  0.00     0.017 A 
BRANCH   8  12
ATOM     12  C16 <0> d   1      19.844   0.011  11.139  0.00  0.00     0.190 C 
BRANCH  12  13
ATOM     13  N17 <0> d   1      18.979   1.186  11.267  0.00  0.00    -0.258 N 
ATOM     14  N21 <0> d   1      19.354   2.529  11.101  0.00  0.00    -0.164 NA
ATOM     15  C20 <0> d   1      18.281   3.248  11.301  0.00  0.00     0.256 A 
ATOM     16  N19 <0> d   1      17.264   2.436  11.587  0.00  0.00    -0.234 NA
ATOM     17  C18 <0> d   1      17.670   1.193  11.570  0.00  0.00     0.230 A 
ENDBRANCH  12  13
ENDBRANCH   8  12
BRANCH  10  18
ATOM     18  C9  <0> d   1      18.521  -0.210   6.318  0.00  0.00     0.069 C 
ATOM     19  C10 <0> d   1      17.016  -0.215   6.040  0.00  0.00     0.036 C 
ATOM     20  C11 <0> d   1      19.022   1.233   6.388  0.00  0.00     0.036 C 
ATOM     21  C12 <0> d   1      19.221  -0.921   5.235  0.00  0.00     0.073 C 
ATOM     22  N13 <0> d   1      19.762  -1.469   4.400  0.00  0.00    -0.196 NA
ENDBRANCH  10  18
ENDBRANCH   2   6
TORSDOF 4
ENDMDL
MODEL 8
REMARK VINA RESULT:      -7.5      3.336      5.772
REMARK  4 active torsions:
REMARK  status: ('A' for Active; 'I' for Inactive)
REMARK    1  A    between atoms: C2_2  and  C6_6 
REMARK    2  A    between atoms: C8_8  and  C9_9 
REMARK    3  A    between atoms: C15_15  and  C16_16 
REMARK    4  A    between atoms: C16_16  and  N17_17 
ROOT
ATOM      1  C1  <0> d   1      18.881   1.434   6.513  0.00  0.00     0.036 C 
ATOM      2  C2  <0> d   1      18.192   0.182   7.060  0.00  0.00     0.069 C 
ATOM      3  C3  <0> d   1      16.785   0.073   6.467  0.00  0.00     0.036 C 
ATOM      4  C4  <0> d   1      18.973  -1.010   6.689  0.00  0.00     0.073 C 
ATOM      5  N5  <0> d   1      19.576  -1.929   6.404  0.00  0.00    -0.196 NA
ENDROOT
BRANCH   2   6
ATOM      6  C6  <0> d   1      18.099   0.274   8.561  0.00  0.00    -0.035 A 
ATOM      7  C22 <0> d   1      17.802  -0.851   9.307  0.00  0.00     0.017 A 
ATOM      8  C15 <0> d   1      17.721  -0.767  10.684  0.00  0.00    -0.037 A 
ATOM      9  C14 <0> d   1      17.928   0.445  11.316  0.00  0.00     0.017 A 
ATOM     10  C8  <0> d   1      18.221   1.572  10.570  0.00  0.00    -0.035 A 
ATOM     11  C7  <0> d   1      18.306   1.486   9.193  0.00  0.00     0.017 A 
BRANCH   8  12
ATOM     12  C16 <0> d   1      17.402  -1.996  11.496  0.00  0.00     0.190 C 
BRANCH  12  13
ATOM     13  N17 <0> d   1      18.472  -2.982  11.333  0.00  0.00    -0.258 N 
ATOM     14  N21 <0> d   1      18.479  -4.079  10.455  0.00  0.00    -0.164 NA
ATOM     15  C20 <0> d   1      19.620  -4.693  10.627  0.00  0.00     0.256 A 
ATOM     16  N19 <0> d   1      20.319  -4.052  11.563  0.00  0.00    -0.234 NA
ATOM     17  C18 <0> d   1      19.640  -3.021  11.995  0.00  0.00     0.230 A 
ENDBRANCH  12  13
ENDBRANCH   8  12
BRANCH  10  18
ATOM     18  C9  <0> d   1      18.447   2.892  11.259  0.00  0.00     0.069 C 
ATOM     19  C10 <0> d   1      17.803   2.862  12.647  0.00  0.00     0.036 C 
ATOM     20  C11 <0> d   1      19.950   3.144  11.399  0.00  0.00     0.036 C 
ATOM     21  C12 <0> d   1      17.841   3.972  10.461  0.00  0.00     0.073 C 
ATOM     22  N13 <0> d   1      17.374   4.804   9.846  0.00  0.00    -0.196 NA
ENDBRANCH  10  18
ENDBRANCH   2   6
TORSDOF 4
ENDMDL
MODEL 9
REMARK VINA RESULT:      -7.4      3.035      7.623
REMARK  4 active torsions:
REMARK  status: ('A' for Active; 'I' for Inactive)
REMARK    1  A    between atoms: C2_2  and  C6_6 
REMARK    2  A    between atoms: C8_8  and  C9_9 
REMARK    3  A    between atoms: C15_15  and  C16_16 
REMARK    4  A    between atoms: C16_16  and  N17_17 
ROOT
ATOM      1  C1  <0> d   1      17.377  -2.786  11.282  0.00  0.00     0.036 C 
ATOM      2  C2  <0> d   1      18.638  -2.002  11.652  0.00  0.00     0.069 C 
ATOM      3  C3  <0> d   1      18.522  -1.498  13.093  0.00  0.00     0.036 C 
ATOM      4  C4  <0> d   1      19.814  -2.880  11.534  0.00  0.00     0.073 C 
ATOM      5  N5  <0> d   1      20.721  -3.557  11.441  0.00  0.00    -0.196 NA
ENDROOT
BRANCH   2   6
ATOM      6  C6  <0> d   1      18.791  -0.828  10.720  0.00  0.00    -0.035 A 
ATOM      7  C22 <0> d   1      19.118   0.417  11.223  0.00  0.00     0.017 A 
ATOM      8  C15 <0> d   1      19.263   1.493  10.367  0.00  0.00    -0.037 A 
ATOM      9  C14 <0> d   1      19.073   1.325   9.008  0.00  0.00     0.017 A 
ATOM     10  C8  <0> d   1      18.741   0.081   8.505  0.00  0.00    -0.035 A 
ATOM     11  C7  <0> d   1      18.600  -0.996   9.361  0.00  0.00     0.017 A 
BRANCH   8  12
ATOM     12  C16 <0> d   1      19.624   2.848  10.917  0.00  0.00     0.190 C 
BRANCH  12  13
ATOM     13  N17 <0> d   1      18.406   3.640  11.108  0.00  0.00    -0.258 N 
ATOM     14  N21 <0> d   1      17.758   4.431  10.146  0.00  0.00    -0.164 NA
ATOM     15  C20 <0> d   1      16.715   4.958  10.731  0.00  0.00     0.256 A 
ATOM     16  N19 <0> d   1      16.677   4.548  11.998  0.00  0.00    -0.234 NA
ATOM     17  C18 <0> d   1      17.690   3.754  12.238  0.00  0.00     0.230 A 
ENDBRANCH  12  13
ENDBRANCH   8  12
BRANCH  10  18
ATOM     18  C9  <0> d   1      18.534  -0.101   7.024  0.00  0.00     0.069 C 
ATOM     19  C10 <0> d   1      17.035  -0.135   6.718  0.00  0.00     0.036 C 
ATOM     20  C11 <0> d   1      19.182   1.063   6.272  0.00  0.00     0.036 C 
ATOM     21  C12 <0> d   1      19.150  -1.367   6.595  0.00  0.00     0.073 C 
ATOM     22  N13 <0> d   1      19.626  -2.344   6.263  0.00  0.00    -0.196 NA
ENDBRANCH  10  18
ENDBRANCH   2   6
TORSDOF 4
ENDMDL
