MODEL 1
REMARK VINA RESULT:      -4.9      0.000      0.000
REMARK  1 active torsions:
REMARK  status: ('A' for Active; 'I' for Inactive)
REMARK    1  A    between atoms: C2_2  and  C3_3 
ROOT
ATOM      1  C3  ZIN A   1      18.641  -0.325   7.628  0.00  0.00     0.045 A 
ATOM      2  C4  ZIN A   1      17.166  -0.177   8.006  0.00  0.00     0.026 C 
ATOM      3  C5  ZIN A   1      18.875   0.090   6.162  0.00  0.00     0.122 A 
ATOM      4  C6  ZIN A   1      19.395  -1.174   5.514  0.00  0.00     0.225 A 
ATOM      5  O7  ZIN A   1      19.708  -1.287   4.348  0.00  0.00    -0.273 OA
ATOM      6  N8  ZIN A   1      19.455  -2.146   6.431  0.00  0.00    -0.297 N 
ATOM      7  C9  ZIN A   1      19.054  -1.780   7.655  0.00  0.00     0.233 A 
ATOM      8  O10 ZIN A   1      19.028  -2.500   8.630  0.00  0.00    -0.272 OA
ATOM      9  H21 ZIN A   1      19.762  -3.043   6.226  0.00  0.00     0.171 HD
ENDROOT
BRANCH   1  10
ATOM     10  C2  ZIN A   1      19.521   0.502   8.569  0.00  0.00     0.015 C 
ATOM     11  C1  ZIN A   1      19.151   1.981   8.444  0.00  0.00     0.006 C 
ENDBRANCH   1  10
TORSDOF 1
ENDMDL
MODEL 2
REMARK VINA RESULT:      -4.8      3.316      4.317
REMARK  1 active torsions:
REMARK  status: ('A' for Active; 'I' for Inactive)
REMARK    1  A    between atoms: C2_2  and  C3_3 
ROOT
ATOM      1  C3  ZIN A   1      18.599   2.713  10.271  0.00  0.00     0.045 A 
ATOM      2  C4  ZIN A   1      17.854   4.047  10.186  0.00  0.00     0.026 C 
ATOM      3  C5  ZIN A   1      19.114   2.286   8.883  0.00  0.00     0.122 A 
ATOM      4  C6  ZIN A   1      18.403   0.974   8.629  0.00  0.00     0.225 A 
ATOM      5  O7  ZIN A   1      18.525   0.290   7.636  0.00  0.00    -0.273 OA
ATOM      6  N8  ZIN A   1      17.619   0.689   9.675  0.00  0.00    -0.297 N 
ATOM      7  C9  ZIN A   1      17.651   1.599  10.657  0.00  0.00     0.233 A 
ATOM      8  O10 ZIN A   1      17.020   1.539  11.691  0.00  0.00    -0.272 OA
ATOM      9  H21 ZIN A   1      17.072  -0.111   9.719  0.00  0.00     0.171 HD
ENDROOT
BRANCH   1  10
ATOM     10  C2  ZIN A   1      19.754   2.807  11.269  0.00  0.00     0.015 C 
ATOM     11  C1  ZIN A   1      19.590   4.066  12.123  0.00  0.00     0.006 C 
ENDBRANCH   1  10
TORSDOF 1
ENDMDL
MODEL 3
REMARK VINA RESULT:      -4.7      1.637      1.929
REMARK  1 active torsions:
REMARK  status: ('A' for Active; 'I' for Inactive)
REMARK    1  A    between atoms: C2_2  and  C3_3 
ROOT
ATOM      1  C3  ZIN A   1      18.574   0.500   8.735  0.00  0.00     0.045 A 
ATOM      2  C4  ZIN A   1      17.540   0.561   9.861  0.00  0.00     0.026 C 
ATOM      3  C5  ZIN A   1      17.946  -0.067   7.447  0.00  0.00     0.122 A 
ATOM      4  C6  ZIN A   1      18.746  -1.325   7.186  0.00  0.00     0.225 A 
ATOM      5  O7  ZIN A   1      18.577  -2.084   6.256  0.00  0.00    -0.273 OA
ATOM      6  N8  ZIN A   1      19.669  -1.466   8.144  0.00  0.00    -0.297 N 
ATOM      7  C9  ZIN A   1      19.663  -0.497   9.067  0.00  0.00     0.233 A 
ATOM      8  O10 ZIN A   1      20.412  -0.429  10.019  0.00  0.00    -0.272 OA
ATOM      9  H21 ZIN A   1      20.292  -2.209   8.167  0.00  0.00     0.171 HD
ENDROOT
BRANCH   1  10
ATOM     10  C2  ZIN A   1      19.172   1.885   8.480  0.00  0.00     0.015 C 
ATOM     11  C1  ZIN A   1      18.699   2.853   9.566  0.00  0.00     0.006 C 
ENDBRANCH   1  10
TORSDOF 1
ENDMDL
MODEL 4
REMARK VINA RESULT:      -4.7      3.235      4.724
REMARK  1 active torsions:
REMARK  status: ('A' for Active; 'I' for Inactive)
REMARK    1  A    between atoms: C2_2  and  C3_3 
ROOT
ATOM      1  C3  ZIN A   1      18.709   1.299   9.146  0.00  0.00     0.045 A 
ATOM      2  C4  ZIN A   1      19.187   1.493   7.706  0.00  0.00     0.026 C 
ATOM      3  C5  ZIN A   1      18.459   2.660   9.827  0.00  0.00     0.122 A 
ATOM      4  C6  ZIN A   1      19.435   2.662  10.984  0.00  0.00     0.225 A 
ATOM      5  O7  ZIN A   1      19.569   3.560  11.787  0.00  0.00    -0.273 OA
ATOM      6  N8  ZIN A   1      20.125   1.517  10.979  0.00  0.00    -0.297 N 
ATOM      7  C9  ZIN A   1      19.799   0.676   9.990  0.00  0.00     0.233 A 
ATOM      8  O10 ZIN A   1      20.298  -0.413   9.800  0.00  0.00    -0.272 OA
ATOM      9  H21 ZIN A   1      20.807   1.311  11.638  0.00  0.00     0.171 HD
ENDROOT
BRANCH   1  10
ATOM     10  C2  ZIN A   1      17.444   0.440   9.180  0.00  0.00     0.015 C 
ATOM     11  C1  ZIN A   1      17.246  -0.231   7.819  0.00  0.00     0.006 C 
ENDBRANCH   1  10
TORSDOF 1
ENDMDL
MODEL 5
REMARK VINA RESULT:      -4.7      1.872      2.505
REMARK  1 active torsions:
REMARK  status: ('A' for Active; 'I' for Inactive)
REMARK    1  A    between atoms: C2_2  and  C3_3 
ROOT
ATOM      1  C3  ZIN A   1      18.763  -0.358   7.629  0.00  0.00     0.045 A 
ATOM      2  C4  ZIN A   1      19.741  -0.420   8.804  0.00  0.00     0.026 C 
ATOM      3  C5  ZIN A   1      18.998  -1.533   6.659  0.00  0.00     0.122 A 
ATOM      4  C6  ZIN A   1      19.374  -0.851   5.361  0.00  0.00     0.225 A 
ATOM      5  O7  ZIN A   1      19.644  -1.417   4.324  0.00  0.00    -0.273 OA
ATOM      6  N8  ZIN A   1      19.360   0.474   5.541  0.00  0.00    -0.297 N 
ATOM      7  C9  ZIN A   1      19.029   0.864   6.778  0.00  0.00     0.233 A 
ATOM      8  O10 ZIN A   1      18.956   2.014   7.157  0.00  0.00    -0.272 OA
ATOM      9  H21 ZIN A   1      19.572   1.102   4.832  0.00  0.00     0.171 HD
ENDROOT
BRANCH   1  10
ATOM     10  C2  ZIN A   1      17.319  -0.358   8.134  0.00  0.00     0.015 C 
ATOM     11  C1  ZIN A   1      17.295   0.030   9.614  0.00  0.00     0.006 C 
ENDBRANCH   1  10
TORSDOF 1
ENDMDL
MODEL 6
REMARK VINA RESULT:      -4.6      2.096      3.440
REMARK  1 active torsions:
REMARK  status: ('A' for Active; 'I' for Inactive)
REMARK    1  A    between atoms: C2_2  and  C3_3 
ROOT
ATOM      1  C3  ZIN A   1      18.689  -0.140   6.126  0.00  0.00     0.045 A 
ATOM      2  C4  ZIN A   1      19.633  -0.329   4.937  0.00  0.00     0.026 C 
ATOM      3  C5  ZIN A   1      18.738   1.314   6.636  0.00  0.00     0.122 A 
ATOM      4  C6  ZIN A   1      19.234   1.175   8.060  0.00  0.00     0.225 A 
ATOM      5  O7  ZIN A   1      19.417   2.091   8.832  0.00  0.00    -0.273 OA
ATOM      6  N8  ZIN A   1      19.436  -0.120   8.330  0.00  0.00    -0.297 N 
ATOM      7  C9  ZIN A   1      19.162  -0.948   7.314  0.00  0.00     0.233 A 
ATOM      8  O10 ZIN A   1      19.275  -2.156   7.343  0.00  0.00    -0.272 OA
ATOM      9  H21 ZIN A   1      19.756  -0.433   9.190  0.00  0.00     0.171 HD
ENDROOT
BRANCH   1  10
ATOM     10  C2  ZIN A   1      17.260  -0.529   5.744  0.00  0.00     0.015 C 
ATOM     11  C1  ZIN A   1      17.292  -1.454   4.526  0.00  0.00     0.006 C 
ENDBRANCH   1  10
TORSDOF 1
ENDMDL
MODEL 7
REMARK VINA RESULT:      -4.5      4.128      5.425
REMARK  1 active torsions:
REMARK  status: ('A' for Active; 'I' for Inactive)
REMARK    1  A    between atoms: C2_2  and  C3_3 
ROOT
ATOM      1  C3  ZIN A   1      18.706   2.359  10.772  0.00  0.00     0.045 A 
ATOM      2  C4  ZIN A   1      17.430   2.778  11.506  0.00  0.00     0.026 C 
ATOM      3  C5  ZIN A   1      18.810   0.823  10.691  0.00  0.00     0.122 A 
ATOM      4  C6  ZIN A   1      20.083   0.513  11.448  0.00  0.00     0.225 A 
ATOM      5  O7  ZIN A   1      20.541  -0.595  11.627  0.00  0.00    -0.273 OA
ATOM      6  N8  ZIN A   1      20.621   1.655  11.889  0.00  0.00    -0.297 N 
ATOM      7  C9  ZIN A   1      19.930   2.756  11.567  0.00  0.00     0.233 A 
ATOM      8  O10 ZIN A   1      20.238   3.891  11.864  0.00  0.00    -0.272 OA
ATOM      9  H21 ZIN A   1      21.445   1.685  12.401  0.00  0.00     0.171 HD
ENDROOT
BRANCH   1  10
ATOM     10  C2  ZIN A   1      18.747   2.976   9.374  0.00  0.00     0.015 C 
ATOM     11  C1  ZIN A   1      19.109   1.898   8.350  0.00  0.00     0.006 C 
ENDBRANCH   1  10
TORSDOF 1
ENDMDL
MODEL 8
REMARK VINA RESULT:      -4.5      4.881      5.444
REMARK  1 active torsions:
REMARK  status: ('A' for Active; 'I' for Inactive)
REMARK    1  A    between atoms: C2_2  and  C3_3 
ROOT
ATOM      1  C3  ZIN A   1      18.516  -1.678  12.237  0.00  0.00     0.045 A 
ATOM      2  C4  ZIN A   1      18.474  -1.271  13.711  0.00  0.00     0.026 C 
ATOM      3  C5  ZIN A   1      18.438  -3.211  12.090  0.00  0.00     0.122 A 
ATOM      4  C6  ZIN A   1      19.744  -3.569  11.413  0.00  0.00     0.225 A 
ATOM      5  O7  ZIN A   1      20.092  -4.689  11.109  0.00  0.00    -0.273 OA
ATOM      6  N8  ZIN A   1      20.451  -2.453  11.203  0.00  0.00    -0.297 N 
ATOM      7  C9  ZIN A   1      19.856  -1.331  11.627  0.00  0.00     0.233 A 
ATOM      8  O10 ZIN A   1      20.319  -0.213  11.536  0.00  0.00    -0.272 OA
ATOM      9  H21 ZIN A   1      21.323  -2.456  10.779  0.00  0.00     0.171 HD
ENDROOT
BRANCH   1  10
ATOM     10  C2  ZIN A   1      17.381  -1.005  11.462  0.00  0.00     0.015 C 
ATOM     11  C1  ZIN A   1      16.897   0.225  12.233  0.00  0.00     0.006 C 
ENDBRANCH   1  10
TORSDOF 1
ENDMDL
MODEL 9
REMARK VINA RESULT:      -4.4      6.685      7.982
REMARK  1 active torsions:
REMARK  status: ('A' for Active; 'I' for Inactive)
REMARK    1  A    between atoms: C2_2  and  C3_3 
ROOT
ATOM      1  C3  ZIN A   1      18.613  -0.201  14.085  0.00  0.00     0.045 A 
ATOM      2  C4  ZIN A   1      17.799  -0.849  12.963  0.00  0.00     0.026 C 
ATOM      3  C5  ZIN A   1      17.754   0.812  14.868  0.00  0.00     0.122 A 
ATOM      4  C6  ZIN A   1      18.473   2.127  14.655  0.00  0.00     0.225 A 
ATOM      5  O7  ZIN A   1      18.127   3.197  15.107  0.00  0.00    -0.273 OA
ATOM      6  N8  ZIN A   1      19.551   1.920  13.890  0.00  0.00    -0.297 N 
ATOM      7  C9  ZIN A   1      19.727   0.648  13.512  0.00  0.00     0.233 A 
ATOM      8  O10 ZIN A   1      20.636   0.240  12.819  0.00  0.00    -0.272 OA
ATOM      9  H21 ZIN A   1      20.155   2.632  13.631  0.00  0.00     0.171 HD
ENDROOT
BRANCH   1  10
ATOM     10  C2  ZIN A   1      19.178  -1.268  15.023  0.00  0.00     0.015 C 
ATOM     11  C1  ZIN A   1      18.383  -1.271  16.331  0.00  0.00     0.006 C 
ENDBRANCH   1  10
TORSDOF 1
ENDMDL
