MODEL 1
REMARK VINA RESULT:     -10.7      0.000      0.000
REMARK  12 active torsions:
REMARK  status: ('A' for Active; 'I' for Inactive)
REMARK    1  A    between atoms: C3_3  and  O4_4 
REMARK    2  A    between atoms: C8_8  and  C9_9 
REMARK       I    between atoms: C9_9  and  N11_11 
REMARK    3  A    between atoms: N11_11  and  C12_12 
REMARK    4  A    between atoms: C12_12  and  C14_13 
REMARK    5  A    between atoms: C12_12  and  C22_21 
REMARK    6  A    between atoms: C14_13  and  S15_14 
REMARK    7  A    between atoms: S15_14  and  C16_15 
REMARK    8  A    between atoms: C22_21  and  O24_22 
REMARK    9  A    between atoms: C22_21  and  C25_23 
REMARK   10  A    between atoms: C25_23  and  N26_24 
REMARK   11  A    between atoms: C37_33  and  C39_34 
REMARK       I    between atoms: C39_34  and  N41_36 
REMARK   12  A    between atoms: N41_36  and  C42_37 
ROOT
ATOM      1  C12 ZIN A   1      19.446  -0.972  10.936  0.00  0.00     0.124 C 
ENDROOT
BRANCH   1   2
ATOM      2  N11 ZIN A   1      19.649  -1.274   9.516  0.00  0.00    -0.349 N 
ATOM      3  C9  ZIN A   1      18.602  -1.261   8.667  0.00  0.00     0.252 C 
ATOM      4  O10 ZIN A   1      17.489  -0.999   9.079  0.00  0.00    -0.268 OA
ATOM      5  H53 ZIN A   1      20.538  -1.483   9.187  0.00  0.00     0.163 HD
BRANCH   3   6
ATOM      6  C8  ZIN A   1      18.808  -1.566   7.235  0.00  0.00     0.040 A 
ATOM      7  C2  ZIN A   1      18.965  -0.528   6.315  0.00  0.00    -0.013 A 
ATOM      8  C1  ZIN A   1      18.930   0.905   6.777  0.00  0.00     0.052 C 
ATOM      9  C3  ZIN A   1      19.156  -0.821   4.975  0.00  0.00     0.072 A 
ATOM     10  C5  ZIN A   1      19.189  -2.143   4.551  0.00  0.00     0.037 A 
ATOM     11  C6  ZIN A   1      19.029  -3.171   5.461  0.00  0.00     0.004 A 
ATOM     12  C7  ZIN A   1      18.836  -2.891   6.797  0.00  0.00     0.018 A 
BRANCH   9  13
ATOM     13  O4  ZIN A   1      19.315   0.185   4.076  0.00  0.00    -0.360 OA
ATOM     14  H49 ZIN A   1      18.615   0.851   4.101  0.00  0.00     0.217 HD
ENDBRANCH   9  13
ENDBRANCH   3   6
ENDBRANCH   1   2
BRANCH   1  15
ATOM     15  C14 ZIN A   1      19.743  -2.220  11.769  0.00  0.00     0.107 C 
BRANCH  15  16
ATOM     16  S15 ZIN A   1      18.236  -3.220  11.918  0.00  0.00    -0.128 SA
BRANCH  16  17
ATOM     17  C16 ZIN A   1      18.399  -4.381  10.602  0.00  0.00     0.000 A 
ATOM     18  C21 ZIN A   1      19.657  -4.837  10.228  0.00  0.00     0.018 A 
ATOM     19  C20 ZIN A   1      19.780  -5.752   9.200  0.00  0.00     0.001 A 
ATOM     20  C19 ZIN A   1      18.655  -6.206   8.537  0.00  0.00     0.000 A 
ATOM     21  C18 ZIN A   1      17.401  -5.749   8.904  0.00  0.00     0.001 A 
ATOM     22  C17 ZIN A   1      17.270  -4.839   9.935  0.00  0.00     0.018 A 
ENDBRANCH  16  17
ENDBRANCH  15  16
ENDBRANCH   1  15
BRANCH   1  23
ATOM     23  C22 ZIN A   1      20.388   0.157  11.356  0.00  0.00     0.170 C 
BRANCH  23  24
ATOM     24  O24 ZIN A   1      21.740  -0.301  11.292  0.00  0.00    -0.392 OA
ATOM     25  H61 ZIN A   1      22.320   0.257  10.757  0.00  0.00     0.210 HD
ENDBRANCH  23  24
BRANCH  23  26
ATOM     26  C25 ZIN A   1      20.062   0.585  12.788  0.00  0.00     0.307 C 
BRANCH  26  27
ATOM     27  N26 ZIN A   1      19.250   1.810  12.761  0.00  0.00     0.105 N 
ATOM     28  C37 ZIN A   1      19.015   2.315  14.119  0.00  0.00     0.314 C 
ATOM     29  C36 ZIN A   1      18.057   3.495  14.054  0.00  0.00     0.050 C 
ATOM     30  C34 ZIN A   1      18.657   4.601  13.184  0.00  0.00    -0.006 C 
ATOM     31  C28 ZIN A   1      18.926   4.033  11.787  0.00  0.00     0.018 C 
ATOM     32  C33 ZIN A   1      17.678   5.771  13.088  0.00  0.00     0.005 C 
ATOM     33  C27 ZIN A   1      19.871   2.834  11.911  0.00  0.00     0.278 C 
ATOM     34  C30 ZIN A   1      17.613   3.574  11.151  0.00  0.00     0.007 C 
ATOM     35  C31 ZIN A   1      16.650   4.759  11.050  0.00  0.00     0.000 C 
ATOM     36  C32 ZIN A   1      16.368   5.306  12.450  0.00  0.00     0.000 C 
BRANCH  28  37
ATOM     37  C39 ZIN A   1      18.406   1.219  14.955  0.00  0.00     0.252 C 
ATOM     38  O40 ZIN A   1      17.384   0.676  14.592  0.00  0.00    -0.271 OA
ATOM     39  N41 ZIN A   1      18.997   0.842  16.106  0.00  0.00    -0.351 N 
ATOM     40  H76 ZIN A   1      19.815   1.277  16.397  0.00  0.00     0.163 HD
BRANCH  39  41
ATOM     41  C42 ZIN A   1      18.405  -0.223  16.918  0.00  0.00     0.022 C 
ATOM     42  C43 ZIN A   1      19.139  -0.311  18.258  0.00  0.00     0.037 C 
ATOM     43  C44 ZIN A   1      16.927   0.086  17.166  0.00  0.00     0.037 C 
ATOM     44  C45 ZIN A   1      18.529  -1.558  16.181  0.00  0.00     0.037 C 
ENDBRANCH  39  41
ENDBRANCH  28  37
ENDBRANCH  26  27
ENDBRANCH  23  26
ENDBRANCH   1  23
TORSDOF 12
ENDMDL
MODEL 2
REMARK VINA RESULT:     -10.4      1.866      9.557
REMARK  12 active torsions:
REMARK  status: ('A' for Active; 'I' for Inactive)
REMARK    1  A    between atoms: C3_3  and  O4_4 
REMARK    2  A    between atoms: C8_8  and  C9_9 
REMARK       I    between atoms: C9_9  and  N11_11 
REMARK    3  A    between atoms: N11_11  and  C12_12 
REMARK    4  A    between atoms: C12_12  and  C14_13 
REMARK    5  A    between atoms: C12_12  and  C22_21 
REMARK    6  A    between atoms: C14_13  and  S15_14 
REMARK    7  A    between atoms: S15_14  and  C16_15 
REMARK    8  A    between atoms: C22_21  and  O24_22 
REMARK    9  A    between atoms: C22_21  and  C25_23 
REMARK   10  A    between atoms: C25_23  and  N26_24 
REMARK   11  A    between atoms: C37_33  and  C39_34 
REMARK       I    between atoms: C39_34  and  N41_36 
REMARK   12  A    between atoms: N41_36  and  C42_37 
ROOT
ATOM      1  C12 ZIN A   1      19.485   1.043  12.136  0.00  0.00     0.124 C 
ENDROOT
BRANCH   1   2
ATOM      2  N11 ZIN A   1      19.677   1.294  13.566  0.00  0.00    -0.349 N 
ATOM      3  C9  ZIN A   1      18.612   1.342  14.392  0.00  0.00     0.252 C 
ATOM      4  O10 ZIN A   1      17.492   1.178  13.949  0.00  0.00    -0.268 OA
ATOM      5  H53 ZIN A   1      20.571   1.426  13.921  0.00  0.00     0.163 HD
BRANCH   3   6
ATOM      6  C8  ZIN A   1      18.806   1.596  15.836  0.00  0.00     0.040 A 
ATOM      7  C2  ZIN A   1      18.985   0.528  16.715  0.00  0.00    -0.013 A 
ATOM      8  C1  ZIN A   1      18.985  -0.886  16.198  0.00  0.00     0.052 C 
ATOM      9  C3  ZIN A   1      19.166   0.773  18.066  0.00  0.00     0.072 A 
ATOM     10  C5  ZIN A   1      19.166   2.078  18.541  0.00  0.00     0.037 A 
ATOM     11  C6  ZIN A   1      18.984   3.136  17.671  0.00  0.00     0.004 A 
ATOM     12  C7  ZIN A   1      18.802   2.904  16.324  0.00  0.00     0.018 A 
BRANCH   9  13
ATOM     13  O4  ZIN A   1      19.346  -0.263  18.927  0.00  0.00    -0.360 OA
ATOM     14  H49 ZIN A   1      20.270  -0.516  19.052  0.00  0.00     0.217 HD
ENDBRANCH   9  13
ENDBRANCH   3   6
ENDBRANCH   1   2
BRANCH   1  15
ATOM     15  C14 ZIN A   1      19.859   2.297  11.344  0.00  0.00     0.107 C 
BRANCH  15  16
ATOM     16  S15 ZIN A   1      18.373   3.297  11.059  0.00  0.00    -0.128 SA
BRANCH  16  17
ATOM     17  C16 ZIN A   1      18.377   4.413  12.423  0.00  0.00     0.000 A 
ATOM     18  C21 ZIN A   1      17.176   4.870  12.952  0.00  0.00     0.018 A 
ATOM     19  C20 ZIN A   1      17.183   5.740  14.025  0.00  0.00     0.001 A 
ATOM     20  C19 ZIN A   1      18.383   6.164  14.566  0.00  0.00     0.000 A 
ATOM     21  C18 ZIN A   1      19.580   5.715  14.037  0.00  0.00     0.001 A 
ATOM     22  C17 ZIN A   1      19.581   4.841  12.968  0.00  0.00     0.018 A 
ENDBRANCH  16  17
ENDBRANCH  15  16
ENDBRANCH   1  15
BRANCH   1  23
ATOM     23  C22 ZIN A   1      20.377  -0.120  11.699  0.00  0.00     0.170 C 
BRANCH  23  24
ATOM     24  O24 ZIN A   1      21.748   0.273  11.782  0.00  0.00    -0.392 OA
ATOM     25  H61 ZIN A   1      22.308  -0.349  12.266  0.00  0.00     0.210 HD
ENDBRANCH  23  24
BRANCH  23  26
ATOM     26  C25 ZIN A   1      20.043  -0.504  10.256  0.00  0.00     0.307 C 
BRANCH  26  27
ATOM     27  N26 ZIN A   1      19.313  -1.778  10.244  0.00  0.00     0.105 N 
ATOM     28  C37 ZIN A   1      19.196  -2.305   8.878  0.00  0.00     0.314 C 
ATOM     29  C36 ZIN A   1      18.314  -3.544   8.895  0.00  0.00     0.050 C 
ATOM     30  C34 ZIN A   1      18.931  -4.604   9.809  0.00  0.00    -0.006 C 
ATOM     31  C28 ZIN A   1      19.076  -4.014  11.215  0.00  0.00     0.018 C 
ATOM     32  C33 ZIN A   1      18.027  -5.836   9.855  0.00  0.00     0.005 C 
ATOM     33  C27 ZIN A   1      19.946  -2.756  11.139  0.00  0.00     0.278 C 
ATOM     34  C30 ZIN A   1      17.699  -3.639  11.766  0.00  0.00     0.007 C 
ATOM     35  C31 ZIN A   1      16.811  -4.885  11.818  0.00  0.00     0.000 C 
ATOM     36  C32 ZIN A   1      16.652  -5.455  10.408  0.00  0.00     0.000 C 
BRANCH  28  37
ATOM     37  C39 ZIN A   1      18.569  -1.255   7.997  0.00  0.00     0.252 C 
ATOM     38  O40 ZIN A   1      17.537  -0.716   8.336  0.00  0.00    -0.271 OA
ATOM     39  N41 ZIN A   1      19.156  -0.914   6.833  0.00  0.00    -0.351 N 
ATOM     40  H76 ZIN A   1      19.982  -1.346   6.561  0.00  0.00     0.163 HD
BRANCH  39  41
ATOM     41  C42 ZIN A   1      18.547   0.106   5.977  0.00  0.00     0.022 C 
ATOM     42  C43 ZIN A   1      18.797   1.491   6.576  0.00  0.00     0.037 C 
ATOM     43  C44 ZIN A   1      19.166   0.036   4.579  0.00  0.00     0.037 C 
ATOM     44  C45 ZIN A   1      17.040  -0.142   5.879  0.00  0.00     0.037 C 
ENDBRANCH  39  41
ENDBRANCH  28  37
ENDBRANCH  26  27
ENDBRANCH  23  26
ENDBRANCH   1  23
TORSDOF 12
ENDMDL
MODEL 3
REMARK VINA RESULT:      -9.6      1.756      8.576
REMARK  12 active torsions:
REMARK  status: ('A' for Active; 'I' for Inactive)
REMARK    1  A    between atoms: C3_3  and  O4_4 
REMARK    2  A    between atoms: C8_8  and  C9_9 
REMARK       I    between atoms: C9_9  and  N11_11 
REMARK    3  A    between atoms: N11_11  and  C12_12 
REMARK    4  A    between atoms: C12_12  and  C14_13 
REMARK    5  A    between atoms: C12_12  and  C22_21 
REMARK    6  A    between atoms: C14_13  and  S15_14 
REMARK    7  A    between atoms: S15_14  and  C16_15 
REMARK    8  A    between atoms: C22_21  and  O24_22 
REMARK    9  A    between atoms: C22_21  and  C25_23 
REMARK   10  A    between atoms: C25_23  and  N26_24 
REMARK   11  A    between atoms: C37_33  and  C39_34 
REMARK       I    between atoms: C39_34  and  N41_36 
REMARK   12  A    between atoms: N41_36  and  C42_37 
ROOT
ATOM      1  C12 ZIN A   1      20.042  -0.112  12.701  0.00  0.00     0.124 C 
ENDROOT
BRANCH   1   2
ATOM      2  N11 ZIN A   1      19.145   0.967  12.282  0.00  0.00    -0.349 N 
ATOM      3  C9  ZIN A   1      19.651   2.162  11.919  0.00  0.00     0.252 C 
ATOM      4  O10 ZIN A   1      20.853   2.345  11.941  0.00  0.00    -0.268 OA
ATOM      5  H53 ZIN A   1      18.185   0.822  12.264  0.00  0.00     0.163 HD
BRANCH   3   6
ATOM      6  C8  ZIN A   1      18.746   3.252  11.495  0.00  0.00     0.040 A 
ATOM      7  C2  ZIN A   1      18.156   4.081  12.449  0.00  0.00    -0.013 A 
ATOM      8  C1  ZIN A   1      18.442   3.873  13.913  0.00  0.00     0.052 C 
ATOM      9  C3  ZIN A   1      17.308   5.099  12.046  0.00  0.00     0.072 A 
ATOM     10  C5  ZIN A   1      17.046   5.291  10.695  0.00  0.00     0.037 A 
ATOM     11  C6  ZIN A   1      17.627   4.467   9.750  0.00  0.00     0.004 A 
ATOM     12  C7  ZIN A   1      18.471   3.449  10.141  0.00  0.00     0.018 A 
BRANCH   9  13
ATOM     13  O4  ZIN A   1      16.735   5.913  12.971  0.00  0.00    -0.360 OA
ATOM     14  H49 ZIN A   1      17.165   5.891  13.836  0.00  0.00     0.217 HD
ENDBRANCH   9  13
ENDBRANCH   3   6
ENDBRANCH   1   2
BRANCH   1  15
ATOM     15  C14 ZIN A   1      19.355  -0.955  13.777  0.00  0.00     0.107 C 
BRANCH  15  16
ATOM     16  S15 ZIN A   1      17.930  -0.048  14.438  0.00  0.00    -0.128 SA
BRANCH  16  17
ATOM     17  C16 ZIN A   1      18.453   0.384  16.064  0.00  0.00     0.000 A 
ATOM     18  C21 ZIN A   1      18.757  -0.611  16.985  0.00  0.00     0.018 A 
ATOM     19  C20 ZIN A   1      19.173  -0.269  18.257  0.00  0.00     0.001 A 
ATOM     20  C19 ZIN A   1      19.276   1.062  18.618  0.00  0.00     0.000 A 
ATOM     21  C18 ZIN A   1      18.968   2.055  17.705  0.00  0.00     0.001 A 
ATOM     22  C17 ZIN A   1      18.557   1.720  16.430  0.00  0.00     0.018 A 
ENDBRANCH  16  17
ENDBRANCH  15  16
ENDBRANCH   1  15
BRANCH   1  23
ATOM     23  C22 ZIN A   1      20.375  -0.996  11.498  0.00  0.00     0.170 C 
BRANCH  23  24
ATOM     24  O24 ZIN A   1      21.542  -0.492  10.846  0.00  0.00    -0.392 OA
ATOM     25  H61 ZIN A   1      21.708   0.447  11.005  0.00  0.00     0.210 HD
ENDBRANCH  23  24
BRANCH  23  26
ATOM     26  C25 ZIN A   1      19.200  -0.986  10.519  0.00  0.00     0.307 C 
BRANCH  26  27
ATOM     27  N26 ZIN A   1      18.893  -2.362  10.107  0.00  0.00     0.105 N 
ATOM     28  C37 ZIN A   1      19.256  -2.584   8.701  0.00  0.00     0.314 C 
ATOM     29  C36 ZIN A   1      18.793  -3.970   8.279  0.00  0.00     0.050 C 
ATOM     30  C34 ZIN A   1      19.458  -5.028   9.160  0.00  0.00    -0.006 C 
ATOM     31  C28 ZIN A   1      19.094  -4.748  10.621  0.00  0.00     0.018 C 
ATOM     32  C33 ZIN A   1      18.964  -6.418   8.760  0.00  0.00     0.005 C 
ATOM     33  C27 ZIN A   1      19.554  -3.335  10.987  0.00  0.00     0.278 C 
ATOM     34  C30 ZIN A   1      17.578  -4.845  10.806  0.00  0.00     0.007 C 
ATOM     35  C31 ZIN A   1      17.102  -6.246  10.414  0.00  0.00     0.000 C 
ATOM     36  C32 ZIN A   1      17.449  -6.510   8.948  0.00  0.00     0.000 C 
BRANCH  28  37
ATOM     37  C39 ZIN A   1      18.577  -1.545   7.847  0.00  0.00     0.252 C 
ATOM     38  O40 ZIN A   1      17.416  -1.257   8.050  0.00  0.00    -0.271 OA
ATOM     39  N41 ZIN A   1      19.258  -0.936   6.856  0.00  0.00    -0.351 N 
ATOM     40  H76 ZIN A   1      20.186  -1.167   6.693  0.00  0.00     0.163 HD
BRANCH  39  41
ATOM     41  C42 ZIN A   1      18.598   0.073   6.026  0.00  0.00     0.022 C 
ATOM     42  C43 ZIN A   1      18.789   1.455   6.653  0.00  0.00     0.037 C 
ATOM     43  C44 ZIN A   1      19.210   0.061   4.624  0.00  0.00     0.037 C 
ATOM     44  C45 ZIN A   1      17.103  -0.241   5.931  0.00  0.00     0.037 C 
ENDBRANCH  39  41
ENDBRANCH  28  37
ENDBRANCH  26  27
ENDBRANCH  23  26
ENDBRANCH   1  23
TORSDOF 12
ENDMDL
MODEL 4
REMARK VINA RESULT:      -9.4      1.990      9.439
REMARK  12 active torsions:
REMARK  status: ('A' for Active; 'I' for Inactive)
REMARK    1  A    between atoms: C3_3  and  O4_4 
REMARK    2  A    between atoms: C8_8  and  C9_9 
REMARK       I    between atoms: C9_9  and  N11_11 
REMARK    3  A    between atoms: N11_11  and  C12_12 
REMARK    4  A    between atoms: C12_12  and  C14_13 
REMARK    5  A    between atoms: C12_12  and  C22_21 
REMARK    6  A    between atoms: C14_13  and  S15_14 
REMARK    7  A    between atoms: S15_14  and  C16_15 
REMARK    8  A    between atoms: C22_21  and  O24_22 
REMARK    9  A    between atoms: C22_21  and  C25_23 
REMARK   10  A    between atoms: C25_23  and  N26_24 
REMARK   11  A    between atoms: C37_33  and  C39_34 
REMARK       I    between atoms: C39_34  and  N41_36 
REMARK   12  A    between atoms: N41_36  and  C42_37 
ROOT
ATOM      1  C12 ZIN A   1      19.061  -1.017  10.876  0.00  0.00     0.124 C 
ENDROOT
BRANCH   1   2
ATOM      2  N11 ZIN A   1      19.178  -0.764  12.314  0.00  0.00    -0.349 N 
ATOM      3  C9  ZIN A   1      18.081  -0.794  13.096  0.00  0.00     0.252 C 
ATOM      4  O10 ZIN A   1      16.993  -1.030  12.608  0.00  0.00    -0.268 OA
ATOM      5  H53 ZIN A   1      20.047  -0.575  12.704  0.00  0.00     0.163 HD
BRANCH   3   6
ATOM      6  C8  ZIN A   1      18.200  -0.538  14.548  0.00  0.00     0.040 A 
ATOM      7  C2  ZIN A   1      18.050   0.758  15.044  0.00  0.00    -0.013 A 
ATOM      8  C1  ZIN A   1      17.762   1.899  14.104  0.00  0.00     0.052 C 
ATOM      9  C3  ZIN A   1      18.163   0.991  16.404  0.00  0.00     0.072 A 
ATOM     10  C5  ZIN A   1      18.428  -0.063  17.269  0.00  0.00     0.037 A 
ATOM     11  C6  ZIN A   1      18.582  -1.346  16.778  0.00  0.00     0.004 A 
ATOM     12  C7  ZIN A   1      18.472  -1.588  15.425  0.00  0.00     0.018 A 
BRANCH   9  13
ATOM     13  O4  ZIN A   1      18.013   2.250  16.893  0.00  0.00    -0.360 OA
ATOM     14  H49 ZIN A   1      18.445   2.933  16.363  0.00  0.00     0.217 HD
ENDBRANCH   9  13
ENDBRANCH   3   6
ENDBRANCH   1   2
BRANCH   1  15
ATOM     15  C14 ZIN A   1      20.050  -0.128  10.120  0.00  0.00     0.107 C 
BRANCH  15  16
ATOM     16  S15 ZIN A   1      19.136   1.077   9.118  0.00  0.00    -0.128 SA
BRANCH  16  17
ATOM     17  C16 ZIN A   1      18.965   2.451  10.208  0.00  0.00     0.000 A 
ATOM     18  C21 ZIN A   1      17.812   3.226  10.176  0.00  0.00     0.018 A 
ATOM     19  C20 ZIN A   1      17.679   4.298  11.036  0.00  0.00     0.001 A 
ATOM     20  C19 ZIN A   1      18.695   4.607  11.921  0.00  0.00     0.000 A 
ATOM     21  C18 ZIN A   1      19.847   3.841  11.952  0.00  0.00     0.001 A 
ATOM     22  C17 ZIN A   1      19.985   2.764  11.098  0.00  0.00     0.018 A 
ENDBRANCH  16  17
ENDBRANCH  15  16
ENDBRANCH   1  15
BRANCH   1  23
ATOM     23  C22 ZIN A   1      19.374  -2.487  10.590  0.00  0.00     0.170 C 
BRANCH  23  24
ATOM     24  O24 ZIN A   1      20.601  -2.845  11.230  0.00  0.00    -0.392 OA
ATOM     25  H61 ZIN A   1      20.821  -2.296  11.994  0.00  0.00     0.210 HD
ENDBRANCH  23  24
BRANCH  23  26
ATOM     26  C25 ZIN A   1      19.507  -2.695   9.081  0.00  0.00     0.307 C 
BRANCH  26  27
ATOM     27  N26 ZIN A   1      18.584  -3.753   8.649  0.00  0.00     0.105 N 
ATOM     28  C37 ZIN A   1      18.914  -4.220   7.296  0.00  0.00     0.314 C 
ATOM     29  C36 ZIN A   1      17.853  -5.208   6.836  0.00  0.00     0.050 C 
ATOM     30  C34 ZIN A   1      17.802  -6.397   7.798  0.00  0.00    -0.006 C 
ATOM     31  C28 ZIN A   1      17.494  -5.875   9.204  0.00  0.00     0.018 C 
ATOM     32  C33 ZIN A   1      16.710  -7.371   7.357  0.00  0.00     0.005 C 
ATOM     33  C27 ZIN A   1      18.573  -4.866   9.608  0.00  0.00     0.278 C 
ATOM     34  C30 ZIN A   1      16.130  -5.182   9.215  0.00  0.00     0.007 C 
ATOM     35  C31 ZIN A   1      15.048  -6.175   8.785  0.00  0.00     0.000 C 
ATOM     36  C32 ZIN A   1      15.349  -6.674   7.371  0.00  0.00     0.000 C 
BRANCH  28  37
ATOM     37  C39 ZIN A   1      18.940  -3.039   6.360  0.00  0.00     0.252 C 
ATOM     38  O40 ZIN A   1      19.851  -2.912   5.569  0.00  0.00    -0.271 OA
ATOM     39  N41 ZIN A   1      17.951  -2.125   6.401  0.00  0.00    -0.351 N 
ATOM     40  H76 ZIN A   1      17.223  -2.226   7.034  0.00  0.00     0.163 HD
BRANCH  39  41
ATOM     41  C42 ZIN A   1      17.977  -0.978   5.491  0.00  0.00     0.022 C 
ATOM     42  C43 ZIN A   1      17.540  -1.424   4.095  0.00  0.00     0.037 C 
ATOM     43  C44 ZIN A   1      17.020   0.102   6.004  0.00  0.00     0.037 C 
ATOM     44  C45 ZIN A   1      19.396  -0.410   5.424  0.00  0.00     0.037 C 
ENDBRANCH  39  41
ENDBRANCH  28  37
ENDBRANCH  26  27
ENDBRANCH  23  26
ENDBRANCH   1  23
TORSDOF 12
ENDMDL
MODEL 5
REMARK VINA RESULT:      -9.3      1.777      3.963
REMARK  12 active torsions:
REMARK  status: ('A' for Active; 'I' for Inactive)
REMARK    1  A    between atoms: C3_3  and  O4_4 
REMARK    2  A    between atoms: C8_8  and  C9_9 
REMARK       I    between atoms: C9_9  and  N11_11 
REMARK    3  A    between atoms: N11_11  and  C12_12 
REMARK    4  A    between atoms: C12_12  and  C14_13 
REMARK    5  A    between atoms: C12_12  and  C22_21 
REMARK    6  A    between atoms: C14_13  and  S15_14 
REMARK    7  A    between atoms: S15_14  and  C16_15 
REMARK    8  A    between atoms: C22_21  and  O24_22 
REMARK    9  A    between atoms: C22_21  and  C25_23 
REMARK   10  A    between atoms: C25_23  and  N26_24 
REMARK   11  A    between atoms: C37_33  and  C39_34 
REMARK       I    between atoms: C39_34  and  N41_36 
REMARK   12  A    between atoms: N41_36  and  C42_37 
ROOT
ATOM      1  C12 ZIN A   1      19.719  -1.100  10.775  0.00  0.00     0.124 C 
ENDROOT
BRANCH   1   2
ATOM      2  N11 ZIN A   1      18.878  -2.175  10.242  0.00  0.00    -0.349 N 
ATOM      3  C9  ZIN A   1      19.137  -3.458  10.565  0.00  0.00     0.252 C 
ATOM      4  O10 ZIN A   1      20.070  -3.723  11.298  0.00  0.00    -0.268 OA
ATOM      5  H53 ZIN A   1      18.133  -1.963   9.656  0.00  0.00     0.163 HD
BRANCH   3   6
ATOM      6  C8  ZIN A   1      18.288  -4.542  10.026  0.00  0.00     0.040 A 
ATOM      7  C2  ZIN A   1      18.819  -5.462   9.122  0.00  0.00    -0.013 A 
ATOM      8  C1  ZIN A   1      20.260  -5.357   8.694  0.00  0.00     0.052 C 
ATOM      9  C3  ZIN A   1      18.019  -6.475   8.621  0.00  0.00     0.072 A 
ATOM     10  C5  ZIN A   1      16.691  -6.571   9.018  0.00  0.00     0.037 A 
ATOM     11  C6  ZIN A   1      16.163  -5.657   9.909  0.00  0.00     0.004 A 
ATOM     12  C7  ZIN A   1      16.951  -4.643  10.413  0.00  0.00     0.018 A 
BRANCH   9  13
ATOM     13  O4  ZIN A   1      18.533  -7.377   7.744  0.00  0.00    -0.360 OA
ATOM     14  H49 ZIN A   1      19.361  -7.098   7.332  0.00  0.00     0.217 HD
ENDBRANCH   9  13
ENDBRANCH   3   6
ENDBRANCH   1   2
BRANCH   1  15
ATOM     15  C14 ZIN A   1      19.800   0.036   9.754  0.00  0.00     0.107 C 
BRANCH  15  16
ATOM     16  S15 ZIN A   1      18.230   0.155   8.854  0.00  0.00    -0.128 SA
BRANCH  16  17
ATOM     17  C16 ZIN A   1      18.675  -0.319   7.216  0.00  0.00     0.000 A 
ATOM     18  C21 ZIN A   1      18.858  -1.661   6.905  0.00  0.00     0.018 A 
ATOM     19  C20 ZIN A   1      19.200  -2.030   5.618  0.00  0.00     0.001 A 
ATOM     20  C19 ZIN A   1      19.372  -1.064   4.643  0.00  0.00     0.000 A 
ATOM     21  C18 ZIN A   1      19.196   0.273   4.952  0.00  0.00     0.001 A 
ATOM     22  C17 ZIN A   1      18.848   0.648   6.234  0.00  0.00     0.018 A 
ENDBRANCH  16  17
ENDBRANCH  15  16
ENDBRANCH   1  15
BRANCH   1  23
ATOM     23  C22 ZIN A   1      19.109  -0.574  12.076  0.00  0.00     0.170 C 
BRANCH  23  24
ATOM     24  O24 ZIN A   1      17.790  -0.086  11.821  0.00  0.00    -0.392 OA
ATOM     25  H61 ZIN A   1      17.378  -0.460  11.030  0.00  0.00     0.210 HD
ENDBRANCH  23  24
BRANCH  23  26
ATOM     26  C25 ZIN A   1      19.976   0.562  12.621  0.00  0.00     0.307 C 
BRANCH  26  27
ATOM     27  N26 ZIN A   1      19.194   1.805  12.651  0.00  0.00     0.105 N 
ATOM     28  C37 ZIN A   1      19.039   2.297  14.025  0.00  0.00     0.314 C 
ATOM     29  C36 ZIN A   1      18.107   3.499  14.023  0.00  0.00     0.050 C 
ATOM     30  C34 ZIN A   1      18.690   4.603  13.139  0.00  0.00    -0.006 C 
ATOM     31  C28 ZIN A   1      18.877   4.050  11.724  0.00  0.00     0.018 C 
ATOM     32  C33 ZIN A   1      17.737   5.797  13.108  0.00  0.00     0.005 C 
ATOM     33  C27 ZIN A   1      19.796   2.827  11.784  0.00  0.00     0.278 C 
ATOM     34  C30 ZIN A   1      17.522   3.631  11.148  0.00  0.00     0.007 C 
ATOM     35  C31 ZIN A   1      16.585   4.840  11.110  0.00  0.00     0.000 C 
ATOM     36  C32 ZIN A   1      16.386   5.373  12.530  0.00  0.00     0.000 C 
BRANCH  28  37
ATOM     37  C39 ZIN A   1      18.445   1.203  14.876  0.00  0.00     0.252 C 
ATOM     38  O40 ZIN A   1      17.367   0.728  14.587  0.00  0.00    -0.271 OA
ATOM     39  N41 ZIN A   1      19.112   0.753  15.957  0.00  0.00    -0.351 N 
ATOM     40  H76 ZIN A   1      19.974   1.134  16.188  0.00  0.00     0.163 HD
BRANCH  39  41
ATOM     41  C42 ZIN A   1      18.535  -0.309  16.784  0.00  0.00     0.022 C 
ATOM     42  C43 ZIN A   1      18.748  -1.661  16.099  0.00  0.00     0.037 C 
ATOM     43  C44 ZIN A   1      19.218  -0.318  18.153  0.00  0.00     0.037 C 
ATOM     44  C45 ZIN A   1      17.036  -0.059  16.964  0.00  0.00     0.037 C 
ENDBRANCH  39  41
ENDBRANCH  28  37
ENDBRANCH  26  27
ENDBRANCH  23  26
ENDBRANCH   1  23
TORSDOF 12
ENDMDL
MODEL 6
REMARK VINA RESULT:      -9.2      1.866      7.664
REMARK  12 active torsions:
REMARK  status: ('A' for Active; 'I' for Inactive)
REMARK    1  A    between atoms: C3_3  and  O4_4 
REMARK    2  A    between atoms: C8_8  and  C9_9 
REMARK       I    between atoms: C9_9  and  N11_11 
REMARK    3  A    between atoms: N11_11  and  C12_12 
REMARK    4  A    between atoms: C12_12  and  C14_13 
REMARK    5  A    between atoms: C12_12  and  C22_21 
REMARK    6  A    between atoms: C14_13  and  S15_14 
REMARK    7  A    between atoms: S15_14  and  C16_15 
REMARK    8  A    between atoms: C22_21  and  O24_22 
REMARK    9  A    between atoms: C22_21  and  C25_23 
REMARK   10  A    between atoms: C25_23  and  N26_24 
REMARK   11  A    between atoms: C37_33  and  C39_34 
REMARK       I    between atoms: C39_34  and  N41_36 
REMARK   12  A    between atoms: N41_36  and  C42_37 
ROOT
ATOM      1  C12 ZIN A   1      20.044   0.107  12.728  0.00  0.00     0.124 C 
ENDROOT
BRANCH   1   2
ATOM      2  N11 ZIN A   1      19.013   1.146  12.791  0.00  0.00    -0.349 N 
ATOM      3  C9  ZIN A   1      19.282   2.392  12.352  0.00  0.00     0.252 C 
ATOM      4  O10 ZIN A   1      20.382   2.653  11.904  0.00  0.00    -0.268 OA
ATOM      5  H53 ZIN A   1      18.135   0.937  13.149  0.00  0.00     0.163 HD
BRANCH   3   6
ATOM      6  C8  ZIN A   1      18.241   3.440  12.416  0.00  0.00     0.040 A 
ATOM      7  C2  ZIN A   1      17.792   3.904  13.653  0.00  0.00    -0.013 A 
ATOM      8  C1  ZIN A   1      18.368   3.343  14.926  0.00  0.00     0.052 C 
ATOM      9  C3  ZIN A   1      16.816   4.886  13.705  0.00  0.00     0.072 A 
ATOM     10  C5  ZIN A   1      16.287   5.403  12.530  0.00  0.00     0.037 A 
ATOM     11  C6  ZIN A   1      16.728   4.940  11.305  0.00  0.00     0.004 A 
ATOM     12  C7  ZIN A   1      17.698   3.961  11.241  0.00  0.00     0.018 A 
BRANCH   9  13
ATOM     13  O4  ZIN A   1      16.379   5.345  14.907  0.00  0.00    -0.360 OA
ATOM     14  H49 ZIN A   1      16.921   6.054  15.279  0.00  0.00     0.217 HD
ENDBRANCH   9  13
ENDBRANCH   3   6
ENDBRANCH   1   2
BRANCH   1  15
ATOM     15  C14 ZIN A   1      19.874  -0.851  13.908  0.00  0.00     0.107 C 
BRANCH  15  16
ATOM     16  S15 ZIN A   1      18.131  -0.893  14.407  0.00  0.00    -0.128 SA
BRANCH  16  17
ATOM     17  C16 ZIN A   1      18.190  -0.395  16.096  0.00  0.00     0.000 A 
ATOM     18  C21 ZIN A   1      19.307  -0.686  16.870  0.00  0.00     0.018 A 
ATOM     19  C20 ZIN A   1      19.352  -0.289  18.192  0.00  0.00     0.001 A 
ATOM     20  C19 ZIN A   1      18.283   0.388  18.749  0.00  0.00     0.000 A 
ATOM     21  C18 ZIN A   1      17.167   0.674  17.983  0.00  0.00     0.001 A 
ATOM     22  C17 ZIN A   1      17.117   0.286  16.659  0.00  0.00     0.018 A 
ENDBRANCH  16  17
ENDBRANCH  15  16
ENDBRANCH   1  15
BRANCH   1  23
ATOM     23  C22 ZIN A   1      19.906  -0.669  11.417  0.00  0.00     0.170 C 
BRANCH  23  24
ATOM     24  O24 ZIN A   1      20.742  -0.075  10.421  0.00  0.00    -0.392 OA
ATOM     25  H61 ZIN A   1      20.577  -0.399   9.525  0.00  0.00     0.210 HD
ENDBRANCH  23  24
BRANCH  23  26
ATOM     26  C25 ZIN A   1      18.450  -0.626  10.951  0.00  0.00     0.307 C 
BRANCH  26  27
ATOM     27  N26 ZIN A   1      18.406  -0.520   9.486  0.00  0.00     0.105 N 
ATOM     28  C37 ZIN A   1      17.680  -1.652   8.898  0.00  0.00     0.314 C 
ATOM     29  C36 ZIN A   1      17.782  -1.577   7.382  0.00  0.00     0.050 C 
ATOM     30  C34 ZIN A   1      17.180  -0.260   6.888  0.00  0.00    -0.006 C 
ATOM     31  C28 ZIN A   1      17.932   0.900   7.548  0.00  0.00     0.018 C 
ATOM     32  C33 ZIN A   1      17.317  -0.168   5.368  0.00  0.00     0.005 C 
ATOM     33  C27 ZIN A   1      17.823   0.762   9.069  0.00  0.00     0.278 C 
ATOM     34  C30 ZIN A   1      19.408   0.858   7.145  0.00  0.00     0.007 C 
ATOM     35  C31 ZIN A   1      19.527   0.965   5.623  0.00  0.00     0.000 C 
ATOM     36  C32 ZIN A   1      18.794  -0.208   4.972  0.00  0.00     0.000 C 
BRANCH  28  37
ATOM     37  C39 ZIN A   1      18.298  -2.939   9.379  0.00  0.00     0.252 C 
ATOM     38  O40 ZIN A   1      19.347  -3.322   8.907  0.00  0.00    -0.271 OA
ATOM     39  N41 ZIN A   1      17.686  -3.664  10.336  0.00  0.00    -0.351 N 
ATOM     40  H76 ZIN A   1      16.846  -3.358  10.714  0.00  0.00     0.163 HD
BRANCH  39  41
ATOM     41  C42 ZIN A   1      18.287  -4.915  10.804  0.00  0.00     0.022 C 
ATOM     42  C43 ZIN A   1      19.720  -4.650  11.268  0.00  0.00     0.037 C 
ATOM     43  C44 ZIN A   1      17.468  -5.469  11.972  0.00  0.00     0.037 C 
ATOM     44  C45 ZIN A   1      18.300  -5.934   9.663  0.00  0.00     0.037 C 
ENDBRANCH  39  41
ENDBRANCH  28  37
ENDBRANCH  26  27
ENDBRANCH  23  26
ENDBRANCH   1  23
TORSDOF 12
ENDMDL
MODEL 7
REMARK VINA RESULT:      -9.2      2.196      8.836
REMARK  12 active torsions:
REMARK  status: ('A' for Active; 'I' for Inactive)
REMARK    1  A    between atoms: C3_3  and  O4_4 
REMARK    2  A    between atoms: C8_8  and  C9_9 
REMARK       I    between atoms: C9_9  and  N11_11 
REMARK    3  A    between atoms: N11_11  and  C12_12 
REMARK    4  A    between atoms: C12_12  and  C14_13 
REMARK    5  A    between atoms: C12_12  and  C22_21 
REMARK    6  A    between atoms: C14_13  and  S15_14 
REMARK    7  A    between atoms: S15_14  and  C16_15 
REMARK    8  A    between atoms: C22_21  and  O24_22 
REMARK    9  A    between atoms: C22_21  and  C25_23 
REMARK   10  A    between atoms: C25_23  and  N26_24 
REMARK   11  A    between atoms: C37_33  and  C39_34 
REMARK       I    between atoms: C39_34  and  N41_36 
REMARK   12  A    between atoms: N41_36  and  C42_37 
ROOT
ATOM      1  C12 ZIN A   1      17.869   1.293  11.932  0.00  0.00     0.124 C 
ENDROOT
BRANCH   1   2
ATOM      2  N11 ZIN A   1      18.305   0.702  13.200  0.00  0.00    -0.349 N 
ATOM      3  C9  ZIN A   1      18.040   1.329  14.363  0.00  0.00     0.252 C 
ATOM      4  O10 ZIN A   1      17.439   2.386  14.360  0.00  0.00    -0.268 OA
ATOM      5  H53 ZIN A   1      18.786  -0.142  13.202  0.00  0.00     0.163 HD
BRANCH   3   6
ATOM      6  C8  ZIN A   1      18.480   0.732  15.643  0.00  0.00     0.040 A 
ATOM      7  C2  ZIN A   1      18.918   1.553  16.683  0.00  0.00    -0.013 A 
ATOM      8  C1  ZIN A   1      18.940   3.049  16.508  0.00  0.00     0.052 C 
ATOM      9  C3  ZIN A   1      19.330   0.987  17.878  0.00  0.00     0.072 A 
ATOM     10  C5  ZIN A   1      19.308  -0.392  18.037  0.00  0.00     0.037 A 
ATOM     11  C6  ZIN A   1      18.879  -1.206  17.006  0.00  0.00     0.004 A 
ATOM     12  C7  ZIN A   1      18.468  -0.653  15.811  0.00  0.00     0.018 A 
BRANCH   9  13
ATOM     13  O4  ZIN A   1      19.752   1.782  18.896  0.00  0.00    -0.360 OA
ATOM     14  H49 ZIN A   1      20.641   2.144  18.771  0.00  0.00     0.217 HD
ENDBRANCH   9  13
ENDBRANCH   3   6
ENDBRANCH   1   2
BRANCH   1  15
ATOM     15  C14 ZIN A   1      19.015   2.108  11.330  0.00  0.00     0.107 C 
BRANCH  15  16
ATOM     16  S15 ZIN A   1      18.370   3.680  10.693  0.00  0.00    -0.128 SA
BRANCH  16  17
ATOM     17  C16 ZIN A   1      18.289   4.689  12.136  0.00  0.00     0.000 A 
ATOM     18  C21 ZIN A   1      19.412   4.848  12.939  0.00  0.00     0.018 A 
ATOM     19  C20 ZIN A   1      19.346   5.644  14.065  0.00  0.00     0.001 A 
ATOM     20  C19 ZIN A   1      18.162   6.273  14.401  0.00  0.00     0.000 A 
ATOM     21  C18 ZIN A   1      17.040   6.112  13.607  0.00  0.00     0.001 A 
ATOM     22  C17 ZIN A   1      17.100   5.322  12.476  0.00  0.00     0.018 A 
ENDBRANCH  16  17
ENDBRANCH  15  16
ENDBRANCH   1  15
BRANCH   1  23
ATOM     23  C22 ZIN A   1      17.470   0.180  10.962  0.00  0.00     0.170 C 
BRANCH  23  24
ATOM     24  O24 ZIN A   1      16.716  -0.813  11.660  0.00  0.00    -0.392 OA
ATOM     25  H61 ZIN A   1      15.790  -0.576  11.803  0.00  0.00     0.210 HD
ENDBRANCH  23  24
BRANCH  23  26
ATOM     26  C25 ZIN A   1      18.729  -0.457  10.371  0.00  0.00     0.307 C 
BRANCH  26  27
ATOM     27  N26 ZIN A   1      18.587  -0.564   8.913  0.00  0.00     0.105 N 
ATOM     28  C37 ZIN A   1      17.778  -1.734   8.548  0.00  0.00     0.314 C 
ATOM     29  C36 ZIN A   1      17.777  -1.888   7.035  0.00  0.00     0.050 C 
ATOM     30  C34 ZIN A   1      17.192  -0.630   6.389  0.00  0.00    -0.006 C 
ATOM     31  C28 ZIN A   1      18.032   0.576   6.818  0.00  0.00     0.018 C 
ATOM     32  C33 ZIN A   1      17.225  -0.768   4.867  0.00  0.00     0.005 C 
ATOM     33  C27 ZIN A   1      18.025   0.669   8.347  0.00  0.00     0.278 C 
ATOM     34  C30 ZIN A   1      19.473   0.406   6.333  0.00  0.00     0.007 C 
ATOM     35  C31 ZIN A   1      19.489   0.283   4.807  0.00  0.00     0.000 C 
ATOM     36  C32 ZIN A   1      18.668  -0.937   4.388  0.00  0.00     0.000 C 
BRANCH  28  37
ATOM     37  C39 ZIN A   1      18.380  -2.965   9.177  0.00  0.00     0.252 C 
ATOM     38  O40 ZIN A   1      19.395  -3.445   8.718  0.00  0.00    -0.271 OA
ATOM     39  N41 ZIN A   1      17.791  -3.531  10.248  0.00  0.00    -0.351 N 
ATOM     40  H76 ZIN A   1      16.979  -3.147  10.615  0.00  0.00     0.163 HD
BRANCH  39  41
ATOM     41  C42 ZIN A   1      18.376  -4.727  10.859  0.00  0.00     0.022 C 
ATOM     42  C43 ZIN A   1      17.462  -5.226  11.980  0.00  0.00     0.037 C 
ATOM     43  C44 ZIN A   1      18.526  -5.820   9.799  0.00  0.00     0.037 C 
ATOM     44  C45 ZIN A   1      19.751  -4.385  11.436  0.00  0.00     0.037 C 
ENDBRANCH  39  41
ENDBRANCH  28  37
ENDBRANCH  26  27
ENDBRANCH  23  26
ENDBRANCH   1  23
TORSDOF 12
ENDMDL
MODEL 8
REMARK VINA RESULT:      -9.1      1.949      8.972
REMARK  12 active torsions:
REMARK  status: ('A' for Active; 'I' for Inactive)
REMARK    1  A    between atoms: C3_3  and  O4_4 
REMARK    2  A    between atoms: C8_8  and  C9_9 
REMARK       I    between atoms: C9_9  and  N11_11 
REMARK    3  A    between atoms: N11_11  and  C12_12 
REMARK    4  A    between atoms: C12_12  and  C14_13 
REMARK    5  A    between atoms: C12_12  and  C22_21 
REMARK    6  A    between atoms: C14_13  and  S15_14 
REMARK    7  A    between atoms: S15_14  and  C16_15 
REMARK    8  A    between atoms: C22_21  and  O24_22 
REMARK    9  A    between atoms: C22_21  and  C25_23 
REMARK   10  A    between atoms: C25_23  and  N26_24 
REMARK   11  A    between atoms: C37_33  and  C39_34 
REMARK       I    between atoms: C39_34  and  N41_36 
REMARK   12  A    between atoms: N41_36  and  C42_37 
ROOT
ATOM      1  C12 ZIN A   1      19.487   0.060  13.113  0.00  0.00     0.124 C 
ENDROOT
BRANCH   1   2
ATOM      2  N11 ZIN A   1      19.755   1.296  13.852  0.00  0.00    -0.349 N 
ATOM      3  C9  ZIN A   1      18.755   2.166  14.098  0.00  0.00     0.252 C 
ATOM      4  O10 ZIN A   1      17.630   1.925  13.706  0.00  0.00    -0.268 OA
ATOM      5  H53 ZIN A   1      20.654   1.489  14.165  0.00  0.00     0.163 HD
BRANCH   3   6
ATOM      6  C8  ZIN A   1      19.026   3.414  14.844  0.00  0.00     0.040 A 
ATOM      7  C2  ZIN A   1      19.441   4.559  14.163  0.00  0.00    -0.013 A 
ATOM      8  C1  ZIN A   1      19.610   4.530  12.667  0.00  0.00     0.052 C 
ATOM      9  C3  ZIN A   1      19.694   5.723  14.868  0.00  0.00     0.072 A 
ATOM     10  C5  ZIN A   1      19.537   5.748  16.248  0.00  0.00     0.037 A 
ATOM     11  C6  ZIN A   1      19.131   4.613  16.923  0.00  0.00     0.004 A 
ATOM     12  C7  ZIN A   1      18.878   3.447  16.231  0.00  0.00     0.018 A 
BRANCH   9  13
ATOM     13  O4  ZIN A   1      20.094   6.843  14.210  0.00  0.00    -0.360 OA
ATOM     14  H49 ZIN A   1      20.284   6.702  13.272  0.00  0.00     0.217 HD
ENDBRANCH   9  13
ENDBRANCH   3   6
ENDBRANCH   1   2
BRANCH   1  15
ATOM     15  C14 ZIN A   1      18.318  -0.680  13.766  0.00  0.00     0.107 C 
BRANCH  15  16
ATOM     16  S15 ZIN A   1      18.919  -1.613  15.200  0.00  0.00    -0.128 SA
BRANCH  16  17
ATOM     17  C16 ZIN A   1      18.457  -0.593  16.560  0.00  0.00     0.000 A 
ATOM     18  C21 ZIN A   1      17.150  -0.133  16.674  0.00  0.00     0.018 A 
ATOM     19  C20 ZIN A   1      16.790   0.661  17.745  0.00  0.00     0.001 A 
ATOM     20  C19 ZIN A   1      17.730   1.009  18.697  0.00  0.00     0.000 A 
ATOM     21  C18 ZIN A   1      19.033   0.558  18.584  0.00  0.00     0.001 A 
ATOM     22  C17 ZIN A   1      19.399  -0.242  17.519  0.00  0.00     0.018 A 
ENDBRANCH  16  17
ENDBRANCH  15  16
ENDBRANCH   1  15
BRANCH   1  23
ATOM     23  C22 ZIN A   1      19.130   0.400  11.664  0.00  0.00     0.170 C 
BRANCH  23  24
ATOM     24  O24 ZIN A   1      17.739   0.153  11.446  0.00  0.00    -0.392 OA
ATOM     25  H61 ZIN A   1      17.511  -0.029  10.524  0.00  0.00     0.210 HD
ENDBRANCH  23  24
BRANCH  23  26
ATOM     26  C25 ZIN A   1      19.957  -0.472  10.718  0.00  0.00     0.307 C 
BRANCH  26  27
ATOM     27  N26 ZIN A   1      19.318  -1.787  10.578  0.00  0.00     0.105 N 
ATOM     28  C37 ZIN A   1      19.320  -2.227   9.177  0.00  0.00     0.314 C 
ATOM     29  C36 ZIN A   1      18.526  -3.519   9.058  0.00  0.00     0.050 C 
ATOM     30  C34 ZIN A   1      19.158  -4.596   9.942  0.00  0.00    -0.006 C 
ATOM     31  C28 ZIN A   1      19.177  -4.094  11.388  0.00  0.00     0.018 C 
ATOM     32  C33 ZIN A   1      18.339  -5.884   9.851  0.00  0.00     0.005 C 
ATOM     33  C27 ZIN A   1      19.961  -2.780  11.449  0.00  0.00     0.278 C 
ATOM     34  C30 ZIN A   1      17.746  -3.847  11.871  0.00  0.00     0.007 C 
ATOM     35  C31 ZIN A   1      16.944  -5.148  11.787  0.00  0.00     0.000 C 
ATOM     36  C32 ZIN A   1      16.910  -5.631  10.336  0.00  0.00     0.000 C 
BRANCH  28  37
ATOM     37  C39 ZIN A   1      18.677  -1.163   8.326  0.00  0.00     0.252 C 
ATOM     38  O40 ZIN A   1      17.633  -0.655   8.675  0.00  0.00    -0.271 OA
ATOM     39  N41 ZIN A   1      19.263  -0.775   7.175  0.00  0.00    -0.351 N 
ATOM     40  H76 ZIN A   1      20.098  -1.181   6.895  0.00  0.00     0.163 HD
BRANCH  39  41
ATOM     41  C42 ZIN A   1      18.638   0.259   6.348  0.00  0.00     0.022 C 
ATOM     42  C43 ZIN A   1      18.849   1.629   6.996  0.00  0.00     0.037 C 
ATOM     43  C44 ZIN A   1      19.273   0.252   4.956  0.00  0.00     0.037 C 
ATOM     44  C45 ZIN A   1      17.139  -0.021   6.225  0.00  0.00     0.037 C 
ENDBRANCH  39  41
ENDBRANCH  28  37
ENDBRANCH  26  27
ENDBRANCH  23  26
ENDBRANCH   1  23
TORSDOF 12
ENDMDL
MODEL 9
REMARK VINA RESULT:      -8.7      1.365      2.230
REMARK  12 active torsions:
REMARK  status: ('A' for Active; 'I' for Inactive)
REMARK    1  A    between atoms: C3_3  and  O4_4 
REMARK    2  A    between atoms: C8_8  and  C9_9 
REMARK       I    between atoms: C9_9  and  N11_11 
REMARK    3  A    between atoms: N11_11  and  C12_12 
REMARK    4  A    between atoms: C12_12  and  C14_13 
REMARK    5  A    between atoms: C12_12  and  C22_21 
REMARK    6  A    between atoms: C14_13  and  S15_14 
REMARK    7  A    between atoms: S15_14  and  C16_15 
REMARK    8  A    between atoms: C22_21  and  O24_22 
REMARK    9  A    between atoms: C22_21  and  C25_23 
REMARK   10  A    between atoms: C25_23  and  N26_24 
REMARK   11  A    between atoms: C37_33  and  C39_34 
REMARK       I    between atoms: C39_34  and  N41_36 
REMARK   12  A    between atoms: N41_36  and  C42_37 
ROOT
ATOM      1  C12 ZIN A   1      17.757  -0.828  10.996  0.00  0.00     0.124 C 
ENDROOT
BRANCH   1   2
ATOM      2  N11 ZIN A   1      17.800  -0.555   9.558  0.00  0.00    -0.349 N 
ATOM      3  C9  ZIN A   1      18.979  -0.558   8.905  0.00  0.00     0.252 C 
ATOM      4  O10 ZIN A   1      20.008  -0.786   9.511  0.00  0.00    -0.268 OA
ATOM      5  H53 ZIN A   1      16.978  -0.372   9.074  0.00  0.00     0.163 HD
BRANCH   3   6
ATOM      6  C8  ZIN A   1      19.022  -0.281   7.453  0.00  0.00     0.040 A 
ATOM      7  C2  ZIN A   1      19.215  -1.326   6.548  0.00  0.00    -0.013 A 
ATOM      8  C1  ZIN A   1      19.377  -2.738   7.046  0.00  0.00     0.052 C 
ATOM      9  C3  ZIN A   1      19.254  -1.060   5.190  0.00  0.00     0.072 A 
ATOM     10  C5  ZIN A   1      19.104   0.243   4.732  0.00  0.00     0.037 A 
ATOM     11  C6  ZIN A   1      18.917   1.278   5.628  0.00  0.00     0.004 A 
ATOM     12  C7  ZIN A   1      18.878   1.025   6.983  0.00  0.00     0.018 A 
BRANCH   9  13
ATOM     13  O4  ZIN A   1      19.437  -2.074   4.304  0.00  0.00    -0.360 OA
ATOM     14  H49 ZIN A   1      20.234  -2.598   4.463  0.00  0.00     0.217 HD
ENDBRANCH   9  13
ENDBRANCH   3   6
ENDBRANCH   1   2
BRANCH   1  15
ATOM     15  C14 ZIN A   1      18.550  -2.102  11.296  0.00  0.00     0.107 C 
BRANCH  15  16
ATOM     16  S15 ZIN A   1      17.403  -3.491  11.512  0.00  0.00    -0.128 SA
BRANCH  16  17
ATOM     17  C16 ZIN A   1      17.977  -4.667  10.332  0.00  0.00     0.000 A 
ATOM     18  C21 ZIN A   1      17.068  -5.435   9.615  0.00  0.00     0.018 A 
ATOM     19  C20 ZIN A   1      17.522  -6.352   8.687  0.00  0.00     0.001 A 
ATOM     20  C19 ZIN A   1      18.879  -6.514   8.479  0.00  0.00     0.000 A 
ATOM     21  C18 ZIN A   1      19.787  -5.754   9.195  0.00  0.00     0.001 A 
ATOM     22  C17 ZIN A   1      19.341  -4.832  10.121  0.00  0.00     0.018 A 
ENDBRANCH  16  17
ENDBRANCH  15  16
ENDBRANCH   1  15
BRANCH   1  23
ATOM     23  C22 ZIN A   1      18.374   0.347  11.757  0.00  0.00     0.170 C 
BRANCH  23  24
ATOM     24  O24 ZIN A   1      19.654  -0.035  12.265  0.00  0.00    -0.392 OA
ATOM     25  H61 ZIN A   1      19.816  -0.988  12.251  0.00  0.00     0.210 HD
ENDBRANCH  23  24
BRANCH  23  26
ATOM     26  C25 ZIN A   1      17.460   0.738  12.919  0.00  0.00     0.307 C 
BRANCH  26  27
ATOM     27  N26 ZIN A   1      17.757   2.116  13.334  0.00  0.00     0.105 N 
ATOM     28  C37 ZIN A   1      18.953   2.162  14.186  0.00  0.00     0.314 C 
ATOM     29  C36 ZIN A   1      19.139   3.579  14.707  0.00  0.00     0.050 C 
ATOM     30  C34 ZIN A   1      19.301   4.545  13.531  0.00  0.00    -0.006 C 
ATOM     31  C28 ZIN A   1      18.058   4.445  12.642  0.00  0.00     0.018 C 
ATOM     32  C33 ZIN A   1      19.451   5.973  14.054  0.00  0.00     0.005 C 
ATOM     33  C27 ZIN A   1      17.899   2.998  12.168  0.00  0.00     0.278 C 
ATOM     34  C30 ZIN A   1      16.816   4.852  13.438  0.00  0.00     0.007 C 
ATOM     35  C31 ZIN A   1      16.977   6.288  13.941  0.00  0.00     0.000 C 
ATOM     36  C32 ZIN A   1      18.206   6.374  14.847  0.00  0.00     0.000 C 
BRANCH  28  37
ATOM     37  C39 ZIN A   1      18.767   1.220  15.348  0.00  0.00     0.252 C 
ATOM     38  O40 ZIN A   1      19.250   0.109  15.311  0.00  0.00    -0.271 OA
ATOM     39  N41 ZIN A   1      18.065   1.614  16.429  0.00  0.00    -0.351 N 
ATOM     40  H76 ZIN A   1      17.678   2.503  16.458  0.00  0.00     0.163 HD
BRANCH  39  41
ATOM     41  C42 ZIN A   1      17.884   0.699  17.558  0.00  0.00     0.022 C 
ATOM     42  C43 ZIN A   1      17.085  -0.523  17.101  0.00  0.00     0.037 C 
ATOM     43  C44 ZIN A   1      19.253   0.249  18.073  0.00  0.00     0.037 C 
ATOM     44  C45 ZIN A   1      17.128   1.413  18.679  0.00  0.00     0.037 C 
ENDBRANCH  39  41
ENDBRANCH  28  37
ENDBRANCH  26  27
ENDBRANCH  23  26
ENDBRANCH   1  23
TORSDOF 12
ENDMDL
