MODEL 1
REMARK VINA RESULT:      -6.8      0.000      0.000
REMARK  17 active torsions:
REMARK  status: ('A' for Active; 'I' for Inactive)
REMARK    1  A    between atoms: C2_2  and  O4_4 
REMARK    2  A    between atoms: O4_4  and  C5_5 
REMARK    3  A    between atoms: C11_10  and  O13_11 
REMARK    4  A    between atoms: C18_16  and  O20_17 
REMARK    5  A    between atoms: C24_21  and  O26_22 
REMARK    6  A    between atoms: O26_22  and  C27_23 
REMARK    7  A    between atoms: C27_23  and  C29_25 
REMARK    8  A    between atoms: C29_25  and  O31_26 
REMARK    9  A    between atoms: C29_25  and  C32_27 
REMARK   10  A    between atoms: C32_27  and  N34_28 
REMARK   11  A    between atoms: C32_27  and  C42_36 
REMARK       I    between atoms: N34_28  and  C35_29 
REMARK   12  A    between atoms: C35_29  and  O37_31 
REMARK   13  A    between atoms: O37_31  and  C38_32 
REMARK   14  A    between atoms: C49_43  and  O50_44 
REMARK   15  A    between atoms: C51_45  and  O53_46 
REMARK   16  A    between atoms: O53_46  and  C54_47 
REMARK   17  A    between atoms: C54_47  and  C56_49 
ROOT
ATOM      1  C5  ZIN A   1      14.747  -6.732   3.054  0.00  0.00     0.125 C 
ATOM      2  C6  ZIN A   1      13.229  -6.944   2.993  0.00  0.00     0.210 C 
ATOM      3  O7  ZIN A   1      13.463  -7.853   1.902  0.00  0.00    -0.380 OA
ATOM      4  C8  ZIN A   1      14.852  -7.515   1.745  0.00  0.00     0.161 C 
ATOM      5  C10 ZIN A   1      15.782  -8.701   1.670  0.00  0.00     0.068 C 
ATOM      6  C11 ZIN A   1      16.466  -9.140   2.942  0.00  0.00     0.137 C 
ATOM      7  C14 ZIN A   1      15.584  -8.861   4.193  0.00  0.00     0.055 C 
ATOM      8  C15 ZIN A   1      14.309  -9.653   3.940  0.00  0.00     0.027 C 
ATOM      9  C16 ZIN A   1      16.373  -9.427   5.364  0.00  0.00     0.171 C 
ATOM     10  O17 ZIN A   1      17.577  -9.617   5.252  0.00  0.00    -0.294 OA
ATOM     11  C18 ZIN A   1      15.687  -9.759   6.678  0.00  0.00     0.218 C 
ATOM     12  C21 ZIN A   1      15.367  -8.451   7.311  0.00  0.00    -0.029 C 
ATOM     13  C22 ZIN A   1      16.222  -7.826   8.091  0.00  0.00    -0.048 C 
ATOM     14  C23 ZIN A   1      17.527  -8.476   8.460  0.00  0.00     0.046 C 
ATOM     15  C24 ZIN A   1      16.016  -6.429   8.585  0.00  0.00     0.164 C 
ATOM     16  C48 ZIN A   1      15.109  -5.586   7.713  0.00  0.00     0.078 C 
ATOM     17  C49 ZIN A   1      14.501  -6.375   6.536  0.00  0.00     0.098 C 
ATOM     18  C51 ZIN A   1      15.528  -6.498   5.447  0.00  0.00     0.176 C 
ATOM     19  C62 ZIN A   1      15.449  -7.372   4.248  0.00  0.00     0.076 C 
ATOM     20  C64 ZIN A   1      14.071  -7.715   7.138  0.00  0.00     0.013 C 
ATOM     21  C65 ZIN A   1      13.005  -8.394   6.297  0.00  0.00     0.023 C 
ATOM     22  C66 ZIN A   1      13.420  -7.507   8.528  0.00  0.00     0.023 C 
ENDROOT
BRANCH  15  23
ATOM     23  O26 ZIN A   1      17.315  -5.781   8.653  0.00  0.00    -0.309 OA
BRANCH  23  24
ATOM     24  C27 ZIN A   1      17.617  -5.137   9.791  0.00  0.00     0.290 C 
ATOM     25  O28 ZIN A   1      17.095  -5.469  10.830  0.00  0.00    -0.262 OA
BRANCH  24  26
ATOM     26  C29 ZIN A   1      18.607  -4.000   9.776  0.00  0.00     0.244 C 
BRANCH  26  27
ATOM     27  O31 ZIN A   1      19.758  -4.361  10.541  0.00  0.00    -0.383 OA
ATOM     28  H82 ZIN A   1      19.598  -4.412  11.493  0.00  0.00     0.210 HD
ENDBRANCH  26  27
BRANCH  26  29
ATOM     29  C32 ZIN A   1      17.961  -2.754  10.383  0.00  0.00     0.158 C 
BRANCH  29  30
ATOM     30  N34 ZIN A   1      18.428  -2.583  11.761  0.00  0.00    -0.325 N 
ATOM     31  C35 ZIN A   1      17.761  -1.769  12.603  0.00  0.00     0.362 C 
ATOM     32  O36 ZIN A   1      16.772  -1.177  12.219  0.00  0.00    -0.238 OA
ATOM     33  H83 ZIN A   1      19.217  -3.055  12.067  0.00  0.00     0.165 HD
BRANCH  31  34
ATOM     34  O37 ZIN A   1      18.190  -1.612  13.868  0.00  0.00    -0.294 OA
BRANCH  34  35
ATOM     35  C38 ZIN A   1      18.655  -0.290  14.248  0.00  0.00     0.061 C 
ATOM     36  C39 ZIN A   1      18.916  -0.255  15.756  0.00  0.00     0.046 C 
ATOM     37  C40 ZIN A   1      19.950   0.030  13.499  0.00  0.00     0.046 C 
ATOM     38  C41 ZIN A   1      17.589   0.748  13.890  0.00  0.00     0.046 C 
ENDBRANCH  34  35
ENDBRANCH  31  34
ENDBRANCH  29  30
BRANCH  29  39
ATOM     39  C42 ZIN A   1      18.342  -1.544   9.569  0.00  0.00    -0.032 A 
ATOM     40  C47 ZIN A   1      19.627  -1.039   9.642  0.00  0.00     0.009 A 
ATOM     41  C46 ZIN A   1      19.977   0.068   8.893  0.00  0.00     0.001 A 
ATOM     42  C45 ZIN A   1      19.041   0.676   8.077  0.00  0.00     0.000 A 
ATOM     43  C44 ZIN A   1      17.755   0.174   8.008  0.00  0.00     0.001 A 
ATOM     44  C43 ZIN A   1      17.406  -0.936   8.755  0.00  0.00     0.009 A 
ENDBRANCH  29  39
ENDBRANCH  26  29
ENDBRANCH  24  26
ENDBRANCH  23  24
ENDBRANCH  15  23
BRANCH  17  45
ATOM     45  O50 ZIN A   1      13.351  -5.663   6.071  0.00  0.00    -0.386 OA
ATOM     46 0H10 ZIN A   1      13.280  -5.618   5.107  0.00  0.00     0.210 HD
ENDBRANCH  17  45
BRANCH  11  47
ATOM     47  O20 ZIN A   1      14.577 -10.635   6.541  0.00  0.00    -0.384 OA
ATOM     48  H78 ZIN A   1      14.809 -11.573   6.576  0.00  0.00     0.211 HD
ENDBRANCH  11  47
BRANCH  18  49
ATOM     49  O53 ZIN A   1      16.875  -6.595   6.017  0.00  0.00    -0.308 OA
BRANCH  49  50
ATOM     50  C54 ZIN A   1      17.889  -6.111   5.275  0.00  0.00     0.293 C 
ATOM     51  O55 ZIN A   1      18.510  -6.852   4.539  0.00  0.00    -0.259 OA
BRANCH  50  52
ATOM     52  C56 ZIN A   1      18.249  -4.681   5.357  0.00  0.00     0.039 A 
ATOM     53  C61 ZIN A   1      17.598  -3.747   4.549  0.00  0.00     0.017 A 
ATOM     54  C60 ZIN A   1      17.934  -2.411   4.636  0.00  0.00     0.001 A 
ATOM     55  C59 ZIN A   1      18.922  -1.999   5.514  0.00  0.00     0.000 A 
ATOM     56  C58 ZIN A   1      19.574  -2.921   6.313  0.00  0.00     0.001 A 
ATOM     57  C57 ZIN A   1      19.244  -4.258   6.241  0.00  0.00     0.017 A 
ENDBRANCH  50  52
ENDBRANCH  49  50
ENDBRANCH  18  49
BRANCH   1  58
ATOM     58  O4  ZIN A   1      15.128  -5.317   2.889  0.00  0.00    -0.305 OA
BRANCH  58  59
ATOM     59  C2  ZIN A   1      15.323  -4.881   1.634  0.00  0.00     0.255 C 
ATOM     60  C1  ZIN A   1      16.707  -4.895   1.038  0.00  0.00     0.126 C 
ATOM     61  O3  ZIN A   1      14.388  -4.477   0.983  0.00  0.00    -0.266 OA
ENDBRANCH  58  59
ENDBRANCH   1  58
BRANCH   6  62
ATOM     62  O13 ZIN A   1      16.710 -10.547   2.891  0.00  0.00    -0.394 OA
ATOM     63  H74 ZIN A   1      16.029 -11.081   3.322  0.00  0.00     0.210 HD
ENDBRANCH   6  62
TORSDOF 17
ENDMDL
MODEL 2
REMARK VINA RESULT:      -5.8      6.972     16.005
REMARK  17 active torsions:
REMARK  status: ('A' for Active; 'I' for Inactive)
REMARK    1  A    between atoms: C2_2  and  O4_4 
REMARK    2  A    between atoms: O4_4  and  C5_5 
REMARK    3  A    between atoms: C11_10  and  O13_11 
REMARK    4  A    between atoms: C18_16  and  O20_17 
REMARK    5  A    between atoms: C24_21  and  O26_22 
REMARK    6  A    between atoms: O26_22  and  C27_23 
REMARK    7  A    between atoms: C27_23  and  C29_25 
REMARK    8  A    between atoms: C29_25  and  O31_26 
REMARK    9  A    between atoms: C29_25  and  C32_27 
REMARK   10  A    between atoms: C32_27  and  N34_28 
REMARK   11  A    between atoms: C32_27  and  C42_36 
REMARK       I    between atoms: N34_28  and  C35_29 
REMARK   12  A    between atoms: C35_29  and  O37_31 
REMARK   13  A    between atoms: O37_31  and  C38_32 
REMARK   14  A    between atoms: C49_43  and  O50_44 
REMARK   15  A    between atoms: C51_45  and  O53_46 
REMARK   16  A    between atoms: O53_46  and  C54_47 
REMARK   17  A    between atoms: C54_47  and  C56_49 
ROOT
ATOM      1  C5  ZIN A   1      14.120   6.955  18.663  0.00  0.00     0.125 C 
ATOM      2  C6  ZIN A   1      13.150   7.750  17.780  0.00  0.00     0.210 C 
ATOM      3  O7  ZIN A   1      13.103   8.736  18.827  0.00  0.00    -0.380 OA
ATOM      4  C8  ZIN A   1      13.803   7.934  19.795  0.00  0.00     0.161 C 
ATOM      5  C10 ZIN A   1      14.937   8.641  20.494  0.00  0.00     0.068 C 
ATOM      6  C11 ZIN A   1      16.332   8.448  19.946  0.00  0.00     0.137 C 
ATOM      7  C14 ZIN A   1      16.317   8.234  18.406  0.00  0.00     0.055 C 
ATOM      8  C15 ZIN A   1      15.669   9.495  17.855  0.00  0.00     0.027 C 
ATOM      9  C16 ZIN A   1      17.783   8.136  18.009  0.00  0.00     0.171 C 
ATOM     10  O17 ZIN A   1      18.625   7.864  18.854  0.00  0.00    -0.294 OA
ATOM     11  C18 ZIN A   1      18.219   8.371  16.573  0.00  0.00     0.218 C 
ATOM     12  C21 ZIN A   1      17.762   7.180  15.810  0.00  0.00    -0.029 C 
ATOM     13  C22 ZIN A   1      18.503   6.098  15.697  0.00  0.00    -0.048 C 
ATOM     14  C23 ZIN A   1      19.900   6.074  16.252  0.00  0.00     0.046 C 
ATOM     15  C24 ZIN A   1      18.003   4.816  15.107  0.00  0.00     0.164 C 
ATOM     16  C48 ZIN A   1      16.501   4.640  15.182  0.00  0.00     0.078 C 
ATOM     17  C49 ZIN A   1      15.778   5.868  15.767  0.00  0.00     0.098 C 
ATOM     18  C51 ZIN A   1      15.910   5.849  17.263  0.00  0.00     0.176 C 
ATOM     19  C62 ZIN A   1      15.573   6.952  18.199  0.00  0.00     0.076 C 
ATOM     20  C64 ZIN A   1      16.444   7.075  15.101  0.00  0.00     0.013 C 
ATOM     21  C65 ZIN A   1      15.550   8.301  15.134  0.00  0.00     0.023 C 
ATOM     22  C66 ZIN A   1      16.700   6.799  13.599  0.00  0.00     0.023 C 
ENDROOT
BRANCH  15  23
ATOM     23  O26 ZIN A   1      18.628   3.719  15.826  0.00  0.00    -0.309 OA
BRANCH  23  24
ATOM     24  C27 ZIN A   1      18.747   2.552  15.174  0.00  0.00     0.290 C 
ATOM     25  O28 ZIN A   1      19.652   1.798  15.444  0.00  0.00    -0.262 OA
BRANCH  24  26
ATOM     26  C29 ZIN A   1      17.752   2.180  14.104  0.00  0.00     0.244 C 
BRANCH  26  27
ATOM     27  O31 ZIN A   1      16.799   1.260  14.639  0.00  0.00    -0.383 OA
ATOM     28  H82 ZIN A   1      17.156   0.673  15.319  0.00  0.00     0.210 HD
ENDBRANCH  26  27
BRANCH  26  29
ATOM     29  C32 ZIN A   1      18.486   1.528  12.930  0.00  0.00     0.158 C 
BRANCH  29  30
ATOM     30  N34 ZIN A   1      17.919   0.202  12.675  0.00  0.00    -0.325 N 
ATOM     31  C35 ZIN A   1      18.659  -0.901  12.901  0.00  0.00     0.362 C 
ATOM     32  O36 ZIN A   1      19.796  -0.796  13.316  0.00  0.00    -0.238 OA
ATOM     33  H83 ZIN A   1      17.012   0.118  12.345  0.00  0.00     0.165 HD
BRANCH  31  34
ATOM     34  O37 ZIN A   1      18.138  -2.120  12.667  0.00  0.00    -0.294 OA
BRANCH  34  35
ATOM     35  C38 ZIN A   1      18.562  -2.796  11.454  0.00  0.00     0.061 C 
ATOM     36  C39 ZIN A   1      17.668  -4.015  11.211  0.00  0.00     0.046 C 
ATOM     37  C40 ZIN A   1      18.447  -1.836  10.268  0.00  0.00     0.046 C 
ATOM     38  C41 ZIN A   1      20.015  -3.251  11.604  0.00  0.00     0.046 C 
ENDBRANCH  34  35
ENDBRANCH  31  34
ENDBRANCH  29  30
BRANCH  29  39
ATOM     39  C42 ZIN A   1      18.329   2.387  11.701  0.00  0.00    -0.032 A 
ATOM     40  C47 ZIN A   1      18.880   1.980  10.500  0.00  0.00     0.009 A 
ATOM     41  C46 ZIN A   1      18.732   2.766   9.372  0.00  0.00     0.001 A 
ATOM     42  C45 ZIN A   1      18.041   3.961   9.447  0.00  0.00     0.000 A 
ATOM     43  C44 ZIN A   1      17.495   4.369  10.649  0.00  0.00     0.001 A 
ATOM     44  C43 ZIN A   1      17.639   3.582  11.776  0.00  0.00     0.009 A 
ENDBRANCH  29  39
ENDBRANCH  26  29
ENDBRANCH  24  26
ENDBRANCH  23  24
ENDBRANCH  15  23
BRANCH  17  45
ATOM     45  O50 ZIN A   1      14.402   5.801  15.380  0.00  0.00    -0.386 OA
ATOM     46 0H10 ZIN A   1      14.187   6.333  14.601  0.00  0.00     0.210 HD
ENDBRANCH  17  45
BRANCH  11  47
ATOM     47  O20 ZIN A   1      17.788   9.615  16.039  0.00  0.00    -0.384 OA
ATOM     48  H78 ZIN A   1      16.998   9.553  15.485  0.00  0.00     0.211 HD
ENDBRANCH  11  47
BRANCH  18  49
ATOM     49  O53 ZIN A   1      17.197   5.267  17.659  0.00  0.00    -0.308 OA
BRANCH  49  50
ATOM     50  C54 ZIN A   1      17.208   4.500  18.765  0.00  0.00     0.293 C 
ATOM     51  O55 ZIN A   1      16.826   4.957  19.825  0.00  0.00    -0.259 OA
BRANCH  50  52
ATOM     52  C56 ZIN A   1      17.685   3.104  18.692  0.00  0.00     0.039 A 
ATOM     53  C61 ZIN A   1      19.050   2.824  18.773  0.00  0.00     0.017 A 
ATOM     54  C60 ZIN A   1      19.488   1.517  18.711  0.00  0.00     0.001 A 
ATOM     55  C59 ZIN A   1      18.577   0.486  18.559  0.00  0.00     0.000 A 
ATOM     56  C58 ZIN A   1      17.224   0.757  18.473  0.00  0.00     0.001 A 
ATOM     57  C57 ZIN A   1      16.772   2.059  18.540  0.00  0.00     0.017 A 
ENDBRANCH  50  52
ENDBRANCH  49  50
ENDBRANCH  18  49
BRANCH   1  58
ATOM     58  O4  ZIN A   1      13.635   5.593  18.953  0.00  0.00    -0.305 OA
BRANCH  58  59
ATOM     59  C2  ZIN A   1      13.233   5.344  20.210  0.00  0.00     0.255 C 
ATOM     60  C1  ZIN A   1      11.775   5.463  20.572  0.00  0.00     0.126 C 
ATOM     61  O3  ZIN A   1      14.041   5.025  21.051  0.00  0.00    -0.266 OA
ENDBRANCH  58  59
ENDBRANCH   1  58
BRANCH   6  62
ATOM     62  O13 ZIN A   1      17.114   9.613  20.213  0.00  0.00    -0.394 OA
ATOM     63  H74 ZIN A   1      17.666   9.896  19.471  0.00  0.00     0.210 HD
ENDBRANCH   6  62
TORSDOF 17
ENDMDL
MODEL 3
REMARK VINA RESULT:      -5.4      1.607      2.192
REMARK  17 active torsions:
REMARK  status: ('A' for Active; 'I' for Inactive)
REMARK    1  A    between atoms: C2_2  and  O4_4 
REMARK    2  A    between atoms: O4_4  and  C5_5 
REMARK    3  A    between atoms: C11_10  and  O13_11 
REMARK    4  A    between atoms: C18_16  and  O20_17 
REMARK    5  A    between atoms: C24_21  and  O26_22 
REMARK    6  A    between atoms: O26_22  and  C27_23 
REMARK    7  A    between atoms: C27_23  and  C29_25 
REMARK    8  A    between atoms: C29_25  and  O31_26 
REMARK    9  A    between atoms: C29_25  and  C32_27 
REMARK   10  A    between atoms: C32_27  and  N34_28 
REMARK   11  A    between atoms: C32_27  and  C42_36 
REMARK       I    between atoms: N34_28  and  C35_29 
REMARK   12  A    between atoms: C35_29  and  O37_31 
REMARK   13  A    between atoms: O37_31  and  C38_32 
REMARK   14  A    between atoms: C49_43  and  O50_44 
REMARK   15  A    between atoms: C51_45  and  O53_46 
REMARK   16  A    between atoms: O53_46  and  C54_47 
REMARK   17  A    between atoms: C54_47  and  C56_49 
ROOT
ATOM      1  C5  ZIN A   1      14.232  -6.828   4.188  0.00  0.00     0.125 C 
ATOM      2  C6  ZIN A   1      13.171  -7.617   4.966  0.00  0.00     0.210 C 
ATOM      3  O7  ZIN A   1      13.195  -8.581   3.898  0.00  0.00    -0.380 OA
ATOM      4  C8  ZIN A   1      13.995  -7.778   3.012  0.00  0.00     0.161 C 
ATOM      5  C10 ZIN A   1      15.170  -8.499   2.400  0.00  0.00     0.068 C 
ATOM      6  C11 ZIN A   1      16.515  -8.348   3.071  0.00  0.00     0.137 C 
ATOM      7  C14 ZIN A   1      16.370  -8.163   4.609  0.00  0.00     0.055 C 
ATOM      8  C15 ZIN A   1      15.649  -9.419   5.074  0.00  0.00     0.027 C 
ATOM      9  C16 ZIN A   1      17.797  -8.108   5.134  0.00  0.00     0.171 C 
ATOM     10  O17 ZIN A   1      18.716  -7.839   4.372  0.00  0.00    -0.294 OA
ATOM     11  C18 ZIN A   1      18.101  -8.380   6.597  0.00  0.00     0.218 C 
ATOM     12  C21 ZIN A   1      17.604  -7.193   7.343  0.00  0.00    -0.029 C 
ATOM     13  C22 ZIN A   1      18.355  -6.131   7.543  0.00  0.00    -0.048 C 
ATOM     14  C23 ZIN A   1      19.796  -6.129   7.112  0.00  0.00     0.046 C 
ATOM     15  C24 ZIN A   1      17.834  -4.849   8.113  0.00  0.00     0.164 C 
ATOM     16  C48 ZIN A   1      16.348  -4.636   7.911  0.00  0.00     0.078 C 
ATOM     17  C49 ZIN A   1      15.652  -5.836   7.239  0.00  0.00     0.098 C 
ATOM     18  C51 ZIN A   1      15.916  -5.791   5.761  0.00  0.00     0.176 C 
ATOM     19  C62 ZIN A   1      15.639  -6.868   4.777  0.00  0.00     0.076 C 
ATOM     20  C64 ZIN A   1      16.232  -7.071   7.935  0.00  0.00     0.013 C 
ATOM     21  C65 ZIN A   1      15.317  -8.275   7.799  0.00  0.00     0.023 C 
ATOM     22  C66 ZIN A   1      16.360  -6.829   9.459  0.00  0.00     0.023 C 
ENDROOT
BRANCH  15  23
ATOM     23  O26 ZIN A   1      18.543  -3.753   7.475  0.00  0.00    -0.309 OA
BRANCH  23  24
ATOM     24  C27 ZIN A   1      18.320  -2.520   7.955  0.00  0.00     0.290 C 
ATOM     25  O28 ZIN A   1      17.407  -1.858   7.518  0.00  0.00    -0.262 OA
BRANCH  24  26
ATOM     26  C29 ZIN A   1      19.205  -1.959   9.037  0.00  0.00     0.244 C 
BRANCH  26  27
ATOM     27  O31 ZIN A   1      19.868  -3.029   9.713  0.00  0.00    -0.383 OA
ATOM     28  H82 ZIN A   1      20.823  -2.910   9.797  0.00  0.00     0.210 HD
ENDBRANCH  26  27
BRANCH  26  29
ATOM     29  C32 ZIN A   1      18.353  -1.175  10.037  0.00  0.00     0.158 C 
BRANCH  29  30
ATOM     30  N34 ZIN A   1      18.823  -1.446  11.398  0.00  0.00    -0.325 N 
ATOM     31  C35 ZIN A   1      17.940  -1.776  12.362  0.00  0.00     0.362 C 
ATOM     32  O36 ZIN A   1      16.755  -1.846  12.102  0.00  0.00    -0.238 OA
ATOM     33  H83 ZIN A   1      19.767  -1.390  11.605  0.00  0.00     0.165 HD
BRANCH  31  34
ATOM     34  O37 ZIN A   1      18.371  -2.025  13.612  0.00  0.00    -0.294 OA
BRANCH  34  35
ATOM     35  C38 ZIN A   1      18.605  -0.877  14.470  0.00  0.00     0.061 C 
ATOM     36  C39 ZIN A   1      19.968  -0.264  14.141  0.00  0.00     0.046 C 
ATOM     37  C40 ZIN A   1      17.508   0.164  14.239  0.00  0.00     0.046 C 
ATOM     38  C41 ZIN A   1      18.586  -1.322  15.934  0.00  0.00     0.046 C 
ENDBRANCH  34  35
ENDBRANCH  31  34
ENDBRANCH  29  30
BRANCH  29  39
ATOM     39  C42 ZIN A   1      18.472   0.300   9.750  0.00  0.00    -0.032 A 
ATOM     40  C47 ZIN A   1      19.272   0.739   8.710  0.00  0.00     0.009 A 
ATOM     41  C46 ZIN A   1      19.377   2.092   8.444  0.00  0.00     0.001 A 
ATOM     42  C45 ZIN A   1      18.689   3.005   9.221  0.00  0.00     0.000 A 
ATOM     43  C44 ZIN A   1      17.893   2.566  10.263  0.00  0.00     0.001 A 
ATOM     44  C43 ZIN A   1      17.786   1.213  10.527  0.00  0.00     0.009 A 
ENDBRANCH  29  39
ENDBRANCH  26  29
ENDBRANCH  24  26
ENDBRANCH  23  24
ENDBRANCH  15  23
BRANCH  17  45
ATOM     45  O50 ZIN A   1      14.250  -5.744   7.506  0.00  0.00    -0.386 OA
ATOM     46 0H10 ZIN A   1      14.011  -5.943   8.422  0.00  0.00     0.210 HD
ENDBRANCH  17  45
BRANCH  11  47
ATOM     47  O20 ZIN A   1      17.597  -9.623   7.066  0.00  0.00    -0.384 OA
ATOM     48  H78 ZIN A   1      16.635  -9.650   7.156  0.00  0.00     0.211 HD
ENDBRANCH  11  47
BRANCH  18  49
ATOM     49  O53 ZIN A   1      17.245  -5.233   5.492  0.00  0.00    -0.308 OA
BRANCH  49  50
ATOM     50  C54 ZIN A   1      17.401  -4.550   4.342  0.00  0.00     0.293 C 
ATOM     51  O55 ZIN A   1      17.221  -5.107   3.276  0.00  0.00    -0.259 OA
BRANCH  50  52
ATOM     52  C56 ZIN A   1      17.791  -3.126   4.374  0.00  0.00     0.039 A 
ATOM     53  C61 ZIN A   1      16.819  -2.130   4.259  0.00  0.00     0.017 A 
ATOM     54  C60 ZIN A   1      17.190  -0.801   4.298  0.00  0.00     0.001 A 
ATOM     55  C59 ZIN A   1      18.523  -0.456   4.438  0.00  0.00     0.000 A 
ATOM     56  C58 ZIN A   1      19.490  -1.438   4.546  0.00  0.00     0.001 A 
ATOM     57  C57 ZIN A   1      19.133  -2.770   4.516  0.00  0.00     0.017 A 
ENDBRANCH  50  52
ENDBRANCH  49  50
ENDBRANCH  18  49
BRANCH   1  58
ATOM     58  O4  ZIN A   1      13.805  -5.450   3.884  0.00  0.00    -0.305 OA
BRANCH  58  59
ATOM     59  C2  ZIN A   1      13.561  -5.157   2.597  0.00  0.00     0.255 C 
ATOM     60  C1  ZIN A   1      14.673  -4.646   1.718  0.00  0.00     0.126 C 
ATOM     61  O3  ZIN A   1      12.450  -5.302   2.144  0.00  0.00    -0.266 OA
ENDBRANCH  58  59
ENDBRANCH   1  58
BRANCH   6  62
ATOM     62  O13 ZIN A   1      17.292  -9.526   2.849  0.00  0.00    -0.394 OA
ATOM     63  H74 ZIN A   1      18.106  -9.565   3.370  0.00  0.00     0.210 HD
ENDBRANCH   6  62
TORSDOF 17
ENDMDL
MODEL 4
REMARK VINA RESULT:      -5.1      1.204      2.717
REMARK  17 active torsions:
REMARK  status: ('A' for Active; 'I' for Inactive)
REMARK    1  A    between atoms: C2_2  and  O4_4 
REMARK    2  A    between atoms: O4_4  and  C5_5 
REMARK    3  A    between atoms: C11_10  and  O13_11 
REMARK    4  A    between atoms: C18_16  and  O20_17 
REMARK    5  A    between atoms: C24_21  and  O26_22 
REMARK    6  A    between atoms: O26_22  and  C27_23 
REMARK    7  A    between atoms: C27_23  and  C29_25 
REMARK    8  A    between atoms: C29_25  and  O31_26 
REMARK    9  A    between atoms: C29_25  and  C32_27 
REMARK   10  A    between atoms: C32_27  and  N34_28 
REMARK   11  A    between atoms: C32_27  and  C42_36 
REMARK       I    between atoms: N34_28  and  C35_29 
REMARK   12  A    between atoms: C35_29  and  O37_31 
REMARK   13  A    between atoms: O37_31  and  C38_32 
REMARK   14  A    between atoms: C49_43  and  O50_44 
REMARK   15  A    between atoms: C51_45  and  O53_46 
REMARK   16  A    between atoms: O53_46  and  C54_47 
REMARK   17  A    between atoms: C54_47  and  C56_49 
ROOT
ATOM      1  C5  ZIN A   1      14.580  -7.089   3.284  0.00  0.00     0.125 C 
ATOM      2  C6  ZIN A   1      13.100  -7.489   3.352  0.00  0.00     0.210 C 
ATOM      3  O7  ZIN A   1      13.384  -8.470   2.338  0.00  0.00    -0.380 OA
ATOM      4  C8  ZIN A   1      14.707  -7.985   2.051  0.00  0.00     0.161 C 
ATOM      5  C10 ZIN A   1      15.774  -9.050   2.022  0.00  0.00     0.068 C 
ATOM      6  C11 ZIN A   1      16.583  -9.270   3.279  0.00  0.00     0.137 C 
ATOM      7  C14 ZIN A   1      15.747  -8.973   4.557  0.00  0.00     0.055 C 
ATOM      8  C15 ZIN A   1      14.571  -9.935   4.472  0.00  0.00     0.027 C 
ATOM      9  C16 ZIN A   1      16.669  -9.315   5.718  0.00  0.00     0.171 C 
ATOM     10  O17 ZIN A   1      17.879  -9.369   5.539  0.00  0.00    -0.294 OA
ATOM     11  C18 ZIN A   1      16.110  -9.591   7.103  0.00  0.00     0.218 C 
ATOM     12  C21 ZIN A   1      15.663  -8.273   7.629  0.00  0.00    -0.029 C 
ATOM     13  C22 ZIN A   1      16.476  -7.472   8.284  0.00  0.00    -0.048 C 
ATOM     14  C23 ZIN A   1      17.873  -7.918   8.620  0.00  0.00     0.046 C 
ATOM     15  C24 ZIN A   1      16.123  -6.067   8.657  0.00  0.00     0.164 C 
ATOM     16  C48 ZIN A   1      15.066  -5.435   7.775  0.00  0.00     0.078 C 
ATOM     17  C49 ZIN A   1      14.496  -6.408   6.726  0.00  0.00     0.098 C 
ATOM     18  C51 ZIN A   1      15.464  -6.518   5.582  0.00  0.00     0.176 C 
ATOM     19  C62 ZIN A   1      15.427  -7.513   4.480  0.00  0.00     0.076 C 
ATOM     20  C64 ZIN A   1      14.277  -7.722   7.481  0.00  0.00     0.013 C 
ATOM     21  C65 ZIN A   1      13.258  -8.607   6.785  0.00  0.00     0.023 C 
ATOM     22  C66 ZIN A   1      13.687  -7.452   8.887  0.00  0.00     0.023 C 
ENDROOT
BRANCH  15  23
ATOM     23  O26 ZIN A   1      17.330  -5.263   8.571  0.00  0.00    -0.309 OA
BRANCH  23  24
ATOM     24  C27 ZIN A   1      17.438  -4.230   9.421  0.00  0.00     0.290 C 
ATOM     25  O28 ZIN A   1      16.768  -3.238   9.255  0.00  0.00    -0.262 OA
BRANCH  24  26
ATOM     26  C29 ZIN A   1      18.394  -4.307  10.584  0.00  0.00     0.244 C 
BRANCH  26  27
ATOM     27  O31 ZIN A   1      17.657  -4.453  11.799  0.00  0.00    -0.383 OA
ATOM     28  H82 ZIN A   1      17.829  -3.759  12.449  0.00  0.00     0.210 HD
ENDBRANCH  26  27
BRANCH  26  29
ATOM     29  C32 ZIN A   1      19.227  -3.025  10.644  0.00  0.00     0.158 C 
BRANCH  29  30
ATOM     30  N34 ZIN A   1      19.057  -2.273   9.398  0.00  0.00    -0.325 N 
ATOM     31  C35 ZIN A   1      19.816  -1.185   9.159  0.00  0.00     0.362 C 
ATOM     32  O36 ZIN A   1      20.641  -0.828   9.977  0.00  0.00    -0.238 OA
ATOM     33  H83 ZIN A   1      18.399  -2.557   8.746  0.00  0.00     0.165 HD
BRANCH  31  34
ATOM     34  O37 ZIN A   1      19.660  -0.494   8.015  0.00  0.00    -0.294 OA
BRANCH  34  35
ATOM     35  C38 ZIN A   1      18.633   0.532   7.999  0.00  0.00     0.061 C 
ATOM     36  C39 ZIN A   1      18.721   1.361   9.283  0.00  0.00     0.046 C 
ATOM     37  C40 ZIN A   1      18.841   1.444   6.788  0.00  0.00     0.046 C 
ATOM     38  C41 ZIN A   1      17.255  -0.127   7.910  0.00  0.00     0.046 C 
ENDBRANCH  34  35
ENDBRANCH  31  34
ENDBRANCH  29  30
BRANCH  29  39
ATOM     39  C42 ZIN A   1      18.768  -2.182  11.806  0.00  0.00    -0.032 A 
ATOM     40  C47 ZIN A   1      19.455  -2.227  13.006  0.00  0.00     0.009 A 
ATOM     41  C46 ZIN A   1      19.036  -1.450  14.070  0.00  0.00     0.001 A 
ATOM     42  C45 ZIN A   1      17.927  -0.637  13.938  0.00  0.00     0.000 A 
ATOM     43  C44 ZIN A   1      17.237  -0.596  12.740  0.00  0.00     0.001 A 
ATOM     44  C43 ZIN A   1      17.659  -1.369  11.675  0.00  0.00     0.009 A 
ENDBRANCH  29  39
ENDBRANCH  26  29
ENDBRANCH  24  26
ENDBRANCH  23  24
ENDBRANCH  15  23
BRANCH  17  45
ATOM     45  O50 ZIN A   1      13.239  -5.893   6.278  0.00  0.00    -0.386 OA
ATOM     46 0H10 ZIN A   1      12.473  -6.293   6.712  0.00  0.00     0.210 HD
ENDBRANCH  17  45
BRANCH  11  47
ATOM     47  O20 ZIN A   1      15.115 -10.604   7.128  0.00  0.00    -0.384 OA
ATOM     48  H78 ZIN A   1      14.406 -10.476   6.484  0.00  0.00     0.211 HD
ENDBRANCH  11  47
BRANCH  18  49
ATOM     49  O53 ZIN A   1      16.843  -6.391   6.061  0.00  0.00    -0.308 OA
BRANCH  49  50
ATOM     50  C54 ZIN A   1      17.749  -5.898   5.196  0.00  0.00     0.293 C 
ATOM     51  O55 ZIN A   1      18.412  -6.654   4.514  0.00  0.00    -0.259 OA
BRANCH  50  52
ATOM     52  C56 ZIN A   1      17.939  -4.437   5.076  0.00  0.00     0.039 A 
ATOM     53  C61 ZIN A   1      19.026  -3.818   5.695  0.00  0.00     0.017 A 
ATOM     54  C60 ZIN A   1      19.200  -2.455   5.573  0.00  0.00     0.001 A 
ATOM     55  C59 ZIN A   1      18.294  -1.701   4.848  0.00  0.00     0.000 A 
ATOM     56  C58 ZIN A   1      17.212  -2.308   4.237  0.00  0.00     0.001 A 
ATOM     57  C57 ZIN A   1      17.029  -3.670   4.345  0.00  0.00     0.017 A 
ENDBRANCH  50  52
ENDBRANCH  49  50
ENDBRANCH  18  49
BRANCH   1  58
ATOM     58  O4  ZIN A   1      14.767  -5.663   2.959  0.00  0.00    -0.305 OA
BRANCH  58  59
ATOM     59  C2  ZIN A   1      15.585  -5.375   1.934  0.00  0.00     0.255 C 
ATOM     60  C1  ZIN A   1      15.237  -4.259   0.983  0.00  0.00     0.126 C 
ATOM     61  O3  ZIN A   1      16.601  -6.011   1.775  0.00  0.00    -0.266 OA
ENDBRANCH  58  59
ENDBRANCH   1  58
BRANCH   6  62
ATOM     62  O13 ZIN A   1      17.001 -10.635   3.344  0.00  0.00    -0.394 OA
ATOM     63  H74 ZIN A   1      17.635 -10.820   4.050  0.00  0.00     0.210 HD
ENDBRANCH   6  62
TORSDOF 17
ENDMDL
MODEL 5
REMARK VINA RESULT:      -4.8      6.688     14.818
REMARK  17 active torsions:
REMARK  status: ('A' for Active; 'I' for Inactive)
REMARK    1  A    between atoms: C2_2  and  O4_4 
REMARK    2  A    between atoms: O4_4  and  C5_5 
REMARK    3  A    between atoms: C11_10  and  O13_11 
REMARK    4  A    between atoms: C18_16  and  O20_17 
REMARK    5  A    between atoms: C24_21  and  O26_22 
REMARK    6  A    between atoms: O26_22  and  C27_23 
REMARK    7  A    between atoms: C27_23  and  C29_25 
REMARK    8  A    between atoms: C29_25  and  O31_26 
REMARK    9  A    between atoms: C29_25  and  C32_27 
REMARK   10  A    between atoms: C32_27  and  N34_28 
REMARK   11  A    between atoms: C32_27  and  C42_36 
REMARK       I    between atoms: N34_28  and  C35_29 
REMARK   12  A    between atoms: C35_29  and  O37_31 
REMARK   13  A    between atoms: O37_31  and  C38_32 
REMARK   14  A    between atoms: C49_43  and  O50_44 
REMARK   15  A    between atoms: C51_45  and  O53_46 
REMARK   16  A    between atoms: O53_46  and  C54_47 
REMARK   17  A    between atoms: C54_47  and  C56_49 
ROOT
ATOM      1  C5  ZIN A   1      16.007   5.410  18.129  0.00  0.00     0.125 C 
ATOM      2  C6  ZIN A   1      14.779   6.275  17.823  0.00  0.00     0.210 C 
ATOM      3  O7  ZIN A   1      15.108   7.046  18.993  0.00  0.00    -0.380 OA
ATOM      4  C8  ZIN A   1      16.116   6.137  19.470  0.00  0.00     0.161 C 
ATOM      5  C10 ZIN A   1      17.422   6.790  19.849  0.00  0.00     0.068 C 
ATOM      6  C11 ZIN A   1      18.525   6.809  18.818  0.00  0.00     0.137 C 
ATOM      7  C14 ZIN A   1      17.955   6.880  17.372  0.00  0.00     0.055 C 
ATOM      8  C15 ZIN A   1      17.144   8.168  17.348  0.00  0.00     0.027 C 
ATOM      9  C16 ZIN A   1      19.179   6.972  16.472  0.00  0.00     0.171 C 
ATOM     10  O17 ZIN A   1      20.271   6.615  16.892  0.00  0.00    -0.294 OA
ATOM     11  C18 ZIN A   1      19.064   7.499  15.052  0.00  0.00     0.218 C 
ATOM     12  C21 ZIN A   1      18.369   6.436  14.279  0.00  0.00    -0.029 C 
ATOM     13  C22 ZIN A   1      19.025   5.454  13.698  0.00  0.00    -0.048 C 
ATOM     14  C23 ZIN A   1      20.529   5.437  13.707  0.00  0.00     0.046 C 
ATOM     15  C24 ZIN A   1      18.354   4.267  13.081  0.00  0.00     0.164 C 
ATOM     16  C48 ZIN A   1      16.982   3.964  13.645  0.00  0.00     0.078 C 
ATOM     17  C49 ZIN A   1      16.512   5.004  14.680  0.00  0.00     0.098 C 
ATOM     18  C51 ZIN A   1      17.177   4.721  15.997  0.00  0.00     0.176 C 
ATOM     19  C62 ZIN A   1      17.194   5.604  17.191  0.00  0.00     0.076 C 
ATOM     20  C64 ZIN A   1      16.885   6.361  14.076  0.00  0.00     0.013 C 
ATOM     21  C65 ZIN A   1      16.055   7.487  14.666  0.00  0.00     0.023 C 
ATOM     22  C66 ZIN A   1      16.581   6.385  12.558  0.00  0.00     0.023 C 
ENDROOT
BRANCH  15  23
ATOM     23  O26 ZIN A   1      19.204   3.108  13.298  0.00  0.00    -0.309 OA
BRANCH  23  24
ATOM     24  C27 ZIN A   1      19.679   2.487  12.208  0.00  0.00     0.290 C 
ATOM     25  O28 ZIN A   1      19.918   3.122  11.207  0.00  0.00    -0.262 OA
BRANCH  24  26
ATOM     26  C29 ZIN A   1      19.916   0.999  12.229  0.00  0.00     0.244 C 
BRANCH  26  27
ATOM     27  O31 ZIN A   1      21.275   0.727  11.886  0.00  0.00    -0.383 OA
ATOM     28  H82 ZIN A   1      21.387  -0.017  11.279  0.00  0.00     0.210 HD
ENDBRANCH  26  27
BRANCH  26  29
ATOM     29  C32 ZIN A   1      18.989   0.321  11.218  0.00  0.00     0.158 C 
BRANCH  29  30
ATOM     30  N34 ZIN A   1      19.487   0.561   9.862  0.00  0.00    -0.325 N 
ATOM     31  C35 ZIN A   1      18.619   0.770   8.852  0.00  0.00     0.362 C 
ATOM     32  O36 ZIN A   1      17.423   0.758   9.067  0.00  0.00    -0.238 OA
ATOM     33  H83 ZIN A   1      20.441   0.570   9.690  0.00  0.00     0.165 HD
BRANCH  31  34
ATOM     34  O37 ZIN A   1      19.076   0.990   7.606  0.00  0.00    -0.294 OA
BRANCH  34  35
ATOM     35  C38 ZIN A   1      18.742   0.002   6.596  0.00  0.00     0.061 C 
ATOM     36  C39 ZIN A   1      17.226  -0.017   6.384  0.00  0.00     0.046 C 
ATOM     37  C40 ZIN A   1      19.436   0.361   5.281  0.00  0.00     0.046 C 
ATOM     38  C41 ZIN A   1      19.209  -1.379   7.059  0.00  0.00     0.046 C 
ENDBRANCH  34  35
ENDBRANCH  31  34
ENDBRANCH  29  30
BRANCH  29  39
ATOM     39  C42 ZIN A   1      18.953  -1.162  11.485  0.00  0.00    -0.032 A 
ATOM     40  C47 ZIN A   1      17.830  -1.734  12.054  0.00  0.00     0.009 A 
ATOM     41  C46 ZIN A   1      17.796  -3.095  12.295  0.00  0.00     0.001 A 
ATOM     42  C45 ZIN A   1      18.887  -3.882  11.976  0.00  0.00     0.000 A 
ATOM     43  C44 ZIN A   1      20.011  -3.308  11.412  0.00  0.00     0.001 A 
ATOM     44  C43 ZIN A   1      20.044  -1.948  11.167  0.00  0.00     0.009 A 
ENDBRANCH  29  39
ENDBRANCH  26  29
ENDBRANCH  24  26
ENDBRANCH  23  24
ENDBRANCH  15  23
BRANCH  17  45
ATOM     45  O50 ZIN A   1      15.090   4.903  14.799  0.00  0.00    -0.386 OA
ATOM     46 0H10 ZIN A   1      14.714   4.121  14.371  0.00  0.00     0.210 HD
ENDBRANCH  17  45
BRANCH  11  47
ATOM     47  O20 ZIN A   1      18.461   8.782  14.963  0.00  0.00    -0.384 OA
ATOM     48  H78 ZIN A   1      17.545   8.767  14.654  0.00  0.00     0.211 HD
ENDBRANCH  11  47
BRANCH  18  49
ATOM     49  O53 ZIN A   1      18.523   4.179  15.788  0.00  0.00    -0.308 OA
BRANCH  49  50
ATOM     50  C54 ZIN A   1      18.962   3.270  16.679  0.00  0.00     0.293 C 
ATOM     51  O55 ZIN A   1      19.584   3.631  17.658  0.00  0.00    -0.259 OA
BRANCH  50  52
ATOM     52  C56 ZIN A   1      18.688   1.833  16.466  0.00  0.00     0.039 A 
ATOM     53  C61 ZIN A   1      17.875   1.424  15.408  0.00  0.00     0.017 A 
ATOM     54  C60 ZIN A   1      17.630   0.081  15.211  0.00  0.00     0.001 A 
ATOM     55  C59 ZIN A   1      18.179  -0.859  16.067  0.00  0.00     0.000 A 
ATOM     56  C58 ZIN A   1      18.981  -0.459  17.120  0.00  0.00     0.001 A 
ATOM     57  C57 ZIN A   1      19.240   0.881  17.325  0.00  0.00     0.017 A 
ENDBRANCH  50  52
ENDBRANCH  49  50
ENDBRANCH  18  49
BRANCH   1  58
ATOM     58  O4  ZIN A   1      15.669   3.984  18.295  0.00  0.00    -0.305 OA
BRANCH  58  59
ATOM     59  C2  ZIN A   1      16.001   3.411  19.463  0.00  0.00     0.255 C 
ATOM     60  C1  ZIN A   1      16.992   2.275  19.490  0.00  0.00     0.126 C 
ATOM     61  O3  ZIN A   1      15.506   3.805  20.492  0.00  0.00    -0.266 OA
ENDBRANCH  58  59
ENDBRANCH   1  58
BRANCH   6  62
ATOM     62  O13 ZIN A   1      19.343   7.963  19.017  0.00  0.00    -0.394 OA
ATOM     63  H74 ZIN A   1      19.828   8.243  18.228  0.00  0.00     0.210 HD
ENDBRANCH   6  62
TORSDOF 17
ENDMDL
MODEL 6
REMARK VINA RESULT:      -4.5      6.367     14.765
REMARK  17 active torsions:
REMARK  status: ('A' for Active; 'I' for Inactive)
REMARK    1  A    between atoms: C2_2  and  O4_4 
REMARK    2  A    between atoms: O4_4  and  C5_5 
REMARK    3  A    between atoms: C11_10  and  O13_11 
REMARK    4  A    between atoms: C18_16  and  O20_17 
REMARK    5  A    between atoms: C24_21  and  O26_22 
REMARK    6  A    between atoms: O26_22  and  C27_23 
REMARK    7  A    between atoms: C27_23  and  C29_25 
REMARK    8  A    between atoms: C29_25  and  O31_26 
REMARK    9  A    between atoms: C29_25  and  C32_27 
REMARK   10  A    between atoms: C32_27  and  N34_28 
REMARK   11  A    between atoms: C32_27  and  C42_36 
REMARK       I    between atoms: N34_28  and  C35_29 
REMARK   12  A    between atoms: C35_29  and  O37_31 
REMARK   13  A    between atoms: O37_31  and  C38_32 
REMARK   14  A    between atoms: C49_43  and  O50_44 
REMARK   15  A    between atoms: C51_45  and  O53_46 
REMARK   16  A    between atoms: O53_46  and  C54_47 
REMARK   17  A    between atoms: C54_47  and  C56_49 
ROOT
ATOM      1  C5  ZIN A   1      15.894   5.675  18.223  0.00  0.00     0.125 C 
ATOM      2  C6  ZIN A   1      14.719   6.613  17.915  0.00  0.00     0.210 C 
ATOM      3  O7  ZIN A   1      15.123   7.392  19.056  0.00  0.00    -0.380 OA
ATOM      4  C8  ZIN A   1      16.077   6.431  19.541  0.00  0.00     0.161 C 
ATOM      5  C10 ZIN A   1      17.431   7.005  19.877  0.00  0.00     0.068 C 
ATOM      6  C11 ZIN A   1      18.512   6.921  18.825  0.00  0.00     0.137 C 
ATOM      7  C14 ZIN A   1      17.919   6.990  17.388  0.00  0.00     0.055 C 
ATOM      8  C15 ZIN A   1      17.196   8.328  17.342  0.00  0.00     0.027 C 
ATOM      9  C16 ZIN A   1      19.128   6.974  16.464  0.00  0.00     0.171 C 
ATOM     10  O17 ZIN A   1      20.203   6.557  16.875  0.00  0.00    -0.294 OA
ATOM     11  C18 ZIN A   1      19.021   7.468  15.032  0.00  0.00     0.218 C 
ATOM     12  C21 ZIN A   1      18.241   6.432  14.303  0.00  0.00    -0.029 C 
ATOM     13  C22 ZIN A   1      18.819   5.393  13.739  0.00  0.00    -0.048 C 
ATOM     14  C23 ZIN A   1      20.318   5.275  13.722  0.00  0.00     0.046 C 
ATOM     15  C24 ZIN A   1      18.058   4.237  13.169  0.00  0.00     0.164 C 
ATOM     16  C48 ZIN A   1      16.680   4.043  13.767  0.00  0.00     0.078 C 
ATOM     17  C49 ZIN A   1      16.301   5.141  14.779  0.00  0.00     0.098 C 
ATOM     18  C51 ZIN A   1      16.972   4.850  16.092  0.00  0.00     0.176 C 
ATOM     19  C62 ZIN A   1      17.072   5.764  17.259  0.00  0.00     0.076 C 
ATOM     20  C64 ZIN A   1      16.751   6.452  14.129  0.00  0.00     0.013 C 
ATOM     21  C65 ZIN A   1      16.011   7.647  14.701  0.00  0.00     0.023 C 
ATOM     22  C66 ZIN A   1      16.420   6.454  12.617  0.00  0.00     0.023 C 
ENDROOT
BRANCH  15  23
ATOM     23  O26 ZIN A   1      18.832   3.031  13.405  0.00  0.00    -0.309 OA
BRANCH  23  24
ATOM     24  C27 ZIN A   1      19.239   2.346  12.325  0.00  0.00     0.290 C 
ATOM     25  O28 ZIN A   1      20.420   2.212  12.104  0.00  0.00    -0.262 OA
BRANCH  24  26
ATOM     26  C29 ZIN A   1      18.225   1.744  11.386  0.00  0.00     0.244 C 
BRANCH  26  27
ATOM     27  O31 ZIN A   1      17.066   1.354  12.124  0.00  0.00    -0.383 OA
ATOM     28  H82 ZIN A   1      16.692   0.506  11.851  0.00  0.00     0.210 HD
ENDBRANCH  26  27
BRANCH  26  29
ATOM     29  C32 ZIN A   1      18.830   0.517  10.701  0.00  0.00     0.158 C 
BRANCH  29  30
ATOM     30  N34 ZIN A   1      18.250  -0.699  11.277  0.00  0.00    -0.325 N 
ATOM     31  C35 ZIN A   1      19.052  -1.712  11.660  0.00  0.00     0.362 C 
ATOM     32  O36 ZIN A   1      20.256  -1.617  11.528  0.00  0.00    -0.238 OA
ATOM     33  H83 ZIN A   1      17.289  -0.775  11.382  0.00  0.00     0.165 HD
BRANCH  31  34
ATOM     34  O37 ZIN A   1      18.519  -2.829  12.188  0.00  0.00    -0.294 OA
BRANCH  34  35
ATOM     35  C38 ZIN A   1      18.402  -3.982  11.313  0.00  0.00     0.061 C 
ATOM     36  C39 ZIN A   1      17.405  -4.977  11.911  0.00  0.00     0.046 C 
ATOM     37  C40 ZIN A   1      17.907  -3.529   9.937  0.00  0.00     0.046 C 
ATOM     38  C41 ZIN A   1      19.769  -4.653  11.168  0.00  0.00     0.046 C 
ENDBRANCH  34  35
ENDBRANCH  31  34
ENDBRANCH  29  30
BRANCH  29  39
ATOM     39  C42 ZIN A   1      18.530   0.567   9.225  0.00  0.00    -0.032 A 
ATOM     40  C47 ZIN A   1      17.464  -0.149   8.712  0.00  0.00     0.009 A 
ATOM     41  C46 ZIN A   1      17.188  -0.099   7.358  0.00  0.00     0.001 A 
ATOM     42  C45 ZIN A   1      17.980   0.659   6.518  0.00  0.00     0.000 A 
ATOM     43  C44 ZIN A   1      19.049   1.372   7.031  0.00  0.00     0.001 A 
ATOM     44  C43 ZIN A   1      19.323   1.324   8.385  0.00  0.00     0.009 A 
ENDBRANCH  29  39
ENDBRANCH  26  29
ENDBRANCH  24  26
ENDBRANCH  23  24
ENDBRANCH  15  23
BRANCH  17  45
ATOM     45  O50 ZIN A   1      14.878   5.139  14.926  0.00  0.00    -0.386 OA
ATOM     46 0H10 ZIN A   1      14.396   5.072  14.090  0.00  0.00     0.210 HD
ENDBRANCH  17  45
BRANCH  11  47
ATOM     47  O20 ZIN A   1      18.503   8.786  14.917  0.00  0.00    -0.384 OA
ATOM     48  H78 ZIN A   1      18.793   9.386  15.617  0.00  0.00     0.211 HD
ENDBRANCH  11  47
BRANCH  18  49
ATOM     49  O53 ZIN A   1      18.274   4.213  15.874  0.00  0.00    -0.308 OA
BRANCH  49  50
ATOM     50  C54 ZIN A   1      18.709   3.367  16.827  0.00  0.00     0.293 C 
ATOM     51  O55 ZIN A   1      19.226   3.804  17.837  0.00  0.00    -0.259 OA
BRANCH  50  52
ATOM     52  C56 ZIN A   1      18.558   1.909  16.646  0.00  0.00     0.039 A 
ATOM     53  C61 ZIN A   1      19.161   1.025  17.543  0.00  0.00     0.017 A 
ATOM     54  C60 ZIN A   1      19.011  -0.335  17.372  0.00  0.00     0.001 A 
ATOM     55  C59 ZIN A   1      18.274  -0.824  16.307  0.00  0.00     0.000 A 
ATOM     56  C58 ZIN A   1      17.678   0.046  15.413  0.00  0.00     0.001 A 
ATOM     57  C57 ZIN A   1      17.815   1.409  15.576  0.00  0.00     0.017 A 
ENDBRANCH  50  52
ENDBRANCH  49  50
ENDBRANCH  18  49
BRANCH   1  58
ATOM     58  O4  ZIN A   1      15.465   4.281  18.437  0.00  0.00    -0.305 OA
BRANCH  58  59
ATOM     59  C2  ZIN A   1      15.925   3.663  19.537  0.00  0.00     0.255 C 
ATOM     60  C1  ZIN A   1      15.481   4.125  20.901  0.00  0.00     0.126 C 
ATOM     61  O3  ZIN A   1      16.695   2.737  19.432  0.00  0.00    -0.266 OA
ENDBRANCH  58  59
ENDBRANCH   1  58
BRANCH   6  62
ATOM     62  O13 ZIN A   1      19.409   8.022  18.976  0.00  0.00    -0.394 OA
ATOM     63  H74 ZIN A   1      19.005   8.810  19.364  0.00  0.00     0.210 HD
ENDBRANCH   6  62
TORSDOF 17
ENDMDL
MODEL 7
REMARK VINA RESULT:      -4.5      3.036      6.229
REMARK  17 active torsions:
REMARK  status: ('A' for Active; 'I' for Inactive)
REMARK    1  A    between atoms: C2_2  and  O4_4 
REMARK    2  A    between atoms: O4_4  and  C5_5 
REMARK    3  A    between atoms: C11_10  and  O13_11 
REMARK    4  A    between atoms: C18_16  and  O20_17 
REMARK    5  A    between atoms: C24_21  and  O26_22 
REMARK    6  A    between atoms: O26_22  and  C27_23 
REMARK    7  A    between atoms: C27_23  and  C29_25 
REMARK    8  A    between atoms: C29_25  and  O31_26 
REMARK    9  A    between atoms: C29_25  and  C32_27 
REMARK   10  A    between atoms: C32_27  and  N34_28 
REMARK   11  A    between atoms: C32_27  and  C42_36 
REMARK       I    between atoms: N34_28  and  C35_29 
REMARK   12  A    between atoms: C35_29  and  O37_31 
REMARK   13  A    between atoms: O37_31  and  C38_32 
REMARK   14  A    between atoms: C49_43  and  O50_44 
REMARK   15  A    between atoms: C51_45  and  O53_46 
REMARK   16  A    between atoms: O53_46  and  C54_47 
REMARK   17  A    between atoms: C54_47  and  C56_49 
ROOT
ATOM      1  C5  ZIN A   1      16.481  -5.912   8.101  0.00  0.00     0.125 C 
ATOM      2  C6  ZIN A   1      16.279  -6.996   9.168  0.00  0.00     0.210 C 
ATOM      3  O7  ZIN A   1      16.847  -7.932   8.234  0.00  0.00    -0.380 OA
ATOM      4  C8  ZIN A   1      16.836  -7.027   7.116  0.00  0.00     0.161 C 
ATOM      5  C10 ZIN A   1      18.137  -6.950   6.357  0.00  0.00     0.068 C 
ATOM      6  C11 ZIN A   1      19.094  -5.837   6.710  0.00  0.00     0.137 C 
ATOM      7  C14 ZIN A   1      18.992  -5.450   8.213  0.00  0.00     0.055 C 
ATOM      8  C15 ZIN A   1      19.327  -6.734   8.957  0.00  0.00     0.027 C 
ATOM      9  C16 ZIN A   1      20.061  -4.387   8.419  0.00  0.00     0.171 C 
ATOM     10  O17 ZIN A   1      20.503  -3.774   7.456  0.00  0.00    -0.294 OA
ATOM     11  C18 ZIN A   1      20.589  -4.071   9.807  0.00  0.00     0.218 C 
ATOM     12  C21 ZIN A   1      19.495  -3.341  10.502  0.00  0.00    -0.029 C 
ATOM     13  C22 ZIN A   1      19.367  -2.034  10.420  0.00  0.00    -0.048 C 
ATOM     14  C23 ZIN A   1      20.402  -1.214   9.700  0.00  0.00     0.046 C 
ATOM     15  C24 ZIN A   1      18.177  -1.289  10.938  0.00  0.00     0.164 C 
ATOM     16  C48 ZIN A   1      16.914  -2.119  11.029  0.00  0.00     0.078 C 
ATOM     17  C49 ZIN A   1      17.135  -3.598  10.657  0.00  0.00     0.098 C 
ATOM     18  C51 ZIN A   1      17.178  -3.726   9.161  0.00  0.00     0.176 C 
ATOM     19  C62 ZIN A   1      17.603  -4.918   8.384  0.00  0.00     0.076 C 
ATOM     20  C64 ZIN A   1      18.443  -3.990  11.351  0.00  0.00     0.013 C 
ATOM     21  C65 ZIN A   1      18.549  -5.492  11.545  0.00  0.00     0.023 C 
ATOM     22  C66 ZIN A   1      18.505  -3.391  12.777  0.00  0.00     0.023 C 
ENDROOT
BRANCH  15  23
ATOM     23  O26 ZIN A   1      17.926  -0.170  10.047  0.00  0.00    -0.309 OA
BRANCH  23  24
ATOM     24  C27 ZIN A   1      18.259   1.052  10.493  0.00  0.00     0.290 C 
ATOM     25  O28 ZIN A   1      19.088   1.704   9.903  0.00  0.00    -0.262 OA
BRANCH  24  26
ATOM     26  C29 ZIN A   1      17.601   1.610  11.728  0.00  0.00     0.244 C 
BRANCH  26  27
ATOM     27  O31 ZIN A   1      16.897   2.807  11.393  0.00  0.00    -0.383 OA
ATOM     28  H82 ZIN A   1      16.215   3.055  12.032  0.00  0.00     0.210 HD
ENDBRANCH  26  27
BRANCH  26  29
ATOM     29  C32 ZIN A   1      18.670   1.925  12.777  0.00  0.00     0.158 C 
BRANCH  29  30
ATOM     30  N34 ZIN A   1      18.366   3.207  13.415  0.00  0.00    -0.325 N 
ATOM     31  C35 ZIN A   1      19.098   4.299  13.116  0.00  0.00     0.362 C 
ATOM     32  O36 ZIN A   1      20.011   4.218  12.318  0.00  0.00    -0.238 OA
ATOM     33  H83 ZIN A   1      17.638   3.272  14.052  0.00  0.00     0.165 HD
BRANCH  31  34
ATOM     34  O37 ZIN A   1      18.819   5.478  13.702  0.00  0.00    -0.294 OA
BRANCH  34  35
ATOM     35  C38 ZIN A   1      19.350   5.692  15.037  0.00  0.00     0.061 C 
ATOM     36  C39 ZIN A   1      19.307   4.378  15.820  0.00  0.00     0.046 C 
ATOM     37  C40 ZIN A   1      20.797   6.180  14.938  0.00  0.00     0.046 C 
ATOM     38  C41 ZIN A   1      18.505   6.744  15.758  0.00  0.00     0.046 C 
ENDBRANCH  34  35
ENDBRANCH  31  34
ENDBRANCH  29  30
BRANCH  29  39
ATOM     39  C42 ZIN A   1      18.685   0.836  13.819  0.00  0.00    -0.032 A 
ATOM     40  C47 ZIN A   1      17.610   0.683  14.675  0.00  0.00     0.009 A 
ATOM     41  C46 ZIN A   1      17.623  -0.318  15.628  0.00  0.00     0.001 A 
ATOM     42  C45 ZIN A   1      18.714  -1.161  15.731  0.00  0.00     0.000 A 
ATOM     43  C44 ZIN A   1      19.791  -1.004  14.879  0.00  0.00     0.001 A 
ATOM     44  C43 ZIN A   1      19.776  -0.005  13.924  0.00  0.00     0.009 A 
ENDBRANCH  29  39
ENDBRANCH  26  29
ENDBRANCH  24  26
ENDBRANCH  23  24
ENDBRANCH  15  23
BRANCH  17  45
ATOM     45  O50 ZIN A   1      16.053  -4.360  11.200  0.00  0.00    -0.386 OA
ATOM     46 0H10 ZIN A   1      15.762  -5.088  10.633  0.00  0.00     0.210 HD
ENDBRANCH  17  45
BRANCH  11  47
ATOM     47  O20 ZIN A   1      21.078  -5.206  10.507  0.00  0.00    -0.384 OA
ATOM     48  H78 ZIN A   1      22.021  -5.165  10.715  0.00  0.00     0.211 HD
ENDBRANCH  11  47
BRANCH  18  49
ATOM     49  O53 ZIN A   1      17.774  -2.529   8.559  0.00  0.00    -0.308 OA
BRANCH  49  50
ATOM     50  C54 ZIN A   1      17.689  -2.410   7.220  0.00  0.00     0.293 C 
ATOM     51  O55 ZIN A   1      17.156  -3.284   6.566  0.00  0.00    -0.259 OA
BRANCH  50  52
ATOM     52  C56 ZIN A   1      18.243  -1.218   6.547  0.00  0.00     0.039 A 
ATOM     53  C61 ZIN A   1      17.952   0.059   7.030  0.00  0.00     0.017 A 
ATOM     54  C60 ZIN A   1      18.478   1.168   6.401  0.00  0.00     0.001 A 
ATOM     55  C59 ZIN A   1      19.285   1.016   5.286  0.00  0.00     0.000 A 
ATOM     56  C58 ZIN A   1      19.574  -0.246   4.800  0.00  0.00     0.001 A 
ATOM     57  C57 ZIN A   1      19.059  -1.363   5.424  0.00  0.00     0.017 A 
ENDBRANCH  50  52
ENDBRANCH  49  50
ENDBRANCH  18  49
BRANCH   1  58
ATOM     58  O4  ZIN A   1      15.224  -5.230   7.741  0.00  0.00    -0.305 OA
BRANCH  58  59
ATOM     59  C2  ZIN A   1      14.154  -6.007   7.511  0.00  0.00     0.255 C 
ATOM     60  C1  ZIN A   1      13.887  -6.529   6.122  0.00  0.00     0.126 C 
ATOM     61  O3  ZIN A   1      13.404  -6.288   8.416  0.00  0.00    -0.266 OA
ENDBRANCH  58  59
ENDBRANCH   1  58
BRANCH   6  62
ATOM     62  O13 ZIN A   1      20.435  -6.265   6.464  0.00  0.00    -0.394 OA
ATOM     63  H74 ZIN A   1      20.689  -7.062   6.948  0.00  0.00     0.210 HD
ENDBRANCH   6  62
TORSDOF 17
ENDMDL
MODEL 8
REMARK VINA RESULT:      -4.4      5.158     13.294
REMARK  17 active torsions:
REMARK  status: ('A' for Active; 'I' for Inactive)
REMARK    1  A    between atoms: C2_2  and  O4_4 
REMARK    2  A    between atoms: O4_4  and  C5_5 
REMARK    3  A    between atoms: C11_10  and  O13_11 
REMARK    4  A    between atoms: C18_16  and  O20_17 
REMARK    5  A    between atoms: C24_21  and  O26_22 
REMARK    6  A    between atoms: O26_22  and  C27_23 
REMARK    7  A    between atoms: C27_23  and  C29_25 
REMARK    8  A    between atoms: C29_25  and  O31_26 
REMARK    9  A    between atoms: C29_25  and  C32_27 
REMARK   10  A    between atoms: C32_27  and  N34_28 
REMARK   11  A    between atoms: C32_27  and  C42_36 
REMARK       I    between atoms: N34_28  and  C35_29 
REMARK   12  A    between atoms: C35_29  and  O37_31 
REMARK   13  A    between atoms: O37_31  and  C38_32 
REMARK   14  A    between atoms: C49_43  and  O50_44 
REMARK   15  A    between atoms: C51_45  and  O53_46 
REMARK   16  A    between atoms: O53_46  and  C54_47 
REMARK   17  A    between atoms: C54_47  and  C56_49 
ROOT
ATOM      1  C5  ZIN A   1      16.639   6.126  15.225  0.00  0.00     0.125 C 
ATOM      2  C6  ZIN A   1      16.279   7.334  14.351  0.00  0.00     0.210 C 
ATOM      3  O7  ZIN A   1      16.932   8.160  15.332  0.00  0.00    -0.380 OA
ATOM      4  C8  ZIN A   1      17.082   7.112  16.307  0.00  0.00     0.161 C 
ATOM      5  C10 ZIN A   1      18.468   6.991  16.889  0.00  0.00     0.068 C 
ATOM      6  C11 ZIN A   1      19.404   5.977  16.275  0.00  0.00     0.137 C 
ATOM      7  C14 ZIN A   1      19.128   5.792  14.755  0.00  0.00     0.055 C 
ATOM      8  C15 ZIN A   1      19.335   7.178  14.162  0.00  0.00     0.027 C 
ATOM      9  C16 ZIN A   1      20.192   4.813  14.279  0.00  0.00     0.171 C 
ATOM     10  O17 ZIN A   1      20.765   4.096  15.089  0.00  0.00    -0.294 OA
ATOM     11  C18 ZIN A   1      20.554   4.710  12.808  0.00  0.00     0.218 C 
ATOM     12  C21 ZIN A   1      19.403   4.034  12.153  0.00  0.00    -0.029 C 
ATOM     13  C22 ZIN A   1      19.321   2.723  12.067  0.00  0.00    -0.048 C 
ATOM     14  C23 ZIN A   1      20.458   1.859  12.540  0.00  0.00     0.046 C 
ATOM     15  C24 ZIN A   1      18.097   2.004  11.594  0.00  0.00     0.164 C 
ATOM     16  C48 ZIN A   1      16.810   2.784  11.769  0.00  0.00     0.078 C 
ATOM     17  C49 ZIN A   1      17.036   4.207  12.314  0.00  0.00     0.098 C 
ATOM     18  C51 ZIN A   1      17.259   4.134  13.798  0.00  0.00     0.176 C 
ATOM     19  C62 ZIN A   1      17.744   5.228  14.677  0.00  0.00     0.076 C 
ATOM     20  C64 ZIN A   1      18.238   4.745  11.532  0.00  0.00     0.013 C 
ATOM     21  C65 ZIN A   1      18.279   6.262  11.537  0.00  0.00     0.023 C 
ATOM     22  C66 ZIN A   1      18.141   4.346  10.039  0.00  0.00     0.023 C 
ENDROOT
BRANCH  15  23
ATOM     23  O26 ZIN A   1      17.986   0.765  12.345  0.00  0.00    -0.309 OA
BRANCH  23  24
ATOM     24  C27 ZIN A   1      17.317  -0.243  11.763  0.00  0.00     0.290 C 
ATOM     25  O28 ZIN A   1      16.149  -0.111  11.484  0.00  0.00    -0.262 OA
BRANCH  24  26
ATOM     26  C29 ZIN A   1      18.022  -1.540  11.459  0.00  0.00     0.244 C 
BRANCH  26  27
ATOM     27  O31 ZIN A   1      19.432  -1.313  11.398  0.00  0.00    -0.383 OA
ATOM     28  H82 ZIN A   1      19.793  -0.873  12.179  0.00  0.00     0.210 HD
ENDBRANCH  26  27
BRANCH  26  29
ATOM     29  C32 ZIN A   1      17.534  -2.081  10.114  0.00  0.00     0.158 C 
BRANCH  29  30
ATOM     30  N34 ZIN A   1      18.469  -1.683   9.059  0.00  0.00    -0.325 N 
ATOM     31  C35 ZIN A   1      18.132  -0.704   8.195  0.00  0.00     0.362 C 
ATOM     32  O36 ZIN A   1      17.054  -0.153   8.292  0.00  0.00    -0.238 OA
ATOM     33  H83 ZIN A   1      19.329  -2.123   8.981  0.00  0.00     0.165 HD
BRANCH  31  34
ATOM     34  O37 ZIN A   1      18.991  -0.338   7.226  0.00  0.00    -0.294 OA
BRANCH  34  35
ATOM     35  C38 ZIN A   1      18.753  -0.875   5.897  0.00  0.00     0.061 C 
ATOM     36  C39 ZIN A   1      19.187  -2.342   5.855  0.00  0.00     0.046 C 
ATOM     37  C40 ZIN A   1      17.263  -0.775   5.566  0.00  0.00     0.046 C 
ATOM     38  C41 ZIN A   1      19.558  -0.075   4.872  0.00  0.00     0.046 C 
ENDBRANCH  34  35
ENDBRANCH  31  34
ENDBRANCH  29  30
BRANCH  29  39
ATOM     39  C42 ZIN A   1      17.458  -3.585  10.176  0.00  0.00    -0.032 A 
ATOM     40  C47 ZIN A   1      17.422  -4.225  11.402  0.00  0.00     0.009 A 
ATOM     41  C46 ZIN A   1      17.347  -5.604  11.459  0.00  0.00     0.001 A 
ATOM     42  C45 ZIN A   1      17.317  -6.344  10.291  0.00  0.00     0.000 A 
ATOM     43  C44 ZIN A   1      17.358  -5.704   9.066  0.00  0.00     0.001 A 
ATOM     44  C43 ZIN A   1      17.429  -4.325   9.010  0.00  0.00     0.009 A 
ENDBRANCH  29  39
ENDBRANCH  26  29
ENDBRANCH  24  26
ENDBRANCH  23  24
ENDBRANCH  15  23
BRANCH  17  45
ATOM     45  O50 ZIN A   1      15.876   4.988  12.014  0.00  0.00    -0.386 OA
ATOM     46 0H10 ZIN A   1      15.480   5.418  12.785  0.00  0.00     0.210 HD
ENDBRANCH  17  45
BRANCH  11  47
ATOM     47  O20 ZIN A   1      20.923   5.949  12.220  0.00  0.00    -0.384 OA
ATOM     48  H78 ZIN A   1      20.404   6.703  12.531  0.00  0.00     0.211 HD
ENDBRANCH  11  47
BRANCH  18  49
ATOM     49  O53 ZIN A   1      17.956   2.895  14.154  0.00  0.00    -0.308 OA
BRANCH  49  50
ATOM     50  C54 ZIN A   1      17.828   2.463  15.423  0.00  0.00     0.293 C 
ATOM     51  O55 ZIN A   1      17.621   3.260  16.317  0.00  0.00    -0.259 OA
BRANCH  50  52
ATOM     52  C56 ZIN A   1      17.941   1.022  15.729  0.00  0.00     0.039 A 
ATOM     53  C61 ZIN A   1      18.970   0.265  15.168  0.00  0.00     0.017 A 
ATOM     54  C60 ZIN A   1      19.074  -1.079  15.463  0.00  0.00     0.001 A 
ATOM     55  C59 ZIN A   1      18.154  -1.678  16.305  0.00  0.00     0.000 A 
ATOM     56  C58 ZIN A   1      17.128  -0.934  16.860  0.00  0.00     0.001 A 
ATOM     57  C57 ZIN A   1      17.016   0.412  16.578  0.00  0.00     0.017 A 
ENDBRANCH  50  52
ENDBRANCH  49  50
ENDBRANCH  18  49
BRANCH   1  58
ATOM     58  O4  ZIN A   1      15.454   5.348  15.633  0.00  0.00    -0.305 OA
BRANCH  58  59
ATOM     59  C2  ZIN A   1      14.258   5.942  15.492  0.00  0.00     0.255 C 
ATOM     60  C1  ZIN A   1      13.665   6.724  16.636  0.00  0.00     0.126 C 
ATOM     61  O3  ZIN A   1      13.656   5.848  14.448  0.00  0.00    -0.266 OA
ENDBRANCH  58  59
ENDBRANCH   1  58
BRANCH   6  62
ATOM     62  O13 ZIN A   1      20.753   6.426  16.418  0.00  0.00    -0.394 OA
ATOM     63  H74 ZIN A   1      21.192   6.627  15.580  0.00  0.00     0.210 HD
ENDBRANCH   6  62
TORSDOF 17
ENDMDL
MODEL 9
REMARK VINA RESULT:      -3.8      1.529      3.303
REMARK  17 active torsions:
REMARK  status: ('A' for Active; 'I' for Inactive)
REMARK    1  A    between atoms: C2_2  and  O4_4 
REMARK    2  A    between atoms: O4_4  and  C5_5 
REMARK    3  A    between atoms: C11_10  and  O13_11 
REMARK    4  A    between atoms: C18_16  and  O20_17 
REMARK    5  A    between atoms: C24_21  and  O26_22 
REMARK    6  A    between atoms: O26_22  and  C27_23 
REMARK    7  A    between atoms: C27_23  and  C29_25 
REMARK    8  A    between atoms: C29_25  and  O31_26 
REMARK    9  A    between atoms: C29_25  and  C32_27 
REMARK   10  A    between atoms: C32_27  and  N34_28 
REMARK   11  A    between atoms: C32_27  and  C42_36 
REMARK       I    between atoms: N34_28  and  C35_29 
REMARK   12  A    between atoms: C35_29  and  O37_31 
REMARK   13  A    between atoms: O37_31  and  C38_32 
REMARK   14  A    between atoms: C49_43  and  O50_44 
REMARK   15  A    between atoms: C51_45  and  O53_46 
REMARK   16  A    between atoms: O53_46  and  C54_47 
REMARK   17  A    between atoms: C54_47  and  C56_49 
ROOT
ATOM      1  C5  ZIN A   1      15.311  -6.424   3.076  0.00  0.00     0.125 C 
ATOM      2  C6  ZIN A   1      13.841  -6.657   2.705  0.00  0.00     0.210 C 
ATOM      3  O7  ZIN A   1      14.310  -7.459   1.607  0.00  0.00    -0.380 OA
ATOM      4  C8  ZIN A   1      15.691  -7.084   1.750  0.00  0.00     0.161 C 
ATOM      5  C10 ZIN A   1      16.659  -8.241   1.756  0.00  0.00     0.068 C 
ATOM      6  C11 ZIN A   1      17.103  -8.781   3.095  0.00  0.00     0.137 C 
ATOM      7  C14 ZIN A   1      15.989  -8.631   4.170  0.00  0.00     0.055 C 
ATOM      8  C15 ZIN A   1      14.814  -9.420   3.610  0.00  0.00     0.027 C 
ATOM      9  C16 ZIN A   1      16.559  -9.286   5.420  0.00  0.00     0.171 C 
ATOM     10  O17 ZIN A   1      17.768  -9.444   5.526  0.00  0.00    -0.294 OA
ATOM     11  C18 ZIN A   1      15.648  -9.746   6.544  0.00  0.00     0.218 C 
ATOM     12  C21 ZIN A   1      15.167  -8.507   7.211  0.00  0.00    -0.029 C 
ATOM     13  C22 ZIN A   1      15.836  -7.939   8.192  0.00  0.00    -0.048 C 
ATOM     14  C23 ZIN A   1      17.068  -8.596   8.750  0.00  0.00     0.046 C 
ATOM     15  C24 ZIN A   1      15.491  -6.595   8.754  0.00  0.00     0.164 C 
ATOM     16  C48 ZIN A   1      14.738  -5.695   7.797  0.00  0.00     0.078 C 
ATOM     17  C49 ZIN A   1      14.394  -6.385   6.463  0.00  0.00     0.098 C 
ATOM     18  C51 ZIN A   1      15.613  -6.392   5.585  0.00  0.00     0.176 C 
ATOM     19  C62 ZIN A   1      15.794  -7.155   4.324  0.00  0.00     0.076 C 
ATOM     20  C64 ZIN A   1      13.904  -7.782   6.854  0.00  0.00     0.013 C 
ATOM     21  C65 ZIN A   1      13.042  -8.401   5.769  0.00  0.00     0.023 C 
ATOM     22  C66 ZIN A   1      12.993  -7.711   8.105  0.00  0.00     0.023 C 
ENDROOT
BRANCH  15  23
ATOM     23  O26 ZIN A   1      16.730  -5.934   9.125  0.00  0.00    -0.309 OA
BRANCH  23  24
ATOM     24  C27 ZIN A   1      16.643  -4.930  10.013  0.00  0.00     0.290 C 
ATOM     25  O28 ZIN A   1      16.215  -5.142  11.124  0.00  0.00    -0.262 OA
BRANCH  24  26
ATOM     26  C29 ZIN A   1      17.079  -3.541   9.626  0.00  0.00     0.244 C 
BRANCH  26  27
ATOM     27  O31 ZIN A   1      17.001  -3.395   8.207  0.00  0.00    -0.383 OA
ATOM     28  H82 ZIN A   1      16.422  -4.038   7.776  0.00  0.00     0.210 HD
ENDBRANCH  26  27
BRANCH  26  29
ATOM     29  C32 ZIN A   1      18.520  -3.312  10.084  0.00  0.00     0.158 C 
BRANCH  29  30
ATOM     30  N34 ZIN A   1      19.252  -2.582   9.047  0.00  0.00    -0.325 N 
ATOM     31  C35 ZIN A   1      18.787  -1.398   8.601  0.00  0.00     0.362 C 
ATOM     32  O36 ZIN A   1      17.761  -0.936   9.059  0.00  0.00    -0.238 OA
ATOM     33  H83 ZIN A   1      20.071  -2.950   8.681  0.00  0.00     0.165 HD
BRANCH  31  34
ATOM     34  O37 ZIN A   1      19.460  -0.727   7.648  0.00  0.00    -0.294 OA
BRANCH  34  35
ATOM     35  C38 ZIN A   1      18.704  -0.302   6.483  0.00  0.00     0.061 C 
ATOM     36  C39 ZIN A   1      19.620   0.482   5.539  0.00  0.00     0.046 C 
ATOM     37  C40 ZIN A   1      18.154  -1.530   5.755  0.00  0.00     0.046 C 
ATOM     38  C41 ZIN A   1      17.544   0.591   6.926  0.00  0.00     0.046 C 
ENDBRANCH  34  35
ENDBRANCH  31  34
ENDBRANCH  29  30
BRANCH  29  39
ATOM     39  C42 ZIN A   1      18.521  -2.509  11.359  0.00  0.00    -0.032 A 
ATOM     40  C47 ZIN A   1      17.391  -1.802  11.731  0.00  0.00     0.009 A 
ATOM     41  C46 ZIN A   1      17.391  -1.069  12.903  0.00  0.00     0.001 A 
ATOM     42  C45 ZIN A   1      18.520  -1.035  13.699  0.00  0.00     0.000 A 
ATOM     43  C44 ZIN A   1      19.651  -1.738  13.324  0.00  0.00     0.001 A 
ATOM     44  C43 ZIN A   1      19.650  -2.474  12.154  0.00  0.00     0.009 A 
ENDBRANCH  29  39
ENDBRANCH  26  29
ENDBRANCH  24  26
ENDBRANCH  23  24
ENDBRANCH  15  23
BRANCH  17  45
ATOM     45  O50 ZIN A   1      13.329  -5.655   5.846  0.00  0.00    -0.386 OA
ATOM     46 0H10 ZIN A   1      13.227  -5.833   4.901  0.00  0.00     0.210 HD
ENDBRANCH  17  45
BRANCH  11  47
ATOM     47  O20 ZIN A   1      14.615 -10.626   6.121  0.00  0.00    -0.384 OA
ATOM     48  H78 ZIN A   1      14.203 -11.124   6.840  0.00  0.00     0.211 HD
ENDBRANCH  11  47
BRANCH  18  49
ATOM     49  O53 ZIN A   1      16.829  -6.515   6.394  0.00  0.00    -0.308 OA
BRANCH  49  50
ATOM     50  C54 ZIN A   1      17.782  -5.581   6.213  0.00  0.00     0.293 C 
ATOM     51  O55 ZIN A   1      17.611  -4.687   5.408  0.00  0.00    -0.259 OA
BRANCH  50  52
ATOM     52  C56 ZIN A   1      19.036  -5.644   6.991  0.00  0.00     0.039 A 
ATOM     53  C61 ZIN A   1      19.098  -6.401   8.162  0.00  0.00     0.017 A 
ATOM     54  C60 ZIN A   1      20.274  -6.461   8.880  0.00  0.00     0.001 A 
ATOM     55  C59 ZIN A   1      21.389  -5.763   8.447  0.00  0.00     0.000 A 
ATOM     56  C58 ZIN A   1      21.333  -5.008   7.290  0.00  0.00     0.001 A 
ATOM     57  C57 ZIN A   1      20.165  -4.944   6.559  0.00  0.00     0.017 A 
ENDBRANCH  50  52
ENDBRANCH  49  50
ENDBRANCH  18  49
BRANCH   1  58
ATOM     58  O4  ZIN A   1      15.667  -4.993   3.108  0.00  0.00    -0.305 OA
BRANCH  58  59
ATOM     59  C2  ZIN A   1      16.431  -4.533   2.104  0.00  0.00     0.255 C 
ATOM     60  C1  ZIN A   1      17.915  -4.796   2.105  0.00  0.00     0.126 C 
ATOM     61  O3  ZIN A   1      15.928  -3.908   1.200  0.00  0.00    -0.266 OA
ENDBRANCH  58  59
ENDBRANCH   1  58
BRANCH   6  62
ATOM     62  O13 ZIN A   1      17.401 -10.173   2.972  0.00  0.00    -0.394 OA
ATOM     63  H74 ZIN A   1      16.749 -10.754   3.388  0.00  0.00     0.210 HD
ENDBRANCH   6  62
TORSDOF 17
ENDMDL
