MODEL 1
REMARK VINA RESULT:      -7.6      0.000      0.000
REMARK  5 active torsions:
REMARK  status: ('A' for Active; 'I' for Inactive)
REMARK    1  A    between atoms: C5_5  and  S6_6 
REMARK    2  A    between atoms: S6_6  and  N9_9 
REMARK    3  A    between atoms: C10_10  and  O11_11 
REMARK    4  A    between atoms: C10_10  and  N12_12 
REMARK    5  A    between atoms: N12_12  and  N13_13 
ROOT
ATOM      1  N9  ZIN A   1      17.869   1.809  12.267  0.00  0.00    -0.116 NA
ATOM      2  C10 ZIN A   1      17.710   2.330  13.448  0.00  0.00     0.265 C 
ENDROOT
BRANCH   2   3
ATOM      3  O11 ZIN A   1      17.811   3.667  13.615  0.00  0.00    -0.330 OA
ATOM      4  H27 ZIN A   1      18.074   4.145  12.817  0.00  0.00     0.221 HD
ENDBRANCH   2   3
BRANCH   2   5
ATOM      5  N12 ZIN A   1      17.439   1.522  14.525  0.00  0.00    -0.282 N 
ATOM      6  H28 ZIN A   1      16.537   1.471  14.878  0.00  0.00     0.184 HD
BRANCH   5   7
ATOM      7  N13 ZIN A   1      18.440   0.791  15.098  0.00  0.00    -0.228 NA
ATOM      8  C19 ZIN A   1      17.895  -0.389  15.807  0.00  0.00     0.113 C 
ATOM      9  C18 ZIN A   1      18.917  -1.069  16.678  0.00  0.00     0.016 C 
ATOM     10  C17 ZIN A   1      18.798  -0.503  18.108  0.00  0.00     0.001 C 
ATOM     11  C16 ZIN A   1      19.438   0.801  18.239  0.00  0.00     0.001 C 
ATOM     12  C15 ZIN A   1      18.799   1.859  17.315  0.00  0.00     0.016 C 
ATOM     13  C14 ZIN A   1      19.321   1.652  15.919  0.00  0.00     0.113 C 
ENDBRANCH   5   7
ENDBRANCH   2   5
BRANCH   1  14
ATOM     14  S6  ZIN A   1      18.196   2.782  10.968  0.00  0.00     0.286 S 
ATOM     15  O7  ZIN A   1      19.516   3.275  11.158  0.00  0.00    -0.198 OA
ATOM     16  O8  ZIN A   1      17.066   3.628  10.808  0.00  0.00    -0.198 OA
BRANCH  14  17
ATOM     17  C5  ZIN A   1      18.251   1.749   9.542  0.00  0.00     0.081 A 
ATOM     18  C4  ZIN A   1      19.027   2.109   8.457  0.00  0.00     0.026 A 
ATOM     19  C3  ZIN A   1      19.072   1.299   7.339  0.00  0.00     0.008 A 
ATOM     20  C2  ZIN A   1      18.339   0.127   7.305  0.00  0.00    -0.062 A 
ATOM     21  C1  ZIN A   1      18.387  -0.757   6.085  0.00  0.00     0.048 C 
ATOM     22  C21 ZIN A   1      17.558  -0.230   8.388  0.00  0.00     0.008 A 
ATOM     23  C20 ZIN A   1      17.516   0.578   9.508  0.00  0.00     0.026 A 
ENDBRANCH  14  17
ENDBRANCH   1  14
TORSDOF 5
ENDMDL
MODEL 2
REMARK VINA RESULT:      -7.4      2.219      7.758
REMARK  5 active torsions:
REMARK  status: ('A' for Active; 'I' for Inactive)
REMARK    1  A    between atoms: C5_5  and  S6_6 
REMARK    2  A    between atoms: S6_6  and  N9_9 
REMARK    3  A    between atoms: C10_10  and  O11_11 
REMARK    4  A    between atoms: C10_10  and  N12_12 
REMARK    5  A    between atoms: N12_12  and  N13_13 
ROOT
ATOM      1  N9  ZIN A   1      19.041   1.306  10.407  0.00  0.00    -0.116 NA
ATOM      2  C10 ZIN A   1      19.069   1.889   9.245  0.00  0.00     0.265 C 
ENDROOT
BRANCH   2   3
ATOM      3  O11 ZIN A   1      18.685   3.179   9.127  0.00  0.00    -0.330 OA
ATOM      4  H27 ZIN A   1      19.415   3.793   8.969  0.00  0.00     0.221 HD
ENDBRANCH   2   3
BRANCH   2   5
ATOM      5  N12 ZIN A   1      19.486   1.193   8.137  0.00  0.00    -0.282 N 
ATOM      6  H28 ZIN A   1      20.364   1.363   7.760  0.00  0.00     0.184 HD
BRANCH   5   7
ATOM      7  N13 ZIN A   1      18.666   0.262   7.565  0.00  0.00    -0.228 NA
ATOM      8  C19 ZIN A   1      19.256  -1.092   7.657  0.00  0.00     0.113 C 
ATOM      9  C18 ZIN A   1      18.531  -2.103   6.811  0.00  0.00     0.016 C 
ATOM     10  C17 ZIN A   1      19.235  -2.192   5.441  0.00  0.00     0.001 C 
ATOM     11  C16 ZIN A   1      18.876  -1.083   4.564  0.00  0.00     0.001 C 
ATOM     12  C15 ZIN A   1      19.283   0.283   5.157  0.00  0.00     0.016 C 
ATOM     13  C14 ZIN A   1      18.270   0.672   6.199  0.00  0.00     0.113 C 
ENDBRANCH   5   7
ENDBRANCH   2   5
BRANCH   1  14
ATOM     14  S6  ZIN A   1      18.537   2.144  11.743  0.00  0.00     0.286 S 
ATOM     15  O7  ZIN A   1      17.170   2.465  11.522  0.00  0.00    -0.198 OA
ATOM     16  O8  ZIN A   1      19.534   3.123  12.001  0.00  0.00    -0.198 OA
BRANCH  14  17
ATOM     17  C5  ZIN A   1      18.573   1.026  13.105  0.00  0.00     0.081 A 
ATOM     18  C4  ZIN A   1      19.506   0.008  13.138  0.00  0.00     0.026 A 
ATOM     19  C3  ZIN A   1      19.536  -0.868  14.206  0.00  0.00     0.008 A 
ATOM     20  C2  ZIN A   1      18.630  -0.727  15.241  0.00  0.00    -0.062 A 
ATOM     21  C1  ZIN A   1      18.662  -1.683  16.406  0.00  0.00     0.048 C 
ATOM     22  C21 ZIN A   1      17.693   0.288  15.205  0.00  0.00     0.008 A 
ATOM     23  C20 ZIN A   1      17.666   1.167  14.138  0.00  0.00     0.026 A 
ENDBRANCH  14  17
ENDBRANCH   1  14
TORSDOF 5
ENDMDL
MODEL 3
REMARK VINA RESULT:      -7.2      6.433      7.979
REMARK  5 active torsions:
REMARK  status: ('A' for Active; 'I' for Inactive)
REMARK    1  A    between atoms: C5_5  and  S6_6 
REMARK    2  A    between atoms: S6_6  and  N9_9 
REMARK    3  A    between atoms: C10_10  and  O11_11 
REMARK    4  A    between atoms: C10_10  and  N12_12 
REMARK    5  A    between atoms: N12_12  and  N13_13 
ROOT
ATOM      1  N9  ZIN A   1      19.744  -2.898   6.544  0.00  0.00    -0.116 NA
ATOM      2  C10 ZIN A   1      19.639  -4.083   6.018  0.00  0.00     0.265 C 
ENDROOT
BRANCH   2   3
ATOM      3  O11 ZIN A   1      18.967  -4.250   4.858  0.00  0.00    -0.330 OA
ATOM      4  H27 ZIN A   1      18.007  -4.281   4.960  0.00  0.00     0.221 HD
ENDBRANCH   2   3
BRANCH   2   5
ATOM      5  N12 ZIN A   1      20.208  -5.165   6.644  0.00  0.00    -0.282 N 
ATOM      6  H28 ZIN A   1      21.130  -5.402   6.458  0.00  0.00     0.184 HD
BRANCH   5   7
ATOM      7  N13 ZIN A   1      19.476  -5.907   7.526  0.00  0.00    -0.228 NA
ATOM      8  C19 ZIN A   1      18.043  -5.542   7.465  0.00  0.00     0.113 C 
ATOM      9  C18 ZIN A   1      17.244  -6.128   8.597  0.00  0.00     0.016 C 
ATOM     10  C17 ZIN A   1      17.173  -5.090   9.737  0.00  0.00     0.001 C 
ATOM     11  C16 ZIN A   1      18.402  -5.049  10.521  0.00  0.00     0.001 C 
ATOM     12  C15 ZIN A   1      19.625  -4.653   9.668  0.00  0.00     0.016 C 
ATOM     13  C14 ZIN A   1      20.069  -5.855   8.882  0.00  0.00     0.113 C 
ENDBRANCH   5   7
ENDBRANCH   2   5
BRANCH   1  14
ATOM     14  S6  ZIN A   1      19.057  -1.593   5.791  0.00  0.00     0.286 S 
ATOM     15  O7  ZIN A   1      17.715  -1.959   5.500  0.00  0.00    -0.198 OA
ATOM     16  O8  ZIN A   1      19.981  -1.172   4.798  0.00  0.00    -0.198 OA
BRANCH  14  17
ATOM     17  C5  ZIN A   1      18.972  -0.292   6.976  0.00  0.00     0.081 A 
ATOM     18  C4  ZIN A   1      19.002   1.025   6.559  0.00  0.00     0.026 A 
ATOM     19  C3  ZIN A   1      18.935   2.047   7.488  0.00  0.00     0.008 A 
ATOM     20  C2  ZIN A   1      18.837   1.750   8.835  0.00  0.00    -0.062 A 
ATOM     21  C1  ZIN A   1      18.764   2.864   9.848  0.00  0.00     0.048 C 
ATOM     22  C21 ZIN A   1      18.812   0.433   9.252  0.00  0.00     0.008 A 
ATOM     23  C20 ZIN A   1      18.876  -0.589   8.323  0.00  0.00     0.026 A 
ENDBRANCH  14  17
ENDBRANCH   1  14
TORSDOF 5
ENDMDL
MODEL 4
REMARK VINA RESULT:      -7.1      4.212      5.752
REMARK  5 active torsions:
REMARK  status: ('A' for Active; 'I' for Inactive)
REMARK    1  A    between atoms: C5_5  and  S6_6 
REMARK    2  A    between atoms: S6_6  and  N9_9 
REMARK    3  A    between atoms: C10_10  and  O11_11 
REMARK    4  A    between atoms: C10_10  and  N12_12 
REMARK    5  A    between atoms: N12_12  and  N13_13 
ROOT
ATOM      1  N9  ZIN A   1      18.756   0.487  10.369  0.00  0.00    -0.116 NA
ATOM      2  C10 ZIN A   1      18.947   1.676   9.877  0.00  0.00     0.265 C 
ENDROOT
BRANCH   2   3
ATOM      3  O11 ZIN A   1      20.011   1.914   9.079  0.00  0.00    -0.330 OA
ATOM      4  H27 ZIN A   1      19.839   1.768   8.140  0.00  0.00     0.221 HD
ENDBRANCH   2   3
BRANCH   2   5
ATOM      5  N12 ZIN A   1      18.068   2.690  10.170  0.00  0.00    -0.282 N 
ATOM      6  H28 ZIN A   1      17.130   2.600   9.939  0.00  0.00     0.184 HD
BRANCH   5   7
ATOM      7  N13 ZIN A   1      18.515   3.824  10.787  0.00  0.00    -0.228 NA
ATOM      8  C19 ZIN A   1      18.839   3.562  12.207  0.00  0.00     0.113 C 
ATOM      9  C18 ZIN A   1      19.072   4.823  12.993  0.00  0.00     0.016 C 
ATOM     10  C17 ZIN A   1      17.744   5.237  13.662  0.00  0.00     0.001 C 
ATOM     11  C16 ZIN A   1      16.837   5.893  12.727  0.00  0.00     0.001 C 
ATOM     12  C15 ZIN A   1      16.447   4.972  11.552  0.00  0.00     0.016 C 
ATOM     13  C14 ZIN A   1      17.581   4.951  10.564  0.00  0.00     0.113 C 
ENDBRANCH   5   7
ENDBRANCH   2   5
BRANCH   1  14
ATOM     14  S6  ZIN A   1      19.815  -0.736  10.016  0.00  0.00     0.286 S 
ATOM     15  O7  ZIN A   1      20.990  -0.480  10.776  0.00  0.00    -0.198 OA
ATOM     16  O8  ZIN A   1      19.818  -0.868   8.602  0.00  0.00    -0.198 OA
BRANCH  14  17
ATOM     17  C5  ZIN A   1      19.124  -2.226  10.655  0.00  0.00     0.081 A 
ATOM     18  C4  ZIN A   1      17.757  -2.337  10.820  0.00  0.00     0.026 A 
ATOM     19  C3  ZIN A   1      17.213  -3.506  11.320  0.00  0.00     0.008 A 
ATOM     20  C2  ZIN A   1      18.038  -4.563  11.655  0.00  0.00    -0.062 A 
ATOM     21  C1  ZIN A   1      17.447  -5.837  12.201  0.00  0.00     0.048 C 
ATOM     22  C21 ZIN A   1      19.407  -4.449  11.495  0.00  0.00     0.008 A 
ATOM     23  C20 ZIN A   1      19.950  -3.282  10.991  0.00  0.00     0.026 A 
ENDBRANCH  14  17
ENDBRANCH   1  14
TORSDOF 5
ENDMDL
MODEL 5
REMARK VINA RESULT:      -7.1      3.798      7.584
REMARK  5 active torsions:
REMARK  status: ('A' for Active; 'I' for Inactive)
REMARK    1  A    between atoms: C5_5  and  S6_6 
REMARK    2  A    between atoms: S6_6  and  N9_9 
REMARK    3  A    between atoms: C10_10  and  O11_11 
REMARK    4  A    between atoms: C10_10  and  N12_12 
REMARK    5  A    between atoms: N12_12  and  N13_13 
ROOT
ATOM      1  N9  ZIN A   1      19.477  -1.116  11.887  0.00  0.00    -0.116 NA
ATOM      2  C10 ZIN A   1      19.939  -1.408  10.707  0.00  0.00     0.265 C 
ENDROOT
BRANCH   2   3
ATOM      3  O11 ZIN A   1      20.652  -0.492  10.015  0.00  0.00    -0.330 OA
ATOM      4  H27 ZIN A   1      21.359  -0.075  10.526  0.00  0.00     0.221 HD
ENDBRANCH   2   3
BRANCH   2   5
ATOM      5  N12 ZIN A   1      19.702  -2.646  10.163  0.00  0.00    -0.282 N 
ATOM      6  H28 ZIN A   1      20.436  -3.163   9.795  0.00  0.00     0.184 HD
BRANCH   5   7
ATOM      7  N13 ZIN A   1      18.432  -3.149  10.140  0.00  0.00    -0.228 NA
ATOM      8  C19 ZIN A   1      18.179  -4.003  11.323  0.00  0.00     0.113 C 
ATOM      9  C18 ZIN A   1      16.904  -4.794  11.208  0.00  0.00     0.016 C 
ATOM     10  C17 ZIN A   1      17.239  -6.183  10.626  0.00  0.00     0.001 C 
ATOM     11  C16 ZIN A   1      17.436  -6.141   9.181  0.00  0.00     0.001 C 
ATOM     12  C15 ZIN A   1      18.610  -5.223   8.780  0.00  0.00     0.016 C 
ATOM     13  C14 ZIN A   1      18.142  -3.795   8.840  0.00  0.00     0.113 C 
ENDBRANCH   5   7
ENDBRANCH   2   5
BRANCH   1  14
ATOM     14  S6  ZIN A   1      19.763   0.378  12.544  0.00  0.00     0.286 S 
ATOM     15  O7  ZIN A   1      18.794   1.254  11.982  0.00  0.00    -0.198 OA
ATOM     16  O8  ZIN A   1      21.163   0.598  12.441  0.00  0.00    -0.198 OA
BRANCH  14  17
ATOM     17  C5  ZIN A   1      19.400   0.270  14.264  0.00  0.00     0.081 A 
ATOM     18  C4  ZIN A   1      19.275   1.422  15.017  0.00  0.00     0.026 A 
ATOM     19  C3  ZIN A   1      18.989   1.338  16.367  0.00  0.00     0.008 A 
ATOM     20  C2  ZIN A   1      18.828   0.101  16.964  0.00  0.00    -0.062 A 
ATOM     21  C1  ZIN A   1      18.517   0.009  18.436  0.00  0.00     0.048 C 
ATOM     22  C21 ZIN A   1      18.959  -1.051  16.211  0.00  0.00     0.008 A 
ATOM     23  C20 ZIN A   1      19.241  -0.967  14.861  0.00  0.00     0.026 A 
ENDBRANCH  14  17
ENDBRANCH   1  14
TORSDOF 5
ENDMDL
MODEL 6
REMARK VINA RESULT:      -7.0      6.792     10.842
REMARK  5 active torsions:
REMARK  status: ('A' for Active; 'I' for Inactive)
REMARK    1  A    between atoms: C5_5  and  S6_6 
REMARK    2  A    between atoms: S6_6  and  N9_9 
REMARK    3  A    between atoms: C10_10  and  O11_11 
REMARK    4  A    between atoms: C10_10  and  N12_12 
REMARK    5  A    between atoms: N12_12  and  N13_13 
ROOT
ATOM      1  N9  ZIN A   1      17.764  -2.408   5.155  0.00  0.00    -0.116 NA
ATOM      2  C10 ZIN A   1      17.544  -3.291   4.226  0.00  0.00     0.265 C 
ENDROOT
BRANCH   2   3
ATOM      3  O11 ZIN A   1      18.579  -3.805   3.525  0.00  0.00    -0.330 OA
ATOM      4  H27 ZIN A   1      18.734  -3.370   2.676  0.00  0.00     0.221 HD
ENDBRANCH   2   3
BRANCH   2   5
ATOM      5  N12 ZIN A   1      16.262  -3.700   3.956  0.00  0.00    -0.282 N 
ATOM      6  H28 ZIN A   1      15.510  -3.155   4.236  0.00  0.00     0.184 HD
BRANCH   5   7
ATOM      7  N13 ZIN A   1      16.045  -4.875   3.294  0.00  0.00    -0.228 NA
ATOM      8  C19 ZIN A   1      15.048  -4.699   2.214  0.00  0.00     0.113 C 
ATOM      9  C18 ZIN A   1      14.574  -6.005   1.639  0.00  0.00     0.016 C 
ATOM     10  C17 ZIN A   1      13.287  -6.429   2.378  0.00  0.00     0.001 C 
ATOM     11  C16 ZIN A   1      13.568  -7.014   3.683  0.00  0.00     0.001 C 
ATOM     12  C15 ZIN A   1      14.285  -6.023   4.624  0.00  0.00     0.016 C 
ATOM     13  C14 ZIN A   1      15.739  -5.969   4.243  0.00  0.00     0.113 C 
ENDBRANCH   5   7
ENDBRANCH   2   5
BRANCH   1  14
ATOM     14  S6  ZIN A   1      19.311  -1.914   5.481  0.00  0.00     0.286 S 
ATOM     15  O7  ZIN A   1      19.790  -1.290   4.297  0.00  0.00    -0.198 OA
ATOM     16  O8  ZIN A   1      19.961  -3.017   6.097  0.00  0.00    -0.198 OA
BRANCH  14  17
ATOM     17  C5  ZIN A   1      19.208  -0.650   6.705  0.00  0.00     0.081 A 
ATOM     18  C4  ZIN A   1      19.010   0.664   6.324  0.00  0.00     0.026 A 
ATOM     19  C3  ZIN A   1      18.928   1.656   7.283  0.00  0.00     0.008 A 
ATOM     20  C2  ZIN A   1      19.045   1.334   8.623  0.00  0.00    -0.062 A 
ATOM     21  C1  ZIN A   1      18.957   2.416   9.668  0.00  0.00     0.048 C 
ATOM     22  C21 ZIN A   1      19.249   0.020   9.002  0.00  0.00     0.008 A 
ATOM     23  C20 ZIN A   1      19.327  -0.972   8.043  0.00  0.00     0.026 A 
ENDBRANCH  14  17
ENDBRANCH   1  14
TORSDOF 5
ENDMDL
MODEL 7
REMARK VINA RESULT:      -7.0      3.236      4.210
REMARK  5 active torsions:
REMARK  status: ('A' for Active; 'I' for Inactive)
REMARK    1  A    between atoms: C5_5  and  S6_6 
REMARK    2  A    between atoms: S6_6  and  N9_9 
REMARK    3  A    between atoms: C10_10  and  O11_11 
REMARK    4  A    between atoms: C10_10  and  N12_12 
REMARK    5  A    between atoms: N12_12  and  N13_13 
ROOT
ATOM      1  N9  ZIN A   1      19.392   1.388  11.013  0.00  0.00    -0.116 NA
ATOM      2  C10 ZIN A   1      19.736   1.711  12.224  0.00  0.00     0.265 C 
ENDROOT
BRANCH   2   3
ATOM      3  O11 ZIN A   1      20.323   0.796  13.027  0.00  0.00    -0.330 OA
ATOM      4  H27 ZIN A   1      20.717   1.169  13.827  0.00  0.00     0.221 HD
ENDBRANCH   2   3
BRANCH   2   5
ATOM      5  N12 ZIN A   1      19.503   2.982  12.689  0.00  0.00    -0.282 N 
ATOM      6  H28 ZIN A   1      20.248   3.570  12.889  0.00  0.00     0.184 HD
BRANCH   5   7
ATOM      7  N13 ZIN A   1      18.221   3.419  12.868  0.00  0.00    -0.228 NA
ATOM      8  C19 ZIN A   1      17.986   4.687  12.142  0.00  0.00     0.113 C 
ATOM      9  C18 ZIN A   1      16.689   5.346  12.525  0.00  0.00     0.016 C 
ATOM     10  C17 ZIN A   1      16.969   6.365  13.648  0.00  0.00     0.001 C 
ATOM     11  C16 ZIN A   1      17.118   5.723  14.950  0.00  0.00     0.001 C 
ATOM     12  C15 ZIN A   1      18.300   4.732  14.978  0.00  0.00     0.016 C 
ATOM     13  C14 ZIN A   1      17.871   3.457  14.306  0.00  0.00     0.113 C 
ENDBRANCH   5   7
ENDBRANCH   2   5
BRANCH   1  14
ATOM     14  S6  ZIN A   1      19.674  -0.145  10.452  0.00  0.00     0.286 S 
ATOM     15  O7  ZIN A   1      18.665  -0.971  11.019  0.00  0.00    -0.198 OA
ATOM     16  O8  ZIN A   1      21.063  -0.385  10.625  0.00  0.00    -0.198 OA
BRANCH  14  17
ATOM     17  C5  ZIN A   1      19.383  -0.127   8.714  0.00  0.00     0.081 A 
ATOM     18  C4  ZIN A   1      19.181   1.074   8.061  0.00  0.00     0.026 A 
ATOM     19  C3  ZIN A   1      18.954   1.089   6.697  0.00  0.00     0.008 A 
ATOM     20  C2  ZIN A   1      18.930  -0.097   5.987  0.00  0.00    -0.062 A 
ATOM     21  C1  ZIN A   1      18.681  -0.080   4.501  0.00  0.00     0.048 C 
ATOM     22  C21 ZIN A   1      19.126  -1.298   6.643  0.00  0.00     0.008 A 
ATOM     23  C20 ZIN A   1      19.357  -1.313   8.005  0.00  0.00     0.026 A 
ENDBRANCH  14  17
ENDBRANCH   1  14
TORSDOF 5
ENDMDL
MODEL 8
REMARK VINA RESULT:      -7.0      4.274      6.683
REMARK  5 active torsions:
REMARK  status: ('A' for Active; 'I' for Inactive)
REMARK    1  A    between atoms: C5_5  and  S6_6 
REMARK    2  A    between atoms: S6_6  and  N9_9 
REMARK    3  A    between atoms: C10_10  and  O11_11 
REMARK    4  A    between atoms: C10_10  and  N12_12 
REMARK    5  A    between atoms: N12_12  and  N13_13 
ROOT
ATOM      1  N9  ZIN A   1      19.298  -0.965  11.319  0.00  0.00    -0.116 NA
ATOM      2  C10 ZIN A   1      19.724  -2.172  11.547  0.00  0.00     0.265 C 
ENDROOT
BRANCH   2   3
ATOM      3  O11 ZIN A   1      20.033  -2.553  12.806  0.00  0.00    -0.330 OA
ATOM      4  H27 ZIN A   1      19.858  -3.486  12.989  0.00  0.00     0.221 HD
ENDBRANCH   2   3
BRANCH   2   5
ATOM      5  N12 ZIN A   1      19.863  -3.059  10.508  0.00  0.00    -0.282 N 
ATOM      6  H28 ZIN A   1      20.745  -3.370  10.250  0.00  0.00     0.184 HD
BRANCH   5   7
ATOM      7  N13 ZIN A   1      18.759  -3.503   9.837  0.00  0.00    -0.228 NA
ATOM      8  C19 ZIN A   1      17.813  -4.174  10.757  0.00  0.00     0.113 C 
ATOM      9  C18 ZIN A   1      16.722  -4.914  10.034  0.00  0.00     0.016 C 
ATOM     10  C17 ZIN A   1      17.158  -6.383   9.858  0.00  0.00     0.001 C 
ATOM     11  C16 ZIN A   1      18.106  -6.549   8.762  0.00  0.00     0.001 C 
ATOM     12  C15 ZIN A   1      19.406  -5.749   8.990  0.00  0.00     0.016 C 
ATOM     13  C14 ZIN A   1      19.145  -4.306   8.655  0.00  0.00     0.113 C 
ENDBRANCH   5   7
ENDBRANCH   2   5
BRANCH   1  14
ATOM     14  S6  ZIN A   1      19.131   0.106  12.571  0.00  0.00     0.286 S 
ATOM     15  O7  ZIN A   1      20.439   0.338  13.077  0.00  0.00    -0.198 OA
ATOM     16  O8  ZIN A   1      18.062  -0.379  13.372  0.00  0.00    -0.198 OA
BRANCH  14  17
ATOM     17  C5  ZIN A   1      18.585   1.634  11.883  0.00  0.00     0.081 A 
ATOM     18  C4  ZIN A   1      18.817   1.912  10.550  0.00  0.00     0.026 A 
ATOM     19  C3  ZIN A   1      18.388   3.110  10.009  0.00  0.00     0.008 A 
ATOM     20  C2  ZIN A   1      17.727   4.029  10.802  0.00  0.00    -0.062 A 
ATOM     21  C1  ZIN A   1      17.260   5.335  10.213  0.00  0.00     0.048 C 
ATOM     22  C21 ZIN A   1      17.500   3.752  12.137  0.00  0.00     0.008 A 
ATOM     23  C20 ZIN A   1      17.925   2.552  12.677  0.00  0.00     0.026 A 
ENDBRANCH  14  17
ENDBRANCH   1  14
TORSDOF 5
ENDMDL
MODEL 9
REMARK VINA RESULT:      -7.0      2.688      8.409
REMARK  5 active torsions:
REMARK  status: ('A' for Active; 'I' for Inactive)
REMARK    1  A    between atoms: C5_5  and  S6_6 
REMARK    2  A    between atoms: S6_6  and  N9_9 
REMARK    3  A    between atoms: C10_10  and  O11_11 
REMARK    4  A    between atoms: C10_10  and  N12_12 
REMARK    5  A    between atoms: N12_12  and  N13_13 
ROOT
ATOM      1  N9  ZIN A   1      19.041  -0.474  10.629  0.00  0.00    -0.116 NA
ATOM      2  C10 ZIN A   1      19.381  -0.353   9.379  0.00  0.00     0.265 C 
ENDROOT
BRANCH   2   3
ATOM      3  O11 ZIN A   1      20.228   0.630   9.002  0.00  0.00    -0.330 OA
ATOM      4  H27 ZIN A   1      20.823   0.382   8.281  0.00  0.00     0.221 HD
ENDBRANCH   2   3
BRANCH   2   5
ATOM      5  N12 ZIN A   1      18.879  -1.223   8.443  0.00  0.00    -0.282 N 
ATOM      6  H28 ZIN A   1      18.293  -1.945   8.718  0.00  0.00     0.184 HD
BRANCH   5   7
ATOM      7  N13 ZIN A   1      19.204  -1.071   7.125  0.00  0.00    -0.228 NA
ATOM      8  C19 ZIN A   1      18.172  -0.286   6.411  0.00  0.00     0.113 C 
ATOM      9  C18 ZIN A   1      18.341  -0.323   4.917  0.00  0.00     0.016 C 
ATOM     10  C17 ZIN A   1      17.468  -1.462   4.352  0.00  0.00     0.001 C 
ATOM     11  C16 ZIN A   1      18.086  -2.771   4.534  0.00  0.00     0.001 C 
ATOM     12  C15 ZIN A   1      18.305  -3.110   6.023  0.00  0.00     0.016 C 
ATOM     13  C14 ZIN A   1      19.526  -2.376   6.505  0.00  0.00     0.113 C 
ENDBRANCH   5   7
ENDBRANCH   2   5
BRANCH   1  14
ATOM     14  S6  ZIN A   1      19.647   0.575  11.758  0.00  0.00     0.286 S 
ATOM     15  O7  ZIN A   1      19.133   1.859  11.429  0.00  0.00    -0.198 OA
ATOM     16  O8  ZIN A   1      21.037   0.296  11.859  0.00  0.00    -0.198 OA
BRANCH  14  17
ATOM     17  C5  ZIN A   1      18.937   0.138  13.311  0.00  0.00     0.081 A 
ATOM     18  C4  ZIN A   1      17.924   0.909  13.848  0.00  0.00     0.026 A 
ATOM     19  C3  ZIN A   1      17.366   0.566  15.065  0.00  0.00     0.008 A 
ATOM     20  C2  ZIN A   1      17.821  -0.549  15.745  0.00  0.00    -0.062 A 
ATOM     21  C1  ZIN A   1      17.214  -0.923  17.072  0.00  0.00     0.048 C 
ATOM     22  C21 ZIN A   1      18.839  -1.316  15.209  0.00  0.00     0.008 A 
ATOM     23  C20 ZIN A   1      19.394  -0.976  13.990  0.00  0.00     0.026 A 
ENDBRANCH  14  17
ENDBRANCH   1  14
TORSDOF 5
ENDMDL
