MODEL 1
REMARK VINA RESULT:      -8.2      0.000      0.000
REMARK  8 active torsions:
REMARK  status: ('A' for Active; 'I' for Inactive)
REMARK    1  A    between atoms: C2_2  and  C4_4 
REMARK    2  A    between atoms: C4_4  and  O5_5 
REMARK    3  A    between atoms: O5_5  and  C6_6 
REMARK    4  A    between atoms: C6_6  and  C7_7 
REMARK    5  A    between atoms: C7_7  and  N8_8 
REMARK    6  A    between atoms: N12_12  and  C13_13 
REMARK    7  A    between atoms: C13_13  and  C15_14 
REMARK    8  A    between atoms: C13_13  and  C21_20 
ROOT
ATOM      1  N8  <0> d   1      19.127  -2.388   8.933  0.00  0.00    -0.066 N 
ATOM      2  H9  <0> d   1      19.954  -2.821   9.316  0.00  0.00     0.280 HD
ATOM      3  C10 <0> d   1      18.102  -2.279   9.980  0.00  0.00     0.265 C 
ATOM      4  C11 <0> d   1      18.646  -1.442  11.140  0.00  0.00     0.301 C 
ATOM      5  N12 <0> d   1      19.012  -0.107  10.648  0.00  0.00     0.105 N 
ATOM      6  C28 <0> d   1      20.020  -0.201   9.582  0.00  0.00     0.301 C 
ATOM      7  C29 <0> d   1      19.464  -1.048   8.435  0.00  0.00     0.265 C 
ENDROOT
BRANCH   5   8
ATOM      8  C13 <0> d   1      19.486   0.747  11.746  0.00  0.00     0.289 C 
BRANCH   8   9
ATOM      9  C15 <0> d   1      19.003   2.159  11.529  0.00  0.00    -0.021 A 
ATOM     10  C20 <0> d   1      17.933   2.400  10.687  0.00  0.00     0.010 A 
ATOM     11  C19 <0> d   1      17.486   3.694  10.492  0.00  0.00     0.001 A 
ATOM     12  C18 <0> d   1      18.115   4.746  11.131  0.00  0.00     0.000 A 
ATOM     13  C17 <0> d   1      19.187   4.504  11.969  0.00  0.00     0.001 A 
ATOM     14  C16 <0> d   1      19.632   3.211  12.168  0.00  0.00     0.010 A 
ENDBRANCH   8   9
BRANCH   8  15
ATOM     15  C21 <0> d   1      18.948   0.228  13.054  0.00  0.00    -0.021 A 
ATOM     16  C27 <0> d   1      19.643  -0.744  13.750  0.00  0.00     0.011 A 
ATOM     17  C26 <0> d   1      19.154  -1.217  14.953  0.00  0.00     0.024 A 
ATOM     18  C24 <0> d   1      17.961  -0.727  15.454  0.00  0.00     0.034 A 
ATOM     19  C23 <0> d   1      17.262   0.241  14.754  0.00  0.00     0.024 A 
ATOM     20 Cl25 <0> d   1      17.341  -1.327  16.960  0.00  0.00    -0.084 Cl
ATOM     21  C22 <0> d   1      17.757   0.718  13.555  0.00  0.00     0.011 A 
ENDBRANCH   8  15
ENDBRANCH   5   8
BRANCH   1  22
ATOM     22  C7  <0> d   1      18.612  -3.206   7.827  0.00  0.00     0.261 C 
BRANCH  22  23
ATOM     23  C6  <0> d   1      19.777  -3.901   7.121  0.00  0.00     0.196 C 
BRANCH  23  24
ATOM     24  O5  <0> d   1      20.026  -3.261   5.869  0.00  0.00    -0.379 OA
BRANCH  24  25
ATOM     25  C4  <0> d   1      18.843  -2.959   5.126  0.00  0.00     0.280 C 
BRANCH  25  26
ATOM     26  C2  <0> d   1      18.927  -1.549   4.601  0.00  0.00     0.197 C 
ATOM     27  O1  <0> d   1      19.996  -0.962   4.595  0.00  0.00    -0.646 OA
ATOM     28  O3  <0> d   1      17.927  -0.996   4.175  0.00  0.00    -0.646 OA
ENDBRANCH  25  26
ENDBRANCH  24  25
ENDBRANCH  23  24
ENDBRANCH  22  23
ENDBRANCH   1  22
TORSDOF 8
ENDMDL
MODEL 2
REMARK VINA RESULT:      -7.9      2.485      4.609
REMARK  8 active torsions:
REMARK  status: ('A' for Active; 'I' for Inactive)
REMARK    1  A    between atoms: C2_2  and  C4_4 
REMARK    2  A    between atoms: C4_4  and  O5_5 
REMARK    3  A    between atoms: O5_5  and  C6_6 
REMARK    4  A    between atoms: C6_6  and  C7_7 
REMARK    5  A    between atoms: C7_7  and  N8_8 
REMARK    6  A    between atoms: N12_12  and  C13_13 
REMARK    7  A    between atoms: C13_13  and  C15_14 
REMARK    8  A    between atoms: C13_13  and  C21_20 
ROOT
ATOM      1  N8  <0> d   1      19.559   1.340   9.206  0.00  0.00    -0.066 N 
ATOM      2  H9  <0> d   1      20.455   0.962   8.933  0.00  0.00     0.280 HD
ATOM      3  C10 <0> d   1      18.554   0.270   9.197  0.00  0.00     0.265 C 
ATOM      4  C11 <0> d   1      18.976  -0.835  10.168  0.00  0.00     0.301 C 
ATOM      5  N12 <0> d   1      19.106  -0.273  11.519  0.00  0.00     0.105 N 
ATOM      6  C28 <0> d   1      20.093   0.817  11.538  0.00  0.00     0.301 C 
ATOM      7  C29 <0> d   1      19.661   1.908  10.556  0.00  0.00     0.265 C 
ENDROOT
BRANCH   5   8
ATOM      8  C13 <0> d   1      19.457  -1.316  12.492  0.00  0.00     0.289 C 
BRANCH   8   9
ATOM      9  C15 <0> d   1      18.851  -0.978  13.831  0.00  0.00    -0.021 A 
ATOM     10  C20 <0> d   1      17.848  -0.030  13.915  0.00  0.00     0.010 A 
ATOM     11  C19 <0> d   1      17.290   0.278  15.143  0.00  0.00     0.001 A 
ATOM     12  C18 <0> d   1      17.740  -0.357  16.285  0.00  0.00     0.000 A 
ATOM     13  C17 <0> d   1      18.746  -1.301  16.200  0.00  0.00     0.001 A 
ATOM     14  C16 <0> d   1      19.302  -1.611  14.974  0.00  0.00     0.010 A 
ENDBRANCH   8   9
BRANCH   8  15
ATOM     15  C21 <0> d   1      18.921  -2.643  12.021  0.00  0.00    -0.021 A 
ATOM     16  C27 <0> d   1      17.555  -2.855  11.962  0.00  0.00     0.011 A 
ATOM     17  C26 <0> d   1      17.062  -4.070  11.524  0.00  0.00     0.024 A 
ATOM     18  C24 <0> d   1      17.936  -5.079  11.158  0.00  0.00     0.034 A 
ATOM     19  C23 <0> d   1      19.302  -4.868  11.223  0.00  0.00     0.024 A 
ATOM     20 Cl25 <0> d   1      17.318  -6.607  10.616  0.00  0.00    -0.084 Cl
ATOM     21  C22 <0> d   1      19.793  -3.651  11.654  0.00  0.00     0.011 A 
ENDBRANCH   8  15
ENDBRANCH   5   8
BRANCH   1  22
ATOM     22  C7  <0> d   1      19.163   2.392   8.260  0.00  0.00     0.261 C 
BRANCH  22  23
ATOM     23  C6  <0> d   1      18.452   1.760   7.062  0.00  0.00     0.196 C 
BRANCH  23  24
ATOM     24  O5  <0> d   1      19.419   1.178   6.187  0.00  0.00    -0.379 OA
BRANCH  24  25
ATOM     25  C4  <0> d   1      18.854   0.369   5.153  0.00  0.00     0.280 C 
BRANCH  25  26
ATOM     26  C2  <0> d   1      19.363  -1.043   5.286  0.00  0.00     0.197 C 
ATOM     27  O1  <0> d   1      19.763  -1.643   4.303  0.00  0.00    -0.646 OA
ATOM     28  O3  <0> d   1      19.382  -1.584   6.379  0.00  0.00    -0.646 OA
ENDBRANCH  25  26
ENDBRANCH  24  25
ENDBRANCH  23  24
ENDBRANCH  22  23
ENDBRANCH   1  22
TORSDOF 8
ENDMDL
MODEL 3
REMARK VINA RESULT:      -7.7      1.251      2.603
REMARK  8 active torsions:
REMARK  status: ('A' for Active; 'I' for Inactive)
REMARK    1  A    between atoms: C2_2  and  C4_4 
REMARK    2  A    between atoms: C4_4  and  O5_5 
REMARK    3  A    between atoms: O5_5  and  C6_6 
REMARK    4  A    between atoms: C6_6  and  C7_7 
REMARK    5  A    between atoms: C7_7  and  N8_8 
REMARK    6  A    between atoms: N12_12  and  C13_13 
REMARK    7  A    between atoms: C13_13  and  C15_14 
REMARK    8  A    between atoms: C13_13  and  C21_20 
ROOT
ATOM      1  N8  <0> d   1      18.958  -2.228   8.754  0.00  0.00    -0.066 N 
ATOM      2  H9  <0> d   1      19.808  -2.669   9.074  0.00  0.00     0.280 HD
ATOM      3  C10 <0> d   1      17.990  -2.174   9.858  0.00  0.00     0.265 C 
ATOM      4  C11 <0> d   1      18.588  -1.380  11.022  0.00  0.00     0.301 C 
ATOM      5  N12 <0> d   1      18.916  -0.022  10.568  0.00  0.00     0.105 N 
ATOM      6  C28 <0> d   1      19.866  -0.061   9.446  0.00  0.00     0.301 C 
ATOM      7  C29 <0> d   1      19.257  -0.865   8.295  0.00  0.00     0.265 C 
ENDROOT
BRANCH   5   8
ATOM      8  C13 <0> d   1      19.441   0.791  11.673  0.00  0.00     0.289 C 
BRANCH   8   9
ATOM      9  C15 <0> d   1      18.977   2.216  11.514  0.00  0.00    -0.021 A 
ATOM     10  C20 <0> d   1      19.608   3.230  12.211  0.00  0.00     0.010 A 
ATOM     11  C19 <0> d   1      19.185   4.538  12.062  0.00  0.00     0.001 A 
ATOM     12  C18 <0> d   1      18.127   4.830  11.223  0.00  0.00     0.000 A 
ATOM     13  C17 <0> d   1      17.493   3.816  10.530  0.00  0.00     0.001 A 
ATOM     14  C16 <0> d   1      17.918   2.509  10.676  0.00  0.00     0.010 A 
ENDBRANCH   8   9
BRANCH   8  15
ATOM     15  C21 <0> d   1      18.937   0.243  12.983  0.00  0.00    -0.021 A 
ATOM     16  C27 <0> d   1      17.691   0.617  13.454  0.00  0.00     0.011 A 
ATOM     17  C26 <0> d   1      17.225   0.110  14.653  0.00  0.00     0.024 A 
ATOM     18  C24 <0> d   1      18.011  -0.760  15.388  0.00  0.00     0.034 A 
ATOM     19  C23 <0> d   1      19.259  -1.129  14.919  0.00  0.00     0.024 A 
ATOM     20 Cl25 <0> d   1      17.429  -1.390  16.897  0.00  0.00    -0.084 Cl
ATOM     21  C22 <0> d   1      19.721  -0.627  13.717  0.00  0.00     0.011 A 
ENDBRANCH   8  15
ENDBRANCH   5   8
BRANCH   1  22
ATOM     22  C7  <0> d   1      18.391  -3.006   7.644  0.00  0.00     0.261 C 
BRANCH  22  23
ATOM     23  C6  <0> d   1      19.306  -2.893   6.423  0.00  0.00     0.196 C 
BRANCH  23  24
ATOM     24  O5  <0> d   1      20.389  -3.816   6.553  0.00  0.00    -0.379 OA
BRANCH  24  25
ATOM     25  C4  <0> d   1      19.978  -5.162   6.801  0.00  0.00     0.280 C 
BRANCH  25  26
ATOM     26  C2  <0> d   1      20.853  -5.763   7.871  0.00  0.00     0.197 C 
ATOM     27  O1  <0> d   1      22.046  -5.914   7.671  0.00  0.00    -0.646 OA
ATOM     28  O3  <0> d   1      20.368  -6.095   8.940  0.00  0.00    -0.646 OA
ENDBRANCH  25  26
ENDBRANCH  24  25
ENDBRANCH  23  24
ENDBRANCH  22  23
ENDBRANCH   1  22
TORSDOF 8
ENDMDL
MODEL 4
REMARK VINA RESULT:      -7.6      1.929      2.847
REMARK  8 active torsions:
REMARK  status: ('A' for Active; 'I' for Inactive)
REMARK    1  A    between atoms: C2_2  and  C4_4 
REMARK    2  A    between atoms: C4_4  and  O5_5 
REMARK    3  A    between atoms: O5_5  and  C6_6 
REMARK    4  A    between atoms: C6_6  and  C7_7 
REMARK    5  A    between atoms: C7_7  and  N8_8 
REMARK    6  A    between atoms: N12_12  and  C13_13 
REMARK    7  A    between atoms: C13_13  and  C15_14 
REMARK    8  A    between atoms: C13_13  and  C21_20 
ROOT
ATOM      1  N8  <0> d   1      18.217  -4.661  11.068  0.00  0.00    -0.066 N 
ATOM      2  H9  <0> d   1      18.235  -4.868  12.056  0.00  0.00     0.280 HD
ATOM      3  C10 <0> d   1      17.328  -3.518  10.825  0.00  0.00     0.265 C 
ATOM      4  C11 <0> d   1      17.832  -2.303  11.607  0.00  0.00     0.301 C 
ATOM      5  N12 <0> d   1      19.200  -1.981  11.178  0.00  0.00     0.105 N 
ATOM      6  C28 <0> d   1      20.098  -3.126  11.394  0.00  0.00     0.301 C 
ATOM      7  C29 <0> d   1      19.575  -4.333  10.613  0.00  0.00     0.265 C 
ENDROOT
BRANCH   5   8
ATOM      8  C13 <0> d   1      19.700  -0.784  11.868  0.00  0.00     0.289 C 
BRANCH   8   9
ATOM      9  C15 <0> d   1      19.404   0.436  11.034  0.00  0.00    -0.021 A 
ATOM     10  C20 <0> d   1      19.728   1.693  11.510  0.00  0.00     0.010 A 
ATOM     11  C19 <0> d   1      19.460   2.813  10.744  0.00  0.00     0.001 A 
ATOM     12  C18 <0> d   1      18.861   2.675   9.506  0.00  0.00     0.000 A 
ATOM     13  C17 <0> d   1      18.532   1.419   9.032  0.00  0.00     0.001 A 
ATOM     14  C16 <0> d   1      18.803   0.299   9.797  0.00  0.00     0.010 A 
ENDBRANCH   8   9
BRANCH   8  15
ATOM     15  C21 <0> d   1      19.019  -0.654  13.206  0.00  0.00    -0.021 A 
ATOM     16  C27 <0> d   1      19.511  -1.341  14.301  0.00  0.00     0.011 A 
ATOM     17  C26 <0> d   1      18.890  -1.218  15.530  0.00  0.00     0.024 A 
ATOM     18  C24 <0> d   1      17.768  -0.419  15.660  0.00  0.00     0.034 A 
ATOM     19  C23 <0> d   1      17.272   0.262  14.563  0.00  0.00     0.024 A 
ATOM     20 Cl25 <0> d   1      16.983  -0.271  17.201  0.00  0.00    -0.084 Cl
ATOM     21  C22 <0> d   1      17.898   0.144  13.336  0.00  0.00     0.011 A 
ENDBRANCH   8  15
ENDBRANCH   5   8
BRANCH   1  22
ATOM     22  C7  <0> d   1      17.723  -5.832  10.332  0.00  0.00     0.261 C 
BRANCH  22  23
ATOM     23  C6  <0> d   1      17.107  -5.379   9.007  0.00  0.00     0.196 C 
BRANCH  23  24
ATOM     24  O5  <0> d   1      17.933  -5.813   7.925  0.00  0.00    -0.379 OA
BRANCH  24  25
ATOM     25  C4  <0> d   1      18.296  -4.771   7.017  0.00  0.00     0.280 C 
BRANCH  25  26
ATOM     26  C2  <0> d   1      19.795  -4.738   6.866  0.00  0.00     0.197 C 
ATOM     27  O1  <0> d   1      20.459  -5.720   7.148  0.00  0.00    -0.646 OA
ATOM     28  O3  <0> d   1      20.344  -3.729   6.455  0.00  0.00    -0.646 OA
ENDBRANCH  25  26
ENDBRANCH  24  25
ENDBRANCH  23  24
ENDBRANCH  22  23
ENDBRANCH   1  22
TORSDOF 8
ENDMDL
MODEL 5
REMARK VINA RESULT:      -7.6      4.160      6.770
REMARK  8 active torsions:
REMARK  status: ('A' for Active; 'I' for Inactive)
REMARK    1  A    between atoms: C2_2  and  C4_4 
REMARK    2  A    between atoms: C4_4  and  O5_5 
REMARK    3  A    between atoms: O5_5  and  C6_6 
REMARK    4  A    between atoms: C6_6  and  C7_7 
REMARK    5  A    between atoms: C7_7  and  N8_8 
REMARK    6  A    between atoms: N12_12  and  C13_13 
REMARK    7  A    between atoms: C13_13  and  C15_14 
REMARK    8  A    between atoms: C13_13  and  C21_20 
ROOT
ATOM      1  N8  <0> d   1      17.769   2.592  10.811  0.00  0.00    -0.066 N 
ATOM      2  H9  <0> d   1      16.882   2.827  11.229  0.00  0.00     0.280 HD
ATOM      3  C10 <0> d   1      18.752   2.323  11.868  0.00  0.00     0.265 C 
ATOM      4  C11 <0> d   1      18.260   1.167  12.741  0.00  0.00     0.301 C 
ATOM      5  N12 <0> d   1      18.073  -0.028  11.907  0.00  0.00     0.105 N 
ATOM      6  C28 <0> d   1      17.108   0.233  10.828  0.00  0.00     0.301 C 
ATOM      7  C29 <0> d   1      17.612   1.397   9.971  0.00  0.00     0.265 C 
ENDROOT
BRANCH   5   8
ATOM      8  C13 <0> d   1      17.653  -1.178  12.719  0.00  0.00     0.289 C 
BRANCH   8   9
ATOM      9  C15 <0> d   1      18.334  -2.425  12.216  0.00  0.00    -0.021 A 
ATOM     10  C20 <0> d   1      17.622  -3.605  12.108  0.00  0.00     0.010 A 
ATOM     11  C19 <0> d   1      18.245  -4.748  11.642  0.00  0.00     0.001 A 
ATOM     12  C18 <0> d   1      19.582  -4.712  11.294  0.00  0.00     0.000 A 
ATOM     13  C17 <0> d   1      20.295  -3.534  11.407  0.00  0.00     0.001 A 
ATOM     14  C16 <0> d   1      19.671  -2.390  11.869  0.00  0.00     0.010 A 
ENDBRANCH   8   9
BRANCH   8  15
ATOM     15  C21 <0> d   1      18.037  -0.943  14.158  0.00  0.00    -0.021 A 
ATOM     16  C27 <0> d   1      17.268  -0.111  14.951  0.00  0.00     0.011 A 
ATOM     17  C26 <0> d   1      17.616   0.101  16.272  0.00  0.00     0.024 A 
ATOM     18  C24 <0> d   1      18.742  -0.509  16.796  0.00  0.00     0.034 A 
ATOM     19  C23 <0> d   1      19.515  -1.335  16.000  0.00  0.00     0.024 A 
ATOM     20 Cl25 <0> d   1      19.185  -0.236  18.451  0.00  0.00    -0.084 Cl
ATOM     21  C22 <0> d   1      19.162  -1.552  14.681  0.00  0.00     0.011 A 
ENDBRANCH   8  15
ENDBRANCH   5   8
BRANCH   1  22
ATOM     22  C7  <0> d   1      18.234   3.714   9.984  0.00  0.00     0.261 C 
BRANCH  22  23
ATOM     23  C6  <0> d   1      17.411   4.962  10.308  0.00  0.00     0.196 C 
BRANCH  23  24
ATOM     24  O5  <0> d   1      16.510   4.673  11.379  0.00  0.00    -0.379 OA
BRANCH  24  25
ATOM     25  C4  <0> d   1      16.550   5.625  12.444  0.00  0.00     0.280 C 
BRANCH  25  26
ATOM     26  C2  <0> d   1      17.499   5.144  13.511  0.00  0.00     0.197 C 
ATOM     27  O1  <0> d   1      17.112   4.366  14.366  0.00  0.00    -0.646 OA
ATOM     28  O3  <0> d   1      18.657   5.528  13.516  0.00  0.00    -0.646 OA
ENDBRANCH  25  26
ENDBRANCH  24  25
ENDBRANCH  23  24
ENDBRANCH  22  23
ENDBRANCH   1  22
TORSDOF 8
ENDMDL
MODEL 6
REMARK VINA RESULT:      -7.5      4.941      7.497
REMARK  8 active torsions:
REMARK  status: ('A' for Active; 'I' for Inactive)
REMARK    1  A    between atoms: C2_2  and  C4_4 
REMARK    2  A    between atoms: C4_4  and  O5_5 
REMARK    3  A    between atoms: O5_5  and  C6_6 
REMARK    4  A    between atoms: C6_6  and  C7_7 
REMARK    5  A    between atoms: C7_7  and  N8_8 
REMARK    6  A    between atoms: N12_12  and  C13_13 
REMARK    7  A    between atoms: C13_13  and  C15_14 
REMARK    8  A    between atoms: C13_13  and  C21_20 
ROOT
ATOM      1  N8  <0> d   1      18.690  -0.407  14.592  0.00  0.00    -0.066 N 
ATOM      2  H9  <0> d   1      18.917   0.438  15.094  0.00  0.00     0.280 HD
ATOM      3  C10 <0> d   1      17.540  -0.160  13.713  0.00  0.00     0.265 C 
ATOM      4  C11 <0> d   1      17.881   0.960  12.728  0.00  0.00     0.301 C 
ATOM      5  N12 <0> d   1      19.053   0.568  11.932  0.00  0.00     0.105 N 
ATOM      6  C28 <0> d   1      20.207   0.294  12.801  0.00  0.00     0.301 C 
ATOM      7  C29 <0> d   1      19.845  -0.821  13.785  0.00  0.00     0.265 C 
ENDROOT
BRANCH   5   8
ATOM      8  C13 <0> d   1      19.379   1.596  10.934  0.00  0.00     0.289 C 
BRANCH   8   9
ATOM      9  C15 <0> d   1      18.856   1.171   9.586  0.00  0.00    -0.021 A 
ATOM     10  C20 <0> d   1      17.813   0.267   9.503  0.00  0.00     0.010 A 
ATOM     11  C19 <0> d   1      17.330  -0.120   8.267  0.00  0.00     0.001 A 
ATOM     12  C18 <0> d   1      17.895   0.391   7.114  0.00  0.00     0.000 A 
ATOM     13  C17 <0> d   1      18.940   1.292   7.197  0.00  0.00     0.001 A 
ATOM     14  C16 <0> d   1      19.421   1.681   8.433  0.00  0.00     0.010 A 
ENDBRANCH   8   9
BRANCH   8  15
ATOM     15  C21 <0> d   1      18.740   2.902  11.331  0.00  0.00    -0.021 A 
ATOM     16  C27 <0> d   1      17.566   3.309  10.724  0.00  0.00     0.011 A 
ATOM     17  C26 <0> d   1      16.976   4.504  11.091  0.00  0.00     0.024 A 
ATOM     18  C24 <0> d   1      17.568   5.299  12.057  0.00  0.00     0.034 A 
ATOM     19  C23 <0> d   1      18.746   4.894  12.660  0.00  0.00     0.024 A 
ATOM     20 Cl25 <0> d   1      16.832   6.803  12.513  0.00  0.00    -0.084 Cl
ATOM     21  C22 <0> d   1      19.331   3.696  12.297  0.00  0.00     0.011 A 
ENDBRANCH   8  15
ENDBRANCH   5   8
BRANCH   1  22
ATOM     22  C7  <0> d   1      18.355  -1.470  15.549  0.00  0.00     0.261 C 
BRANCH  22  23
ATOM     23  C6  <0> d   1      19.235  -1.332  16.793  0.00  0.00     0.196 C 
BRANCH  23  24
ATOM     24  O5  <0> d   1      18.470  -0.760  17.856  0.00  0.00    -0.379 OA
BRANCH  24  25
ATOM     25  C4  <0> d   1      17.967   0.547  17.571  0.00  0.00     0.280 C 
BRANCH  25  26
ATOM     26  C2  <0> d   1      19.107   1.532  17.558  0.00  0.00     0.197 C 
ATOM     27  O1  <0> d   1      19.754   1.730  18.572  0.00  0.00    -0.646 OA
ATOM     28  O3  <0> d   1      19.387   2.127  16.531  0.00  0.00    -0.646 OA
ENDBRANCH  25  26
ENDBRANCH  24  25
ENDBRANCH  23  24
ENDBRANCH  22  23
ENDBRANCH   1  22
TORSDOF 8
ENDMDL
MODEL 7
REMARK VINA RESULT:      -7.5      5.200      8.643
REMARK  8 active torsions:
REMARK  status: ('A' for Active; 'I' for Inactive)
REMARK    1  A    between atoms: C2_2  and  C4_4 
REMARK    2  A    between atoms: C4_4  and  O5_5 
REMARK    3  A    between atoms: O5_5  and  C6_6 
REMARK    4  A    between atoms: C6_6  and  C7_7 
REMARK    5  A    between atoms: C7_7  and  N8_8 
REMARK    6  A    between atoms: N12_12  and  C13_13 
REMARK    7  A    between atoms: C13_13  and  C15_14 
REMARK    8  A    between atoms: C13_13  and  C21_20 
ROOT
ATOM      1  N8  <0> d   1      18.493   1.292  13.221  0.00  0.00    -0.066 N 
ATOM      2  H9  <0> d   1      19.107   0.763  13.822  0.00  0.00     0.280 HD
ATOM      3  C10 <0> d   1      19.263   1.843  12.098  0.00  0.00     0.265 C 
ATOM      4  C11 <0> d   1      19.909   0.700  11.313  0.00  0.00     0.301 C 
ATOM      5  N12 <0> d   1      18.861  -0.203  10.815  0.00  0.00     0.105 N 
ATOM      6  C28 <0> d   1      18.066  -0.744  11.928  0.00  0.00     0.301 C 
ATOM      7  C29 <0> d   1      17.435   0.412  12.707  0.00  0.00     0.265 C 
ENDROOT
BRANCH   5   8
ATOM      8  C13 <0> d   1      19.439  -1.285  10.007  0.00  0.00     0.289 C 
BRANCH   8   9
ATOM      9  C15 <0> d   1      18.913  -2.611  10.495  0.00  0.00    -0.021 A 
ATOM     10  C20 <0> d   1      19.756  -3.489  11.151  0.00  0.00     0.010 A 
ATOM     11  C19 <0> d   1      19.273  -4.704  11.602  0.00  0.00     0.001 A 
ATOM     12  C18 <0> d   1      17.950  -5.043  11.389  0.00  0.00     0.000 A 
ATOM     13  C17 <0> d   1      17.109  -4.168  10.728  0.00  0.00     0.001 A 
ATOM     14  C16 <0> d   1      17.591  -2.952  10.280  0.00  0.00     0.010 A 
ENDBRANCH   8   9
BRANCH   8  15
ATOM     15  C21 <0> d   1      19.054  -1.094   8.563  0.00  0.00    -0.021 A 
ATOM     16  C27 <0> d   1      18.253  -0.027   8.197  0.00  0.00     0.011 A 
ATOM     17  C26 <0> d   1      17.904   0.152   6.872  0.00  0.00     0.024 A 
ATOM     18  C24 <0> d   1      18.344  -0.743   5.913  0.00  0.00     0.034 A 
ATOM     19  C23 <0> d   1      19.140  -1.813   6.281  0.00  0.00     0.024 A 
ATOM     20 Cl25 <0> d   1      17.899  -0.523   4.251  0.00  0.00    -0.084 Cl
ATOM     21  C22 <0> d   1      19.494  -1.988   7.605  0.00  0.00     0.011 A 
ENDBRANCH   8  15
ENDBRANCH   5   8
BRANCH   1  22
ATOM     22  C7  <0> d   1      17.887   2.391  13.986  0.00  0.00     0.261 C 
BRANCH  22  23
ATOM     23  C6  <0> d   1      18.862   2.856  15.069  0.00  0.00     0.196 C 
BRANCH  23  24
ATOM     24  O5  <0> d   1      19.376   1.721  15.767  0.00  0.00    -0.379 OA
BRANCH  24  25
ATOM     25  C4  <0> d   1      18.500   1.215  16.777  0.00  0.00     0.280 C 
BRANCH  25  26
ATOM     26  C2  <0> d   1      19.297   0.887  18.014  0.00  0.00     0.197 C 
ATOM     27  O1  <0> d   1      19.805   1.782  18.667  0.00  0.00    -0.646 OA
ATOM     28  O3  <0> d   1      19.429  -0.274  18.364  0.00  0.00    -0.646 OA
ENDBRANCH  25  26
ENDBRANCH  24  25
ENDBRANCH  23  24
ENDBRANCH  22  23
ENDBRANCH   1  22
TORSDOF 8
ENDMDL
MODEL 8
REMARK VINA RESULT:      -7.5      2.102      3.254
REMARK  8 active torsions:
REMARK  status: ('A' for Active; 'I' for Inactive)
REMARK    1  A    between atoms: C2_2  and  C4_4 
REMARK    2  A    between atoms: C4_4  and  O5_5 
REMARK    3  A    between atoms: O5_5  and  C6_6 
REMARK    4  A    between atoms: C6_6  and  C7_7 
REMARK    5  A    between atoms: C7_7  and  N8_8 
REMARK    6  A    between atoms: N12_12  and  C13_13 
REMARK    7  A    between atoms: C13_13  and  C15_14 
REMARK    8  A    between atoms: C13_13  and  C21_20 
ROOT
ATOM      1  N8  <0> d   1      19.531   2.040   9.338  0.00  0.00    -0.066 N 
ATOM      2  H9  <0> d   1      20.474   2.398   9.340  0.00  0.00     0.280 HD
ATOM      3  C10 <0> d   1      19.406   0.988  10.356  0.00  0.00     0.265 C 
ATOM      4  C11 <0> d   1      19.747   1.566  11.731  0.00  0.00     0.301 C 
ATOM      5  N12 <0> d   1      18.831   2.675  12.034  0.00  0.00     0.105 N 
ATOM      6  C28 <0> d   1      18.928   3.726  11.009  0.00  0.00     0.301 C 
ATOM      7  C29 <0> d   1      18.593   3.129   9.640  0.00  0.00     0.265 C 
ENDROOT
BRANCH   5   8
ATOM      8  C13 <0> d   1      19.091   3.222  13.373  0.00  0.00     0.289 C 
BRANCH   8   9
ATOM      9  C15 <0> d   1      18.278   4.476  13.569  0.00  0.00    -0.021 A 
ATOM     10  C20 <0> d   1      18.833   5.565  14.216  0.00  0.00     0.010 A 
ATOM     11  C19 <0> d   1      18.089   6.717  14.393  0.00  0.00     0.001 A 
ATOM     12  C18 <0> d   1      16.788   6.777  13.930  0.00  0.00     0.000 A 
ATOM     13  C17 <0> d   1      16.232   5.686  13.288  0.00  0.00     0.001 A 
ATOM     14  C16 <0> d   1      16.976   4.536  13.108  0.00  0.00     0.010 A 
ENDBRANCH   8   9
BRANCH   8  15
ATOM     15  C21 <0> d   1      18.702   2.204  14.414  0.00  0.00    -0.021 A 
ATOM     16  C27 <0> d   1      19.264   2.259  15.677  0.00  0.00     0.011 A 
ATOM     17  C26 <0> d   1      18.904   1.330  16.634  0.00  0.00     0.024 A 
ATOM     18  C24 <0> d   1      17.991   0.336  16.325  0.00  0.00     0.034 A 
ATOM     19  C23 <0> d   1      17.434   0.279  15.060  0.00  0.00     0.024 A 
ATOM     20 Cl25 <0> d   1      17.545  -0.835  17.525  0.00  0.00    -0.084 Cl
ATOM     21  C22 <0> d   1      17.790   1.213  14.105  0.00  0.00     0.011 A 
ENDBRANCH   8  15
ENDBRANCH   5   8
BRANCH   1  22
ATOM     22  C7  <0> d   1      19.222   1.480   8.015  0.00  0.00     0.261 C 
BRANCH  22  23
ATOM     23  C6  <0> d   1      18.488   0.148   8.184  0.00  0.00     0.196 C 
BRANCH  23  24
ATOM     24  O5  <0> d   1      19.075  -0.831   7.324  0.00  0.00    -0.379 OA
BRANCH  24  25
ATOM     25  C4  <0> d   1      18.335  -1.068   6.124  0.00  0.00     0.280 C 
BRANCH  25  26
ATOM     26  C2  <0> d   1      19.252  -0.931   4.936  0.00  0.00     0.197 C 
ATOM     27  O1  <0> d   1      19.582   0.175   4.544  0.00  0.00    -0.646 OA
ATOM     28  O3  <0> d   1      19.669  -1.928   4.370  0.00  0.00    -0.646 OA
ENDBRANCH  25  26
ENDBRANCH  24  25
ENDBRANCH  23  24
ENDBRANCH  22  23
ENDBRANCH   1  22
TORSDOF 8
ENDMDL
MODEL 9
REMARK VINA RESULT:      -7.4      5.432      8.541
REMARK  8 active torsions:
REMARK  status: ('A' for Active; 'I' for Inactive)
REMARK    1  A    between atoms: C2_2  and  C4_4 
REMARK    2  A    between atoms: C4_4  and  O5_5 
REMARK    3  A    between atoms: O5_5  and  C6_6 
REMARK    4  A    between atoms: C6_6  and  C7_7 
REMARK    5  A    between atoms: C7_7  and  N8_8 
REMARK    6  A    between atoms: N12_12  and  C13_13 
REMARK    7  A    between atoms: C13_13  and  C15_14 
REMARK    8  A    between atoms: C13_13  and  C21_20 
ROOT
ATOM      1  N8  <0> d   1      18.917   0.287  15.914  0.00  0.00    -0.066 N 
ATOM      2  H9  <0> d   1      19.877   0.089  16.154  0.00  0.00     0.280 HD
ATOM      3  C10 <0> d   1      18.878   1.227  14.787  0.00  0.00     0.265 C 
ATOM      4  C11 <0> d   1      19.604   0.616  13.587  0.00  0.00     0.301 C 
ATOM      5  N12 <0> d   1      18.952  -0.648  13.215  0.00  0.00     0.105 N 
ATOM      6  C28 <0> d   1      18.962  -1.592  14.343  0.00  0.00     0.301 C 
ATOM      7  C29 <0> d   1      18.241  -0.962  15.536  0.00  0.00     0.265 C 
ENDROOT
BRANCH   5   8
ATOM      8  C13 <0> d   1      19.587  -1.240  12.030  0.00  0.00     0.289 C 
BRANCH   8   9
ATOM      9  C15 <0> d   1      18.990  -2.599  11.766  0.00  0.00    -0.021 A 
ATOM     10  C20 <0> d   1      17.621  -2.737  11.635  0.00  0.00     0.010 A 
ATOM     11  C19 <0> d   1      17.073  -3.983  11.388  0.00  0.00     0.001 A 
ATOM     12  C18 <0> d   1      17.894  -5.090  11.282  0.00  0.00     0.000 A 
ATOM     13  C17 <0> d   1      19.262  -4.951  11.418  0.00  0.00     0.001 A 
ATOM     14  C16 <0> d   1      19.810  -3.706  11.661  0.00  0.00     0.010 A 
ENDBRANCH   8   9
BRANCH   8  15
ATOM     15  C21 <0> d   1      19.352  -0.349  10.837  0.00  0.00    -0.021 A 
ATOM     16  C27 <0> d   1      20.200  -0.416   9.747  0.00  0.00     0.011 A 
ATOM     17  C26 <0> d   1      19.982   0.397   8.650  0.00  0.00     0.024 A 
ATOM     18  C24 <0> d   1      18.924   1.288   8.650  0.00  0.00     0.034 A 
ATOM     19  C23 <0> d   1      18.080   1.359   9.744  0.00  0.00     0.024 A 
ATOM     20 Cl25 <0> d   1      18.655   2.314   7.277  0.00  0.00    -0.084 Cl
ATOM     21  C22 <0> d   1      18.294   0.541  10.837  0.00  0.00     0.011 A 
ENDBRANCH   8  15
ENDBRANCH   5   8
BRANCH   1  22
ATOM     22  C7  <0> d   1      18.235   0.882  17.072  0.00  0.00     0.261 C 
BRANCH  22  23
ATOM     23  C6  <0> d   1      19.235   1.060  18.216  0.00  0.00     0.196 C 
BRANCH  23  24
ATOM     24  O5  <0> d   1      19.791   2.375  18.163  0.00  0.00    -0.379 OA
BRANCH  24  25
ATOM     25  C4  <0> d   1      18.818   3.410  18.007  0.00  0.00     0.280 C 
BRANCH  25  26
ATOM     26  C2  <0> d   1      19.193   4.278  16.833  0.00  0.00     0.197 C 
ATOM     27  O1  <0> d   1      20.308   4.199  16.348  0.00  0.00    -0.646 OA
ATOM     28  O3  <0> d   1      18.378   5.055  16.365  0.00  0.00    -0.646 OA
ENDBRANCH  25  26
ENDBRANCH  24  25
ENDBRANCH  23  24
ENDBRANCH  22  23
ENDBRANCH   1  22
TORSDOF 8
ENDMDL
