MODEL 1
REMARK VINA RESULT:      -7.6      0.000      0.000
REMARK  7 active torsions:
REMARK  status: ('A' for Active; 'I' for Inactive)
REMARK    1  A    between atoms: O2_2  and  C3_3 
REMARK    2  A    between atoms: C7_7  and  C8_8 
REMARK    3  A    between atoms: C8_8  and  S9_9 
REMARK    4  A    between atoms: S9_9  and  C11_11 
REMARK    5  A    between atoms: C16_16  and  O17_17 
REMARK    6  A    between atoms: O17_17  and  C18_18 
REMARK    7  A    between atoms: C24_24  and  O25_25 
ROOT
ATOM      1  C11 ZIN A   1      18.535  -1.007   6.505  0.00  0.00     0.198 A 
ATOM      2  N12 ZIN A   1      19.188   0.115   6.599  0.00  0.00    -0.221 NA
ATOM      3  C13 ZIN A   1      18.832   0.756   7.744  0.00  0.00     0.086 A 
ATOM      4  C14 ZIN A   1      19.216   1.966   8.327  0.00  0.00     0.037 A 
ATOM      5  C15 ZIN A   1      18.667   2.352   9.518  0.00  0.00     0.039 A 
ATOM      6  C16 ZIN A   1      17.726   1.552  10.158  0.00  0.00     0.077 A 
ATOM      7  C21 ZIN A   1      17.332   0.350   9.597  0.00  0.00     0.069 A 
ATOM      8  C22 ZIN A   1      17.882  -0.055   8.388  0.00  0.00     0.066 A 
ATOM      9  N23 ZIN A   1      17.711  -1.159   7.578  0.00  0.00    -0.331 N 
ATOM     10  H38 ZIN A   1      17.115  -1.908   7.743  0.00  0.00     0.168 HD
ENDROOT
BRANCH   1  11
ATOM     11  S9  ZIN A   1      18.688  -2.155   5.177  0.00  0.00     0.092 S 
ATOM     12  O10 ZIN A   1      19.677  -1.556   4.350  0.00  0.00    -0.249 OA
BRANCH  11  13
ATOM     13  C8  ZIN A   1      19.386  -3.622   5.986  0.00  0.00     0.179 C 
BRANCH  13  14
ATOM     14  C7  ZIN A   1      18.455  -4.791   5.794  0.00  0.00     0.082 A 
ATOM     15  N6  ZIN A   1      17.410  -4.669   4.996  0.00  0.00    -0.262 NA
ATOM     16  C5  ZIN A   1      16.566  -5.662   4.796  0.00  0.00     0.120 A 
ATOM     17  C4  ZIN A   1      16.746  -6.882   5.418  0.00  0.00     0.059 A 
ATOM     18  C3  ZIN A   1      17.833  -7.056   6.268  0.00  0.00     0.104 A 
ATOM     19  C24 ZIN A   1      18.701  -5.979   6.460  0.00  0.00     0.127 A 
BRANCH  18  20
ATOM     20  O2  ZIN A   1      18.043  -8.241   6.897  0.00  0.00    -0.353 OA
ATOM     21  C1  ZIN A   1      16.887  -9.019   7.217  0.00  0.00     0.210 C 
ENDBRANCH  18  20
BRANCH  19  22
ATOM     22  O25 ZIN A   1      19.780  -6.100   7.280  0.00  0.00    -0.351 OA
ATOM     23  C26 ZIN A   1      19.565  -5.861   8.673  0.00  0.00     0.210 C 
ENDBRANCH  19  22
ENDBRANCH  13  14
ENDBRANCH  11  13
ENDBRANCH   1  11
BRANCH   6  24
ATOM     24  O17 ZIN A   1      17.191   1.953  11.342  0.00  0.00    -0.290 OA
BRANCH  24  25
ATOM     25  C18 ZIN A   1      17.609   3.222  11.847  0.00  0.00     0.505 C 
ATOM     26  F19 ZIN A   1      16.721   4.212  11.416  0.00  0.00    -0.184 F 
ATOM     27  F20 ZIN A   1      17.622   3.185  13.247  0.00  0.00    -0.184 F 
ENDBRANCH  24  25
ENDBRANCH   6  24
TORSDOF 7
ENDMDL
MODEL 2
REMARK VINA RESULT:      -7.6      4.463      8.311
REMARK  7 active torsions:
REMARK  status: ('A' for Active; 'I' for Inactive)
REMARK    1  A    between atoms: O2_2  and  C3_3 
REMARK    2  A    between atoms: C7_7  and  C8_8 
REMARK    3  A    between atoms: C8_8  and  S9_9 
REMARK    4  A    between atoms: S9_9  and  C11_11 
REMARK    5  A    between atoms: C16_16  and  O17_17 
REMARK    6  A    between atoms: O17_17  and  C18_18 
REMARK    7  A    between atoms: C24_24  and  O25_25 
ROOT
ATOM      1  C11 ZIN A   1      18.561   1.338   9.198  0.00  0.00     0.198 A 
ATOM      2  N12 ZIN A   1      18.801   1.927   8.063  0.00  0.00    -0.221 NA
ATOM      3  C13 ZIN A   1      18.990   0.992   7.095  0.00  0.00     0.086 A 
ATOM      4  C14 ZIN A   1      19.271   1.066   5.728  0.00  0.00     0.037 A 
ATOM      5  C15 ZIN A   1      19.408  -0.080   4.998  0.00  0.00     0.039 A 
ATOM      6  C16 ZIN A   1      19.272  -1.326   5.602  0.00  0.00     0.077 A 
ATOM      7  C21 ZIN A   1      18.994  -1.422   6.954  0.00  0.00     0.069 A 
ATOM      8  C22 ZIN A   1      18.851  -0.265   7.708  0.00  0.00     0.066 A 
ATOM      9  N23 ZIN A   1      18.586  -0.013   9.038  0.00  0.00    -0.331 N 
ATOM     10  H38 ZIN A   1      18.441  -0.677   9.732  0.00  0.00     0.168 HD
ENDROOT
BRANCH   1  11
ATOM     11  S9  ZIN A   1      18.257   2.170  10.722  0.00  0.00     0.092 S 
ATOM     12  O10 ZIN A   1      17.159   1.450  11.265  0.00  0.00    -0.249 OA
BRANCH  11  13
ATOM     13  C8  ZIN A   1      19.752   1.812  11.687  0.00  0.00     0.179 C 
BRANCH  13  14
ATOM     14  C7  ZIN A   1      19.498   0.629  12.584  0.00  0.00     0.082 A 
ATOM     15  N6  ZIN A   1      19.505  -0.589  12.075  0.00  0.00    -0.262 NA
ATOM     16  C5  ZIN A   1      19.288  -1.657  12.818  0.00  0.00     0.120 A 
ATOM     17  C4  ZIN A   1      19.044  -1.540  14.173  0.00  0.00     0.059 A 
ATOM     18  C3  ZIN A   1      19.027  -0.276  14.752  0.00  0.00     0.104 A 
ATOM     19  C24 ZIN A   1      19.255   0.831  13.932  0.00  0.00     0.127 A 
BRANCH  18  20
ATOM     20  O2  ZIN A   1      18.791  -0.122  16.081  0.00  0.00    -0.353 OA
ATOM     21  C1  ZIN A   1      17.444  -0.297  16.525  0.00  0.00     0.210 C 
ENDBRANCH  18  20
BRANCH  19  22
ATOM     22  O25 ZIN A   1      19.249   2.088  14.451  0.00  0.00    -0.351 OA
ATOM     23  C26 ZIN A   1      17.998   2.779  14.461  0.00  0.00     0.210 C 
ENDBRANCH  19  22
ENDBRANCH  13  14
ENDBRANCH  11  13
ENDBRANCH   1  11
BRANCH   6  24
ATOM     24  O17 ZIN A   1      19.412  -2.457   4.859  0.00  0.00    -0.290 OA
BRANCH  24  25
ATOM     25  C18 ZIN A   1      18.215  -3.143   4.489  0.00  0.00     0.505 C 
ATOM     26  F19 ZIN A   1      17.273  -2.220   4.024  0.00  0.00    -0.184 F 
ATOM     27  F20 ZIN A   1      18.501  -4.068   3.477  0.00  0.00    -0.184 F 
ENDBRANCH  24  25
ENDBRANCH   6  24
TORSDOF 7
ENDMDL
MODEL 3
REMARK VINA RESULT:      -7.6      5.002      7.622
REMARK  7 active torsions:
REMARK  status: ('A' for Active; 'I' for Inactive)
REMARK    1  A    between atoms: O2_2  and  C3_3 
REMARK    2  A    between atoms: C7_7  and  C8_8 
REMARK    3  A    between atoms: C8_8  and  S9_9 
REMARK    4  A    between atoms: S9_9  and  C11_11 
REMARK    5  A    between atoms: C16_16  and  O17_17 
REMARK    6  A    between atoms: O17_17  and  C18_18 
REMARK    7  A    between atoms: C24_24  and  O25_25 
ROOT
ATOM      1  C11 ZIN A   1      18.454  -0.974  13.818  0.00  0.00     0.198 A 
ATOM      2  N12 ZIN A   1      18.642  -1.632  14.925  0.00  0.00    -0.221 NA
ATOM      3  C13 ZIN A   1      18.848  -0.758  15.946  0.00  0.00     0.086 A 
ATOM      4  C14 ZIN A   1      19.093  -0.918  17.312  0.00  0.00     0.037 A 
ATOM      5  C15 ZIN A   1      19.261   0.181  18.107  0.00  0.00     0.039 A 
ATOM      6  C16 ZIN A   1      19.191   1.462  17.568  0.00  0.00     0.077 A 
ATOM      7  C21 ZIN A   1      18.950   1.642  16.218  0.00  0.00     0.069 A 
ATOM      8  C22 ZIN A   1      18.776   0.534  15.399  0.00  0.00     0.066 A 
ATOM      9  N23 ZIN A   1      18.532   0.365  14.052  0.00  0.00    -0.331 N 
ATOM     10  H38 ZIN A   1      18.432   1.070  13.392  0.00  0.00     0.168 HD
ENDROOT
BRANCH   1  11
ATOM     11  S9  ZIN A   1      18.152  -1.709  12.246  0.00  0.00     0.092 S 
ATOM     12  O10 ZIN A   1      17.100  -0.913  11.718  0.00  0.00    -0.249 OA
BRANCH  11  13
ATOM     13  C8  ZIN A   1      19.684  -1.368  11.335  0.00  0.00     0.179 C 
BRANCH  13  14
ATOM     14  C7  ZIN A   1      19.454  -0.231  10.374  0.00  0.00     0.082 A 
ATOM     15  N6  ZIN A   1      19.368   1.004  10.833  0.00  0.00    -0.262 NA
ATOM     16  C5  ZIN A   1      19.166   2.032  10.033  0.00  0.00     0.120 A 
ATOM     17  C4  ZIN A   1      19.038   1.855   8.669  0.00  0.00     0.059 A 
ATOM     18  C3  ZIN A   1      19.122   0.572   8.141  0.00  0.00     0.104 A 
ATOM     19  C24 ZIN A   1      19.329  -0.493   9.020  0.00  0.00     0.127 A 
BRANCH  18  20
ATOM     20  O2  ZIN A   1      19.001   0.358   6.805  0.00  0.00    -0.353 OA
ATOM     21  C1  ZIN A   1      17.675   0.315   6.272  0.00  0.00     0.210 C 
ENDBRANCH  18  20
BRANCH  19  22
ATOM     22  O25 ZIN A   1      19.419  -1.767   8.553  0.00  0.00    -0.351 OA
ATOM     23  C26 ZIN A   1      18.203  -2.513   8.464  0.00  0.00     0.210 C 
ENDBRANCH  19  22
ENDBRANCH  13  14
ENDBRANCH  11  13
ENDBRANCH   1  11
BRANCH   6  24
ATOM     24  O17 ZIN A   1      19.361   2.545  18.374  0.00  0.00    -0.290 OA
BRANCH  24  25
ATOM     25  C18 ZIN A   1      18.202   3.331  18.659  0.00  0.00     0.505 C 
ATOM     26  F19 ZIN A   1      17.122   2.486  18.934  0.00  0.00    -0.184 F 
ATOM     27  F20 ZIN A   1      18.453   4.144  19.771  0.00  0.00    -0.184 F 
ENDBRANCH  24  25
ENDBRANCH   6  24
TORSDOF 7
ENDMDL
MODEL 4
REMARK VINA RESULT:      -7.4      5.516      9.855
REMARK  7 active torsions:
REMARK  status: ('A' for Active; 'I' for Inactive)
REMARK    1  A    between atoms: O2_2  and  C3_3 
REMARK    2  A    between atoms: C7_7  and  C8_8 
REMARK    3  A    between atoms: C8_8  and  S9_9 
REMARK    4  A    between atoms: S9_9  and  C11_11 
REMARK    5  A    between atoms: C16_16  and  O17_17 
REMARK    6  A    between atoms: O17_17  and  C18_18 
REMARK    7  A    between atoms: C24_24  and  O25_25 
ROOT
ATOM      1  C11 ZIN A   1      18.426  -0.175  11.688  0.00  0.00     0.198 A 
ATOM      2  N12 ZIN A   1      19.088   0.822  11.178  0.00  0.00    -0.221 NA
ATOM      3  C13 ZIN A   1      18.916   0.845   9.830  0.00  0.00     0.086 A 
ATOM      4  C14 ZIN A   1      19.387   1.680   8.814  0.00  0.00     0.037 A 
ATOM      5  C15 ZIN A   1      19.030   1.443   7.517  0.00  0.00     0.039 A 
ATOM      6  C16 ZIN A   1      18.199   0.374   7.194  0.00  0.00     0.077 A 
ATOM      7  C21 ZIN A   1      17.722  -0.465   8.185  0.00  0.00     0.069 A 
ATOM      8  C22 ZIN A   1      18.076  -0.235   9.508  0.00  0.00     0.066 A 
ATOM      9  N23 ZIN A   1      17.788  -0.864  10.702  0.00  0.00    -0.331 N 
ATOM     10  H38 ZIN A   1      17.231  -1.651  10.819  0.00  0.00     0.168 HD
ENDROOT
BRANCH   1  11
ATOM     11  S9  ZIN A   1      18.370  -0.578  13.402  0.00  0.00     0.092 S 
ATOM     12  O10 ZIN A   1      19.128  -1.778  13.472  0.00  0.00    -0.249 OA
BRANCH  11  13
ATOM     13  C8  ZIN A   1      19.306   0.774  14.170  0.00  0.00     0.179 C 
BRANCH  13  14
ATOM     14  C7  ZIN A   1      19.106   0.738  15.662  0.00  0.00     0.082 A 
ATOM     15  N6  ZIN A   1      18.773  -0.398  16.249  0.00  0.00    -0.262 NA
ATOM     16  C5  ZIN A   1      18.587  -0.481  17.552  0.00  0.00     0.120 A 
ATOM     17  C4  ZIN A   1      18.735   0.629  18.362  0.00  0.00     0.059 A 
ATOM     18  C3  ZIN A   1      19.085   1.846  17.787  0.00  0.00     0.104 A 
ATOM     19  C24 ZIN A   1      19.268   1.896  16.403  0.00  0.00     0.127 A 
BRANCH  18  20
ATOM     20  O2  ZIN A   1      19.240   2.958  18.551  0.00  0.00    -0.353 OA
ATOM     21  C1  ZIN A   1      18.050   3.583  19.036  0.00  0.00     0.210 C 
ENDBRANCH  18  20
BRANCH  19  22
ATOM     22  O25 ZIN A   1      19.611   3.062  15.794  0.00  0.00    -0.351 OA
ATOM     23  C26 ZIN A   1      18.542   3.924  15.394  0.00  0.00     0.210 C 
ENDBRANCH  19  22
ENDBRANCH  13  14
ENDBRANCH  11  13
ENDBRANCH   1  11
BRANCH   6  24
ATOM     24  O17 ZIN A   1      17.854   0.153   5.897  0.00  0.00    -0.290 OA
BRANCH  24  25
ATOM     25  C18 ZIN A   1      18.916   0.102   4.943  0.00  0.00     0.505 C 
ATOM     26  F19 ZIN A   1      19.769  -0.962   5.251  0.00  0.00    -0.184 F 
ATOM     27  F20 ZIN A   1      18.382  -0.084   3.662  0.00  0.00    -0.184 F 
ENDBRANCH  24  25
ENDBRANCH   6  24
TORSDOF 7
ENDMDL
MODEL 5
REMARK VINA RESULT:      -7.4      4.899      7.299
REMARK  7 active torsions:
REMARK  status: ('A' for Active; 'I' for Inactive)
REMARK    1  A    between atoms: O2_2  and  C3_3 
REMARK    2  A    between atoms: C7_7  and  C8_8 
REMARK    3  A    between atoms: C8_8  and  S9_9 
REMARK    4  A    between atoms: S9_9  and  C11_11 
REMARK    5  A    between atoms: C16_16  and  O17_17 
REMARK    6  A    between atoms: O17_17  and  C18_18 
REMARK    7  A    between atoms: C24_24  and  O25_25 
ROOT
ATOM      1  C11 ZIN A   1      18.446  -0.864  13.831  0.00  0.00     0.198 A 
ATOM      2  N12 ZIN A   1      18.538  -1.579  14.914  0.00  0.00    -0.221 NA
ATOM      3  C13 ZIN A   1      18.814  -0.772  15.972  0.00  0.00     0.086 A 
ATOM      4  C14 ZIN A   1      19.010  -1.008  17.335  0.00  0.00     0.037 A 
ATOM      5  C15 ZIN A   1      19.278   0.036  18.176  0.00  0.00     0.039 A 
ATOM      6  C16 ZIN A   1      19.358   1.336  17.687  0.00  0.00     0.077 A 
ATOM      7  C21 ZIN A   1      19.167   1.591  16.341  0.00  0.00     0.069 A 
ATOM      8  C22 ZIN A   1      18.894   0.540  15.476  0.00  0.00     0.066 A 
ATOM      9  N23 ZIN A   1      18.662   0.449  14.119  0.00  0.00    -0.331 N 
ATOM     10  H38 ZIN A   1      18.653   1.185  13.486  0.00  0.00     0.168 HD
ENDROOT
BRANCH   1  11
ATOM     11  S9  ZIN A   1      18.101  -1.503  12.226  0.00  0.00     0.092 S 
ATOM     12  O10 ZIN A   1      16.893  -0.844  11.872  0.00  0.00    -0.249 OA
BRANCH  11  13
ATOM     13  C8  ZIN A   1      19.463  -0.845  11.223  0.00  0.00     0.179 C 
BRANCH  13  14
ATOM     14  C7  ZIN A   1      19.257  -1.230   9.782  0.00  0.00     0.082 A 
ATOM     15  N6  ZIN A   1      19.038  -2.494   9.469  0.00  0.00    -0.262 NA
ATOM     16  C5  ZIN A   1      18.853  -2.882   8.223  0.00  0.00     0.120 A 
ATOM     17  C4  ZIN A   1      18.879  -1.971   7.185  0.00  0.00     0.059 A 
ATOM     18  C3  ZIN A   1      19.106  -0.628   7.467  0.00  0.00     0.104 A 
ATOM     19  C24 ZIN A   1      19.304  -0.257   8.799  0.00  0.00     0.127 A 
BRANCH  18  20
ATOM     20  O2  ZIN A   1      19.138   0.297   6.474  0.00  0.00    -0.353 OA
ATOM     21  C1  ZIN A   1      19.251  -0.191   5.135  0.00  0.00     0.210 C 
ENDBRANCH  18  20
BRANCH  19  22
ATOM     22  O25 ZIN A   1      19.530   1.044   9.127  0.00  0.00    -0.351 OA
ATOM     23  C26 ZIN A   1      18.381   1.863   9.357  0.00  0.00     0.210 C 
ENDBRANCH  19  22
ENDBRANCH  13  14
ENDBRANCH  11  13
ENDBRANCH   1  11
BRANCH   6  24
ATOM     24  O17 ZIN A   1      19.626   2.363  18.538  0.00  0.00    -0.290 OA
BRANCH  24  25
ATOM     25  C18 ZIN A   1      18.538   3.224  18.879  0.00  0.00     0.505 C 
ATOM     26  F19 ZIN A   1      18.448   4.255  17.938  0.00  0.00    -0.184 F 
ATOM     27  F20 ZIN A   1      17.346   2.491  18.881  0.00  0.00    -0.184 F 
ENDBRANCH  24  25
ENDBRANCH   6  24
TORSDOF 7
ENDMDL
MODEL 6
REMARK VINA RESULT:      -7.4      4.426      7.052
REMARK  7 active torsions:
REMARK  status: ('A' for Active; 'I' for Inactive)
REMARK    1  A    between atoms: O2_2  and  C3_3 
REMARK    2  A    between atoms: C7_7  and  C8_8 
REMARK    3  A    between atoms: C8_8  and  S9_9 
REMARK    4  A    between atoms: S9_9  and  C11_11 
REMARK    5  A    between atoms: C16_16  and  O17_17 
REMARK    6  A    between atoms: O17_17  and  C18_18 
REMARK    7  A    between atoms: C24_24  and  O25_25 
ROOT
ATOM      1  C11 ZIN A   1      18.135   2.809  12.377  0.00  0.00     0.198 A 
ATOM      2  N12 ZIN A   1      18.238   3.855  13.144  0.00  0.00    -0.221 NA
ATOM      3  C13 ZIN A   1      18.572   3.468  14.403  0.00  0.00     0.086 A 
ATOM      4  C14 ZIN A   1      18.806   4.163  15.592  0.00  0.00     0.037 A 
ATOM      5  C15 ZIN A   1      19.134   3.478  16.728  0.00  0.00     0.039 A 
ATOM      6  C16 ZIN A   1      19.238   2.090  16.714  0.00  0.00     0.077 A 
ATOM      7  C21 ZIN A   1      19.009   1.383  15.547  0.00  0.00     0.069 A 
ATOM      8  C22 ZIN A   1      18.676   2.067  14.385  0.00  0.00     0.066 A 
ATOM      9  N23 ZIN A   1      18.389   1.679  13.093  0.00  0.00    -0.331 N 
ATOM     10  H38 ZIN A   1      18.372   0.770  12.754  0.00  0.00     0.168 HD
ENDROOT
BRANCH   1  11
ATOM     11  S9  ZIN A   1      17.718   2.850  10.666  0.00  0.00     0.092 S 
ATOM     12  O10 ZIN A   1      17.319   4.199  10.466  0.00  0.00    -0.249 OA
BRANCH  11  13
ATOM     13  C8  ZIN A   1      19.314   2.565   9.851  0.00  0.00     0.179 C 
BRANCH  13  14
ATOM     14  C7  ZIN A   1      19.177   1.440   8.858  0.00  0.00     0.082 A 
ATOM     15  N6  ZIN A   1      19.025   1.716   7.576  0.00  0.00    -0.262 NA
ATOM     16  C5  ZIN A   1      18.900   0.767   6.669  0.00  0.00     0.120 A 
ATOM     17  C4  ZIN A   1      18.925  -0.567   7.029  0.00  0.00     0.059 A 
ATOM     18  C3  ZIN A   1      19.083  -0.904   8.369  0.00  0.00     0.104 A 
ATOM     19  C24 ZIN A   1      19.206   0.128   9.301  0.00  0.00     0.127 A 
BRANCH  18  20
ATOM     20  O2  ZIN A   1      19.113  -2.204   8.761  0.00  0.00    -0.353 OA
ATOM     21  C1  ZIN A   1      18.754  -3.185   7.786  0.00  0.00     0.210 C 
ENDBRANCH  18  20
BRANCH  19  22
ATOM     22  O25 ZIN A   1      19.363  -0.150  10.623  0.00  0.00    -0.351 OA
ATOM     23  C26 ZIN A   1      20.686  -0.458  11.068  0.00  0.00     0.210 C 
ENDBRANCH  19  22
ENDBRANCH  13  14
ENDBRANCH  11  13
ENDBRANCH   1  11
BRANCH   6  24
ATOM     24  O17 ZIN A   1      19.565   1.425  17.854  0.00  0.00    -0.290 OA
BRANCH  24  25
ATOM     25  C18 ZIN A   1      18.812   0.249  18.159  0.00  0.00     0.505 C 
ATOM     26  F19 ZIN A   1      19.685  -0.823  18.369  0.00  0.00    -0.184 F 
ATOM     27  F20 ZIN A   1      18.055   0.468  19.316  0.00  0.00    -0.184 F 
ENDBRANCH  24  25
ENDBRANCH   6  24
TORSDOF 7
ENDMDL
MODEL 7
REMARK VINA RESULT:      -7.4      5.429      9.532
REMARK  7 active torsions:
REMARK  status: ('A' for Active; 'I' for Inactive)
REMARK    1  A    between atoms: O2_2  and  C3_3 
REMARK    2  A    between atoms: C7_7  and  C8_8 
REMARK    3  A    between atoms: C8_8  and  S9_9 
REMARK    4  A    between atoms: S9_9  and  C11_11 
REMARK    5  A    between atoms: C16_16  and  O17_17 
REMARK    6  A    between atoms: O17_17  and  C18_18 
REMARK    7  A    between atoms: C24_24  and  O25_25 
ROOT
ATOM      1  C11 ZIN A   1      19.077  -0.185  11.463  0.00  0.00     0.198 A 
ATOM      2  N12 ZIN A   1      19.513   0.904  10.900  0.00  0.00    -0.221 NA
ATOM      3  C13 ZIN A   1      19.172   0.906   9.585  0.00  0.00     0.086 A 
ATOM      4  C14 ZIN A   1      19.381   1.808   8.539  0.00  0.00     0.037 A 
ATOM      5  C15 ZIN A   1      18.904   1.526   7.290  0.00  0.00     0.039 A 
ATOM      6  C16 ZIN A   1      18.209   0.345   7.047  0.00  0.00     0.077 A 
ATOM      7  C21 ZIN A   1      17.991  -0.562   8.068  0.00  0.00     0.069 A 
ATOM      8  C22 ZIN A   1      18.470  -0.287   9.343  0.00  0.00     0.066 A 
ATOM      9  N23 ZIN A   1      18.431  -0.958  10.548  0.00  0.00    -0.331 N 
ATOM     10  H38 ZIN A   1      18.019  -1.821  10.713  0.00  0.00     0.168 HD
ENDROOT
BRANCH   1  11
ATOM     11  S9  ZIN A   1      19.297  -0.601  13.161  0.00  0.00     0.092 S 
ATOM     12  O10 ZIN A   1      20.460   0.132  13.521  0.00  0.00    -0.249 OA
BRANCH  11  13
ATOM     13  C8  ZIN A   1      17.845   0.143  13.956  0.00  0.00     0.179 C 
BRANCH  13  14
ATOM     14  C7  ZIN A   1      18.234   1.455  14.584  0.00  0.00     0.082 A 
ATOM     15  N6  ZIN A   1      18.080   2.576  13.904  0.00  0.00    -0.262 NA
ATOM     16  C5  ZIN A   1      18.406   3.749  14.410  0.00  0.00     0.120 A 
ATOM     17  C4  ZIN A   1      18.926   3.852  15.686  0.00  0.00     0.059 A 
ATOM     18  C3  ZIN A   1      19.107   2.697  16.439  0.00  0.00     0.104 A 
ATOM     19  C24 ZIN A   1      18.755   1.473  15.867  0.00  0.00     0.127 A 
BRANCH  18  20
ATOM     20  O2  ZIN A   1      19.615   2.758  17.697  0.00  0.00    -0.353 OA
ATOM     21  C1  ZIN A   1      18.756   3.266  18.720  0.00  0.00     0.210 C 
ENDBRANCH  18  20
BRANCH  19  22
ATOM     22  O25 ZIN A   1      18.912   0.315  16.563  0.00  0.00    -0.351 OA
ATOM     23  C26 ZIN A   1      17.839  -0.074  17.424  0.00  0.00     0.210 C 
ENDBRANCH  19  22
ENDBRANCH  13  14
ENDBRANCH  11  13
ENDBRANCH   1  11
BRANCH   6  24
ATOM     24  O17 ZIN A   1      17.741   0.080   5.797  0.00  0.00    -0.290 OA
BRANCH  24  25
ATOM     25  C18 ZIN A   1      18.704   0.022   4.743  0.00  0.00     0.505 C 
ATOM     26  F19 ZIN A   1      19.740  -0.845   5.105  0.00  0.00    -0.184 F 
ATOM     27  F20 ZIN A   1      18.089  -0.448   3.576  0.00  0.00    -0.184 F 
ENDBRANCH  24  25
ENDBRANCH   6  24
TORSDOF 7
ENDMDL
MODEL 8
REMARK VINA RESULT:      -7.4      5.425      9.264
REMARK  7 active torsions:
REMARK  status: ('A' for Active; 'I' for Inactive)
REMARK    1  A    between atoms: O2_2  and  C3_3 
REMARK    2  A    between atoms: C7_7  and  C8_8 
REMARK    3  A    between atoms: C8_8  and  S9_9 
REMARK    4  A    between atoms: S9_9  and  C11_11 
REMARK    5  A    between atoms: C16_16  and  O17_17 
REMARK    6  A    between atoms: O17_17  and  C18_18 
REMARK    7  A    between atoms: C24_24  and  O25_25 
ROOT
ATOM      1  C11 ZIN A   1      19.137   1.821  10.483  0.00  0.00     0.198 A 
ATOM      2  N12 ZIN A   1      18.161   0.981  10.301  0.00  0.00    -0.221 NA
ATOM      3  C13 ZIN A   1      18.051   0.687   8.978  0.00  0.00     0.086 A 
ATOM      4  C14 ZIN A   1      17.196  -0.138   8.244  0.00  0.00     0.037 A 
ATOM      5  C15 ZIN A   1      17.336  -0.230   6.888  0.00  0.00     0.039 A 
ATOM      6  C16 ZIN A   1      18.325   0.492   6.227  0.00  0.00     0.077 A 
ATOM      7  C21 ZIN A   1      19.182   1.315   6.935  0.00  0.00     0.069 A 
ATOM      8  C22 ZIN A   1      19.051   1.417   8.314  0.00  0.00     0.066 A 
ATOM      9  N23 ZIN A   1      19.717   2.128   9.290  0.00  0.00    -0.331 N 
ATOM     10  H38 ZIN A   1      20.463   2.734   9.154  0.00  0.00     0.168 HD
ENDROOT
BRANCH   1  11
ATOM     11  S9  ZIN A   1      19.631   2.471  12.045  0.00  0.00     0.092 S 
ATOM     12  O10 ZIN A   1      19.900   3.835  11.752  0.00  0.00    -0.249 OA
BRANCH  11  13
ATOM     13  C8  ZIN A   1      18.113   2.354  13.033  0.00  0.00     0.179 C 
BRANCH  13  14
ATOM     14  C7  ZIN A   1      18.471   2.286  14.495  0.00  0.00     0.082 A 
ATOM     15  N6  ZIN A   1      18.791   3.392  15.141  0.00  0.00    -0.262 NA
ATOM     16  C5  ZIN A   1      19.112   3.385  16.419  0.00  0.00     0.120 A 
ATOM     17  C4  ZIN A   1      19.124   2.207  17.141  0.00  0.00     0.059 A 
ATOM     18  C3  ZIN A   1      18.793   1.017  16.502  0.00  0.00     0.104 A 
ATOM     19  C24 ZIN A   1      18.465   1.063  15.145  0.00  0.00     0.127 A 
BRANCH  18  20
ATOM     20  O2  ZIN A   1      18.793  -0.161  17.178  0.00  0.00    -0.353 OA
ATOM     21  C1  ZIN A   1      19.231  -0.128  18.538  0.00  0.00     0.210 C 
ENDBRANCH  18  20
BRANCH  19  22
ATOM     22  O25 ZIN A   1      18.133  -0.073  14.476  0.00  0.00    -0.351 OA
ATOM     23  C26 ZIN A   1      19.210  -0.912  14.049  0.00  0.00     0.210 C 
ENDBRANCH  19  22
ENDBRANCH  13  14
ENDBRANCH  11  13
ENDBRANCH   1  11
BRANCH   6  24
ATOM     24  O17 ZIN A   1      18.449   0.388   4.876  0.00  0.00    -0.290 OA
BRANCH  24  25
ATOM     25  C18 ZIN A   1      18.827  -0.888   4.356  0.00  0.00     0.505 C 
ATOM     26  F19 ZIN A   1      19.627  -1.554   5.289  0.00  0.00    -0.184 F 
ATOM     27  F20 ZIN A   1      17.678  -1.646   4.102  0.00  0.00    -0.184 F 
ENDBRANCH  24  25
ENDBRANCH   6  24
TORSDOF 7
ENDMDL
MODEL 9
REMARK VINA RESULT:      -7.3      5.467      9.780
REMARK  7 active torsions:
REMARK  status: ('A' for Active; 'I' for Inactive)
REMARK    1  A    between atoms: O2_2  and  C3_3 
REMARK    2  A    between atoms: C7_7  and  C8_8 
REMARK    3  A    between atoms: C8_8  and  S9_9 
REMARK    4  A    between atoms: S9_9  and  C11_11 
REMARK    5  A    between atoms: C16_16  and  O17_17 
REMARK    6  A    between atoms: O17_17  and  C18_18 
REMARK    7  A    between atoms: C24_24  and  O25_25 
ROOT
ATOM      1  C11 ZIN A   1      19.018   2.187  10.710  0.00  0.00     0.198 A 
ATOM      2  N12 ZIN A   1      18.142   1.237  10.566  0.00  0.00    -0.221 NA
ATOM      3  C13 ZIN A   1      18.114   0.832   9.269  0.00  0.00     0.086 A 
ATOM      4  C14 ZIN A   1      17.378  -0.134   8.579  0.00  0.00     0.037 A 
ATOM      5  C15 ZIN A   1      17.579  -0.315   7.239  0.00  0.00     0.039 A 
ATOM      6  C16 ZIN A   1      18.512   0.455   6.552  0.00  0.00     0.077 A 
ATOM      7  C21 ZIN A   1      19.252   1.416   7.217  0.00  0.00     0.069 A 
ATOM      8  C22 ZIN A   1      19.058   1.610   8.578  0.00  0.00     0.066 A 
ATOM      9  N23 ZIN A   1      19.609   2.461   9.514  0.00  0.00    -0.331 N 
ATOM     10  H38 ZIN A   1      20.293   3.131   9.352  0.00  0.00     0.168 HD
ENDROOT
BRANCH   1  11
ATOM     11  S9  ZIN A   1      19.381   3.005  12.228  0.00  0.00     0.092 S 
ATOM     12  O10 ZIN A   1      19.524   4.362  11.833  0.00  0.00    -0.249 OA
BRANCH  11  13
ATOM     13  C8  ZIN A   1      17.845   2.809  13.173  0.00  0.00     0.179 C 
BRANCH  13  14
ATOM     14  C7  ZIN A   1      18.133   2.065  14.451  0.00  0.00     0.082 A 
ATOM     15  N6  ZIN A   1      17.789   0.795  14.558  0.00  0.00    -0.262 NA
ATOM     16  C5  ZIN A   1      18.020   0.101  15.655  0.00  0.00     0.120 A 
ATOM     17  C4  ZIN A   1      18.638   0.682  16.746  0.00  0.00     0.059 A 
ATOM     18  C3  ZIN A   1      19.017   2.018  16.678  0.00  0.00     0.104 A 
ATOM     19  C24 ZIN A   1      18.751   2.722  15.502  0.00  0.00     0.127 A 
BRANCH  18  20
ATOM     20  O2  ZIN A   1      19.628   2.623  17.729  0.00  0.00    -0.353 OA
ATOM     21  C1  ZIN A   1      18.830   2.865  18.890  0.00  0.00     0.210 C 
ENDBRANCH  18  20
BRANCH  19  22
ATOM     22  O25 ZIN A   1      19.104   4.030  15.385  0.00  0.00    -0.351 OA
ATOM     23  C26 ZIN A   1      18.187   4.997  15.904  0.00  0.00     0.210 C 
ENDBRANCH  19  22
ENDBRANCH  13  14
ENDBRANCH  11  13
ENDBRANCH   1  11
BRANCH   6  24
ATOM     24  O17 ZIN A   1      18.699   0.260   5.219  0.00  0.00    -0.290 OA
BRANCH  24  25
ATOM     25  C18 ZIN A   1      18.403  -1.039   4.704  0.00  0.00     0.505 C 
ATOM     26  F19 ZIN A   1      17.544  -0.921   3.607  0.00  0.00    -0.184 F 
ATOM     27  F20 ZIN A   1      19.590  -1.663   4.303  0.00  0.00    -0.184 F 
ENDBRANCH  24  25
ENDBRANCH   6  24
TORSDOF 7
ENDMDL
