MODEL 1
REMARK VINA RESULT:      -8.1      0.000      0.000
REMARK  4 active torsions:
REMARK  status: ('A' for Active; 'I' for Inactive)
REMARK    1  A    between atoms: C5_5  and  C6_6 
REMARK    2  A    between atoms: C6_6  and  C14_14 
REMARK    3  A    between atoms: C7_7  and  C8_8 
REMARK    4  A    between atoms: C8_8  and  N9_9 
ROOT
ATOM      1  C6  ZIN A   1      18.825   1.884  10.579  0.00  0.00     0.001 C 
ATOM      2  C7  ZIN A   1      19.718   1.294  11.382  0.00  0.00     0.018 C 
ENDROOT
BRANCH   1   3
ATOM      3  C5  ZIN A   1      18.527   1.302   9.248  0.00  0.00    -0.024 A 
ATOM      4  C4  ZIN A   1      17.512   0.356   9.108  0.00  0.00     0.013 A 
ATOM      5  C3  ZIN A   1      17.241  -0.182   7.867  0.00  0.00     0.007 A 
ATOM      6  C2  ZIN A   1      17.972   0.217   6.762  0.00  0.00    -0.062 A 
ATOM      7  C1  ZIN A   1      17.670  -0.375   5.410  0.00  0.00     0.048 C 
ATOM      8  C21 ZIN A   1      18.983   1.151   6.895  0.00  0.00     0.007 A 
ATOM      9  C20 ZIN A   1      19.260   1.699   8.131  0.00  0.00     0.013 A 
ENDBRANCH   1   3
BRANCH   1  10
ATOM     10  C14 ZIN A   1      18.131   3.117  11.022  0.00  0.00     0.067 A 
ATOM     11  N19 ZIN A   1      17.800   3.264  12.299  0.00  0.00    -0.260 NA
ATOM     12  C18 ZIN A   1      17.188   4.345  12.734  0.00  0.00     0.117 A 
ATOM     13  C17 ZIN A   1      16.855   5.370  11.867  0.00  0.00     0.019 A 
ATOM     14  C16 ZIN A   1      17.178   5.255  10.522  0.00  0.00     0.004 A 
ATOM     15  C15 ZIN A   1      17.825   4.110  10.093  0.00  0.00     0.032 A 
ENDBRANCH   1  10
BRANCH   2  16
ATOM     16  C8  ZIN A   1      20.422   0.040  10.934  0.00  0.00     0.300 C 
BRANCH  16  17
ATOM     17  N9  ZIN A   1      20.088  -1.062  11.847  0.00  0.00     0.091 N 
ATOM     18  C13 ZIN A   1      19.188  -2.037  11.193  0.00  0.00     0.273 C 
ATOM     19  C12 ZIN A   1      18.245  -2.582  12.281  0.00  0.00     0.032 C 
ATOM     20  C11 ZIN A   1      18.645  -1.834  13.574  0.00  0.00     0.032 C 
ATOM     21  C10 ZIN A   1      19.349  -0.564  13.035  0.00  0.00     0.273 C 
ENDBRANCH  16  17
ENDBRANCH   2  16
TORSDOF 4
ENDMDL
MODEL 2
REMARK VINA RESULT:      -7.8      2.283      5.649
REMARK  4 active torsions:
REMARK  status: ('A' for Active; 'I' for Inactive)
REMARK    1  A    between atoms: C5_5  and  C6_6 
REMARK    2  A    between atoms: C6_6  and  C14_14 
REMARK    3  A    between atoms: C7_7  and  C8_8 
REMARK    4  A    between atoms: C8_8  and  N9_9 
ROOT
ATOM      1  C6  ZIN A   1      19.137  -1.010  13.045  0.00  0.00     0.001 C 
ATOM      2  C7  ZIN A   1      19.784   0.001  12.453  0.00  0.00     0.018 C 
ENDROOT
BRANCH   1   3
ATOM      3  C5  ZIN A   1      18.835  -2.245  12.281  0.00  0.00    -0.024 A 
ATOM      4  C4  ZIN A   1      19.833  -3.194  12.063  0.00  0.00     0.013 A 
ATOM      5  C3  ZIN A   1      19.547  -4.341  11.351  0.00  0.00     0.007 A 
ATOM      6  C2  ZIN A   1      18.273  -4.551  10.857  0.00  0.00    -0.062 A 
ATOM      7  C1  ZIN A   1      17.967  -5.806  10.080  0.00  0.00     0.048 C 
ATOM      8  C21 ZIN A   1      17.279  -3.611  11.065  0.00  0.00     0.007 A 
ATOM      9  C20 ZIN A   1      17.553  -2.462  11.780  0.00  0.00     0.013 A 
ENDBRANCH   1   3
BRANCH   1  10
ATOM     10  C14 ZIN A   1      18.723  -0.894  14.464  0.00  0.00     0.067 A 
ATOM     11  N19 ZIN A   1      17.702  -0.111  14.790  0.00  0.00    -0.260 NA
ATOM     12  C18 ZIN A   1      17.299   0.016  16.037  0.00  0.00     0.117 A 
ATOM     13  C17 ZIN A   1      17.939  -0.658  17.061  0.00  0.00     0.019 A 
ATOM     14  C16 ZIN A   1      19.014  -1.484  16.765  0.00  0.00     0.004 A 
ATOM     15  C15 ZIN A   1      19.412  -1.603  15.445  0.00  0.00     0.032 A 
ENDBRANCH   1  10
BRANCH   2  16
ATOM     16  C8  ZIN A   1      20.207  -0.115  11.012  0.00  0.00     0.300 C 
BRANCH  16  17
ATOM     17  N9  ZIN A   1      19.249   0.605  10.161  0.00  0.00     0.091 N 
ATOM     18  C13 ZIN A   1      19.606   0.472   8.732  0.00  0.00     0.273 C 
ATOM     19  C12 ZIN A   1      19.218   1.794   8.044  0.00  0.00     0.032 C 
ATOM     20  C11 ZIN A   1      18.652   2.686   9.174  0.00  0.00     0.032 C 
ATOM     21  C10 ZIN A   1      19.271   2.062  10.450  0.00  0.00     0.273 C 
ENDBRANCH  16  17
ENDBRANCH   2  16
TORSDOF 4
ENDMDL
MODEL 3
REMARK VINA RESULT:      -7.8      0.989      1.141
REMARK  4 active torsions:
REMARK  status: ('A' for Active; 'I' for Inactive)
REMARK    1  A    between atoms: C5_5  and  C6_6 
REMARK    2  A    between atoms: C6_6  and  C14_14 
REMARK    3  A    between atoms: C7_7  and  C8_8 
REMARK    4  A    between atoms: C8_8  and  N9_9 
ROOT
ATOM      1  C6  ZIN A   1      18.601   1.436  10.400  0.00  0.00     0.001 C 
ATOM      2  C7  ZIN A   1      19.207   0.610  11.261  0.00  0.00     0.018 C 
ENDROOT
BRANCH   1   3
ATOM      3  C5  ZIN A   1      18.456   1.046   8.976  0.00  0.00    -0.024 A 
ATOM      4  C4  ZIN A   1      17.416   0.205   8.584  0.00  0.00     0.013 A 
ATOM      5  C3  ZIN A   1      17.286  -0.154   7.257  0.00  0.00     0.007 A 
ATOM      6  C2  ZIN A   1      18.184   0.320   6.319  0.00  0.00    -0.062 A 
ATOM      7  C1  ZIN A   1      18.037  -0.076   4.872  0.00  0.00     0.048 C 
ATOM      8  C21 ZIN A   1      19.222   1.151   6.703  0.00  0.00     0.007 A 
ATOM      9  C20 ZIN A   1      19.358   1.521   8.025  0.00  0.00     0.013 A 
ENDBRANCH   1   3
BRANCH   1  10
ATOM     10  C14 ZIN A   1      18.075   2.740  10.870  0.00  0.00     0.067 A 
ATOM     11  N19 ZIN A   1      17.740   2.893  12.146  0.00  0.00    -0.260 NA
ATOM     12  C18 ZIN A   1      17.272   4.035  12.605  0.00  0.00     0.117 A 
ATOM     13  C17 ZIN A   1      17.101   5.120  11.765  0.00  0.00     0.019 A 
ATOM     14  C16 ZIN A   1      17.434   5.002  10.424  0.00  0.00     0.004 A 
ATOM     15  C15 ZIN A   1      17.927   3.792   9.969  0.00  0.00     0.032 A 
ENDBRANCH   1  10
BRANCH   2  16
ATOM     16  C8  ZIN A   1      19.742  -0.716  10.784  0.00  0.00     0.300 C 
BRANCH  16  17
ATOM     17  N9  ZIN A   1      19.183  -1.795  11.610  0.00  0.00     0.091 N 
ATOM     18  C13 ZIN A   1      19.980  -3.033  11.474  0.00  0.00     0.273 C 
ATOM     19  C12 ZIN A   1      18.999  -4.216  11.576  0.00  0.00     0.032 C 
ATOM     20  C11 ZIN A   1      17.604  -3.569  11.746  0.00  0.00     0.032 C 
ATOM     21  C10 ZIN A   1      17.809  -2.147  11.168  0.00  0.00     0.273 C 
ENDBRANCH  16  17
ENDBRANCH   2  16
TORSDOF 4
ENDMDL
MODEL 4
REMARK VINA RESULT:      -7.7      2.316      7.115
REMARK  4 active torsions:
REMARK  status: ('A' for Active; 'I' for Inactive)
REMARK    1  A    between atoms: C5_5  and  C6_6 
REMARK    2  A    between atoms: C6_6  and  C14_14 
REMARK    3  A    between atoms: C7_7  and  C8_8 
REMARK    4  A    between atoms: C8_8  and  N9_9 
ROOT
ATOM      1  C6  ZIN A   1      19.257  -1.245  12.421  0.00  0.00     0.001 C 
ATOM      2  C7  ZIN A   1      19.956  -0.357  11.705  0.00  0.00     0.018 C 
ENDROOT
BRANCH   1   3
ATOM      3  C5  ZIN A   1      18.823  -0.909  13.799  0.00  0.00    -0.024 A 
ATOM      4  C4  ZIN A   1      17.794   0.009  14.004  0.00  0.00     0.013 A 
ATOM      5  C3  ZIN A   1      17.395   0.317  15.289  0.00  0.00     0.007 A 
ATOM      6  C2  ZIN A   1      18.012  -0.283  16.371  0.00  0.00    -0.062 A 
ATOM      7  C1  ZIN A   1      17.571   0.058  17.771  0.00  0.00     0.048 C 
ATOM      8  C21 ZIN A   1      19.037  -1.191  16.173  0.00  0.00     0.007 A 
ATOM      9  C20 ZIN A   1      19.441  -1.511  14.893  0.00  0.00     0.013 A 
ENDBRANCH   1   3
BRANCH   1  10
ATOM     10  C14 ZIN A   1      18.915  -2.564  11.835  0.00  0.00     0.067 A 
ATOM     11  N19 ZIN A   1      17.643  -2.881  11.626  0.00  0.00    -0.260 NA
ATOM     12  C18 ZIN A   1      17.296  -4.039  11.104  0.00  0.00     0.117 A 
ATOM     13  C17 ZIN A   1      18.253  -4.978  10.764  0.00  0.00     0.019 A 
ATOM     14  C16 ZIN A   1      19.594  -4.690  10.971  0.00  0.00     0.004 A 
ATOM     15  C15 ZIN A   1      19.929  -3.463  11.517  0.00  0.00     0.032 A 
ENDBRANCH   1  10
BRANCH   2  16
ATOM     16  C8  ZIN A   1      20.303   0.984  12.298  0.00  0.00     0.300 C 
BRANCH  16  17
ATOM     17  N9  ZIN A   1      19.911   2.048  11.365  0.00  0.00     0.091 N 
ATOM     18  C13 ZIN A   1      18.880   2.924  11.963  0.00  0.00     0.273 C 
ATOM     19  C12 ZIN A   1      17.951   3.373  10.821  0.00  0.00     0.032 C 
ATOM     20  C11 ZIN A   1      18.499   2.674   9.555  0.00  0.00     0.032 C 
ATOM     21  C10 ZIN A   1      19.297   1.481  10.137  0.00  0.00     0.273 C 
ENDBRANCH  16  17
ENDBRANCH   2  16
TORSDOF 4
ENDMDL
MODEL 5
REMARK VINA RESULT:      -7.4      1.506      5.786
REMARK  4 active torsions:
REMARK  status: ('A' for Active; 'I' for Inactive)
REMARK    1  A    between atoms: C5_5  and  C6_6 
REMARK    2  A    between atoms: C6_6  and  C14_14 
REMARK    3  A    between atoms: C7_7  and  C8_8 
REMARK    4  A    between atoms: C8_8  and  N9_9 
ROOT
ATOM      1  C6  ZIN A   1      18.903   1.773  10.550  0.00  0.00     0.001 C 
ATOM      2  C7  ZIN A   1      19.362   3.028  10.613  0.00  0.00     0.018 C 
ENDROOT
BRANCH   1   3
ATOM      3  C5  ZIN A   1      18.771   0.969  11.790  0.00  0.00    -0.024 A 
ATOM      4  C4  ZIN A   1      17.637   1.100  12.591  0.00  0.00     0.013 A 
ATOM      5  C3  ZIN A   1      17.521   0.350  13.744  0.00  0.00     0.007 A 
ATOM      6  C2  ZIN A   1      18.525  -0.531  14.104  0.00  0.00    -0.062 A 
ATOM      7  C1  ZIN A   1      18.391  -1.347  15.363  0.00  0.00     0.048 C 
ATOM      8  C21 ZIN A   1      19.654  -0.660  13.315  0.00  0.00     0.007 A 
ATOM      9  C20 ZIN A   1      19.779   0.081  12.158  0.00  0.00     0.013 A 
ENDBRANCH   1   3
BRANCH   1  10
ATOM     10  C14 ZIN A   1      18.524   1.187   9.242  0.00  0.00     0.067 A 
ATOM     11  N19 ZIN A   1      17.574   0.262   9.186  0.00  0.00    -0.260 NA
ATOM     12  C18 ZIN A   1      17.205  -0.281   8.044  0.00  0.00     0.117 A 
ATOM     13  C17 ZIN A   1      17.808   0.088   6.855  0.00  0.00     0.019 A 
ATOM     14  C16 ZIN A   1      18.810   1.047   6.870  0.00  0.00     0.004 A 
ATOM     15  C15 ZIN A   1      19.174   1.604   8.083  0.00  0.00     0.032 A 
ENDBRANCH   1  10
BRANCH   2  16
ATOM     16  C8  ZIN A   1      19.745   3.626  11.941  0.00  0.00     0.300 C 
BRANCH  16  17
ATOM     17  N9  ZIN A   1      18.824   4.722  12.270  0.00  0.00     0.091 N 
ATOM     18  C13 ZIN A   1      18.321   4.594  13.655  0.00  0.00     0.273 C 
ATOM     19  C12 ZIN A   1      16.872   5.116  13.660  0.00  0.00     0.032 C 
ATOM     20  C11 ZIN A   1      16.582   5.513  12.194  0.00  0.00     0.032 C 
ATOM     21  C10 ZIN A   1      17.622   4.686  11.398  0.00  0.00     0.273 C 
ENDBRANCH  16  17
ENDBRANCH   2  16
TORSDOF 4
ENDMDL
MODEL 6
REMARK VINA RESULT:      -7.4      1.574      4.528
REMARK  4 active torsions:
REMARK  status: ('A' for Active; 'I' for Inactive)
REMARK    1  A    between atoms: C5_5  and  C6_6 
REMARK    2  A    between atoms: C6_6  and  C14_14 
REMARK    3  A    between atoms: C7_7  and  C8_8 
REMARK    4  A    between atoms: C8_8  and  N9_9 
ROOT
ATOM      1  C6  ZIN A   1      18.483   2.049   9.825  0.00  0.00     0.001 C 
ATOM      2  C7  ZIN A   1      18.915   2.242   8.574  0.00  0.00     0.018 C 
ENDROOT
BRANCH   1   3
ATOM      3  C5  ZIN A   1      18.517   0.691  10.421  0.00  0.00    -0.024 A 
ATOM      4  C4  ZIN A   1      19.699   0.198  10.971  0.00  0.00     0.013 A 
ATOM      5  C3  ZIN A   1      19.725  -1.066  11.523  0.00  0.00     0.007 A 
ATOM      6  C2  ZIN A   1      18.580  -1.843  11.533  0.00  0.00    -0.062 A 
ATOM      7  C1  ZIN A   1      18.615  -3.223  12.138  0.00  0.00     0.048 C 
ATOM      8  C21 ZIN A   1      17.406  -1.361  10.984  0.00  0.00     0.007 A 
ATOM      9  C20 ZIN A   1      17.367  -0.096  10.434  0.00  0.00     0.013 A 
ENDBRANCH   1   3
BRANCH   1  10
ATOM     10  C14 ZIN A   1      17.971   3.194  10.616  0.00  0.00     0.067 A 
ATOM     11  N19 ZIN A   1      17.795   3.063  11.926  0.00  0.00    -0.260 NA
ATOM     12  C18 ZIN A   1      17.347   4.056  12.665  0.00  0.00     0.117 A 
ATOM     13  C17 ZIN A   1      17.030   5.277  12.098  0.00  0.00     0.019 A 
ATOM     14  C16 ZIN A   1      17.193   5.455  10.731  0.00  0.00     0.004 A 
ATOM     15  C15 ZIN A   1      17.670   4.396   9.979  0.00  0.00     0.032 A 
ENDBRANCH   1  10
BRANCH   2  16
ATOM     16  C8  ZIN A   1      19.437   1.080   7.769  0.00  0.00     0.300 C 
BRANCH  16  17
ATOM     17  N9  ZIN A   1      18.637   0.933   6.545  0.00  0.00     0.091 N 
ATOM     18  C13 ZIN A   1      17.579  -0.086   6.723  0.00  0.00     0.273 C 
ATOM     19  C12 ZIN A   1      17.398  -0.790   5.366  0.00  0.00     0.032 C 
ATOM     20  C11 ZIN A   1      18.436  -0.131   4.427  0.00  0.00     0.032 C 
ATOM     21  C10 ZIN A   1      19.475   0.454   5.416  0.00  0.00     0.273 C 
ENDBRANCH  16  17
ENDBRANCH   2  16
TORSDOF 4
ENDMDL
MODEL 7
REMARK VINA RESULT:      -7.4      2.244      4.785
REMARK  4 active torsions:
REMARK  status: ('A' for Active; 'I' for Inactive)
REMARK    1  A    between atoms: C5_5  and  C6_6 
REMARK    2  A    between atoms: C6_6  and  C14_14 
REMARK    3  A    between atoms: C7_7  and  C8_8 
REMARK    4  A    between atoms: C8_8  and  N9_9 
ROOT
ATOM      1  C6  ZIN A   1      19.289  -0.651  11.738  0.00  0.00     0.001 C 
ATOM      2  C7  ZIN A   1      19.714  -0.231  12.935  0.00  0.00     0.018 C 
ENDROOT
BRANCH   1   3
ATOM      3  C5  ZIN A   1      18.849  -2.057  11.559  0.00  0.00    -0.024 A 
ATOM      4  C4  ZIN A   1      19.793  -3.071  11.406  0.00  0.00     0.013 A 
ATOM      5  C3  ZIN A   1      19.378  -4.377  11.240  0.00  0.00     0.007 A 
ATOM      6  C2  ZIN A   1      18.029  -4.680  11.227  0.00  0.00    -0.062 A 
ATOM      7  C1  ZIN A   1      17.583  -6.108  11.045  0.00  0.00     0.048 C 
ATOM      8  C21 ZIN A   1      17.087  -3.677  11.373  0.00  0.00     0.007 A 
ATOM      9  C20 ZIN A   1      17.491  -2.369  11.545  0.00  0.00     0.013 A 
ENDBRANCH   1   3
BRANCH   1  10
ATOM     10  C14 ZIN A   1      19.256   0.288  10.591  0.00  0.00     0.067 A 
ATOM     11  N19 ZIN A   1      18.996   1.573  10.801  0.00  0.00    -0.260 NA
ATOM     12  C18 ZIN A   1      18.962   2.441   9.811  0.00  0.00     0.117 A 
ATOM     13  C17 ZIN A   1      19.185   2.039   8.507  0.00  0.00     0.019 A 
ATOM     14  C16 ZIN A   1      19.455   0.704   8.243  0.00  0.00     0.004 A 
ATOM     15  C15 ZIN A   1      19.490  -0.186   9.302  0.00  0.00     0.032 A 
ENDBRANCH   1  10
BRANCH   2  16
ATOM     16  C8  ZIN A   1      19.747  -1.184  14.101  0.00  0.00     0.300 C 
BRANCH  16  17
ATOM     17  N9  ZIN A   1      19.121  -0.549  15.270  0.00  0.00     0.091 N 
ATOM     18  C13 ZIN A   1      18.825  -1.549  16.320  0.00  0.00     0.273 C 
ATOM     19  C12 ZIN A   1      17.526  -1.101  17.015  0.00  0.00     0.032 C 
ATOM     20  C11 ZIN A   1      17.095   0.186  16.276  0.00  0.00     0.032 C 
ATOM     21  C10 ZIN A   1      17.815   0.059  14.910  0.00  0.00     0.273 C 
ENDBRANCH  16  17
ENDBRANCH   2  16
TORSDOF 4
ENDMDL
MODEL 8
REMARK VINA RESULT:      -7.3      2.296      5.619
REMARK  4 active torsions:
REMARK  status: ('A' for Active; 'I' for Inactive)
REMARK    1  A    between atoms: C5_5  and  C6_6 
REMARK    2  A    between atoms: C6_6  and  C14_14 
REMARK    3  A    between atoms: C7_7  and  C8_8 
REMARK    4  A    between atoms: C8_8  and  N9_9 
ROOT
ATOM      1  C6  ZIN A   1      17.829  -0.764  13.037  0.00  0.00     0.001 C 
ATOM      2  C7  ZIN A   1      17.191   0.227  12.402  0.00  0.00     0.018 C 
ENDROOT
BRANCH   1   3
ATOM      3  C5  ZIN A   1      18.316  -1.939  12.275  0.00  0.00    -0.024 A 
ATOM      4  C4  ZIN A   1      17.435  -2.960  11.925  0.00  0.00     0.013 A 
ATOM      5  C3  ZIN A   1      17.894  -4.052  11.216  0.00  0.00     0.007 A 
ATOM      6  C2  ZIN A   1      19.226  -4.133  10.853  0.00  0.00    -0.062 A 
ATOM      7  C1  ZIN A   1      19.722  -5.328  10.079  0.00  0.00     0.048 C 
ATOM      8  C21 ZIN A   1      20.107  -3.125  11.203  0.00  0.00     0.007 A 
ATOM      9  C20 ZIN A   1      19.657  -2.027  11.907  0.00  0.00     0.013 A 
ENDBRANCH   1   3
BRANCH   1  10
ATOM     10  C14 ZIN A   1      18.049  -0.685  14.501  0.00  0.00     0.067 A 
ATOM     11  N19 ZIN A   1      18.815  -1.588  15.102  0.00  0.00    -0.260 NA
ATOM     12  C18 ZIN A   1      19.039  -1.551  16.398  0.00  0.00     0.117 A 
ATOM     13  C17 ZIN A   1      18.470  -0.569  17.189  0.00  0.00     0.019 A 
ATOM     14  C16 ZIN A   1      17.659   0.391  16.603  0.00  0.00     0.004 A 
ATOM     15  C15 ZIN A   1      17.444   0.331  15.238  0.00  0.00     0.032 A 
ENDBRANCH   1  10
BRANCH   2  16
ATOM     16  C8  ZIN A   1      16.968   0.148  10.914  0.00  0.00     0.300 C 
BRANCH  16  17
ATOM     17  N9  ZIN A   1      18.129   0.717  10.215  0.00  0.00     0.091 N 
ATOM     18  C13 ZIN A   1      18.263   2.162  10.500  0.00  0.00     0.273 C 
ATOM     19  C12 ZIN A   1      18.813   2.825   9.224  0.00  0.00     0.032 C 
ATOM     20  C11 ZIN A   1      18.950   1.676   8.198  0.00  0.00     0.032 C 
ATOM     21  C10 ZIN A   1      17.968   0.609   8.742  0.00  0.00     0.273 C 
ENDBRANCH  16  17
ENDBRANCH   2  16
TORSDOF 4
ENDMDL
MODEL 9
REMARK VINA RESULT:      -7.3      2.745      5.804
REMARK  4 active torsions:
REMARK  status: ('A' for Active; 'I' for Inactive)
REMARK    1  A    between atoms: C5_5  and  C6_6 
REMARK    2  A    between atoms: C6_6  and  C14_14 
REMARK    3  A    between atoms: C7_7  and  C8_8 
REMARK    4  A    between atoms: C8_8  and  N9_9 
ROOT
ATOM      1  C6  ZIN A   1      18.984  -1.453  12.568  0.00  0.00     0.001 C 
ATOM      2  C7  ZIN A   1      19.396  -1.488  13.841  0.00  0.00     0.018 C 
ENDROOT
BRANCH   1   3
ATOM      3  C5  ZIN A   1      18.764  -0.149  11.896  0.00  0.00    -0.024 A 
ATOM      4  C4  ZIN A   1      19.752   0.389  11.072  0.00  0.00     0.013 A 
ATOM      5  C3  ZIN A   1      19.541   1.603  10.449  0.00  0.00     0.007 A 
ATOM      6  C2  ZIN A   1      18.352   2.283  10.640  0.00  0.00    -0.062 A 
ATOM      7  C1  ZIN A   1      18.129   3.608   9.958  0.00  0.00     0.048 C 
ATOM      8  C21 ZIN A   1      17.371   1.757  11.461  0.00  0.00     0.007 A 
ATOM      9  C20 ZIN A   1      17.569   0.542  12.084  0.00  0.00     0.013 A 
ENDBRANCH   1   3
BRANCH   1  10
ATOM     10  C14 ZIN A   1      18.751  -2.717  11.830  0.00  0.00     0.067 A 
ATOM     11  N19 ZIN A   1      17.509  -3.105  11.564  0.00  0.00    -0.260 NA
ATOM     12  C18 ZIN A   1      17.258  -4.219  10.908  0.00  0.00     0.117 A 
ATOM     13  C17 ZIN A   1      18.288  -5.036  10.479  0.00  0.00     0.019 A 
ATOM     14  C16 ZIN A   1      19.601  -4.671  10.739  0.00  0.00     0.004 A 
ATOM     15  C15 ZIN A   1      19.835  -3.494  11.427  0.00  0.00     0.032 A 
ENDBRANCH   1  10
BRANCH   2  16
ATOM     16  C8  ZIN A   1      19.634  -0.204  14.591  0.00  0.00     0.300 C 
BRANCH  16  17
ATOM     17  N9  ZIN A   1      18.924  -0.249  15.877  0.00  0.00     0.091 N 
ATOM     18  C13 ZIN A   1      18.607  -1.643  16.258  0.00  0.00     0.273 C 
ATOM     19  C12 ZIN A   1      17.257  -1.612  16.998  0.00  0.00     0.032 C 
ATOM     20  C11 ZIN A   1      16.821  -0.129  16.982  0.00  0.00     0.032 C 
ATOM     21  C10 ZIN A   1      17.618   0.454  15.789  0.00  0.00     0.273 C 
ENDBRANCH  16  17
ENDBRANCH   2  16
TORSDOF 4
ENDMDL
