MODEL 1
REMARK VINA RESULT:      -7.8      0.000      0.000
REMARK  6 active torsions:
REMARK  status: ('A' for Active; 'I' for Inactive)
REMARK    1  A    between atoms: C5_5  and  C6_6 
REMARK    2  A    between atoms: C6_6  and  O7_7 
REMARK    3  A    between atoms: O7_7  and  C8_8 
REMARK    4  A    between atoms: C8_8  and  C10_9 
REMARK    5  A    between atoms: C8_8  and  C17_16 
REMARK    6  A    between atoms: C10_9  and  N11_10 
ROOT
ATOM      1  C8  ZIN A   1      19.210  -0.801  13.113  0.00  0.00     0.174 C 
ENDROOT
BRANCH   1   2
ATOM      2  O7  ZIN A   1      20.298  -0.102  12.504  0.00  0.00    -0.375 OA
BRANCH   2   3
ATOM      3  C6  ZIN A   1      19.972   1.222  12.076  0.00  0.00     0.209 C 
BRANCH   3   4
ATOM      4  C5  ZIN A   1      19.670   1.212  10.599  0.00  0.00    -0.013 A 
ATOM      5  C4  ZIN A   1      19.984   0.102   9.837  0.00  0.00     0.012 A 
ATOM      6  C3  ZIN A   1      19.708   0.093   8.483  0.00  0.00     0.024 A 
ATOM      7  C2  ZIN A   1      19.119   1.196   7.889  0.00  0.00     0.035 A 
ATOM      8 Cl1  ZIN A   1      18.772   1.183   6.188  0.00  0.00    -0.084 Cl
ATOM      9  C27 ZIN A   1      18.810   2.308   8.651  0.00  0.00     0.048 A 
ATOM     10  C25 ZIN A   1      19.081   2.315  10.007  0.00  0.00     0.044 A 
ATOM     11 Cl26 ZIN A   1      18.688   3.709  10.964  0.00  0.00    -0.084 Cl
ENDBRANCH   3   4
ENDBRANCH   2   3
ENDBRANCH   1   2
BRANCH   1  12
ATOM     12  C10 ZIN A   1      19.614  -1.248  14.520  0.00  0.00     0.166 C 
BRANCH  12  13
ATOM     13  N11 ZIN A   1      18.680  -0.685  15.498  0.00  0.00    -0.349 N 
ATOM     14  C16 ZIN A   1      17.685   0.192  15.242  0.00  0.00     0.182 A 
ATOM     15  N14 ZIN A   1      17.067   0.460  16.360  0.00  0.00    -0.361 N 
ATOM     16  C13 ZIN A   1      17.645  -0.223  17.360  0.00  0.00     0.106 A 
ATOM     17  H15 ZIN A   1      16.311   1.061  16.454  0.00  0.00     0.166 HD
ATOM     18  C12 ZIN A   1      18.656  -0.945  16.842  0.00  0.00     0.108 A 
ENDBRANCH  12  13
ENDBRANCH   1  12
BRANCH   1  19
ATOM     19  C17 ZIN A   1      18.862  -2.009  12.283  0.00  0.00    -0.006 A 
ATOM     20  C23 ZIN A   1      17.704  -2.017  11.525  0.00  0.00     0.044 A 
ATOM     21  C22 ZIN A   1      17.387  -3.125  10.759  0.00  0.00     0.048 A 
ATOM     22 Cl24 ZIN A   1      16.656  -0.634  11.527  0.00  0.00    -0.084 Cl
ATOM     23  C20 ZIN A   1      18.223  -4.227  10.758  0.00  0.00     0.035 A 
ATOM     24  C19 ZIN A   1      19.377  -4.220  11.521  0.00  0.00     0.024 A 
ATOM     25 Cl21 ZIN A   1      17.822  -5.619   9.802  0.00  0.00    -0.084 Cl
ATOM     26  C18 ZIN A   1      19.696  -3.111  12.282  0.00  0.00     0.013 A 
ENDBRANCH   1  19
TORSDOF 6
ENDMDL
MODEL 2
REMARK VINA RESULT:      -7.7      3.887      6.384
REMARK  6 active torsions:
REMARK  status: ('A' for Active; 'I' for Inactive)
REMARK    1  A    between atoms: C5_5  and  C6_6 
REMARK    2  A    between atoms: C6_6  and  O7_7 
REMARK    3  A    between atoms: O7_7  and  C8_8 
REMARK    4  A    between atoms: C8_8  and  C10_9 
REMARK    5  A    between atoms: C8_8  and  C17_16 
REMARK    6  A    between atoms: C10_9  and  N11_10 
ROOT
ATOM      1  C8  ZIN A   1      18.026   1.117  10.616  0.00  0.00     0.174 C 
ENDROOT
BRANCH   1   2
ATOM      2  O7  ZIN A   1      17.132   2.222  10.767  0.00  0.00    -0.375 OA
BRANCH   2   3
ATOM      3  C6  ZIN A   1      17.714   3.489  10.450  0.00  0.00     0.209 C 
BRANCH   3   4
ATOM      4  C5  ZIN A   1      17.873   4.298  11.711  0.00  0.00    -0.013 A 
ATOM      5  C4  ZIN A   1      16.798   5.003  12.220  0.00  0.00     0.012 A 
ATOM      6  C3  ZIN A   1      16.943   5.746  13.376  0.00  0.00     0.024 A 
ATOM      7  C2  ZIN A   1      18.166   5.785  14.024  0.00  0.00     0.035 A 
ATOM      8 Cl1  ZIN A   1      18.347   6.719  15.477  0.00  0.00    -0.084 Cl
ATOM      9  C27 ZIN A   1      19.243   5.085  13.512  0.00  0.00     0.048 A 
ATOM     10  C25 ZIN A   1      19.095   4.337  12.358  0.00  0.00     0.044 A 
ATOM     11 Cl26 ZIN A   1      20.445   3.453  11.719  0.00  0.00    -0.084 Cl
ENDBRANCH   3   4
ENDBRANCH   2   3
ENDBRANCH   1   2
BRANCH   1  12
ATOM     12  C10 ZIN A   1      17.398   0.077   9.685  0.00  0.00     0.166 C 
BRANCH  12  13
ATOM     13  N11 ZIN A   1      17.832   0.330   8.308  0.00  0.00    -0.349 N 
ATOM     14  C16 ZIN A   1      17.229  -0.116   7.184  0.00  0.00     0.182 A 
ATOM     15  N14 ZIN A   1      17.901   0.313   6.152  0.00  0.00    -0.361 N 
ATOM     16  C13 ZIN A   1      18.951   1.033   6.575  0.00  0.00     0.106 A 
ATOM     17  H15 ZIN A   1      17.679   0.136   5.224  0.00  0.00     0.166 HD
ATOM     18  C12 ZIN A   1      18.925   1.056   7.921  0.00  0.00     0.108 A 
ENDBRANCH  12  13
ENDBRANCH   1  12
BRANCH   1  19
ATOM     19  C17 ZIN A   1      18.286   0.494  11.963  0.00  0.00    -0.006 A 
ATOM     20  C23 ZIN A   1      19.444  -0.233  12.176  0.00  0.00     0.044 A 
ATOM     21  C22 ZIN A   1      19.685  -0.801  13.415  0.00  0.00     0.048 A 
ATOM     22 Cl24 ZIN A   1      20.598  -0.423  10.894  0.00  0.00    -0.084 Cl
ATOM     23  C20 ZIN A   1      18.764  -0.650  14.435  0.00  0.00     0.035 A 
ATOM     24  C19 ZIN A   1      17.604   0.073  14.219  0.00  0.00     0.024 A 
ATOM     25 Cl21 ZIN A   1      19.063  -1.367  15.988  0.00  0.00    -0.084 Cl
ATOM     26  C18 ZIN A   1      17.366   0.645  12.983  0.00  0.00     0.013 A 
ENDBRANCH   1  19
TORSDOF 6
ENDMDL
MODEL 3
REMARK VINA RESULT:      -7.6      2.800      5.048
REMARK  6 active torsions:
REMARK  status: ('A' for Active; 'I' for Inactive)
REMARK    1  A    between atoms: C5_5  and  C6_6 
REMARK    2  A    between atoms: C6_6  and  O7_7 
REMARK    3  A    between atoms: O7_7  and  C8_8 
REMARK    4  A    between atoms: C8_8  and  C10_9 
REMARK    5  A    between atoms: C8_8  and  C17_16 
REMARK    6  A    between atoms: C10_9  and  N11_10 
ROOT
ATOM      1  C8  ZIN A   1      18.242  -1.182  11.870  0.00  0.00     0.174 C 
ENDROOT
BRANCH   1   2
ATOM      2  O7  ZIN A   1      17.031  -0.768  11.233  0.00  0.00    -0.375 OA
BRANCH   2   3
ATOM      3  C6  ZIN A   1      17.072   0.565  10.719  0.00  0.00     0.209 C 
BRANCH   3   4
ATOM      4  C5  ZIN A   1      17.648   0.548   9.326  0.00  0.00    -0.013 A 
ATOM      5  C4  ZIN A   1      17.240  -0.414   8.421  0.00  0.00     0.012 A 
ATOM      6  C3  ZIN A   1      17.768  -0.430   7.144  0.00  0.00     0.024 A 
ATOM      7  C2  ZIN A   1      18.706   0.517   6.771  0.00  0.00     0.035 A 
ATOM      8 Cl1  ZIN A   1      19.369   0.496   5.167  0.00  0.00    -0.084 Cl
ATOM      9  C27 ZIN A   1      19.119   1.476   7.678  0.00  0.00     0.048 A 
ATOM     10  C25 ZIN A   1      18.586   1.495   8.954  0.00  0.00     0.044 A 
ATOM     11 Cl26 ZIN A   1      19.099   2.703  10.091  0.00  0.00    -0.084 Cl
ENDBRANCH   3   4
ENDBRANCH   2   3
ENDBRANCH   1   2
BRANCH   1  12
ATOM     12  C10 ZIN A   1      18.151  -2.669  12.221  0.00  0.00     0.166 C 
BRANCH  12  13
ATOM     13  N11 ZIN A   1      18.733  -3.463  11.137  0.00  0.00    -0.349 N 
ATOM     14  C16 ZIN A   1      19.953  -4.045  11.136  0.00  0.00     0.182 A 
ATOM     15  N14 ZIN A   1      20.118  -4.667  10.002  0.00  0.00    -0.361 N 
ATOM     16  C13 ZIN A   1      19.025  -4.499   9.242  0.00  0.00     0.106 A 
ATOM     17  H15 ZIN A   1      20.908  -5.169   9.745  0.00  0.00     0.166 HD
ATOM     18  C12 ZIN A   1      18.147  -3.750   9.934  0.00  0.00     0.108 A 
ENDBRANCH  12  13
ENDBRANCH   1  12
BRANCH   1  19
ATOM     19  C17 ZIN A   1      18.446  -0.380  13.129  0.00  0.00    -0.006 A 
ATOM     20  C23 ZIN A   1      19.588   0.387  13.283  0.00  0.00     0.044 A 
ATOM     21  C22 ZIN A   1      19.773   1.128  14.436  0.00  0.00     0.048 A 
ATOM     22 Cl24 ZIN A   1      20.782   0.429  12.023  0.00  0.00    -0.084 Cl
ATOM     23  C20 ZIN A   1      18.822   1.093  15.440  0.00  0.00     0.035 A 
ATOM     24  C19 ZIN A   1      17.683   0.322  15.288  0.00  0.00     0.024 A 
ATOM     25 Cl21 ZIN A   1      19.056   2.017  16.891  0.00  0.00    -0.084 Cl
ATOM     26  C18 ZIN A   1      17.496  -0.414  14.132  0.00  0.00     0.013 A 
ENDBRANCH   1  19
TORSDOF 6
ENDMDL
MODEL 4
REMARK VINA RESULT:      -7.4      3.015      6.046
REMARK  6 active torsions:
REMARK  status: ('A' for Active; 'I' for Inactive)
REMARK    1  A    between atoms: C5_5  and  C6_6 
REMARK    2  A    between atoms: C6_6  and  O7_7 
REMARK    3  A    between atoms: O7_7  and  C8_8 
REMARK    4  A    between atoms: C8_8  and  C10_9 
REMARK    5  A    between atoms: C8_8  and  C17_16 
REMARK    6  A    between atoms: C10_9  and  N11_10 
ROOT
ATOM      1  C8  ZIN A   1      18.951   2.033  10.659  0.00  0.00     0.174 C 
ENDROOT
BRANCH   1   2
ATOM      2  O7  ZIN A   1      18.720   1.099  11.717  0.00  0.00    -0.375 OA
BRANCH   2   3
ATOM      3  C6  ZIN A   1      19.886   0.788  12.482  0.00  0.00     0.209 C 
BRANCH   3   4
ATOM      4  C5  ZIN A   1      19.492   0.527  13.913  0.00  0.00    -0.013 A 
ATOM      5  C4  ZIN A   1      19.377   1.580  14.802  0.00  0.00     0.012 A 
ATOM      6  C3  ZIN A   1      19.017   1.341  16.114  0.00  0.00     0.024 A 
ATOM      7  C2  ZIN A   1      18.772   0.047  16.540  0.00  0.00     0.035 A 
ATOM      8 Cl1  ZIN A   1      18.319  -0.253  18.189  0.00  0.00    -0.084 Cl
ATOM      9  C27 ZIN A   1      18.893  -1.008  15.653  0.00  0.00     0.048 A 
ATOM     10  C25 ZIN A   1      19.248  -0.767  14.338  0.00  0.00     0.044 A 
ATOM     11 Cl26 ZIN A   1      19.393  -2.089  13.223  0.00  0.00    -0.084 Cl
ENDBRANCH   3   4
ENDBRANCH   2   3
ENDBRANCH   1   2
BRANCH   1  12
ATOM     12  C10 ZIN A   1      18.078   3.271  10.872  0.00  0.00     0.166 C 
BRANCH  12  13
ATOM     13  N11 ZIN A   1      18.581   4.032  12.019  0.00  0.00    -0.349 N 
ATOM     14  C16 ZIN A   1      19.866   4.380  12.247  0.00  0.00     0.182 A 
ATOM     15  N14 ZIN A   1      19.925   5.052  13.364  0.00  0.00    -0.361 N 
ATOM     16  C13 ZIN A   1      18.693   5.147  13.888  0.00  0.00     0.106 A 
ATOM     17  H15 ZIN A   1      20.732   5.421  13.757  0.00  0.00     0.166 HD
ATOM     18  C12 ZIN A   1      17.838   4.516  13.062  0.00  0.00     0.108 A 
ENDBRANCH  12  13
ENDBRANCH   1  12
BRANCH   1  19
ATOM     19  C17 ZIN A   1      18.602   1.393   9.340  0.00  0.00    -0.006 A 
ATOM     20  C23 ZIN A   1      17.601   0.440   9.277  0.00  0.00     0.044 A 
ATOM     21  C22 ZIN A   1      17.277  -0.144   8.065  0.00  0.00     0.048 A 
ATOM     22 Cl24 ZIN A   1      16.744  -0.016  10.717  0.00  0.00    -0.084 Cl
ATOM     23  C20 ZIN A   1      17.961   0.219   6.919  0.00  0.00     0.035 A 
ATOM     24  C19 ZIN A   1      18.965   1.169   6.984  0.00  0.00     0.024 A 
ATOM     25 Cl21 ZIN A   1      17.560  -0.516   5.399  0.00  0.00    -0.084 Cl
ATOM     26  C18 ZIN A   1      19.285   1.755   8.195  0.00  0.00     0.013 A 
ENDBRANCH   1  19
TORSDOF 6
ENDMDL
MODEL 5
REMARK VINA RESULT:      -7.4      1.185      2.162
REMARK  6 active torsions:
REMARK  status: ('A' for Active; 'I' for Inactive)
REMARK    1  A    between atoms: C5_5  and  C6_6 
REMARK    2  A    between atoms: C6_6  and  O7_7 
REMARK    3  A    between atoms: O7_7  and  C8_8 
REMARK    4  A    between atoms: C8_8  and  C10_9 
REMARK    5  A    between atoms: C8_8  and  C17_16 
REMARK    6  A    between atoms: C10_9  and  N11_10 
ROOT
ATOM      1  C8  ZIN A   1      19.185  -0.676  13.388  0.00  0.00     0.174 C 
ENDROOT
BRANCH   1   2
ATOM      2  O7  ZIN A   1      20.329   0.098  13.021  0.00  0.00    -0.375 OA
BRANCH   2   3
ATOM      3  C6  ZIN A   1      20.408   0.394  11.625  0.00  0.00     0.209 C 
BRANCH   3   4
ATOM      4  C5  ZIN A   1      19.624   1.647  11.333  0.00  0.00    -0.013 A 
ATOM      5  C4  ZIN A   1      19.499   2.626  12.301  0.00  0.00     0.012 A 
ATOM      6  C3  ZIN A   1      18.779   3.775  12.033  0.00  0.00     0.024 A 
ATOM      7  C2  ZIN A   1      18.183   3.946  10.796  0.00  0.00     0.035 A 
ATOM      8 Cl1  ZIN A   1      17.280   5.390  10.460  0.00  0.00    -0.084 Cl
ATOM      9  C27 ZIN A   1      18.303   2.964   9.829  0.00  0.00     0.048 A 
ATOM     10  C25 ZIN A   1      19.028   1.816  10.096  0.00  0.00     0.044 A 
ATOM     11 Cl26 ZIN A   1      19.184   0.587   8.880  0.00  0.00    -0.084 Cl
ENDBRANCH   3   4
ENDBRANCH   2   3
ENDBRANCH   1   2
BRANCH   1  12
ATOM     12  C10 ZIN A   1      19.419  -1.315  14.759  0.00  0.00     0.166 C 
BRANCH  12  13
ATOM     13  N11 ZIN A   1      18.612  -0.620  15.765  0.00  0.00    -0.349 N 
ATOM     14  C16 ZIN A   1      17.510   0.127  15.532  0.00  0.00     0.182 A 
ATOM     15  N14 ZIN A   1      17.064   0.579  16.671  0.00  0.00    -0.361 N 
ATOM     16  C13 ZIN A   1      17.862   0.150  17.661  0.00  0.00     0.106 A 
ATOM     17  H15 ZIN A   1      16.282   1.142  16.785  0.00  0.00     0.166 HD
ATOM     18  C12 ZIN A   1      18.836  -0.602  17.115  0.00  0.00     0.108 A 
ENDBRANCH  12  13
ENDBRANCH   1  12
BRANCH   1  19
ATOM     19  C17 ZIN A   1      18.961  -1.757  12.362  0.00  0.00    -0.006 A 
ATOM     20  C23 ZIN A   1      17.847  -1.712  11.542  0.00  0.00     0.044 A 
ATOM     21  C22 ZIN A   1      17.644  -2.701  10.597  0.00  0.00     0.048 A 
ATOM     22 Cl24 ZIN A   1      16.711  -0.408  11.692  0.00  0.00    -0.084 Cl
ATOM     23  C20 ZIN A   1      18.549  -3.740  10.478  0.00  0.00     0.035 A 
ATOM     24  C19 ZIN A   1      19.660  -3.788  11.302  0.00  0.00     0.024 A 
ATOM     25 Cl21 ZIN A   1      18.292  -4.986   9.296  0.00  0.00    -0.084 Cl
ATOM     26  C18 ZIN A   1      19.865  -2.795  12.244  0.00  0.00     0.013 A 
ENDBRANCH   1  19
TORSDOF 6
ENDMDL
MODEL 6
REMARK VINA RESULT:      -7.4      3.480      5.559
REMARK  6 active torsions:
REMARK  status: ('A' for Active; 'I' for Inactive)
REMARK    1  A    between atoms: C5_5  and  C6_6 
REMARK    2  A    between atoms: C6_6  and  O7_7 
REMARK    3  A    between atoms: O7_7  and  C8_8 
REMARK    4  A    between atoms: C8_8  and  C10_9 
REMARK    5  A    between atoms: C8_8  and  C17_16 
REMARK    6  A    between atoms: C10_9  and  N11_10 
ROOT
ATOM      1  C8  ZIN A   1      18.760   2.073  11.220  0.00  0.00     0.174 C 
ENDROOT
BRANCH   1   2
ATOM      2  O7  ZIN A   1      18.778   3.500  11.133  0.00  0.00    -0.375 OA
BRANCH   2   3
ATOM      3  C6  ZIN A   1      19.393   4.142  12.252  0.00  0.00     0.209 C 
BRANCH   3   4
ATOM      4  C5  ZIN A   1      18.367   4.972  12.981  0.00  0.00    -0.013 A 
ATOM      5  C4  ZIN A   1      17.047   4.957  12.570  0.00  0.00     0.012 A 
ATOM      6  C3  ZIN A   1      16.107   5.719  13.236  0.00  0.00     0.024 A 
ATOM      7  C2  ZIN A   1      16.486   6.498  14.316  0.00  0.00     0.035 A 
ATOM      8 Cl1  ZIN A   1      15.304   7.454  15.153  0.00  0.00    -0.084 Cl
ATOM      9  C27 ZIN A   1      17.808   6.518  14.723  0.00  0.00     0.048 A 
ATOM     10  C25 ZIN A   1      18.747   5.751  14.059  0.00  0.00     0.044 A 
ATOM     11 Cl26 ZIN A   1      20.405   5.771  14.575  0.00  0.00    -0.084 Cl
ENDBRANCH   3   4
ENDBRANCH   2   3
ENDBRANCH   1   2
BRANCH   1  12
ATOM     12  C10 ZIN A   1      20.103   1.578  11.761  0.00  0.00     0.166 C 
BRANCH  12  13
ATOM     13  N11 ZIN A   1      19.881   0.421  12.632  0.00  0.00    -0.349 N 
ATOM     14  C16 ZIN A   1      19.865  -0.876  12.252  0.00  0.00     0.182 A 
ATOM     15  N14 ZIN A   1      19.642  -1.616  13.303  0.00  0.00    -0.361 N 
ATOM     16  C13 ZIN A   1      19.499  -0.826  14.378  0.00  0.00     0.106 A 
ATOM     17  H15 ZIN A   1      19.583  -2.585  13.306  0.00  0.00     0.166 HD
ATOM     18  C12 ZIN A   1      19.646   0.451  13.980  0.00  0.00     0.108 A 
ENDBRANCH  12  13
ENDBRANCH   1  12
BRANCH   1  19
ATOM     19  C17 ZIN A   1      18.525   1.491   9.850  0.00  0.00    -0.006 A 
ATOM     20  C23 ZIN A   1      17.571   0.504   9.672  0.00  0.00     0.044 A 
ATOM     21  C22 ZIN A   1      17.352  -0.026   8.414  0.00  0.00     0.048 A 
ATOM     22 Cl24 ZIN A   1      16.642  -0.059  11.026  0.00  0.00    -0.084 Cl
ATOM     23  C20 ZIN A   1      18.093   0.422   7.335  0.00  0.00     0.035 A 
ATOM     24  C19 ZIN A   1      19.050   1.404   7.515  0.00  0.00     0.024 A 
ATOM     25 Cl21 ZIN A   1      17.822  -0.248   5.757  0.00  0.00    -0.084 Cl
ATOM     26  C18 ZIN A   1      19.266   1.938   8.772  0.00  0.00     0.013 A 
ENDBRANCH   1  19
TORSDOF 6
ENDMDL
MODEL 7
REMARK VINA RESULT:      -7.3      2.238      5.354
REMARK  6 active torsions:
REMARK  status: ('A' for Active; 'I' for Inactive)
REMARK    1  A    between atoms: C5_5  and  C6_6 
REMARK    2  A    between atoms: C6_6  and  O7_7 
REMARK    3  A    between atoms: O7_7  and  C8_8 
REMARK    4  A    between atoms: C8_8  and  C10_9 
REMARK    5  A    between atoms: C8_8  and  C17_16 
REMARK    6  A    between atoms: C10_9  and  N11_10 
ROOT
ATOM      1  C8  ZIN A   1      17.894  -0.941  11.709  0.00  0.00     0.174 C 
ENDROOT
BRANCH   1   2
ATOM      2  O7  ZIN A   1      17.039  -2.086  11.669  0.00  0.00    -0.375 OA
BRANCH   2   3
ATOM      3  C6  ZIN A   1      17.643  -3.279  12.173  0.00  0.00     0.209 C 
BRANCH   3   4
ATOM      4  C5  ZIN A   1      17.709  -4.310  11.075  0.00  0.00    -0.013 A 
ATOM      5  C4  ZIN A   1      16.548  -4.892  10.603  0.00  0.00     0.012 A 
ATOM      6  C3  ZIN A   1      16.608  -5.838   9.597  0.00  0.00     0.024 A 
ATOM      7  C2  ZIN A   1      17.831  -6.203   9.062  0.00  0.00     0.035 A 
ATOM      8 Cl1  ZIN A   1      17.906  -7.391   7.798  0.00  0.00    -0.084 Cl
ATOM      9  C27 ZIN A   1      18.994  -5.625   9.539  0.00  0.00     0.048 A 
ATOM     10  C25 ZIN A   1      18.933  -4.675  10.542  0.00  0.00     0.044 A 
ATOM     11 Cl26 ZIN A   1      20.391  -3.944  11.135  0.00  0.00    -0.084 Cl
ENDBRANCH   3   4
ENDBRANCH   2   3
ENDBRANCH   1   2
BRANCH   1  12
ATOM     12  C10 ZIN A   1      17.199   0.189  12.472  0.00  0.00     0.166 C 
BRANCH  12  13
ATOM     13  N11 ZIN A   1      18.057   0.634  13.573  0.00  0.00    -0.349 N 
ATOM     14  C16 ZIN A   1      18.959   1.639  13.529  0.00  0.00     0.182 A 
ATOM     15  N14 ZIN A   1      19.527   1.741  14.699  0.00  0.00    -0.361 N 
ATOM     16  C13 ZIN A   1      19.020   0.808  15.520  0.00  0.00     0.106 A 
ATOM     17  H15 ZIN A   1      20.212   2.386  14.938  0.00  0.00     0.166 HD
ATOM     18  C12 ZIN A   1      18.098   0.106  14.835  0.00  0.00     0.108 A 
ENDBRANCH  12  13
ENDBRANCH   1  12
BRANCH   1  19
ATOM     19  C17 ZIN A   1      18.191  -0.488  10.302  0.00  0.00    -0.006 A 
ATOM     20  C23 ZIN A   1      19.495  -0.221   9.923  0.00  0.00     0.044 A 
ATOM     21  C22 ZIN A   1      19.769   0.189   8.631  0.00  0.00     0.048 A 
ATOM     22 Cl24 ZIN A   1      20.788  -0.412  11.066  0.00  0.00    -0.084 Cl
ATOM     23  C20 ZIN A   1      18.738   0.342   7.721  0.00  0.00     0.035 A 
ATOM     24  C19 ZIN A   1      17.434   0.080   8.103  0.00  0.00     0.024 A 
ATOM     25 Cl21 ZIN A   1      19.080   0.864   6.101  0.00  0.00    -0.084 Cl
ATOM     26  C18 ZIN A   1      17.162  -0.335   9.394  0.00  0.00     0.013 A 
ENDBRANCH   1  19
TORSDOF 6
ENDMDL
MODEL 8
REMARK VINA RESULT:      -7.1      2.905      5.701
REMARK  6 active torsions:
REMARK  status: ('A' for Active; 'I' for Inactive)
REMARK    1  A    between atoms: C5_5  and  C6_6 
REMARK    2  A    between atoms: C6_6  and  O7_7 
REMARK    3  A    between atoms: O7_7  and  C8_8 
REMARK    4  A    between atoms: C8_8  and  C10_9 
REMARK    5  A    between atoms: C8_8  and  C17_16 
REMARK    6  A    between atoms: C10_9  and  N11_10 
ROOT
ATOM      1  C8  ZIN A   1      18.246  -0.817  10.994  0.00  0.00     0.174 C 
ENDROOT
BRANCH   1   2
ATOM      2  O7  ZIN A   1      18.148  -0.684  12.413  0.00  0.00    -0.375 OA
BRANCH   2   3
ATOM      3  C6  ZIN A   1      19.401  -0.459  13.064  0.00  0.00     0.209 C 
BRANCH   3   4
ATOM      4  C5  ZIN A   1      19.175  -0.298  14.545  0.00  0.00    -0.013 A 
ATOM      5  C4  ZIN A   1      19.187  -1.407  15.371  0.00  0.00     0.012 A 
ATOM      6  C3  ZIN A   1      18.979  -1.260  16.729  0.00  0.00     0.024 A 
ATOM      7  C2  ZIN A   1      18.759  -0.002  17.263  0.00  0.00     0.035 A 
ATOM      8 Cl1  ZIN A   1      18.499   0.182  18.970  0.00  0.00    -0.084 Cl
ATOM      9  C27 ZIN A   1      18.741   1.107  16.437  0.00  0.00     0.048 A 
ATOM     10  C25 ZIN A   1      18.954   0.959  15.078  0.00  0.00     0.044 A 
ATOM     11 Cl26 ZIN A   1      18.939   2.352  14.041  0.00  0.00    -0.084 Cl
ENDBRANCH   3   4
ENDBRANCH   2   3
ENDBRANCH   1   2
BRANCH   1  12
ATOM     12  C10 ZIN A   1      17.191   0.065  10.324  0.00  0.00     0.166 C 
BRANCH  12  13
ATOM     13  N11 ZIN A   1      17.746   1.402  10.094  0.00  0.00    -0.349 N 
ATOM     14  C16 ZIN A   1      18.614   1.751   9.120  0.00  0.00     0.182 A 
ATOM     15  N14 ZIN A   1      18.877   3.024   9.233  0.00  0.00    -0.361 N 
ATOM     16  C13 ZIN A   1      18.200   3.525  10.277  0.00  0.00     0.106 A 
ATOM     17  H15 ZIN A   1      19.472   3.529   8.655  0.00  0.00     0.166 HD
ATOM     18  C12 ZIN A   1      17.486   2.526  10.829  0.00  0.00     0.108 A 
ENDBRANCH  12  13
ENDBRANCH   1  12
BRANCH   1  19
ATOM     19  C17 ZIN A   1      18.017  -2.256  10.608  0.00  0.00    -0.006 A 
ATOM     20  C23 ZIN A   1      18.445  -2.718   9.376  0.00  0.00     0.044 A 
ATOM     21  C22 ZIN A   1      18.239  -4.040   9.024  0.00  0.00     0.048 A 
ATOM     22 Cl24 ZIN A   1      19.250  -1.642   8.277  0.00  0.00    -0.084 Cl
ATOM     23  C20 ZIN A   1      17.597  -4.896   9.900  0.00  0.00     0.035 A 
ATOM     24  C19 ZIN A   1      17.164  -4.432  11.129  0.00  0.00     0.024 A 
ATOM     25 Cl21 ZIN A   1      17.333  -6.554   9.456  0.00  0.00    -0.084 Cl
ATOM     26  C18 ZIN A   1      17.375  -3.111  11.482  0.00  0.00     0.013 A 
ENDBRANCH   1  19
TORSDOF 6
ENDMDL
MODEL 9
REMARK VINA RESULT:      -7.0      3.319      6.194
REMARK  6 active torsions:
REMARK  status: ('A' for Active; 'I' for Inactive)
REMARK    1  A    between atoms: C5_5  and  C6_6 
REMARK    2  A    between atoms: C6_6  and  O7_7 
REMARK    3  A    between atoms: O7_7  and  C8_8 
REMARK    4  A    between atoms: C8_8  and  C10_9 
REMARK    5  A    between atoms: C8_8  and  C17_16 
REMARK    6  A    between atoms: C10_9  and  N11_10 
ROOT
ATOM      1  C8  ZIN A   1      18.422   0.768  11.123  0.00  0.00     0.174 C 
ENDROOT
BRANCH   1   2
ATOM      2  O7  ZIN A   1      18.065   1.357  12.375  0.00  0.00    -0.375 OA
BRANCH   2   3
ATOM      3  C6  ZIN A   1      19.183   1.799  13.149  0.00  0.00     0.209 C 
BRANCH   3   4
ATOM      4  C5  ZIN A   1      19.028   1.325  14.571  0.00  0.00    -0.013 A 
ATOM      5  C4  ZIN A   1      18.871  -0.022  14.837  0.00  0.00     0.012 A 
ATOM      6  C3  ZIN A   1      18.728  -0.457  16.141  0.00  0.00     0.024 A 
ATOM      7  C2  ZIN A   1      18.741   0.456  17.181  0.00  0.00     0.035 A 
ATOM      8 Cl1  ZIN A   1      18.562  -0.091  18.819  0.00  0.00    -0.084 Cl
ATOM      9  C27 ZIN A   1      18.892   1.805  16.914  0.00  0.00     0.048 A 
ATOM     10  C25 ZIN A   1      19.040   2.239  15.609  0.00  0.00     0.044 A 
ATOM     11 Cl26 ZIN A   1      19.236   3.931  15.275  0.00  0.00    -0.084 Cl
ENDBRANCH   3   4
ENDBRANCH   2   3
ENDBRANCH   1   2
BRANCH   1  12
ATOM     12  C10 ZIN A   1      17.377   1.138  10.068  0.00  0.00     0.166 C 
BRANCH  12  13
ATOM     13  N11 ZIN A   1      17.879   0.784   8.738  0.00  0.00    -0.349 N 
ATOM     14  C16 ZIN A   1      17.347  -0.131   7.898  0.00  0.00     0.182 A 
ATOM     15  N14 ZIN A   1      18.065  -0.166   6.810  0.00  0.00    -0.361 N 
ATOM     16  C13 ZIN A   1      19.077   0.709   6.919  0.00  0.00     0.106 A 
ATOM     17  H15 ZIN A   1      17.897  -0.738   6.044  0.00  0.00     0.166 HD
ATOM     18  C12 ZIN A   1      18.978   1.314   8.117  0.00  0.00     0.108 A 
ENDBRANCH  12  13
ENDBRANCH   1  12
BRANCH   1  19
ATOM     19  C17 ZIN A   1      18.477  -0.731  11.271  0.00  0.00    -0.006 A 
ATOM     20  C23 ZIN A   1      19.678  -1.399  11.105  0.00  0.00     0.044 A 
ATOM     21  C22 ZIN A   1      19.729  -2.774  11.247  0.00  0.00     0.048 A 
ATOM     22 Cl24 ZIN A   1      21.122  -0.509  10.732  0.00  0.00    -0.084 Cl
ATOM     23  C20 ZIN A   1      18.579  -3.482  11.543  0.00  0.00     0.035 A 
ATOM     24  C19 ZIN A   1      17.377  -2.814  11.703  0.00  0.00     0.024 A 
ATOM     25 Cl21 ZIN A   1      18.641  -5.208  11.714  0.00  0.00    -0.084 Cl
ATOM     26  C18 ZIN A   1      17.328  -1.439  11.567  0.00  0.00     0.013 A 
ENDBRANCH   1  19
TORSDOF 6
ENDMDL
