MODEL 1
REMARK VINA RESULT:      -8.2      0.000      0.000
REMARK  10 active torsions:
REMARK  status: ('A' for Active; 'I' for Inactive)
REMARK    1  A    between atoms: O2_2  and  C3_3 
REMARK    2  A    between atoms: C8_8  and  O9_9 
REMARK    3  A    between atoms: O9_9  and  C10_10 
REMARK    4  A    between atoms: C10_10  and  C11_11 
REMARK    5  A    between atoms: C11_11  and  O13_12 
REMARK    6  A    between atoms: C11_11  and  C14_13 
REMARK    7  A    between atoms: C14_13  and  N15_14 
REMARK    8  A    between atoms: N18_17  and  C19_18 
REMARK    9  A    between atoms: C19_18  and  C20_19 
REMARK       I    between atoms: C20_19  and  N22_21 
REMARK   10  A    between atoms: N22_21  and  C23_22 
ROOT
ATOM      1  N15 ZIN A   1      18.430   2.824  11.485  0.00  0.00     0.094 N 
ATOM      2  C16 ZIN A   1      18.423   3.105  10.042  0.00  0.00     0.302 C 
ATOM      3  C17 ZIN A   1      19.288   2.070   9.319  0.00  0.00     0.303 C 
ATOM      4  N18 ZIN A   1      18.768   0.723   9.594  0.00  0.00     0.100 N 
ATOM      5  C31 ZIN A   1      18.777   0.443  11.037  0.00  0.00     0.303 C 
ATOM      6  C32 ZIN A   1      17.912   1.478  11.760  0.00  0.00     0.302 C 
ENDROOT
BRANCH   1   7
ATOM      7  C14 ZIN A   1      17.671   3.843  12.223  0.00  0.00     0.306 C 
BRANCH   7   8
ATOM      8  C11 ZIN A   1      18.476   4.298  13.441  0.00  0.00     0.170 C 
BRANCH   8   9
ATOM      9  C10 ZIN A   1      18.066   3.474  14.662  0.00  0.00     0.209 C 
BRANCH   9  10
ATOM     10  O9  ZIN A   1      19.108   2.553  14.989  0.00  0.00    -0.346 OA
BRANCH  10  11
ATOM     11  C8  ZIN A   1      18.755   1.445  15.695  0.00  0.00     0.102 A 
ATOM     12  C3  ZIN A   1      19.048   1.361  17.053  0.00  0.00     0.101 A 
ATOM     13  C4  ZIN A   1      18.686   0.230  17.767  0.00  0.00     0.039 A 
ATOM     14  C5  ZIN A   1      18.043  -0.814  17.129  0.00  0.00     0.003 A 
ATOM     15  C6  ZIN A   1      17.758  -0.733  15.778  0.00  0.00     0.003 A 
ATOM     16  C7  ZIN A   1      18.116   0.393  15.060  0.00  0.00     0.039 A 
BRANCH  12  17
ATOM     17  O2  ZIN A   1      19.681   2.388  17.679  0.00  0.00    -0.353 OA
ATOM     18  C1  ZIN A   1      18.897   3.189  18.566  0.00  0.00     0.210 C 
ENDBRANCH  12  17
ENDBRANCH  10  11
ENDBRANCH   9  10
ENDBRANCH   8   9
BRANCH   8  19
ATOM     19  O13 ZIN A   1      19.871   4.111  13.187  0.00  0.00    -0.392 OA
ATOM     20  H42 ZIN A   1      20.254   3.348  13.641  0.00  0.00     0.210 HD
ENDBRANCH   8  19
ENDBRANCH   7   8
ENDBRANCH   1   7
BRANCH   4  21
ATOM     21  C19 ZIN A   1      19.528  -0.295   8.856  0.00  0.00     0.375 C 
BRANCH  21  22
ATOM     22  C20 ZIN A   1      18.834  -1.627   8.980  0.00  0.00     0.250 C 
ATOM     23  O21 ZIN A   1      17.728  -1.781   8.508  0.00  0.00    -0.271 OA
ATOM     24  N22 ZIN A   1      19.444  -2.648   9.615  0.00  0.00    -0.325 N 
ATOM     25  H51 ZIN A   1      20.355  -2.547   9.932  0.00  0.00     0.169 HD
BRANCH  24  26
ATOM     26  C23 ZIN A   1      18.763  -3.853   9.816  0.00  0.00     0.046 A 
ATOM     27  C29 ZIN A   1      18.017  -4.047  10.971  0.00  0.00    -0.035 A 
ATOM     28  C28 ZIN A   1      17.342  -5.237  11.163  0.00  0.00     0.009 A 
ATOM     29  C30 ZIN A   1      17.934  -2.956  12.008  0.00  0.00     0.050 C 
ATOM     30  C27 ZIN A   1      17.418  -6.238  10.212  0.00  0.00     0.001 A 
ATOM     31  C26 ZIN A   1      18.165  -6.051   9.064  0.00  0.00     0.009 A 
ATOM     32  C24 ZIN A   1      18.838  -4.861   8.863  0.00  0.00    -0.035 A 
ATOM     33  C25 ZIN A   1      19.652  -4.657   7.611  0.00  0.00     0.050 C 
ENDBRANCH  24  26
ENDBRANCH  21  22
ENDBRANCH   4  21
TORSDOF 10
ENDMDL
MODEL 2
REMARK VINA RESULT:      -8.1      2.080      7.420
REMARK  10 active torsions:
REMARK  status: ('A' for Active; 'I' for Inactive)
REMARK    1  A    between atoms: O2_2  and  C3_3 
REMARK    2  A    between atoms: C8_8  and  O9_9 
REMARK    3  A    between atoms: O9_9  and  C10_10 
REMARK    4  A    between atoms: C10_10  and  C11_11 
REMARK    5  A    between atoms: C11_11  and  O13_12 
REMARK    6  A    between atoms: C11_11  and  C14_13 
REMARK    7  A    between atoms: C14_13  and  N15_14 
REMARK    8  A    between atoms: N18_17  and  C19_18 
REMARK    9  A    between atoms: C19_18  and  C20_19 
REMARK       I    between atoms: C20_19  and  N22_21 
REMARK   10  A    between atoms: N22_21  and  C23_22 
ROOT
ATOM      1  N15 ZIN A   1      17.871   0.168   7.185  0.00  0.00     0.094 N 
ATOM      2  C16 ZIN A   1      19.162   0.869   7.226  0.00  0.00     0.302 C 
ATOM      3  C17 ZIN A   1      19.114   1.958   8.301  0.00  0.00     0.303 C 
ATOM      4  N18 ZIN A   1      18.808   1.346   9.601  0.00  0.00     0.100 N 
ATOM      5  C31 ZIN A   1      17.517   0.646   9.560  0.00  0.00     0.303 C 
ATOM      6  C32 ZIN A   1      17.565  -0.443   8.485  0.00  0.00     0.302 C 
ENDROOT
BRANCH   1   7
ATOM      7  C14 ZIN A   1      17.852  -0.836   6.113  0.00  0.00     0.306 C 
BRANCH   7   8
ATOM      8  C11 ZIN A   1      19.163  -1.624   6.127  0.00  0.00     0.170 C 
BRANCH   8   9
ATOM      9  C10 ZIN A   1      18.869  -3.102   6.388  0.00  0.00     0.209 C 
BRANCH   9  10
ATOM     10  O9  ZIN A   1      19.292  -3.447   7.708  0.00  0.00    -0.346 OA
BRANCH  10  11
ATOM     11  C8  ZIN A   1      18.366  -4.019   8.524  0.00  0.00     0.102 A 
ATOM     12  C3  ZIN A   1      18.436  -3.827   9.901  0.00  0.00     0.101 A 
ATOM     13  C4  ZIN A   1      17.490  -4.412  10.727  0.00  0.00     0.039 A 
ATOM     14  C5  ZIN A   1      16.484  -5.189  10.184  0.00  0.00     0.003 A 
ATOM     15  C6  ZIN A   1      16.418  -5.384   8.817  0.00  0.00     0.003 A 
ATOM     16  C7  ZIN A   1      17.358  -4.804   7.987  0.00  0.00     0.039 A 
BRANCH  12  17
ATOM     17  O2  ZIN A   1      19.427  -3.063  10.433  0.00  0.00    -0.353 OA
ATOM     18  C1  ZIN A   1      20.227  -3.657  11.456  0.00  0.00     0.210 C 
ENDBRANCH  12  17
ENDBRANCH  10  11
ENDBRANCH   9  10
ENDBRANCH   8   9
BRANCH   8  19
ATOM     19  O13 ZIN A   1      19.817  -1.484   4.863  0.00  0.00    -0.392 OA
ATOM     20  H42 ZIN A   1      19.811  -0.581   4.515  0.00  0.00     0.210 HD
ENDBRANCH   8  19
ENDBRANCH   7   8
ENDBRANCH   1   7
BRANCH   4  21
ATOM     21  C19 ZIN A   1      18.828   2.351  10.674  0.00  0.00     0.375 C 
BRANCH  21  22
ATOM     22  C20 ZIN A   1      19.093   1.672  11.993  0.00  0.00     0.250 C 
ATOM     23  O21 ZIN A   1      20.193   1.222  12.233  0.00  0.00    -0.271 OA
ATOM     24  N22 ZIN A   1      18.107   1.567  12.906  0.00  0.00    -0.325 N 
ATOM     25  H51 ZIN A   1      17.248   1.987  12.743  0.00  0.00     0.169 HD
BRANCH  24  26
ATOM     26  C23 ZIN A   1      18.323   0.853  14.089  0.00  0.00     0.046 A 
ATOM     27  C29 ZIN A   1      18.147  -0.525  14.113  0.00  0.00    -0.035 A 
ATOM     28  C28 ZIN A   1      18.367  -1.227  15.282  0.00  0.00     0.009 A 
ATOM     29  C30 ZIN A   1      17.728  -1.254  12.863  0.00  0.00     0.050 C 
ATOM     30  C27 ZIN A   1      18.751  -0.559  16.431  0.00  0.00     0.001 A 
ATOM     31  C26 ZIN A   1      18.921   0.813  16.412  0.00  0.00     0.009 A 
ATOM     32  C24 ZIN A   1      18.709   1.521  15.244  0.00  0.00    -0.035 A 
ATOM     33  C25 ZIN A   1      18.895   3.016  15.224  0.00  0.00     0.050 C 
ENDBRANCH  24  26
ENDBRANCH  21  22
ENDBRANCH   4  21
TORSDOF 10
ENDMDL
MODEL 3
REMARK VINA RESULT:      -8.1      2.090      7.333
REMARK  10 active torsions:
REMARK  status: ('A' for Active; 'I' for Inactive)
REMARK    1  A    between atoms: O2_2  and  C3_3 
REMARK    2  A    between atoms: C8_8  and  O9_9 
REMARK    3  A    between atoms: O9_9  and  C10_10 
REMARK    4  A    between atoms: C10_10  and  C11_11 
REMARK    5  A    between atoms: C11_11  and  O13_12 
REMARK    6  A    between atoms: C11_11  and  C14_13 
REMARK    7  A    between atoms: C14_13  and  N15_14 
REMARK    8  A    between atoms: N18_17  and  C19_18 
REMARK    9  A    between atoms: C19_18  and  C20_19 
REMARK       I    between atoms: C20_19  and  N22_21 
REMARK   10  A    between atoms: N22_21  and  C23_22 
ROOT
ATOM      1  N15 ZIN A   1      17.911   0.150   7.082  0.00  0.00     0.094 N 
ATOM      2  C16 ZIN A   1      19.233   0.784   7.183  0.00  0.00     0.302 C 
ATOM      3  C17 ZIN A   1      19.189   1.882   8.248  0.00  0.00     0.303 C 
ATOM      4  N18 ZIN A   1      18.788   1.298   9.535  0.00  0.00     0.100 N 
ATOM      5  C31 ZIN A   1      17.466   0.665   9.434  0.00  0.00     0.303 C 
ATOM      6  C32 ZIN A   1      17.509  -0.434   8.369  0.00  0.00     0.302 C 
ENDROOT
BRANCH   1   7
ATOM      7  C14 ZIN A   1      17.892  -0.861   6.016  0.00  0.00     0.306 C 
BRANCH   7   8
ATOM      8  C11 ZIN A   1      19.215  -1.628   6.016  0.00  0.00     0.170 C 
BRANCH   8   9
ATOM      9  C10 ZIN A   1      18.955  -3.097   6.353  0.00  0.00     0.209 C 
BRANCH   9  10
ATOM     10  O9  ZIN A   1      19.329  -3.348   7.709  0.00  0.00    -0.346 OA
BRANCH  10  11
ATOM     11  C8  ZIN A   1      18.419  -3.987   8.493  0.00  0.00     0.102 A 
ATOM     12  C3  ZIN A   1      18.505  -3.894   9.879  0.00  0.00     0.101 A 
ATOM     13  C4  ZIN A   1      17.575  -4.547  10.672  0.00  0.00     0.039 A 
ATOM     14  C5  ZIN A   1      16.570  -5.294  10.087  0.00  0.00     0.003 A 
ATOM     15  C6  ZIN A   1      16.489  -5.391   8.711  0.00  0.00     0.003 A 
ATOM     16  C7  ZIN A   1      17.413  -4.743   7.913  0.00  0.00     0.039 A 
BRANCH  12  17
ATOM     17  O2  ZIN A   1      19.494  -3.159  10.453  0.00  0.00    -0.353 OA
ATOM     18  C1  ZIN A   1      20.233  -3.777  11.508  0.00  0.00     0.210 C 
ENDBRANCH  12  17
ENDBRANCH  10  11
ENDBRANCH   9  10
ENDBRANCH   8   9
BRANCH   8  19
ATOM     19  O13 ZIN A   1      19.819  -1.536   4.723  0.00  0.00    -0.392 OA
ATOM     20  H42 ZIN A   1      19.314  -1.008   4.090  0.00  0.00     0.210 HD
ENDBRANCH   8  19
ENDBRANCH   7   8
ENDBRANCH   1   7
BRANCH   4  21
ATOM     21  C19 ZIN A   1      18.807   2.309  10.601  0.00  0.00     0.375 C 
BRANCH  21  22
ATOM     22  C20 ZIN A   1      19.085   1.640  11.923  0.00  0.00     0.250 C 
ATOM     23  O21 ZIN A   1      20.196   1.219  12.167  0.00  0.00    -0.271 OA
ATOM     24  N22 ZIN A   1      18.099   1.510  12.833  0.00  0.00    -0.325 N 
ATOM     25  H51 ZIN A   1      17.230   1.907  12.666  0.00  0.00     0.169 HD
BRANCH  24  26
ATOM     26  C23 ZIN A   1      18.330   0.804  14.018  0.00  0.00     0.046 A 
ATOM     27  C29 ZIN A   1      18.728   1.480  15.164  0.00  0.00    -0.035 A 
ATOM     28  C28 ZIN A   1      18.949   0.780  16.334  0.00  0.00     0.009 A 
ATOM     29  C30 ZIN A   1      18.906   2.976  15.135  0.00  0.00     0.050 C 
ATOM     30  C27 ZIN A   1      18.787  -0.593  16.362  0.00  0.00     0.001 A 
ATOM     31  C26 ZIN A   1      18.396  -1.269  15.221  0.00  0.00     0.009 A 
ATOM     32  C24 ZIN A   1      18.167  -0.574  14.049  0.00  0.00    -0.035 A 
ATOM     33  C25 ZIN A   1      17.742  -1.312  12.806  0.00  0.00     0.050 C 
ENDBRANCH  24  26
ENDBRANCH  21  22
ENDBRANCH   4  21
TORSDOF 10
ENDMDL
MODEL 4
REMARK VINA RESULT:      -8.1      2.239      8.789
REMARK  10 active torsions:
REMARK  status: ('A' for Active; 'I' for Inactive)
REMARK    1  A    between atoms: O2_2  and  C3_3 
REMARK    2  A    between atoms: C8_8  and  O9_9 
REMARK    3  A    between atoms: O9_9  and  C10_10 
REMARK    4  A    between atoms: C10_10  and  C11_11 
REMARK    5  A    between atoms: C11_11  and  O13_12 
REMARK    6  A    between atoms: C11_11  and  C14_13 
REMARK    7  A    between atoms: C14_13  and  N15_14 
REMARK    8  A    between atoms: N18_17  and  C19_18 
REMARK    9  A    between atoms: C19_18  and  C20_19 
REMARK       I    between atoms: C20_19  and  N22_21 
REMARK   10  A    between atoms: N22_21  and  C23_22 
ROOT
ATOM      1  N15 ZIN A   1      19.230  -1.811  11.229  0.00  0.00     0.094 N 
ATOM      2  C16 ZIN A   1      17.988  -1.038  11.095  0.00  0.00     0.302 C 
ATOM      3  C17 ZIN A   1      18.046   0.181  12.019  0.00  0.00     0.303 C 
ATOM      4  N18 ZIN A   1      19.214   1.001  11.671  0.00  0.00     0.100 N 
ATOM      5  C31 ZIN A   1      20.457   0.228  11.806  0.00  0.00     0.303 C 
ATOM      6  C32 ZIN A   1      20.398  -0.991  10.881  0.00  0.00     0.302 C 
ENDROOT
BRANCH   1   7
ATOM      7  C14 ZIN A   1      19.182  -3.031  10.412  0.00  0.00     0.306 C 
BRANCH   7   8
ATOM      8  C11 ZIN A   1      17.852  -3.088   9.658  0.00  0.00     0.170 C 
BRANCH   8   9
ATOM      9  C10 ZIN A   1      18.120  -3.195   8.156  0.00  0.00     0.209 C 
BRANCH   9  10
ATOM     10  O9  ZIN A   1      19.327  -2.501   7.836  0.00  0.00    -0.346 OA
BRANCH  10  11
ATOM     11  C8  ZIN A   1      19.215  -1.396   7.051  0.00  0.00     0.102 A 
ATOM     12  C3  ZIN A   1      19.373  -1.502   5.671  0.00  0.00     0.101 A 
ATOM     13  C4  ZIN A   1      19.258  -0.373   4.876  0.00  0.00     0.039 A 
ATOM     14  C5  ZIN A   1      18.993   0.855   5.453  0.00  0.00     0.003 A 
ATOM     15  C6  ZIN A   1      18.842   0.961   6.823  0.00  0.00     0.003 A 
ATOM     16  C7  ZIN A   1      18.956  -0.161   7.623  0.00  0.00     0.039 A 
BRANCH  12  17
ATOM     17  O2  ZIN A   1      19.633  -2.710   5.106  0.00  0.00    -0.353 OA
ATOM     18  C1  ZIN A   1      18.569  -3.331   4.383  0.00  0.00     0.210 C 
ENDBRANCH  12  17
ENDBRANCH  10  11
ENDBRANCH   9  10
ENDBRANCH   8   9
BRANCH   8  19
ATOM     19  O13 ZIN A   1      17.107  -4.229  10.091  0.00  0.00    -0.392 OA
ATOM     20  H42 ZIN A   1      16.240  -4.015  10.463  0.00  0.00     0.210 HD
ENDBRANCH   8  19
ENDBRANCH   7   8
ENDBRANCH   1   7
BRANCH   4  21
ATOM     21  C19 ZIN A   1      19.262   2.222  12.488  0.00  0.00     0.375 C 
BRANCH  21  22
ATOM     22  C20 ZIN A   1      18.745   1.922  13.871  0.00  0.00     0.250 C 
ATOM     23  O21 ZIN A   1      17.592   2.169  14.154  0.00  0.00    -0.271 OA
ATOM     24  N22 ZIN A   1      19.565   1.378  14.793  0.00  0.00    -0.325 N 
ATOM     25  H51 ZIN A   1      20.466   1.117  14.548  0.00  0.00     0.169 HD
BRANCH  24  26
ATOM     26  C23 ZIN A   1      19.114   1.190  16.104  0.00  0.00     0.046 A 
ATOM     27  C29 ZIN A   1      19.200   2.226  17.025  0.00  0.00    -0.035 A 
ATOM     28  C28 ZIN A   1      18.750   2.038  18.317  0.00  0.00     0.009 A 
ATOM     29  C30 ZIN A   1      19.773   3.557  16.612  0.00  0.00     0.050 C 
ATOM     30  C27 ZIN A   1      18.224   0.816  18.697  0.00  0.00     0.001 A 
ATOM     31  C26 ZIN A   1      18.143  -0.219  17.784  0.00  0.00     0.009 A 
ATOM     32  C24 ZIN A   1      18.586  -0.036  16.489  0.00  0.00    -0.035 A 
ATOM     33  C25 ZIN A   1      18.498  -1.164  15.494  0.00  0.00     0.050 C 
ENDBRANCH  24  26
ENDBRANCH  21  22
ENDBRANCH   4  21
TORSDOF 10
ENDMDL
MODEL 5
REMARK VINA RESULT:      -8.1      2.245      8.850
REMARK  10 active torsions:
REMARK  status: ('A' for Active; 'I' for Inactive)
REMARK    1  A    between atoms: O2_2  and  C3_3 
REMARK    2  A    between atoms: C8_8  and  O9_9 
REMARK    3  A    between atoms: O9_9  and  C10_10 
REMARK    4  A    between atoms: C10_10  and  C11_11 
REMARK    5  A    between atoms: C11_11  and  O13_12 
REMARK    6  A    between atoms: C11_11  and  C14_13 
REMARK    7  A    between atoms: C14_13  and  N15_14 
REMARK    8  A    between atoms: N18_17  and  C19_18 
REMARK    9  A    between atoms: C19_18  and  C20_19 
REMARK       I    between atoms: C20_19  and  N22_21 
REMARK   10  A    between atoms: N22_21  and  C23_22 
ROOT
ATOM      1  N15 ZIN A   1      19.221  -1.774  11.230  0.00  0.00     0.094 N 
ATOM      2  C16 ZIN A   1      17.994  -0.988  11.044  0.00  0.00     0.302 C 
ATOM      3  C17 ZIN A   1      18.027   0.232  11.968  0.00  0.00     0.303 C 
ATOM      4  N18 ZIN A   1      19.216   1.039  11.668  0.00  0.00     0.100 N 
ATOM      5  C31 ZIN A   1      20.444   0.253  11.855  0.00  0.00     0.303 C 
ATOM      6  C32 ZIN A   1      20.411  -0.967  10.930  0.00  0.00     0.302 C 
ENDROOT
BRANCH   1   7
ATOM      7  C14 ZIN A   1      19.193  -2.995  10.413  0.00  0.00     0.306 C 
BRANCH   7   8
ATOM      8  C11 ZIN A   1      17.864  -3.077   9.662  0.00  0.00     0.170 C 
BRANCH   8   9
ATOM      9  C10 ZIN A   1      18.130  -3.155   8.158  0.00  0.00     0.209 C 
BRANCH   9  10
ATOM     10  O9  ZIN A   1      19.331  -2.447   7.848  0.00  0.00    -0.346 OA
BRANCH  10  11
ATOM     11  C8  ZIN A   1      19.218  -1.361   7.037  0.00  0.00     0.102 A 
ATOM     12  C3  ZIN A   1      19.357  -1.502   5.659  0.00  0.00     0.101 A 
ATOM     13  C4  ZIN A   1      19.241  -0.392   4.838  0.00  0.00     0.039 A 
ATOM     14  C5  ZIN A   1      18.993   0.852   5.388  0.00  0.00     0.003 A 
ATOM     15  C6  ZIN A   1      18.860   0.992   6.757  0.00  0.00     0.003 A 
ATOM     16  C7  ZIN A   1      18.975  -0.110   7.582  0.00  0.00     0.039 A 
BRANCH  12  17
ATOM     17  O2  ZIN A   1      19.601  -2.726   5.120  0.00  0.00    -0.353 OA
ATOM     18  C1  ZIN A   1      18.561  -3.306   4.332  0.00  0.00     0.210 C 
ENDBRANCH  12  17
ENDBRANCH  10  11
ENDBRANCH   9  10
ENDBRANCH   8   9
BRANCH   8  19
ATOM     19  O13 ZIN A   1      17.150  -4.243  10.080  0.00  0.00    -0.392 OA
ATOM     20  H42 ZIN A   1      17.453  -5.060   9.662  0.00  0.00     0.210 HD
ENDBRANCH   8  19
ENDBRANCH   7   8
ENDBRANCH   1   7
BRANCH   4  21
ATOM     21  C19 ZIN A   1      19.244   2.260  12.484  0.00  0.00     0.375 C 
BRANCH  21  22
ATOM     22  C20 ZIN A   1      18.729   1.952  13.866  0.00  0.00     0.250 C 
ATOM     23  O21 ZIN A   1      17.578   2.205  14.155  0.00  0.00    -0.271 OA
ATOM     24  N22 ZIN A   1      19.547   1.395  14.782  0.00  0.00    -0.325 N 
ATOM     25  H51 ZIN A   1      20.445   1.130  14.532  0.00  0.00     0.169 HD
BRANCH  24  26
ATOM     26  C23 ZIN A   1      19.099   1.199  16.093  0.00  0.00     0.046 A 
ATOM     27  C29 ZIN A   1      18.557  -0.024  16.467  0.00  0.00    -0.035 A 
ATOM     28  C28 ZIN A   1      18.122  -0.215  17.764  0.00  0.00     0.009 A 
ATOM     29  C30 ZIN A   1      18.457  -1.144  15.464  0.00  0.00     0.050 C 
ATOM     30  C27 ZIN A   1      18.213   0.812  18.685  0.00  0.00     0.001 A 
ATOM     31  C26 ZIN A   1      18.746   2.033  18.314  0.00  0.00     0.009 A 
ATOM     32  C24 ZIN A   1      19.190   2.229  17.020  0.00  0.00    -0.035 A 
ATOM     33  C25 ZIN A   1      19.771   3.559  16.615  0.00  0.00     0.050 C 
ENDBRANCH  24  26
ENDBRANCH  21  22
ENDBRANCH   4  21
TORSDOF 10
ENDMDL
MODEL 6
REMARK VINA RESULT:      -8.0      2.535      8.297
REMARK  10 active torsions:
REMARK  status: ('A' for Active; 'I' for Inactive)
REMARK    1  A    between atoms: O2_2  and  C3_3 
REMARK    2  A    between atoms: C8_8  and  O9_9 
REMARK    3  A    between atoms: O9_9  and  C10_10 
REMARK    4  A    between atoms: C10_10  and  C11_11 
REMARK    5  A    between atoms: C11_11  and  O13_12 
REMARK    6  A    between atoms: C11_11  and  C14_13 
REMARK    7  A    between atoms: C14_13  and  N15_14 
REMARK    8  A    between atoms: N18_17  and  C19_18 
REMARK    9  A    between atoms: C19_18  and  C20_19 
REMARK       I    between atoms: C20_19  and  N22_21 
REMARK   10  A    between atoms: N22_21  and  C23_22 
ROOT
ATOM      1  N15 ZIN A   1      19.394  -1.785   6.762  0.00  0.00     0.094 N 
ATOM      2  C16 ZIN A   1      19.237  -1.780   8.224  0.00  0.00     0.302 C 
ATOM      3  C17 ZIN A   1      19.599  -0.396   8.769  0.00  0.00     0.303 C 
ATOM      4  N18 ZIN A   1      18.735   0.615   8.145  0.00  0.00     0.100 N 
ATOM      5  C31 ZIN A   1      18.893   0.610   6.684  0.00  0.00     0.303 C 
ATOM      6  C32 ZIN A   1      18.531  -0.773   6.139  0.00  0.00     0.302 C 
ENDROOT
BRANCH   1   7
ATOM      7  C14 ZIN A   1      19.128  -3.119   6.209  0.00  0.00     0.306 C 
BRANCH   7   8
ATOM      8  C11 ZIN A   1      19.784  -4.180   7.094  0.00  0.00     0.170 C 
BRANCH   8   9
ATOM      9  C10 ZIN A   1      19.065  -5.517   6.908  0.00  0.00     0.209 C 
BRANCH   9  10
ATOM     10  O9  ZIN A   1      19.251  -6.325   8.071  0.00  0.00    -0.346 OA
BRANCH  10  11
ATOM     11  C8  ZIN A   1      18.845  -5.803   9.259  0.00  0.00     0.102 A 
ATOM     12  C3  ZIN A   1      17.532  -5.982   9.687  0.00  0.00     0.101 A 
ATOM     13  C4  ZIN A   1      17.124  -5.448  10.898  0.00  0.00     0.039 A 
ATOM     14  C5  ZIN A   1      18.016  -4.732  11.675  0.00  0.00     0.003 A 
ATOM     15  C6  ZIN A   1      19.317  -4.548  11.246  0.00  0.00     0.003 A 
ATOM     16  C7  ZIN A   1      19.732  -5.079  10.039  0.00  0.00     0.039 A 
BRANCH  12  17
ATOM     17  O2  ZIN A   1      16.656  -6.687   8.923  0.00  0.00    -0.353 OA
ATOM     18  C1  ZIN A   1      15.511  -5.985   8.435  0.00  0.00     0.210 C 
ENDBRANCH  12  17
ENDBRANCH  10  11
ENDBRANCH   9  10
ENDBRANCH   8   9
BRANCH   8  19
ATOM     19  O13 ZIN A   1      21.158  -4.324   6.727  0.00  0.00    -0.392 OA
ATOM     20  H42 ZIN A   1      21.735  -3.636   7.088  0.00  0.00     0.210 HD
ENDBRANCH   8  19
ENDBRANCH   7   8
ENDBRANCH   1   7
BRANCH   4  21
ATOM     21  C19 ZIN A   1      19.001   1.949   8.699  0.00  0.00     0.375 C 
BRANCH  21  22
ATOM     22  C20 ZIN A   1      18.697   1.951  10.175  0.00  0.00     0.250 C 
ATOM     23  O21 ZIN A   1      17.554   1.812  10.558  0.00  0.00    -0.271 OA
ATOM     24  N22 ZIN A   1      19.694   2.106  11.069  0.00  0.00    -0.325 N 
ATOM     25  H51 ZIN A   1      20.614   2.148  10.766  0.00  0.00     0.169 HD
BRANCH  24  26
ATOM     26  C23 ZIN A   1      19.401   2.206  12.433  0.00  0.00     0.046 A 
ATOM     27  C29 ZIN A   1      19.431   1.072  13.236  0.00  0.00    -0.035 A 
ATOM     28  C28 ZIN A   1      19.147   1.176  14.583  0.00  0.00     0.009 A 
ATOM     29  C30 ZIN A   1      19.786  -0.265  12.640  0.00  0.00     0.050 C 
ATOM     30  C27 ZIN A   1      18.821   2.403  15.131  0.00  0.00     0.001 A 
ATOM     31  C26 ZIN A   1      18.785   3.532  14.334  0.00  0.00     0.009 A 
ATOM     32  C24 ZIN A   1      19.074   3.437  12.986  0.00  0.00    -0.035 A 
ATOM     33  C25 ZIN A   1      19.033   4.667  12.117  0.00  0.00     0.050 C 
ENDBRANCH  24  26
ENDBRANCH  21  22
ENDBRANCH   4  21
TORSDOF 10
ENDMDL
MODEL 7
REMARK VINA RESULT:      -8.0      0.770      2.264
REMARK  10 active torsions:
REMARK  status: ('A' for Active; 'I' for Inactive)
REMARK    1  A    between atoms: O2_2  and  C3_3 
REMARK    2  A    between atoms: C8_8  and  O9_9 
REMARK    3  A    between atoms: O9_9  and  C10_10 
REMARK    4  A    between atoms: C10_10  and  C11_11 
REMARK    5  A    between atoms: C11_11  and  O13_12 
REMARK    6  A    between atoms: C11_11  and  C14_13 
REMARK    7  A    between atoms: C14_13  and  N15_14 
REMARK    8  A    between atoms: N18_17  and  C19_18 
REMARK    9  A    between atoms: C19_18  and  C20_19 
REMARK       I    between atoms: C20_19  and  N22_21 
REMARK   10  A    between atoms: N22_21  and  C23_22 
ROOT
ATOM      1  N15 ZIN A   1      18.477   2.905  11.399  0.00  0.00     0.094 N 
ATOM      2  C16 ZIN A   1      18.403   3.101   9.944  0.00  0.00     0.302 C 
ATOM      3  C17 ZIN A   1      19.256   2.041   9.245  0.00  0.00     0.303 C 
ATOM      4  N18 ZIN A   1      18.775   0.704   9.618  0.00  0.00     0.100 N 
ATOM      5  C31 ZIN A   1      18.850   0.507  11.073  0.00  0.00     0.303 C 
ATOM      6  C32 ZIN A   1      17.996   1.568  11.773  0.00  0.00     0.302 C 
ENDROOT
BRANCH   1   7
ATOM      7  C14 ZIN A   1      17.730   3.951  12.110  0.00  0.00     0.306 C 
BRANCH   7   8
ATOM      8  C11 ZIN A   1      18.632   4.596  13.163  0.00  0.00     0.170 C 
BRANCH   8   9
ATOM      9  C10 ZIN A   1      18.307   4.016  14.540  0.00  0.00     0.209 C 
BRANCH   9  10
ATOM     10  O9  ZIN A   1      19.134   2.877  14.785  0.00  0.00    -0.346 OA
BRANCH  10  11
ATOM     11  C8  ZIN A   1      19.094   2.341  16.035  0.00  0.00     0.102 A 
ATOM     12  C3  ZIN A   1      19.047   0.959  16.201  0.00  0.00     0.101 A 
ATOM     13  C4  ZIN A   1      19.006   0.420  17.476  0.00  0.00     0.039 A 
ATOM     14  C5  ZIN A   1      19.005   1.252  18.580  0.00  0.00     0.003 A 
ATOM     15  C6  ZIN A   1      19.046   2.624  18.414  0.00  0.00     0.003 A 
ATOM     16  C7  ZIN A   1      19.086   3.170  17.145  0.00  0.00     0.039 A 
BRANCH  12  17
ATOM     17  O2  ZIN A   1      19.048   0.142  15.114  0.00  0.00    -0.353 OA
ATOM     18  C1  ZIN A   1      18.506  -1.168  15.288  0.00  0.00     0.210 C 
ENDBRANCH  12  17
ENDBRANCH  10  11
ENDBRANCH   9  10
ENDBRANCH   8   9
BRANCH   8  19
ATOM     19  O13 ZIN A   1      20.001   4.331  12.846  0.00  0.00    -0.392 OA
ATOM     20  H42 ZIN A   1      20.581   4.278  13.618  0.00  0.00     0.210 HD
ENDBRANCH   8  19
ENDBRANCH   7   8
ENDBRANCH   1   7
BRANCH   4  21
ATOM     21  C19 ZIN A   1      19.521  -0.342   8.907  0.00  0.00     0.375 C 
BRANCH  21  22
ATOM     22  C20 ZIN A   1      18.811  -1.662   9.064  0.00  0.00     0.250 C 
ATOM     23  O21 ZIN A   1      17.709  -1.818   8.583  0.00  0.00    -0.271 OA
ATOM     24  N22 ZIN A   1      19.401  -2.669   9.739  0.00  0.00    -0.325 N 
ATOM     25  H51 ZIN A   1      20.310  -2.568  10.064  0.00  0.00     0.169 HD
BRANCH  24  26
ATOM     26  C23 ZIN A   1      18.705  -3.860   9.969  0.00  0.00     0.046 A 
ATOM     27  C29 ZIN A   1      18.800  -4.909   9.064  0.00  0.00    -0.035 A 
ATOM     28  C28 ZIN A   1      18.115  -6.085   9.298  0.00  0.00     0.009 A 
ATOM     29  C30 ZIN A   1      19.660  -4.768   7.835  0.00  0.00     0.050 C 
ATOM     30  C27 ZIN A   1      17.325  -6.214  10.426  0.00  0.00     0.001 A 
ATOM     31  C26 ZIN A   1      17.224  -5.170  11.326  0.00  0.00     0.009 A 
ATOM     32  C24 ZIN A   1      17.911  -3.993  11.102  0.00  0.00    -0.035 A 
ATOM     33  C25 ZIN A   1      17.799  -2.854  12.083  0.00  0.00     0.050 C 
ENDBRANCH  24  26
ENDBRANCH  21  22
ENDBRANCH   4  21
TORSDOF 10
ENDMDL
MODEL 8
REMARK VINA RESULT:      -7.9      2.220      4.942
REMARK  10 active torsions:
REMARK  status: ('A' for Active; 'I' for Inactive)
REMARK    1  A    between atoms: O2_2  and  C3_3 
REMARK    2  A    between atoms: C8_8  and  O9_9 
REMARK    3  A    between atoms: O9_9  and  C10_10 
REMARK    4  A    between atoms: C10_10  and  C11_11 
REMARK    5  A    between atoms: C11_11  and  O13_12 
REMARK    6  A    between atoms: C11_11  and  C14_13 
REMARK    7  A    between atoms: C14_13  and  N15_14 
REMARK    8  A    between atoms: N18_17  and  C19_18 
REMARK    9  A    between atoms: C19_18  and  C20_19 
REMARK       I    between atoms: C20_19  and  N22_21 
REMARK   10  A    between atoms: N22_21  and  C23_22 
ROOT
ATOM      1  N15 ZIN A   1      18.230   0.283  13.554  0.00  0.00     0.094 N 
ATOM      2  C16 ZIN A   1      17.576   0.408  12.244  0.00  0.00     0.302 C 
ATOM      3  C17 ZIN A   1      18.391  -0.352  11.195  0.00  0.00     0.303 C 
ATOM      4  N18 ZIN A   1      18.504  -1.762  11.592  0.00  0.00     0.100 N 
ATOM      5  C31 ZIN A   1      19.160  -1.886  12.902  0.00  0.00     0.303 C 
ATOM      6  C32 ZIN A   1      18.344  -1.126  13.951  0.00  0.00     0.302 C 
ENDROOT
BRANCH   1   7
ATOM      7  C14 ZIN A   1      17.517   1.063  14.575  0.00  0.00     0.306 C 
BRANCH   7   8
ATOM      8  C11 ZIN A   1      18.503   1.985  15.294  0.00  0.00     0.170 C 
BRANCH   8   9
ATOM      9  C10 ZIN A   1      19.490   2.568  14.281  0.00  0.00     0.209 C 
BRANCH   9  10
ATOM     10  O9  ZIN A   1      19.150   3.929  14.012  0.00  0.00    -0.346 OA
BRANCH  10  11
ATOM     11  C8  ZIN A   1      18.455   4.179  12.871  0.00  0.00     0.102 A 
ATOM     12  C3  ZIN A   1      17.222   4.823  12.932  0.00  0.00     0.101 A 
ATOM     13  C4  ZIN A   1      16.518   5.075  11.765  0.00  0.00     0.039 A 
ATOM     14  C5  ZIN A   1      17.036   4.681  10.546  0.00  0.00     0.003 A 
ATOM     15  C6  ZIN A   1      18.257   4.036  10.486  0.00  0.00     0.003 A 
ATOM     16  C7  ZIN A   1      18.965   3.781  11.646  0.00  0.00     0.039 A 
BRANCH  12  17
ATOM     17  O2  ZIN A   1      16.714   5.211  14.132  0.00  0.00    -0.353 OA
ATOM     18  C1  ZIN A   1      16.832   6.593  14.471  0.00  0.00     0.210 C 
ENDBRANCH  12  17
ENDBRANCH  10  11
ENDBRANCH   9  10
ENDBRANCH   8   9
BRANCH   8  19
ATOM     19  O13 ZIN A   1      17.787   3.048  15.927  0.00  0.00    -0.392 OA
ATOM     20  H42 ZIN A   1      17.342   2.790  16.746  0.00  0.00     0.210 HD
ENDBRANCH   8  19
ENDBRANCH   7   8
ENDBRANCH   1   7
BRANCH   4  21
ATOM     21  C19 ZIN A   1      19.217  -2.541  10.571  0.00  0.00     0.375 C 
BRANCH  21  22
ATOM     22  C20 ZIN A   1      18.769  -2.103   9.201  0.00  0.00     0.250 C 
ATOM     23  O21 ZIN A   1      17.609  -2.234   8.871  0.00  0.00    -0.271 OA
ATOM     24  N22 ZIN A   1      19.658  -1.566   8.341  0.00  0.00    -0.325 N 
ATOM     25  H51 ZIN A   1      20.569  -1.398   8.628  0.00  0.00     0.169 HD
BRANCH  24  26
ATOM     26  C23 ZIN A   1      19.266  -1.249   7.037  0.00  0.00     0.046 A 
ATOM     27  C29 ZIN A   1      19.300  -2.221   6.044  0.00  0.00    -0.035 A 
ATOM     28  C28 ZIN A   1      18.906  -1.906   4.759  0.00  0.00     0.009 A 
ATOM     29  C30 ZIN A   1      19.753  -3.620   6.373  0.00  0.00     0.050 C 
ATOM     30  C27 ZIN A   1      18.490  -0.622   4.456  0.00  0.00     0.001 A 
ATOM     31  C26 ZIN A   1      18.460   0.349   5.440  0.00  0.00     0.009 A 
ATOM     32  C24 ZIN A   1      18.847   0.039   6.730  0.00  0.00    -0.035 A 
ATOM     33  C25 ZIN A   1      18.815   1.097   7.802  0.00  0.00     0.050 C 
ENDBRANCH  24  26
ENDBRANCH  21  22
ENDBRANCH   4  21
TORSDOF 10
ENDMDL
MODEL 9
REMARK VINA RESULT:      -7.9      2.212      5.060
REMARK  10 active torsions:
REMARK  status: ('A' for Active; 'I' for Inactive)
REMARK    1  A    between atoms: O2_2  and  C3_3 
REMARK    2  A    between atoms: C8_8  and  O9_9 
REMARK    3  A    between atoms: O9_9  and  C10_10 
REMARK    4  A    between atoms: C10_10  and  C11_11 
REMARK    5  A    between atoms: C11_11  and  O13_12 
REMARK    6  A    between atoms: C11_11  and  C14_13 
REMARK    7  A    between atoms: C14_13  and  N15_14 
REMARK    8  A    between atoms: N18_17  and  C19_18 
REMARK    9  A    between atoms: C19_18  and  C20_19 
REMARK       I    between atoms: C20_19  and  N22_21 
REMARK   10  A    between atoms: N22_21  and  C23_22 
ROOT
ATOM      1  N15 ZIN A   1      19.045   0.499  15.264  0.00  0.00     0.094 N 
ATOM      2  C16 ZIN A   1      19.027   1.272  14.015  0.00  0.00     0.302 C 
ATOM      3  C17 ZIN A   1      19.753   0.486  12.920  0.00  0.00     0.303 C 
ATOM      4  N18 ZIN A   1      19.098  -0.816  12.740  0.00  0.00     0.100 N 
ATOM      5  C31 ZIN A   1      19.118  -1.590  13.989  0.00  0.00     0.303 C 
ATOM      6  C32 ZIN A   1      18.392  -0.804  15.084  0.00  0.00     0.302 C 
ENDROOT
BRANCH   1   7
ATOM      7  C14 ZIN A   1      18.423   1.254  16.360  0.00  0.00     0.306 C 
BRANCH   7   8
ATOM      8  C11 ZIN A   1      19.442   2.227  16.953  0.00  0.00     0.170 C 
BRANCH   8   9
ATOM      9  C10 ZIN A   1      18.846   3.635  16.988  0.00  0.00     0.209 C 
BRANCH   9  10
ATOM     10  O9  ZIN A   1      19.235   4.348  15.813  0.00  0.00    -0.346 OA
BRANCH  10  11
ATOM     11  C8  ZIN A   1      18.238   4.857  15.040  0.00  0.00     0.102 A 
ATOM     12  C3  ZIN A   1      18.430   5.018  13.671  0.00  0.00     0.101 A 
ATOM     13  C4  ZIN A   1      17.411   5.538  12.889  0.00  0.00     0.039 A 
ATOM     14  C5  ZIN A   1      16.210   5.902  13.470  0.00  0.00     0.003 A 
ATOM     15  C6  ZIN A   1      16.022   5.747  14.831  0.00  0.00     0.003 A 
ATOM     16  C7  ZIN A   1      17.034   5.229  15.617  0.00  0.00     0.039 A 
BRANCH  12  17
ATOM     17  O2  ZIN A   1      19.611   4.660  13.101  0.00  0.00    -0.353 OA
ATOM     18  C1  ZIN A   1      19.547   3.989  11.842  0.00  0.00     0.210 C 
ENDBRANCH  12  17
ENDBRANCH  10  11
ENDBRANCH   9  10
ENDBRANCH   8   9
BRANCH   8  19
ATOM     19  O13 ZIN A   1      19.775   1.818  18.282  0.00  0.00    -0.392 OA
ATOM     20  H42 ZIN A   1      19.924   2.552  18.894  0.00  0.00     0.210 HD
ENDBRANCH   8  19
ENDBRANCH   7   8
ENDBRANCH   1   7
BRANCH   4  21
ATOM     21  C19 ZIN A   1      19.721  -1.571  11.644  0.00  0.00     0.375 C 
BRANCH  21  22
ATOM     22  C20 ZIN A   1      19.118  -1.142  10.331  0.00  0.00     0.250 C 
ATOM     23  O21 ZIN A   1      17.914  -1.038  10.223  0.00  0.00    -0.271 OA
ATOM     24  N22 ZIN A   1      19.916  -0.874   9.279  0.00  0.00    -0.325 N 
ATOM     25  H51 ZIN A   1      20.879  -0.891   9.384  0.00  0.00     0.169 HD
BRANCH  24  26
ATOM     26  C23 ZIN A   1      19.353  -0.570   8.034  0.00  0.00     0.046 A 
ATOM     27  C29 ZIN A   1      19.083  -1.586   7.126  0.00  0.00    -0.035 A 
ATOM     28  C28 ZIN A   1      18.522  -1.283   5.901  0.00  0.00     0.009 A 
ATOM     29  C30 ZIN A   1      19.389  -3.018   7.483  0.00  0.00     0.050 C 
ATOM     30  C27 ZIN A   1      18.242   0.031   5.573  0.00  0.00     0.001 A 
ATOM     31  C26 ZIN A   1      18.515   1.045   6.472  0.00  0.00     0.009 A 
ATOM     32  C24 ZIN A   1      19.070   0.748   7.702  0.00  0.00    -0.035 A 
ATOM     33  C25 ZIN A   1      19.368   1.854   8.682  0.00  0.00     0.050 C 
ENDBRANCH  24  26
ENDBRANCH  21  22
ENDBRANCH   4  21
TORSDOF 10
ENDMDL
