MODEL 1
REMARK VINA RESULT:     -10.5      0.000      0.000
REMARK  5 active torsions:
REMARK  status: ('A' for Active; 'I' for Inactive)
REMARK    1  A    between atoms: C5_5  and  C7_6 
REMARK       I    between atoms: C7_6  and  N9_8 
REMARK    2  A    between atoms: N9_8  and  C10_9 
REMARK    3  A    between atoms: C13_12  and  O14_13 
REMARK    4  A    between atoms: C23_21  and  C25_22 
REMARK    5  A    between atoms: C25_22  and  C26_23 
ROOT
ATOM      1  C10 ZIN A   1      18.732  -4.847   9.796  0.00  0.00     0.220 C 
ATOM      2  C11 ZIN A   1      19.911  -5.510  10.512  0.00  0.00     0.082 C 
ATOM      3  O12 ZIN A   1      19.176  -4.208   8.582  0.00  0.00    -0.296 OA
ATOM      4  C13 ZIN A   1      18.074  -4.372   7.675  0.00  0.00     0.276 C 
ATOM      5  C15 ZIN A   1      18.571  -4.499   6.249  0.00  0.00     0.173 C 
ATOM      6  C17 ZIN A   1      18.604  -3.119   5.554  0.00  0.00     0.034 C 
ATOM      7  C18 ZIN A   1      18.534  -3.492   4.054  0.00  0.00     0.022 C 
ATOM      8  C19 ZIN A   1      17.931  -4.911   4.022  0.00  0.00     0.127 C 
ATOM      9  N20 ZIN A   1      17.657  -5.302   5.423  0.00  0.00    -0.338 N 
ATOM     10  C21 ZIN A   1      16.736  -6.185   5.830  0.00  0.00     0.243 C 
ATOM     11  O22 ZIN A   1      16.163  -6.869   5.007  0.00  0.00    -0.271 OA
ATOM     12  C23 ZIN A   1      16.400  -6.347   7.287  0.00  0.00     0.189 C 
ATOM     13  N32 ZIN A   1      17.348  -5.572   8.092  0.00  0.00    -0.277 N 
ATOM     14  C33 ZIN A   1      17.734  -5.892   9.348  0.00  0.00     0.280 C 
ATOM     15  O34 ZIN A   1      17.369  -6.856   9.987  0.00  0.00    -0.268 OA
ENDROOT
BRANCH   1  16
ATOM     16  N9  ZIN A   1      18.086  -3.871  10.677  0.00  0.00    -0.321 N 
ATOM     17  C7  ZIN A   1      18.675  -2.682  10.912  0.00  0.00     0.226 C 
ATOM     18  O8  ZIN A   1      19.691  -2.381  10.323  0.00  0.00    -0.273 OA
ATOM     19  H55 ZIN A   1      17.234  -4.081  11.091  0.00  0.00     0.166 HD
BRANCH  17  20
ATOM     20  C5  ZIN A   1      18.070  -1.725  11.906  0.00  0.00     0.104 C 
ATOM     21  C4  ZIN A   1      18.848  -1.796  13.223  0.00  0.00     0.249 C 
ATOM     22  N2  ZIN A   1      18.255  -0.868  14.192  0.00  0.00    -0.069 N 
ATOM     23  C1  ZIN A   1      18.950  -0.998  15.480  0.00  0.00     0.270 C 
ATOM     24  H3  ZIN A   1      17.279  -1.091  14.316  0.00  0.00     0.280 HD
ATOM     25  C48 ZIN A   1      18.382   0.513  13.707  0.00  0.00     0.200 C 
ATOM     26  C36 ZIN A   1      17.597   0.676  12.405  0.00  0.00     0.051 C 
ATOM     27  C47 ZIN A   1      17.914   1.454  14.829  0.00  0.00     0.075 C 
ATOM     28  C35 ZIN A   1      18.144  -0.298  11.357  0.00  0.00     0.027 C 
ATOM     29  C38 ZIN A   1      17.723   2.081  11.896  0.00  0.00    -0.039 A 
ATOM     30  C46 ZIN A   1      17.677   2.515  10.609  0.00  0.00     0.008 A 
ATOM     31  C39 ZIN A   1      17.913   3.077  12.856  0.00  0.00     0.005 A 
ATOM     32  C45 ZIN A   1      17.809   3.873  10.319  0.00  0.00     0.003 A 
ATOM     33  C44 ZIN A   1      17.992   4.861  11.276  0.00  0.00     0.030 A 
ATOM     34  C43 ZIN A   1      18.045   4.447  12.605  0.00  0.00     0.043 A 
ATOM     35  N42 ZIN A   1      18.203   5.028  13.828  0.00  0.00    -0.365 N 
ATOM     36  C41 ZIN A   1      18.181   4.066  14.826  0.00  0.00     0.096 A 
ATOM     37  H76 ZIN A   1      18.313   5.979  13.978  0.00  0.00     0.165 HD
ATOM     38  C40 ZIN A   1      18.011   2.862  14.300  0.00  0.00    -0.028 A 
ENDBRANCH  17  20
ENDBRANCH   1  16
BRANCH   4  39
ATOM     39  O14 ZIN A   1      17.212  -3.237   7.762  0.00  0.00    -0.347 OA
ATOM     40  H59 ZIN A   1      17.676  -2.388   7.763  0.00  0.00     0.215 HD
ENDBRANCH   4  39
BRANCH  12  41
ATOM     41  C25 ZIN A   1      14.996  -5.799   7.551  0.00  0.00     0.073 C 
BRANCH  41  42
ATOM     42  C26 ZIN A   1      14.032  -6.946   7.717  0.00  0.00    -0.056 A 
ATOM     43  C31 ZIN A   1      12.701  -6.695   7.994  0.00  0.00     0.007 A 
ATOM     44  C30 ZIN A   1      11.815  -7.746   8.142  0.00  0.00     0.001 A 
ATOM     45  C29 ZIN A   1      12.263  -9.049   8.023  0.00  0.00     0.000 A 
ATOM     46  C28 ZIN A   1      13.595  -9.300   7.750  0.00  0.00     0.001 A 
ATOM     47  C27 ZIN A   1      14.479  -8.248   7.598  0.00  0.00     0.007 A 
ENDBRANCH  41  42
ENDBRANCH  12  41
TORSDOF 5
ENDMDL
MODEL 2
REMARK VINA RESULT:      -9.5      2.910     10.049
REMARK  5 active torsions:
REMARK  status: ('A' for Active; 'I' for Inactive)
REMARK    1  A    between atoms: C5_5  and  C7_6 
REMARK       I    between atoms: C7_6  and  N9_8 
REMARK    2  A    between atoms: N9_8  and  C10_9 
REMARK    3  A    between atoms: C13_12  and  O14_13 
REMARK    4  A    between atoms: C23_21  and  C25_22 
REMARK    5  A    between atoms: C25_22  and  C26_23 
ROOT
ATOM      1  C10 ZIN A   1      19.427  -4.867   8.714  0.00  0.00     0.220 C 
ATOM      2  C11 ZIN A   1      20.647  -5.756   8.464  0.00  0.00     0.082 C 
ATOM      3  O12 ZIN A   1      19.282  -4.596  10.123  0.00  0.00    -0.296 OA
ATOM      4  C13 ZIN A   1      18.759  -3.259  10.173  0.00  0.00     0.276 C 
ATOM      5  C15 ZIN A   1      19.250  -2.539  11.412  0.00  0.00     0.173 C 
ATOM      6  C17 ZIN A   1      18.244  -2.701  12.574  0.00  0.00     0.034 C 
ATOM      7  C18 ZIN A   1      18.569  -1.486  13.476  0.00  0.00     0.022 C 
ATOM      8  C19 ZIN A   1      19.283  -0.481  12.551  0.00  0.00     0.127 C 
ATOM      9  N20 ZIN A   1      19.334  -1.087  11.202  0.00  0.00    -0.338 N 
ATOM     10  C21 ZIN A   1      19.409  -0.423  10.041  0.00  0.00     0.243 C 
ATOM     11  O22 ZIN A   1      19.618   0.772  10.051  0.00  0.00    -0.271 OA
ATOM     12  C23 ZIN A   1      19.241  -1.132   8.724  0.00  0.00     0.189 C 
ATOM     13  N32 ZIN A   1      19.201  -2.579   8.954  0.00  0.00    -0.277 N 
ATOM     14  C33 ZIN A   1      19.624  -3.511   8.072  0.00  0.00     0.280 C 
ATOM     15  O34 ZIN A   1      20.102  -3.298   6.977  0.00  0.00    -0.268 OA
ENDROOT
BRANCH   1  16
ATOM     16  N9  ZIN A   1      18.217  -5.506   8.192  0.00  0.00    -0.321 N 
ATOM     17  C7  ZIN A   1      17.487  -6.316   8.984  0.00  0.00     0.226 C 
ATOM     18  O8  ZIN A   1      17.778  -6.443  10.154  0.00  0.00    -0.273 OA
ATOM     19  H55 ZIN A   1      17.940  -5.346   7.276  0.00  0.00     0.166 HD
BRANCH  17  20
ATOM     20  C5  ZIN A   1      16.308  -7.064   8.416  0.00  0.00     0.104 C 
ATOM     21  C4  ZIN A   1      15.077  -6.154   8.421  0.00  0.00     0.249 C 
ATOM     22  N2  ZIN A   1      13.928  -6.885   7.874  0.00  0.00    -0.069 N 
ATOM     23  C1  ZIN A   1      12.729  -6.040   7.956  0.00  0.00     0.270 C 
ATOM     24  H3  ZIN A   1      13.781  -7.727   8.408  0.00  0.00     0.280 HD
ATOM     25  C48 ZIN A   1      14.181  -7.236   6.470  0.00  0.00     0.200 C 
ATOM     26  C36 ZIN A   1      15.383  -8.178   6.382  0.00  0.00     0.051 C 
ATOM     27  C47 ZIN A   1      12.888  -7.835   5.891  0.00  0.00     0.075 C 
ATOM     28  C35 ZIN A   1      16.614  -7.487   6.977  0.00  0.00     0.027 C 
ATOM     29  C38 ZIN A   1      15.655  -8.541   4.953  0.00  0.00    -0.039 A 
ATOM     30  C46 ZIN A   1      16.844  -8.863   4.380  0.00  0.00     0.008 A 
ATOM     31  C39 ZIN A   1      14.555  -8.552   4.093  0.00  0.00     0.005 A 
ATOM     32  C45 ZIN A   1      16.910  -9.181   3.024  0.00  0.00     0.003 A 
ATOM     33  C44 ZIN A   1      15.814  -9.196   2.172  0.00  0.00     0.030 A 
ATOM     34  C43 ZIN A   1      14.579  -8.869   2.730  0.00  0.00     0.043 A 
ATOM     35  N42 ZIN A   1      13.289  -8.754   2.306  0.00  0.00    -0.365 N 
ATOM     36  C41 ZIN A   1      12.468  -8.370   3.355  0.00  0.00     0.096 A 
ATOM     37  H76 ZIN A   1      12.989  -8.920   1.399  0.00  0.00     0.165 HD
ATOM     38  C40 ZIN A   1      13.177  -8.228   4.465  0.00  0.00    -0.028 A 
ENDBRANCH  17  20
ENDBRANCH   1  16
BRANCH   4  39
ATOM     39  O14 ZIN A   1      17.332  -3.307  10.202  0.00  0.00    -0.347 OA
ATOM     40  H59 ZIN A   1      16.923  -2.568  10.674  0.00  0.00     0.215 HD
ENDBRANCH   4  39
BRANCH  12  41
ATOM     41  C25 ZIN A   1      17.914  -0.717   8.087  0.00  0.00     0.073 C 
BRANCH  41  42
ATOM     42  C26 ZIN A   1      18.108  -0.520   6.605  0.00  0.00    -0.056 A 
ATOM     43  C31 ZIN A   1      17.452  -1.342   5.707  0.00  0.00     0.007 A 
ATOM     44  C30 ZIN A   1      17.626  -1.160   4.348  0.00  0.00     0.001 A 
ATOM     45  C29 ZIN A   1      18.464  -0.160   3.887  0.00  0.00     0.000 A 
ATOM     46  C28 ZIN A   1      19.123   0.659   4.785  0.00  0.00     0.001 A 
ATOM     47  C27 ZIN A   1      18.945   0.478   6.144  0.00  0.00     0.007 A 
ENDBRANCH  41  42
ENDBRANCH  12  41
TORSDOF 5
ENDMDL
MODEL 3
REMARK VINA RESULT:      -9.4      2.071      2.979
REMARK  5 active torsions:
REMARK  status: ('A' for Active; 'I' for Inactive)
REMARK    1  A    between atoms: C5_5  and  C7_6 
REMARK       I    between atoms: C7_6  and  N9_8 
REMARK    2  A    between atoms: N9_8  and  C10_9 
REMARK    3  A    between atoms: C13_12  and  O14_13 
REMARK    4  A    between atoms: C23_21  and  C25_22 
REMARK    5  A    between atoms: C25_22  and  C26_23 
ROOT
ATOM      1  C10 ZIN A   1      18.890  -4.269   6.251  0.00  0.00     0.220 C 
ATOM      2  C11 ZIN A   1      20.391  -4.109   6.497  0.00  0.00     0.082 C 
ATOM      3  O12 ZIN A   1      18.519  -3.666   4.994  0.00  0.00    -0.296 OA
ATOM      4  C13 ZIN A   1      17.465  -4.506   4.499  0.00  0.00     0.276 C 
ATOM      5  C15 ZIN A   1      17.483  -4.549   2.984  0.00  0.00     0.173 C 
ATOM      6  C17 ZIN A   1      16.550  -3.468   2.394  0.00  0.00     0.034 C 
ATOM      7  C18 ZIN A   1      16.235  -4.025   0.985  0.00  0.00     0.022 C 
ATOM      8  C19 ZIN A   1      16.519  -5.537   1.079  0.00  0.00     0.127 C 
ATOM      9  N20 ZIN A   1      16.946  -5.816   2.467  0.00  0.00    -0.338 N 
ATOM     10  C21 ZIN A   1      16.827  -6.986   3.110  0.00  0.00     0.243 C 
ATOM     11  O22 ZIN A   1      16.493  -7.974   2.489  0.00  0.00    -0.271 OA
ATOM     12  C23 ZIN A   1      17.099  -7.098   4.585  0.00  0.00     0.189 C 
ATOM     13  N32 ZIN A   1      17.672  -5.839   5.069  0.00  0.00    -0.277 N 
ATOM     14  C33 ZIN A   1      18.534  -5.732   6.105  0.00  0.00     0.280 C 
ATOM     15  O34 ZIN A   1      18.965  -6.646   6.776  0.00  0.00    -0.268 OA
ENDROOT
BRANCH   1  16
ATOM     16  N9  ZIN A   1      18.128  -3.667   7.348  0.00  0.00    -0.321 N 
ATOM     17  C7  ZIN A   1      18.420  -2.419   7.766  0.00  0.00     0.226 C 
ATOM     18  O8  ZIN A   1      19.248  -1.759   7.174  0.00  0.00    -0.273 OA
ATOM     19  H55 ZIN A   1      17.414  -4.166   7.774  0.00  0.00     0.166 HD
BRANCH  17  20
ATOM     20  C5  ZIN A   1      17.717  -1.842   8.967  0.00  0.00     0.104 C 
ATOM     21  C4  ZIN A   1      18.203  -2.553  10.233  0.00  0.00     0.249 C 
ATOM     22  N2  ZIN A   1      17.512  -1.995  11.402  0.00  0.00    -0.069 N 
ATOM     23  C1  ZIN A   1      17.918  -2.733  12.605  0.00  0.00     0.270 C 
ATOM     24  H3  ZIN A   1      16.516  -2.082  11.276  0.00  0.00     0.280 HD
ATOM     25  C48 ZIN A   1      17.861  -0.576  11.560  0.00  0.00     0.200 C 
ATOM     26  C36 ZIN A   1      17.375   0.213  10.344  0.00  0.00     0.051 C 
ATOM     27  C47 ZIN A   1      17.264  -0.087  12.889  0.00  0.00     0.075 C 
ATOM     28  C35 ZIN A   1      18.031  -0.348   9.078  0.00  0.00     0.027 C 
ATOM     29  C38 ZIN A   1      17.730   1.662  10.490  0.00  0.00    -0.039 A 
ATOM     30  C46 ZIN A   1      17.985   2.568   9.509  0.00  0.00     0.008 A 
ATOM     31  C39 ZIN A   1      17.811   2.155  11.794  0.00  0.00     0.005 A 
ATOM     32  C45 ZIN A   1      18.297   3.888   9.833  0.00  0.00     0.003 A 
ATOM     33  C44 ZIN A   1      18.372   4.376  11.130  0.00  0.00     0.030 A 
ATOM     34  C43 ZIN A   1      18.116   3.471  12.159  0.00  0.00     0.043 A 
ATOM     35  N42 ZIN A   1      18.076   3.491  13.520  0.00  0.00    -0.365 N 
ATOM     36  C41 ZIN A   1      17.764   2.233  14.012  0.00  0.00     0.096 A 
ATOM     37  H76 ZIN A   1      18.240   4.274  14.067  0.00  0.00     0.165 HD
ATOM     38  C40 ZIN A   1      17.595   1.378  13.015  0.00  0.00    -0.028 A 
ENDBRANCH  17  20
ENDBRANCH   1  16
BRANCH   4  39
ATOM     39  O14 ZIN A   1      16.203  -3.993   4.930  0.00  0.00    -0.347 OA
ATOM     40  H59 ZIN A   1      15.443  -4.390   4.482  0.00  0.00     0.215 HD
ENDBRANCH   4  39
BRANCH  12  41
ATOM     41  C25 ZIN A   1      15.785  -7.338   5.330  0.00  0.00     0.073 C 
BRANCH  41  42
ATOM     42  C26 ZIN A   1      15.948  -8.501   6.275  0.00  0.00    -0.056 A 
ATOM     43  C31 ZIN A   1      14.913  -8.854   7.121  0.00  0.00     0.007 A 
ATOM     44  C30 ZIN A   1      15.061  -9.923   7.984  0.00  0.00     0.001 A 
ATOM     45  C29 ZIN A   1      16.247 -10.634   8.008  0.00  0.00     0.000 A 
ATOM     46  C28 ZIN A   1      17.283 -10.278   7.165  0.00  0.00     0.001 A 
ATOM     47  C27 ZIN A   1      17.133  -9.211   6.299  0.00  0.00     0.007 A 
ENDBRANCH  41  42
ENDBRANCH  12  41
TORSDOF 5
ENDMDL
MODEL 4
REMARK VINA RESULT:      -9.2      2.021      2.977
REMARK  5 active torsions:
REMARK  status: ('A' for Active; 'I' for Inactive)
REMARK    1  A    between atoms: C5_5  and  C7_6 
REMARK       I    between atoms: C7_6  and  N9_8 
REMARK    2  A    between atoms: N9_8  and  C10_9 
REMARK    3  A    between atoms: C13_12  and  O14_13 
REMARK    4  A    between atoms: C23_21  and  C25_22 
REMARK    5  A    between atoms: C25_22  and  C26_23 
ROOT
ATOM      1  C10 ZIN A   1      18.020  -5.494   6.689  0.00  0.00     0.220 C 
ATOM      2  C11 ZIN A   1      19.267  -6.194   7.232  0.00  0.00     0.082 C 
ATOM      3  O12 ZIN A   1      18.223  -5.099   5.316  0.00  0.00    -0.296 OA
ATOM      4  C13 ZIN A   1      16.928  -5.246   4.713  0.00  0.00     0.276 C 
ATOM      5  C15 ZIN A   1      17.059  -5.641   3.256  0.00  0.00     0.173 C 
ATOM      6  C17 ZIN A   1      17.057  -4.391   2.347  0.00  0.00     0.034 C 
ATOM      7  C18 ZIN A   1      16.600  -4.964   0.984  0.00  0.00     0.022 C 
ATOM      8  C19 ZIN A   1      15.876  -6.282   1.326  0.00  0.00     0.127 C 
ATOM      9  N20 ZIN A   1      15.905  -6.428   2.798  0.00  0.00    -0.338 N 
ATOM     10  C21 ZIN A   1      15.027  -7.116   3.540  0.00  0.00     0.243 C 
ATOM     11  O22 ZIN A   1      14.215  -7.830   2.990  0.00  0.00    -0.271 OA
ATOM     12  C23 ZIN A   1      15.031  -7.022   5.041  0.00  0.00     0.189 C 
ATOM     13  N32 ZIN A   1      16.211  -6.269   5.477  0.00  0.00    -0.277 N 
ATOM     14  C33 ZIN A   1      16.851  -6.453   6.653  0.00  0.00     0.280 C 
ATOM     15  O34 ZIN A   1      16.558  -7.260   7.510  0.00  0.00    -0.268 OA
ENDROOT
BRANCH   1  16
ATOM     16  N9  ZIN A   1      17.695  -4.325   7.511  0.00  0.00    -0.321 N 
ATOM     17  C7  ZIN A   1      17.881  -4.367   8.845  0.00  0.00     0.226 C 
ATOM     18  O8  ZIN A   1      18.404  -5.336   9.354  0.00  0.00    -0.273 OA
ATOM     19  H55 ZIN A   1      17.347  -3.521   7.095  0.00  0.00     0.166 HD
BRANCH  17  20
ATOM     20  C5  ZIN A   1      17.441  -3.211   9.705  0.00  0.00     0.104 C 
ATOM     21  C4  ZIN A   1      18.070  -3.339  11.095  0.00  0.00     0.249 C 
ATOM     22  N2  ZIN A   1      17.636  -2.215  11.933  0.00  0.00    -0.069 N 
ATOM     23  C1  ZIN A   1      18.173  -2.384  13.289  0.00  0.00     0.270 C 
ATOM     24  H3  ZIN A   1      16.628  -2.196  11.972  0.00  0.00     0.280 HD
ATOM     25  C48 ZIN A   1      18.126  -0.951  11.368  0.00  0.00     0.200 C 
ATOM     26  C36 ZIN A   1      17.512  -0.730   9.985  0.00  0.00     0.051 C 
ATOM     27  C47 ZIN A   1      17.805   0.171  12.369  0.00  0.00     0.075 C 
ATOM     28  C35 ZIN A   1      17.896  -1.895   9.068  0.00  0.00     0.027 C 
ATOM     29  C38 ZIN A   1      18.009   0.555   9.396  0.00  0.00    -0.039 A 
ATOM     30  C46 ZIN A   1      18.172   0.870   8.083  0.00  0.00     0.008 A 
ATOM     31  C39 ZIN A   1      18.349   1.564  10.299  0.00  0.00     0.005 A 
ATOM     32  C45 ZIN A   1      18.646   2.128   7.715  0.00  0.00     0.003 A 
ATOM     33  C44 ZIN A   1      18.979   3.132   8.614  0.00  0.00     0.030 A 
ATOM     34  C43 ZIN A   1      18.823   2.839   9.968  0.00  0.00     0.043 A 
ATOM     35  N42 ZIN A   1      19.013   3.477  11.157  0.00  0.00    -0.365 N 
ATOM     36  C41 ZIN A   1      18.683   2.641  12.212  0.00  0.00     0.096 A 
ATOM     37  H76 ZIN A   1      19.333   4.387  11.251  0.00  0.00     0.165 HD
ATOM     38  C40 ZIN A   1      18.276   1.465  11.757  0.00  0.00    -0.028 A 
ENDBRANCH  17  20
ENDBRANCH   1  16
BRANCH   4  39
ATOM     39  O14 ZIN A   1      16.221  -4.008   4.793  0.00  0.00    -0.347 OA
ATOM     40  H59 ZIN A   1      15.491  -4.011   5.428  0.00  0.00     0.215 HD
ENDBRANCH   4  39
BRANCH  12  41
ATOM     41  C25 ZIN A   1      13.787  -6.263   5.508  0.00  0.00     0.073 C 
BRANCH  41  42
ATOM     42  C26 ZIN A   1      13.085  -7.060   6.578  0.00  0.00    -0.056 A 
ATOM     43  C31 ZIN A   1      13.004  -8.436   6.474  0.00  0.00     0.007 A 
ATOM     44  C30 ZIN A   1      12.363  -9.167   7.456  0.00  0.00     0.001 A 
ATOM     45  C29 ZIN A   1      11.796  -8.521   8.539  0.00  0.00     0.000 A 
ATOM     46  C28 ZIN A   1      11.874  -7.144   8.641  0.00  0.00     0.001 A 
ATOM     47  C27 ZIN A   1      12.518  -6.414   7.660  0.00  0.00     0.007 A 
ENDBRANCH  41  42
ENDBRANCH  12  41
TORSDOF 5
ENDMDL
MODEL 5
REMARK VINA RESULT:      -9.2      4.481     12.041
REMARK  5 active torsions:
REMARK  status: ('A' for Active; 'I' for Inactive)
REMARK    1  A    between atoms: C5_5  and  C7_6 
REMARK       I    between atoms: C7_6  and  N9_8 
REMARK    2  A    between atoms: N9_8  and  C10_9 
REMARK    3  A    between atoms: C13_12  and  O14_13 
REMARK    4  A    between atoms: C23_21  and  C25_22 
REMARK    5  A    between atoms: C25_22  and  C26_23 
ROOT
ATOM      1  C10 ZIN A   1      19.032   4.801  13.497  0.00  0.00     0.220 C 
ATOM      2  C11 ZIN A   1      20.285   5.469  12.929  0.00  0.00     0.082 C 
ATOM      3  O12 ZIN A   1      19.368   3.994  14.644  0.00  0.00    -0.296 OA
ATOM      4  C13 ZIN A   1      18.226   4.117  15.507  0.00  0.00     0.276 C 
ATOM      5  C15 ZIN A   1      18.646   4.041  16.962  0.00  0.00     0.173 C 
ATOM      6  C17 ZIN A   1      18.561   2.588  17.481  0.00  0.00     0.034 C 
ATOM      7  C18 ZIN A   1      18.425   2.782  19.011  0.00  0.00     0.022 C 
ATOM      8  C19 ZIN A   1      17.903   4.222  19.187  0.00  0.00     0.127 C 
ATOM      9  N20 ZIN A   1      17.733   4.794  17.833  0.00  0.00    -0.338 N 
ATOM     10  C21 ZIN A   1      16.888   5.777  17.492  0.00  0.00     0.243 C 
ATOM     11  O22 ZIN A   1      16.307   6.391  18.363  0.00  0.00    -0.271 OA
ATOM     12  C23 ZIN A   1      16.646   6.133  16.050  0.00  0.00     0.189 C 
ATOM     13  N32 ZIN A   1      17.594   5.402  15.205  0.00  0.00    -0.277 N 
ATOM     14  C33 ZIN A   1      18.070   5.845  14.020  0.00  0.00     0.280 C 
ATOM     15  O34 ZIN A   1      17.797   6.900  13.486  0.00  0.00    -0.268 OA
ENDROOT
BRANCH   1  16
ATOM     16  N9  ZIN A   1      18.384   3.980  12.470  0.00  0.00    -0.321 N 
ATOM     17  C7  ZIN A   1      18.760   2.697  12.297  0.00  0.00     0.226 C 
ATOM     18  O8  ZIN A   1      19.566   2.195  13.050  0.00  0.00    -0.273 OA
ATOM     19  H55 ZIN A   1      17.684   4.360  11.916  0.00  0.00     0.166 HD
BRANCH  17  20
ATOM     20  C5  ZIN A   1      18.176   1.888  11.168  0.00  0.00     0.104 C 
ATOM     21  C4  ZIN A   1      18.981   2.140   9.890  0.00  0.00     0.249 C 
ATOM     22  N2  ZIN A   1      18.408   1.356   8.789  0.00  0.00    -0.069 N 
ATOM     23  C1  ZIN A   1      19.129   1.662   7.547  0.00  0.00     0.270 C 
ATOM     24  H3  ZIN A   1      17.434   1.594   8.679  0.00  0.00     0.280 HD
ATOM     25  C48 ZIN A   1      18.529  -0.079   9.081  0.00  0.00     0.200 C 
ATOM     26  C36 ZIN A   1      17.719  -0.421  10.333  0.00  0.00     0.051 C 
ATOM     27  C47 ZIN A   1      18.085  -0.856   7.831  0.00  0.00     0.075 C 
ATOM     28  C35 ZIN A   1      18.242   0.399  11.516  0.00  0.00     0.027 C 
ATOM     29  C38 ZIN A   1      17.837  -1.882  10.645  0.00  0.00    -0.039 A 
ATOM     30  C46 ZIN A   1      17.767  -2.491  11.858  0.00  0.00     0.008 A 
ATOM     31  C39 ZIN A   1      18.048  -2.736   9.560  0.00  0.00     0.005 A 
ATOM     32  C45 ZIN A   1      17.896  -3.875  11.960  0.00  0.00     0.003 A 
ATOM     33  C44 ZIN A   1      18.100  -4.722  10.879  0.00  0.00     0.030 A 
ATOM     34  C43 ZIN A   1      18.178  -4.128   9.621  0.00  0.00     0.043 A 
ATOM     35  N42 ZIN A   1      18.361  -4.534   8.333  0.00  0.00    -0.365 N 
ATOM     36  C41 ZIN A   1      18.357  -3.443   7.478  0.00  0.00     0.096 A 
ATOM     37  H76 ZIN A   1      18.476  -5.455   8.055  0.00  0.00     0.165 HD
ATOM     38  C40 ZIN A   1      18.175  -2.323   8.162  0.00  0.00    -0.028 A 
ENDBRANCH  17  20
ENDBRANCH   1  16
BRANCH   4  39
ATOM     39  O14 ZIN A   1      17.308   3.057  15.237  0.00  0.00    -0.347 OA
ATOM     40  H59 ZIN A   1      17.598   2.192  15.558  0.00  0.00     0.215 HD
ENDBRANCH   4  39
BRANCH  12  41
ATOM     41  C25 ZIN A   1      15.231   5.710  15.650  0.00  0.00     0.073 C 
BRANCH  41  42
ATOM     42  C26 ZIN A   1      14.372   6.935  15.472  0.00  0.00    -0.056 A 
ATOM     43  C31 ZIN A   1      13.027   6.800  15.182  0.00  0.00     0.007 A 
ATOM     44  C30 ZIN A   1      12.237   7.923  15.023  0.00  0.00     0.001 A 
ATOM     45  C29 ZIN A   1      12.795   9.183  15.145  0.00  0.00     0.000 A 
ATOM     46  C28 ZIN A   1      14.141   9.318  15.432  0.00  0.00     0.001 A 
ATOM     47  C27 ZIN A   1      14.929   8.194  15.594  0.00  0.00     0.007 A 
ENDBRANCH  41  42
ENDBRANCH  12  41
TORSDOF 5
ENDMDL
MODEL 6
REMARK VINA RESULT:      -9.1      5.906      9.447
REMARK  5 active torsions:
REMARK  status: ('A' for Active; 'I' for Inactive)
REMARK    1  A    between atoms: C5_5  and  C7_6 
REMARK       I    between atoms: C7_6  and  N9_8 
REMARK    2  A    between atoms: N9_8  and  C10_9 
REMARK    3  A    between atoms: C13_12  and  O14_13 
REMARK    4  A    between atoms: C23_21  and  C25_22 
REMARK    5  A    between atoms: C25_22  and  C26_23 
ROOT
ATOM      1  C10 ZIN A   1      19.204   4.599  12.990  0.00  0.00     0.220 C 
ATOM      2  C11 ZIN A   1      20.393   5.489  13.358  0.00  0.00     0.082 C 
ATOM      3  O12 ZIN A   1      19.169   4.369  11.567  0.00  0.00    -0.296 OA
ATOM      4  C13 ZIN A   1      18.663   3.031  11.439  0.00  0.00     0.276 C 
ATOM      5  C15 ZIN A   1      19.253   2.352  10.220  0.00  0.00     0.173 C 
ATOM      6  C17 ZIN A   1      18.337   2.541   8.989  0.00  0.00     0.034 C 
ATOM      7  C18 ZIN A   1      18.740   1.356   8.080  0.00  0.00     0.022 C 
ATOM      8  C19 ZIN A   1      19.391   0.328   9.027  0.00  0.00     0.127 C 
ATOM      9  N20 ZIN A   1      19.334   0.894  10.393  0.00  0.00    -0.338 N 
ATOM     10  C21 ZIN A   1      19.327   0.197  11.537  0.00  0.00     0.243 C 
ATOM     11  O22 ZIN A   1      19.546  -0.997  11.507  0.00  0.00    -0.271 OA
ATOM     12  C23 ZIN A   1      19.053   0.865  12.857  0.00  0.00     0.189 C 
ATOM     13  N32 ZIN A   1      19.017   2.317  12.667  0.00  0.00    -0.277 N 
ATOM     14  C33 ZIN A   1      19.364   3.226  13.606  0.00  0.00     0.280 C 
ATOM     15  O34 ZIN A   1      19.759   2.984  14.727  0.00  0.00    -0.268 OA
ENDROOT
BRANCH   1  16
ATOM     16  N9  ZIN A   1      17.952   5.214  13.438  0.00  0.00    -0.321 N 
ATOM     17  C7  ZIN A   1      17.973   6.176  14.382  0.00  0.00     0.226 C 
ATOM     18  O8  ZIN A   1      19.033   6.597  14.794  0.00  0.00    -0.273 OA
ATOM     19  H55 ZIN A   1      17.108   4.931  13.053  0.00  0.00     0.166 HD
BRANCH  17  20
ATOM     20  C5  ZIN A   1      16.681   6.728  14.924  0.00  0.00     0.104 C 
ATOM     21  C4  ZIN A   1      15.502   5.982  14.293  0.00  0.00     0.249 C 
ATOM     22  N2  ZIN A   1      14.243   6.524  14.817  0.00  0.00    -0.069 N 
ATOM     23  C1  ZIN A   1      13.113   5.865  14.150  0.00  0.00     0.270 C 
ATOM     24  H3  ZIN A   1      14.205   7.516  14.638  0.00  0.00     0.280 HD
ATOM     25  C48 ZIN A   1      14.160   6.287  16.265  0.00  0.00     0.200 C 
ATOM     26  C36 ZIN A   1      15.290   7.033  16.976  0.00  0.00     0.051 C 
ATOM     27  C47 ZIN A   1      12.757   6.706  16.733  0.00  0.00     0.075 C 
ATOM     28  C35 ZIN A   1      16.638   6.539  16.443  0.00  0.00     0.027 C 
ATOM     29  C38 ZIN A   1      15.219   6.794  18.454  0.00  0.00    -0.039 A 
ATOM     30  C46 ZIN A   1      16.238   6.784  19.353  0.00  0.00     0.008 A 
ATOM     31  C39 ZIN A   1      13.951   6.551  18.986  0.00  0.00     0.005 A 
ATOM     32  C45 ZIN A   1      15.984   6.548  20.704  0.00  0.00     0.003 A 
ATOM     33  C44 ZIN A   1      14.722   6.310  21.230  0.00  0.00     0.030 A 
ATOM     34  C43 ZIN A   1      13.656   6.314  20.333  0.00  0.00     0.043 A 
ATOM     35  N42 ZIN A   1      12.305   6.137  20.385  0.00  0.00    -0.365 N 
ATOM     36  C41 ZIN A   1      11.755   6.248  19.117  0.00  0.00     0.096 A 
ATOM     37  H76 ZIN A   1      11.801   5.960  21.194  0.00  0.00     0.165 HD
ATOM     38  C40 ZIN A   1      12.703   6.496  18.225  0.00  0.00    -0.028 A 
ENDBRANCH  17  20
ENDBRANCH   1  16
BRANCH   4  39
ATOM     39  O14 ZIN A   1      17.242   3.070  11.302  0.00  0.00    -0.347 OA
ATOM     40  H59 ZIN A   1      16.837   3.887  11.624  0.00  0.00     0.215 HD
ENDBRANCH   4  39
BRANCH  12  41
ATOM     41  C25 ZIN A   1      17.685   0.422  13.379  0.00  0.00     0.073 C 
BRANCH  41  42
ATOM     42  C26 ZIN A   1      17.823  -0.069  14.797  0.00  0.00    -0.056 A 
ATOM     43  C31 ZIN A   1      17.214   0.621  15.830  0.00  0.00     0.007 A 
ATOM     44  C30 ZIN A   1      17.337   0.169  17.130  0.00  0.00     0.001 A 
ATOM     45  C29 ZIN A   1      18.076  -0.969  17.400  0.00  0.00     0.000 A 
ATOM     46  C28 ZIN A   1      18.689  -1.656  16.367  0.00  0.00     0.001 A 
ATOM     47  C27 ZIN A   1      18.562  -1.205  15.067  0.00  0.00     0.007 A 
ENDBRANCH  41  42
ENDBRANCH  12  41
TORSDOF 5
ENDMDL
MODEL 7
REMARK VINA RESULT:      -9.1      2.325      9.448
REMARK  5 active torsions:
REMARK  status: ('A' for Active; 'I' for Inactive)
REMARK    1  A    between atoms: C5_5  and  C7_6 
REMARK       I    between atoms: C7_6  and  N9_8 
REMARK    2  A    between atoms: N9_8  and  C10_9 
REMARK    3  A    between atoms: C13_12  and  O14_13 
REMARK    4  A    between atoms: C23_21  and  C25_22 
REMARK    5  A    between atoms: C25_22  and  C26_23 
ROOT
ATOM      1  C10 ZIN A   1      19.545  -3.104  11.131  0.00  0.00     0.220 C 
ATOM      2  C11 ZIN A   1      20.923  -3.768  11.143  0.00  0.00     0.082 C 
ATOM      3  O12 ZIN A   1      19.137  -2.768  12.473  0.00  0.00    -0.296 OA
ATOM      4  C13 ZIN A   1      18.390  -1.551  12.320  0.00  0.00     0.276 C 
ATOM      5  C15 ZIN A   1      18.549  -0.668  13.541  0.00  0.00     0.173 C 
ATOM      6  C17 ZIN A   1      17.418  -0.932  14.560  0.00  0.00     0.034 C 
ATOM      7  C18 ZIN A   1      17.383   0.381  15.377  0.00  0.00     0.022 C 
ATOM      8  C19 ZIN A   1      18.049   1.435  14.469  0.00  0.00     0.127 C 
ATOM      9  N20 ZIN A   1      18.414   0.757  13.206  0.00  0.00    -0.338 N 
ATOM     10  C21 ZIN A   1      18.554   1.341  12.008  0.00  0.00     0.243 C 
ATOM     11  O22 ZIN A   1      18.548   2.552  11.934  0.00  0.00    -0.271 OA
ATOM     12  C23 ZIN A   1      18.718   0.524  10.756  0.00  0.00     0.189 C 
ATOM     13  N32 ZIN A   1      18.892  -0.886  11.116  0.00  0.00    -0.277 N 
ATOM     14  C33 ZIN A   1      19.603  -1.783  10.396  0.00  0.00     0.280 C 
ATOM     15  O34 ZIN A   1      20.201  -1.562   9.364  0.00  0.00    -0.268 OA
ENDROOT
BRANCH   1  16
ATOM     16  N9  ZIN A   1      18.559  -3.990  10.507  0.00  0.00    -0.321 N 
ATOM     17  C7  ZIN A   1      18.937  -4.833   9.525  0.00  0.00     0.226 C 
ATOM     18  O8  ZIN A   1      20.107  -4.924   9.221  0.00  0.00    -0.273 OA
ATOM     19  H55 ZIN A   1      17.635  -3.972  10.801  0.00  0.00     0.166 HD
BRANCH  17  20
ATOM     20  C5  ZIN A   1      17.905  -5.661   8.804  0.00  0.00     0.104 C 
ATOM     21  C4  ZIN A   1      16.512  -5.320   9.339  0.00  0.00     0.249 C 
ATOM     22  N2  ZIN A   1      15.508  -6.132   8.642  0.00  0.00    -0.069 N 
ATOM     23  C1  ZIN A   1      14.182  -5.863   9.213  0.00  0.00     0.270 C 
ATOM     24  H3  ZIN A   1      15.730  -7.109   8.755  0.00  0.00     0.280 HD
ATOM     25  C48 ZIN A   1      15.499  -5.797   7.211  0.00  0.00     0.200 C 
ATOM     26  C36 ZIN A   1      16.854  -6.144   6.592  0.00  0.00     0.051 C 
ATOM     27  C47 ZIN A   1      14.318  -6.534   6.559  0.00  0.00     0.075 C 
ATOM     28  C35 ZIN A   1      17.956  -5.356   7.305  0.00  0.00     0.027 C 
ATOM     29  C38 ZIN A   1      16.860  -5.803   5.132  0.00  0.00    -0.039 A 
ATOM     30  C46 ZIN A   1      17.917  -5.438   4.359  0.00  0.00     0.008 A 
ATOM     31  C39 ZIN A   1      15.630  -5.863   4.473  0.00  0.00     0.005 A 
ATOM     32  C45 ZIN A   1      17.735  -5.159   3.005  0.00  0.00     0.003 A 
ATOM     33  C44 ZIN A   1      16.513  -5.224   2.351  0.00  0.00     0.030 A 
ATOM     34  C43 ZIN A   1      15.409  -5.594   3.117  0.00  0.00     0.043 A 
ATOM     35  N42 ZIN A   1      14.074  -5.784   2.921  0.00  0.00    -0.365 N 
ATOM     36  C41 ZIN A   1      13.459  -6.152   4.108  0.00  0.00     0.096 A 
ATOM     37  H76 ZIN A   1      13.619  -5.678   2.071  0.00  0.00     0.165 HD
ATOM     38  C40 ZIN A   1      14.349  -6.214   5.087  0.00  0.00    -0.028 A 
ENDBRANCH  17  20
ENDBRANCH   1  16
BRANCH   4  39
ATOM     39  O14 ZIN A   1      17.005  -1.859  12.152  0.00  0.00    -0.347 OA
ATOM     40  H59 ZIN A   1      16.840  -2.675  11.660  0.00  0.00     0.215 HD
ENDBRANCH   4  39
BRANCH  12  41
ATOM     41  C25 ZIN A   1      17.455   0.641   9.901  0.00  0.00     0.073 C 
BRANCH  41  42
ATOM     42  C26 ZIN A   1      17.832   0.614   8.442  0.00  0.00    -0.056 A 
ATOM     43  C31 ZIN A   1      17.155  -0.217   7.568  0.00  0.00     0.007 A 
ATOM     44  C30 ZIN A   1      17.497  -0.239   6.229  0.00  0.00     0.001 A 
ATOM     45  C29 ZIN A   1      18.523   0.564   5.765  0.00  0.00     0.000 A 
ATOM     46  C28 ZIN A   1      19.203   1.391   6.639  0.00  0.00     0.001 A 
ATOM     47  C27 ZIN A   1      18.858   1.416   7.977  0.00  0.00     0.007 A 
ENDBRANCH  41  42
ENDBRANCH  12  41
TORSDOF 5
ENDMDL
MODEL 8
REMARK VINA RESULT:      -9.1      3.371     11.205
REMARK  5 active torsions:
REMARK  status: ('A' for Active; 'I' for Inactive)
REMARK    1  A    between atoms: C5_5  and  C7_6 
REMARK       I    between atoms: C7_6  and  N9_8 
REMARK    2  A    between atoms: N9_8  and  C10_9 
REMARK    3  A    between atoms: C13_12  and  O14_13 
REMARK    4  A    between atoms: C23_21  and  C25_22 
REMARK    5  A    between atoms: C25_22  and  C26_23 
ROOT
ATOM      1  C10 ZIN A   1      20.032   0.857  12.205  0.00  0.00     0.220 C 
ATOM      2  C11 ZIN A   1      21.502   0.615  11.858  0.00  0.00     0.082 C 
ATOM      3  O12 ZIN A   1      19.649   0.067  13.350  0.00  0.00    -0.296 OA
ATOM      4  C13 ZIN A   1      18.696   0.890  14.042  0.00  0.00     0.276 C 
ATOM      5  C15 ZIN A   1      18.771   0.651  15.537  0.00  0.00     0.173 C 
ATOM      6  C17 ZIN A   1      17.761  -0.436  15.969  0.00  0.00     0.034 C 
ATOM      7  C18 ZIN A   1      17.548  -0.123  17.470  0.00  0.00     0.022 C 
ATOM      8  C19 ZIN A   1      17.970   1.350  17.635  0.00  0.00     0.127 C 
ATOM      9  N20 ZIN A   1      18.374   1.843  16.300  0.00  0.00    -0.338 N 
ATOM     10  C21 ZIN A   1      18.343   3.117  15.886  0.00  0.00     0.243 C 
ATOM     11  O22 ZIN A   1      18.126   3.998  16.691  0.00  0.00    -0.271 OA
ATOM     12  C23 ZIN A   1      18.575   3.474  14.443  0.00  0.00     0.189 C 
ATOM     13  N32 ZIN A   1      19.009   2.281  13.711  0.00  0.00    -0.277 N 
ATOM     14  C33 ZIN A   1      19.820   2.293  12.631  0.00  0.00     0.280 C 
ATOM     15  O34 ZIN A   1      20.313   3.274  12.114  0.00  0.00    -0.268 OA
ENDROOT
BRANCH   1  16
ATOM     16  N9  ZIN A   1      19.180   0.535  11.057  0.00  0.00    -0.321 N 
ATOM     17  C7  ZIN A   1      19.338  -0.635  10.407  0.00  0.00     0.226 C 
ATOM     18  O8  ZIN A   1      20.120  -1.461  10.827  0.00  0.00    -0.273 OA
ATOM     19  H55 ZIN A   1      18.501   1.164  10.766  0.00  0.00     0.166 HD
BRANCH  17  20
ATOM     20  C5  ZIN A   1      18.542  -0.917   9.159  0.00  0.00     0.104 C 
ATOM     21  C4  ZIN A   1      19.136  -0.132   7.987  0.00  0.00     0.249 C 
ATOM     22  N2  ZIN A   1      18.357  -0.403   6.773  0.00  0.00    -0.069 N 
ATOM     23  C1  ZIN A   1      18.877   0.414   5.669  0.00  0.00     0.270 C 
ATOM     24  H3  ZIN A   1      17.390  -0.168   6.936  0.00  0.00     0.280 HD
ATOM     25  C48 ZIN A   1      18.460  -1.825   6.418  0.00  0.00     0.200 C 
ATOM     26  C36 ZIN A   1      17.852  -2.680   7.531  0.00  0.00     0.051 C 
ATOM     27  C47 ZIN A   1      17.784  -2.022   5.052  0.00  0.00     0.075 C 
ATOM     28  C35 ZIN A   1      18.598  -2.413   8.842  0.00  0.00     0.027 C 
ATOM     29  C38 ZIN A   1      17.956  -4.134   7.183  0.00  0.00    -0.039 A 
ATOM     30  C46 ZIN A   1      18.058  -5.195   8.027  0.00  0.00     0.008 A 
ATOM     31  C39 ZIN A   1      17.947  -4.452   5.823  0.00  0.00     0.005 A 
ATOM     32  C45 ZIN A   1      18.140  -6.492   7.522  0.00  0.00     0.003 A 
ATOM     33  C44 ZIN A   1      18.127  -6.805   6.170  0.00  0.00     0.030 A 
ATOM     34  C43 ZIN A   1      18.024  -5.739   5.278  0.00  0.00     0.043 A 
ATOM     35  N42 ZIN A   1      17.975  -5.566   3.928  0.00  0.00    -0.365 N 
ATOM     36  C41 ZIN A   1      17.879  -4.219   3.616  0.00  0.00     0.096 A 
ATOM     37  H76 ZIN A   1      18.002  -6.284   3.277  0.00  0.00     0.165 HD
ATOM     38  C40 ZIN A   1      17.861  -3.491   4.723  0.00  0.00    -0.028 A 
ENDBRANCH  17  20
ENDBRANCH   1  16
BRANCH   4  39
ATOM     39  O14 ZIN A   1      17.378   0.576  13.591  0.00  0.00    -0.347 OA
ATOM     40  H59 ZIN A   1      16.902   1.328  13.210  0.00  0.00     0.215 HD
ENDBRANCH   4  39
BRANCH  12  41
ATOM     41  C25 ZIN A   1      17.264   3.960  13.822  0.00  0.00     0.073 C 
BRANCH  41  42
ATOM     42  C26 ZIN A   1      17.040   5.405  14.187  0.00  0.00    -0.056 A 
ATOM     43  C31 ZIN A   1      15.778   5.839  14.549  0.00  0.00     0.007 A 
ATOM     44  C30 ZIN A   1      15.572   7.162  14.888  0.00  0.00     0.001 A 
ATOM     45  C29 ZIN A   1      16.627   8.056  14.857  0.00  0.00     0.000 A 
ATOM     46  C28 ZIN A   1      17.889   7.623  14.491  0.00  0.00     0.001 A 
ATOM     47  C27 ZIN A   1      18.094   6.298  14.156  0.00  0.00     0.007 A 
ENDBRANCH  41  42
ENDBRANCH  12  41
TORSDOF 5
ENDMDL
MODEL 9
REMARK VINA RESULT:      -9.0      2.799      4.222
REMARK  5 active torsions:
REMARK  status: ('A' for Active; 'I' for Inactive)
REMARK    1  A    between atoms: C5_5  and  C7_6 
REMARK       I    between atoms: C7_6  and  N9_8 
REMARK    2  A    between atoms: N9_8  and  C10_9 
REMARK    3  A    between atoms: C13_12  and  O14_13 
REMARK    4  A    between atoms: C23_21  and  C25_22 
REMARK    5  A    between atoms: C25_22  and  C26_23 
ROOT
ATOM      1  C10 ZIN A   1      18.300  -2.137   5.086  0.00  0.00     0.220 C 
ATOM      2  C11 ZIN A   1      19.337  -1.095   4.666  0.00  0.00     0.082 C 
ATOM      3  O12 ZIN A   1      17.349  -2.357   4.025  0.00  0.00    -0.296 OA
ATOM      4  C13 ZIN A   1      17.019  -3.751   4.130  0.00  0.00     0.276 C 
ATOM      5  C15 ZIN A   1      16.711  -4.332   2.765  0.00  0.00     0.173 C 
ATOM      6  C17 ZIN A   1      15.196  -4.260   2.469  0.00  0.00     0.034 C 
ATOM      7  C18 ZIN A   1      15.005  -5.370   1.407  0.00  0.00     0.022 C 
ATOM      8  C19 ZIN A   1      16.217  -6.306   1.585  0.00  0.00     0.127 C 
ATOM      9  N20 ZIN A   1      17.028  -5.765   2.697  0.00  0.00    -0.338 N 
ATOM     10  C21 ZIN A   1      17.852  -6.467   3.487  0.00  0.00     0.243 C 
ATOM     11  O22 ZIN A   1      18.111  -7.618   3.203  0.00  0.00    -0.271 OA
ATOM     12  C23 ZIN A   1      18.463  -5.855   4.718  0.00  0.00     0.189 C 
ATOM     13  N32 ZIN A   1      18.168  -4.420   4.743  0.00  0.00    -0.277 N 
ATOM     14  C33 ZIN A   1      18.961  -3.480   5.305  0.00  0.00     0.280 C 
ATOM     15  O34 ZIN A   1      20.023  -3.675   5.858  0.00  0.00    -0.268 OA
ENDROOT
BRANCH   1  16
ATOM     16  N9  ZIN A   1      17.611  -1.705   6.305  0.00  0.00    -0.321 N 
ATOM     17  C7  ZIN A   1      18.311  -1.149   7.314  0.00  0.00     0.226 C 
ATOM     18  O8  ZIN A   1      19.494  -0.921   7.178  0.00  0.00    -0.273 OA
ATOM     19  H55 ZIN A   1      16.651  -1.818   6.386  0.00  0.00     0.166 HD
BRANCH  17  20
ATOM     20  C5  ZIN A   1      17.623  -0.810   8.611  0.00  0.00     0.104 C 
ATOM     21  C4  ZIN A   1      18.052  -1.806   9.692  0.00  0.00     0.249 C 
ATOM     22  N2  ZIN A   1      17.377  -1.478  10.954  0.00  0.00    -0.069 N 
ATOM     23  C1  ZIN A   1      17.725  -2.483  11.967  0.00  0.00     0.270 C 
ATOM     24  H3  ZIN A   1      16.379  -1.480  10.810  0.00  0.00     0.280 HD
ATOM     25  C48 ZIN A   1      17.801  -0.150  11.418  0.00  0.00     0.200 C 
ATOM     26  C36 ZIN A   1      17.375   0.911  10.403  0.00  0.00     0.051 C 
ATOM     27  C47 ZIN A   1      17.213   0.070  12.822  0.00  0.00     0.075 C 
ATOM     28  C35 ZIN A   1      18.016   0.604   9.047  0.00  0.00     0.027 C 
ATOM     29  C38 ZIN A   1      17.806   2.271  10.863  0.00  0.00    -0.039 A 
ATOM     30  C46 ZIN A   1      18.123   3.354  10.105  0.00  0.00     0.008 A 
ATOM     31  C39 ZIN A   1      17.896   2.463  12.244  0.00  0.00     0.005 A 
ATOM     32  C45 ZIN A   1      18.502   4.551  10.710  0.00  0.00     0.003 A 
ATOM     33  C44 ZIN A   1      18.586   4.740  12.082  0.00  0.00     0.030 A 
ATOM     34  C43 ZIN A   1      18.267   3.648  12.888  0.00  0.00     0.043 A 
ATOM     35  N42 ZIN A   1      18.209   3.373  14.221  0.00  0.00    -0.365 N 
ATOM     36  C41 ZIN A   1      17.823   2.057  14.426  0.00  0.00     0.096 A 
ATOM     37  H76 ZIN A   1      18.408   4.008  14.926  0.00  0.00     0.165 HD
ATOM     38  C40 ZIN A   1      17.621   1.451  13.265  0.00  0.00    -0.028 A 
ENDBRANCH  17  20
ENDBRANCH   1  16
BRANCH   4  39
ATOM     39  O14 ZIN A   1      15.873  -3.909   4.968  0.00  0.00    -0.347 OA
ATOM     40  H59 ZIN A   1      15.993  -4.547   5.684  0.00  0.00     0.215 HD
ENDBRANCH   4  39
BRANCH  12  41
ATOM     41  C25 ZIN A   1      17.841  -6.488   5.965  0.00  0.00     0.073 C 
BRANCH  41  42
ATOM     42  C26 ZIN A   1      18.603  -6.043   7.187  0.00  0.00    -0.056 A 
ATOM     43  C31 ZIN A   1      19.981  -6.162   7.224  0.00  0.00     0.007 A 
ATOM     44  C30 ZIN A   1      20.680  -5.751   8.342  0.00  0.00     0.001 A 
ATOM     45  C29 ZIN A   1      20.002  -5.229   9.429  0.00  0.00     0.000 A 
ATOM     46  C28 ZIN A   1      18.624  -5.115   9.394  0.00  0.00     0.001 A 
ATOM     47  C27 ZIN A   1      17.926  -5.523   8.273  0.00  0.00     0.007 A 
ENDBRANCH  41  42
ENDBRANCH  12  41
TORSDOF 5
ENDMDL
