MODEL 1
REMARK VINA RESULT:      -7.7      0.000      0.000
REMARK  2 active torsions:
REMARK  status: ('A' for Active; 'I' for Inactive)
REMARK    1  A    between atoms: C16_15  and  O17_16 
REMARK    2  A    between atoms: C24_22  and  O25_23 
ROOT
ATOM      1  C1  ZIN A   1      18.877  -2.707   8.852  0.00  0.00     0.270 C 
ATOM      2  N2  ZIN A   1      18.532  -1.290   8.674  0.00  0.00    -0.067 N 
ATOM      3  H3  ZIN A   1      18.083  -1.168   7.779  0.00  0.00     0.280 HD
ATOM      4  C4  ZIN A   1      19.759  -0.488   8.710  0.00  0.00     0.236 C 
ATOM      5  C5  ZIN A   1      20.475  -0.685  10.052  0.00  0.00     0.048 C 
ATOM      6  C6  ZIN A   1      19.515  -0.285  11.170  0.00  0.00     0.058 C 
ATOM      7  C7  ZIN A   1      19.065   1.140  10.965  0.00  0.00    -0.001 C 
ATOM      8  C8  ZIN A   1      19.852   1.951  11.769  0.00  0.00     0.110 C 
ATOM      9  O9  ZIN A   1      20.695   1.198  12.509  0.00  0.00    -0.334 OA
ATOM     10  C10 ZIN A   1      20.217  -0.179  12.517  0.00  0.00     0.214 C 
ATOM     11  C12 ZIN A   1      19.275  -0.317  13.677  0.00  0.00     0.157 C 
ATOM     12  O13 ZIN A   1      19.584   0.185  14.732  0.00  0.00    -0.295 OA
ATOM     13  C14 ZIN A   1      17.969  -1.047  13.590  0.00  0.00     0.084 C 
ATOM     14  C15 ZIN A   1      17.287  -0.741  12.255  0.00  0.00     0.048 C 
ATOM     15  C16 ZIN A   1      18.256  -1.133  11.100  0.00  0.00     0.102 C 
ATOM     16  C18 ZIN A   1      17.607  -0.882   9.737  0.00  0.00     0.227 C 
ATOM     17  C20 ZIN A   1      17.162   0.553   9.513  0.00  0.00     0.075 C 
ATOM     18  C21 ZIN A   1      17.997   1.563  10.206  0.00  0.00    -0.046 C 
ATOM     19  C22 ZIN A   1      17.806   2.931  10.139  0.00  0.00     0.011 C 
ATOM     20  C23 ZIN A   1      18.602   3.785  10.885  0.00  0.00     0.040 C 
ATOM     21  C24 ZIN A   1      19.636   3.333  11.717  0.00  0.00     0.099 C 
ENDROOT
BRANCH  15  22
ATOM     22  O17 ZIN A   1      18.603  -2.515  11.215  0.00  0.00    -0.386 OA
ATOM     23  H37 ZIN A   1      19.136  -2.723  11.994  0.00  0.00     0.210 HD
ENDBRANCH  15  22
BRANCH  21  24
ATOM     24  O25 ZIN A   1      20.376   4.196  12.463  0.00  0.00    -0.358 OA
ATOM     25  H42 ZIN A   1      20.861   3.775  13.186  0.00  0.00     0.217 HD
ENDBRANCH  21  24
TORSDOF 2
ENDMDL
MODEL 2
REMARK VINA RESULT:      -7.3      1.890      4.157
REMARK  2 active torsions:
REMARK  status: ('A' for Active; 'I' for Inactive)
REMARK    1  A    between atoms: C16_15  and  O17_16 
REMARK    2  A    between atoms: C24_22  and  O25_23 
ROOT
ATOM      1  C1  ZIN A   1      18.384  -1.778   9.429  0.00  0.00     0.270 C 
ATOM      2  N2  ZIN A   1      18.544  -2.251  10.811  0.00  0.00    -0.067 N 
ATOM      3  H3  ZIN A   1      18.740  -3.240  10.802  0.00  0.00     0.280 HD
ATOM      4  C4  ZIN A   1      17.300  -2.013  11.548  0.00  0.00     0.236 C 
ATOM      5  C5  ZIN A   1      16.965  -0.516  11.545  0.00  0.00     0.048 C 
ATOM      6  C6  ZIN A   1      18.137   0.237  12.173  0.00  0.00     0.058 C 
ATOM      7  C7  ZIN A   1      18.391  -0.290  13.563  0.00  0.00    -0.001 C 
ATOM      8  C8  ZIN A   1      17.762   0.562  14.459  0.00  0.00     0.110 C 
ATOM      9  O9  ZIN A   1      17.204   1.602  13.802  0.00  0.00    -0.334 OA
ATOM     10  C10 ZIN A   1      17.791   1.690  12.470  0.00  0.00     0.214 C 
ATOM     11  C12 ZIN A   1      19.003   2.568  12.574  0.00  0.00     0.157 C 
ATOM     12  O13 ZIN A   1      18.926   3.579  13.231  0.00  0.00    -0.295 OA
ATOM     13  C14 ZIN A   1      20.305   2.250  11.903  0.00  0.00     0.084 C 
ATOM     14  C15 ZIN A   1      20.598   0.752  12.013  0.00  0.00     0.048 C 
ATOM     15  C16 ZIN A   1      19.409  -0.035  11.386  0.00  0.00     0.102 C 
ATOM     16  C18 ZIN A   1      19.667  -1.542  11.436  0.00  0.00     0.227 C 
ATOM     17  C20 ZIN A   1      19.910  -2.088  12.833  0.00  0.00     0.075 C 
ATOM     18  C21 ZIN A   1      19.190  -1.359  13.903  0.00  0.00    -0.046 C 
ATOM     19  C22 ZIN A   1      19.234  -1.678  15.248  0.00  0.00     0.011 C 
ATOM     20  C23 ZIN A   1      18.579  -0.885  16.176  0.00  0.00     0.040 C 
ATOM     21  C24 ZIN A   1      17.833   0.248  15.821  0.00  0.00     0.099 C 
ENDROOT
BRANCH  15  22
ATOM     22  O17 ZIN A   1      19.228   0.373  10.029  0.00  0.00    -0.386 OA
ATOM     23  H37 ZIN A   1      18.889   1.274   9.931  0.00  0.00     0.210 HD
ENDBRANCH  15  22
BRANCH  21  24
ATOM     24  O25 ZIN A   1      17.230   1.025  16.761  0.00  0.00    -0.358 OA
ATOM     25  H42 ZIN A   1      16.303   0.802  16.921  0.00  0.00     0.217 HD
ENDBRANCH  21  24
TORSDOF 2
ENDMDL
MODEL 3
REMARK VINA RESULT:      -7.3      1.945      3.852
REMARK  2 active torsions:
REMARK  status: ('A' for Active; 'I' for Inactive)
REMARK    1  A    between atoms: C16_15  and  O17_16 
REMARK    2  A    between atoms: C24_22  and  O25_23 
ROOT
ATOM      1  C1  ZIN A   1      19.208  -1.533   7.800  0.00  0.00     0.270 C 
ATOM      2  N2  ZIN A   1      19.740  -1.659   9.164  0.00  0.00    -0.067 N 
ATOM      3  H3  ZIN A   1      20.478  -2.346   9.169  0.00  0.00     0.280 HD
ATOM      4  C4  ZIN A   1      18.667  -2.096  10.061  0.00  0.00     0.236 C 
ATOM      5  C5  ZIN A   1      17.519  -1.079  10.042  0.00  0.00     0.048 C 
ATOM      6  C6  ZIN A   1      18.076   0.280  10.461  0.00  0.00     0.058 C 
ATOM      7  C7  ZIN A   1      18.717   0.165  11.822  0.00  0.00    -0.001 C 
ATOM      8  C8  ZIN A   1      17.794   0.599  12.761  0.00  0.00     0.110 C 
ATOM      9  O9  ZIN A   1      16.674   1.039  12.147  0.00  0.00    -0.334 OA
ATOM     10  C10 ZIN A   1      16.973   1.290  10.742  0.00  0.00     0.214 C 
ATOM     11  C12 ZIN A   1      17.441   2.711  10.633  0.00  0.00     0.157 C 
ATOM     12  O13 ZIN A   1      16.846   3.562  11.249  0.00  0.00    -0.295 OA
ATOM     13  C14 ZIN A   1      18.614   3.125   9.796  0.00  0.00     0.084 C 
ATOM     14  C15 ZIN A   1      19.739   2.096   9.927  0.00  0.00     0.048 C 
ATOM     15  C16 ZIN A   1      19.187   0.699   9.512  0.00  0.00     0.102 C 
ATOM     16  C18 ZIN A   1      20.284  -0.364   9.589  0.00  0.00     0.227 C 
ATOM     17  C20 ZIN A   1      20.928  -0.499  10.959  0.00  0.00     0.075 C 
ATOM     18  C21 ZIN A   1      20.018  -0.197  12.089  0.00  0.00    -0.046 C 
ATOM     19  C22 ZIN A   1      20.365  -0.269  13.426  0.00  0.00     0.011 C 
ATOM     20  C23 ZIN A   1      19.457   0.105  14.404  0.00  0.00     0.040 C 
ATOM     21  C24 ZIN A   1      18.159   0.548  14.111  0.00  0.00     0.099 C 
ENDROOT
BRANCH  15  22
ATOM     22  O17 ZIN A   1      18.678   0.763   8.179  0.00  0.00    -0.386 OA
ATOM     23  H37 ZIN A   1      17.753   0.493   8.097  0.00  0.00     0.210 HD
ENDBRANCH  15  22
BRANCH  21  24
ATOM     24  O25 ZIN A   1      17.304   0.941  15.093  0.00  0.00    -0.358 OA
ATOM     25  H42 ZIN A   1      16.680   0.256  15.370  0.00  0.00     0.217 HD
ENDBRANCH  21  24
TORSDOF 2
ENDMDL
MODEL 4
REMARK VINA RESULT:      -7.2      2.279      4.811
REMARK  2 active torsions:
REMARK  status: ('A' for Active; 'I' for Inactive)
REMARK    1  A    between atoms: C16_15  and  O17_16 
REMARK    2  A    between atoms: C24_22  and  O25_23 
ROOT
ATOM      1  C1  ZIN A   1      18.030   3.896  11.763  0.00  0.00     0.270 C 
ATOM      2  N2  ZIN A   1      17.979   2.650  12.540  0.00  0.00    -0.067 N 
ATOM      3  H3  ZIN A   1      17.533   2.831  13.427  0.00  0.00     0.280 HD
ATOM      4  C4  ZIN A   1      19.345   2.173  12.776  0.00  0.00     0.236 C 
ATOM      5  C5  ZIN A   1      20.053   1.923  11.438  0.00  0.00     0.048 C 
ATOM      6  C6  ZIN A   1      19.235   0.903  10.648  0.00  0.00     0.058 C 
ATOM      7  C7  ZIN A   1      19.081  -0.359  11.460  0.00  0.00    -0.001 C 
ATOM      8  C8  ZIN A   1      20.046  -1.258  11.030  0.00  0.00     0.110 C 
ATOM      9  O9  ZIN A   1      20.743  -0.737   9.996  0.00  0.00    -0.334 OA
ATOM     10  C10 ZIN A   1      19.991   0.380   9.435  0.00  0.00     0.214 C 
ATOM     11  C12 ZIN A   1      19.083  -0.180   8.380  0.00  0.00     0.157 C 
ATOM     12  O13 ZIN A   1      19.526  -1.007   7.619  0.00  0.00    -0.295 OA
ATOM     13  C14 ZIN A   1      17.652   0.239   8.224  0.00  0.00     0.084 C 
ATOM     14  C15 ZIN A   1      17.001   0.397   9.600  0.00  0.00     0.048 C 
ATOM     15  C16 ZIN A   1      17.826   1.428  10.426  0.00  0.00     0.102 C 
ATOM     16  C18 ZIN A   1      17.196   1.653  11.802  0.00  0.00     0.227 C 
ATOM     17  C20 ZIN A   1      17.049   0.391  12.635  0.00  0.00     0.075 C 
ATOM     18  C21 ZIN A   1      18.098  -0.626  12.386  0.00  0.00    -0.046 C 
ATOM     19  C22 ZIN A   1      18.190  -1.845  13.033  0.00  0.00     0.011 C 
ATOM     20  C23 ZIN A   1      19.171  -2.754  12.673  0.00  0.00     0.040 C 
ATOM     21  C24 ZIN A   1      20.118  -2.500  11.672  0.00  0.00     0.099 C 
ENDROOT
BRANCH  15  22
ATOM     22  O17 ZIN A   1      17.885   2.669   9.720  0.00  0.00    -0.386 OA
ATOM     23  H37 ZIN A   1      18.721   3.144   9.827  0.00  0.00     0.210 HD
ENDBRANCH  15  22
BRANCH  21  24
ATOM     24  O25 ZIN A   1      21.047  -3.429  11.318  0.00  0.00    -0.358 OA
ATOM     25  H42 ZIN A   1      20.735  -4.342  11.384  0.00  0.00     0.217 HD
ENDBRANCH  21  24
TORSDOF 2
ENDMDL
MODEL 5
REMARK VINA RESULT:      -7.1      2.281      4.222
REMARK  2 active torsions:
REMARK  status: ('A' for Active; 'I' for Inactive)
REMARK    1  A    between atoms: C16_15  and  O17_16 
REMARK    2  A    between atoms: C24_22  and  O25_23 
ROOT
ATOM      1  C1  ZIN A   1      18.715  -4.514   9.568  0.00  0.00     0.270 C 
ATOM      2  N2  ZIN A   1      19.110  -4.217  10.952  0.00  0.00    -0.067 N 
ATOM      3  H3  ZIN A   1      19.667  -4.979  11.308  0.00  0.00     0.280 HD
ATOM      4  C4  ZIN A   1      17.907  -4.073  11.776  0.00  0.00     0.236 C 
ATOM      5  C5  ZIN A   1      17.029  -2.939  11.231  0.00  0.00     0.048 C 
ATOM      6  C6  ZIN A   1      17.856  -1.655  11.224  0.00  0.00     0.058 C 
ATOM      7  C7  ZIN A   1      18.359  -1.370  12.617  0.00  0.00    -0.001 C 
ATOM      8  C8  ZIN A   1      17.499  -0.449  13.196  0.00  0.00     0.110 C 
ATOM      9  O9  ZIN A   1      16.556  -0.067  12.308  0.00  0.00    -0.334 OA
ATOM     10  C10 ZIN A   1      17.000  -0.424  10.965  0.00  0.00     0.214 C 
ATOM     11  C12 ZIN A   1      17.791   0.736  10.435  0.00  0.00     0.157 C 
ATOM     12  O13 ZIN A   1      17.368   1.853  10.617  0.00  0.00    -0.295 OA
ATOM     13  C14 ZIN A   1      19.081   0.574   9.689  0.00  0.00     0.084 C 
ATOM     14  C15 ZIN A   1      19.926  -0.524  10.338  0.00  0.00     0.048 C 
ATOM     15  C16 ZIN A   1      19.095  -1.842  10.364  0.00  0.00     0.102 C 
ATOM     16  C18 ZIN A   1      19.909  -2.986  10.972  0.00  0.00     0.227 C 
ATOM     17  C20 ZIN A   1      20.410  -2.717  12.380  0.00  0.00     0.075 C 
ATOM     18  C21 ZIN A   1      19.520  -1.846  13.184  0.00  0.00    -0.046 C 
ATOM     19  C22 ZIN A   1      19.749  -1.475  14.497  0.00  0.00     0.011 C 
ATOM     20  C23 ZIN A   1      18.888  -0.597  15.135  0.00  0.00     0.040 C 
ATOM     21  C24 ZIN A   1      17.751  -0.058  14.516  0.00  0.00     0.099 C 
ENDROOT
BRANCH  15  22
ATOM     22  O17 ZIN A   1      18.706  -2.187   9.033  0.00  0.00    -0.386 OA
ATOM     23  H37 ZIN A   1      18.294  -1.463   8.543  0.00  0.00     0.210 HD
ENDBRANCH  15  22
BRANCH  21  24
ATOM     24  O25 ZIN A   1      16.945   0.829  15.160  0.00  0.00    -0.358 OA
ATOM     25  H42 ZIN A   1      17.240   1.053  16.053  0.00  0.00     0.217 HD
ENDBRANCH  21  24
TORSDOF 2
ENDMDL
MODEL 6
REMARK VINA RESULT:      -7.1      2.213      4.880
REMARK  2 active torsions:
REMARK  status: ('A' for Active; 'I' for Inactive)
REMARK    1  A    between atoms: C16_15  and  O17_16 
REMARK    2  A    between atoms: C24_22  and  O25_23 
ROOT
ATOM      1  C1  ZIN A   1      19.294   1.946  14.832  0.00  0.00     0.270 C 
ATOM      2  N2  ZIN A   1      18.744   0.644  14.430  0.00  0.00    -0.067 N 
ATOM      3  H3  ZIN A   1      18.301   0.212  15.226  0.00  0.00     0.280 HD
ATOM      4  C4  ZIN A   1      19.834  -0.215  13.959  0.00  0.00     0.236 C 
ATOM      5  C5  ZIN A   1      20.542   0.442  12.767  0.00  0.00     0.048 C 
ATOM      6  C6  ZIN A   1      19.508   0.682  11.669  0.00  0.00     0.058 C 
ATOM      7  C7  ZIN A   1      18.853  -0.625  11.297  0.00  0.00    -0.001 C 
ATOM      8  C8  ZIN A   1      19.491  -1.110  10.165  0.00  0.00     0.110 C 
ATOM      9  O9  ZIN A   1      20.422  -0.228   9.739  0.00  0.00    -0.334 OA
ATOM     10  C10 ZIN A   1      20.156   1.071  10.347  0.00  0.00     0.214 C 
ATOM     11  C12 ZIN A   1      19.220   1.807   9.434  0.00  0.00     0.157 C 
ATOM     12  O13 ZIN A   1      19.427   1.767   8.244  0.00  0.00    -0.295 OA
ATOM     13  C14 ZIN A   1      18.041   2.590   9.928  0.00  0.00     0.084 C 
ATOM     14  C15 ZIN A   1      17.351   1.834  11.065  0.00  0.00     0.048 C 
ATOM     15  C16 ZIN A   1      18.393   1.571  12.193  0.00  0.00     0.102 C 
ATOM     16  C18 ZIN A   1      17.744   0.848  13.375  0.00  0.00     0.227 C 
ATOM     17  C20 ZIN A   1      17.094  -0.477  13.016  0.00  0.00     0.075 C 
ATOM     18  C21 ZIN A   1      17.751  -1.192  11.897  0.00  0.00    -0.046 C 
ATOM     19  C22 ZIN A   1      17.358  -2.422  11.402  0.00  0.00     0.011 C 
ATOM     20  C23 ZIN A   1      17.999  -2.971  10.304  0.00  0.00     0.040 C 
ATOM     21  C24 ZIN A   1      19.071  -2.343   9.653  0.00  0.00     0.099 C 
ENDROOT
BRANCH  15  22
ATOM     22  O17 ZIN A   1      18.941   2.814  12.636  0.00  0.00    -0.386 OA
ATOM     23  H37 ZIN A   1      18.442   3.590  12.345  0.00  0.00     0.210 HD
ENDBRANCH  15  22
BRANCH  21  24
ATOM     24  O25 ZIN A   1      19.656  -2.892   8.555  0.00  0.00    -0.358 OA
ATOM     25  H42 ZIN A   1      20.033  -2.245   7.944  0.00  0.00     0.217 HD
ENDBRANCH  21  24
TORSDOF 2
ENDMDL
MODEL 7
REMARK VINA RESULT:      -7.0      2.269      4.414
REMARK  2 active torsions:
REMARK  status: ('A' for Active; 'I' for Inactive)
REMARK    1  A    between atoms: C16_15  and  O17_16 
REMARK    2  A    between atoms: C24_22  and  O25_23 
ROOT
ATOM      1  C1  ZIN A   1      18.483   1.738  13.786  0.00  0.00     0.270 C 
ATOM      2  N2  ZIN A   1      18.616   2.261  12.419  0.00  0.00    -0.067 N 
ATOM      3  H3  ZIN A   1      18.819   3.248  12.460  0.00  0.00     0.280 HD
ATOM      4  C4  ZIN A   1      17.353   2.058  11.701  0.00  0.00     0.236 C 
ATOM      5  C5  ZIN A   1      17.009   0.564  11.656  0.00  0.00     0.048 C 
ATOM      6  C6  ZIN A   1      18.161  -0.172  10.975  0.00  0.00     0.058 C 
ATOM      7  C7  ZIN A   1      18.388   0.406   9.601  0.00  0.00    -0.001 C 
ATOM      8  C8  ZIN A   1      17.734  -0.409   8.688  0.00  0.00     0.110 C 
ATOM      9  O9  ZIN A   1      17.183  -1.469   9.318  0.00  0.00    -0.334 OA
ATOM     10  C10 ZIN A   1      17.799  -1.610  10.633  0.00  0.00     0.214 C 
ATOM     11  C12 ZIN A   1      19.002  -2.491  10.469  0.00  0.00     0.157 C 
ATOM     12  O13 ZIN A   1      18.904  -3.477   9.777  0.00  0.00    -0.295 OA
ATOM     13  C14 ZIN A   1      20.321  -2.206  11.122  0.00  0.00     0.084 C 
ATOM     14  C15 ZIN A   1      20.621  -0.707  11.061  0.00  0.00     0.048 C 
ATOM     15  C16 ZIN A   1      19.452   0.063  11.743  0.00  0.00     0.102 C 
ATOM     16  C18 ZIN A   1      19.719   1.570  11.743  0.00  0.00     0.227 C 
ATOM     17  C20 ZIN A   1      19.935   2.166  10.362  0.00  0.00     0.075 C 
ATOM     18  C21 ZIN A   1      19.186   1.481   9.283  0.00  0.00    -0.046 C 
ATOM     19  C22 ZIN A   1      19.203   1.850   7.949  0.00  0.00     0.011 C 
ATOM     20  C23 ZIN A   1      18.522   1.096   7.008  0.00  0.00     0.040 C 
ATOM     21  C24 ZIN A   1      17.776  -0.045   7.337  0.00  0.00     0.099 C 
ENDROOT
BRANCH  15  22
ATOM     22  O17 ZIN A   1      19.298  -0.394  13.088  0.00  0.00    -0.386 OA
ATOM     23  H37 ZIN A   1      20.058  -0.205  13.657  0.00  0.00     0.210 HD
ENDBRANCH  15  22
BRANCH  21  24
ATOM     24  O25 ZIN A   1      17.148  -0.783   6.383  0.00  0.00    -0.358 OA
ATOM     25  H42 ZIN A   1      16.188  -0.668   6.365  0.00  0.00     0.217 HD
ENDBRANCH  21  24
TORSDOF 2
ENDMDL
MODEL 8
REMARK VINA RESULT:      -7.0      2.209      3.836
REMARK  2 active torsions:
REMARK  status: ('A' for Active; 'I' for Inactive)
REMARK    1  A    between atoms: C16_15  and  O17_16 
REMARK    2  A    between atoms: C24_22  and  O25_23 
ROOT
ATOM      1  C1  ZIN A   1      19.763  -3.344  12.001  0.00  0.00     0.270 C 
ATOM      2  N2  ZIN A   1      20.002  -1.976  12.481  0.00  0.00    -0.067 N 
ATOM      3  H3  ZIN A   1      20.657  -2.003  13.247  0.00  0.00     0.280 HD
ATOM      4  C4  ZIN A   1      18.736  -1.402  12.950  0.00  0.00     0.236 C 
ATOM      5  C5  ZIN A   1      17.713  -1.382  11.807  0.00  0.00     0.048 C 
ATOM      6  C6  ZIN A   1      18.299  -0.570  10.654  0.00  0.00     0.058 C 
ATOM      7  C7  ZIN A   1      18.645   0.816  11.138  0.00  0.00    -0.001 C 
ATOM      8  C8  ZIN A   1      17.598   1.657  10.792  0.00  0.00     0.110 C 
ATOM      9  O9  ZIN A   1      16.667   0.979  10.086  0.00  0.00    -0.334 OA
ATOM     10  C10 ZIN A   1      17.260  -0.257   9.587  0.00  0.00     0.214 C 
ATOM     11  C12 ZIN A   1      17.869   0.049   8.251  0.00  0.00     0.157 C 
ATOM     12  O13 ZIN A   1      17.245   0.734   7.477  0.00  0.00    -0.295 OA
ATOM     13  C14 ZIN A   1      19.217  -0.454   7.831  0.00  0.00     0.084 C 
ATOM     14  C15 ZIN A   1      20.194  -0.374   9.006  0.00  0.00     0.048 C 
ATOM     15  C16 ZIN A   1      19.610  -1.190  10.197  0.00  0.00     0.102 C 
ATOM     16  C18 ZIN A   1      20.567  -1.174  11.390  0.00  0.00     0.227 C 
ATOM     17  C20 ZIN A   1      20.912   0.217  11.895  0.00  0.00     0.075 C 
ATOM     18  C21 ZIN A   1      19.829   1.212  11.719  0.00  0.00    -0.046 C 
ATOM     19  C22 ZIN A   1      19.896   2.535  12.117  0.00  0.00     0.011 C 
ATOM     20  C23 ZIN A   1      18.851   3.401  11.839  0.00  0.00     0.040 C 
ATOM     21  C24 ZIN A   1      17.683   3.001  11.174  0.00  0.00     0.099 C 
ENDROOT
BRANCH  15  22
ATOM     22  O17 ZIN A   1      19.382  -2.540   9.786  0.00  0.00    -0.386 OA
ATOM     23  H37 ZIN A   1      18.670  -2.983  10.268  0.00  0.00     0.210 HD
ENDBRANCH  15  22
BRANCH  21  24
ATOM     24  O25 ZIN A   1      16.690   3.885  10.886  0.00  0.00    -0.358 OA
ATOM     25  H42 ZIN A   1      16.822   4.371  10.061  0.00  0.00     0.217 HD
ENDBRANCH  21  24
TORSDOF 2
ENDMDL
MODEL 9
REMARK VINA RESULT:      -6.9      1.897      4.625
REMARK  2 active torsions:
REMARK  status: ('A' for Active; 'I' for Inactive)
REMARK    1  A    between atoms: C16_15  and  O17_16 
REMARK    2  A    between atoms: C24_22  and  O25_23 
ROOT
ATOM      1  C1  ZIN A   1      18.829   1.936   8.083  0.00  0.00     0.270 C 
ATOM      2  N2  ZIN A   1      18.724   0.498   7.799  0.00  0.00    -0.067 N 
ATOM      3  H3  ZIN A   1      18.886   0.342   6.816  0.00  0.00     0.280 HD
ATOM      4  C4  ZIN A   1      17.377   0.036   8.146  0.00  0.00     0.236 C 
ATOM      5  C5  ZIN A   1      17.099   0.295   9.632  0.00  0.00     0.048 C 
ATOM      6  C6  ZIN A   1      18.164  -0.430  10.451  0.00  0.00     0.058 C 
ATOM      7  C7  ZIN A   1      18.149  -1.900  10.113  0.00  0.00    -0.001 C 
ATOM      8  C8  ZIN A   1      17.400  -2.548  11.084  0.00  0.00     0.110 C 
ATOM      9  O9  ZIN A   1      17.002  -1.671  12.031  0.00  0.00    -0.334 OA
ATOM     10  C10 ZIN A   1      17.820  -0.467  11.934  0.00  0.00     0.214 C 
ATOM     11  C12 ZIN A   1      19.022  -0.673  12.807  0.00  0.00     0.157 C 
ATOM     12  O13 ZIN A   1      18.864  -1.167  13.898  0.00  0.00    -0.295 OA
ATOM     13  C14 ZIN A   1      20.412  -0.296  12.389  0.00  0.00     0.084 C 
ATOM     14  C15 ZIN A   1      20.630  -0.652  10.917  0.00  0.00     0.048 C 
ATOM     15  C16 ZIN A   1      19.546   0.071  10.064  0.00  0.00     0.102 C 
ATOM     16  C18 ZIN A   1      19.741  -0.221   8.575  0.00  0.00     0.227 C 
ATOM     17  C20 ZIN A   1      19.713  -1.698   8.220  0.00  0.00     0.075 C 
ATOM     18  C21 ZIN A   1      18.838  -2.516   9.093  0.00  0.00    -0.046 C 
ATOM     19  C22 ZIN A   1      18.632  -3.877   8.958  0.00  0.00     0.011 C 
ATOM     20  C23 ZIN A   1      17.848  -4.559   9.874  0.00  0.00     0.040 C 
ATOM     21  C24 ZIN A   1      17.216  -3.930  10.956  0.00  0.00     0.099 C 
ENDROOT
BRANCH  15  22
ATOM     22  O17 ZIN A   1      19.623   1.480  10.287  0.00  0.00    -0.386 OA
ATOM     23  H37 ZIN A   1      20.526   1.816  10.376  0.00  0.00     0.210 HD
ENDBRANCH  15  22
BRANCH  21  24
ATOM     24  O25 ZIN A   1      16.482  -4.635  11.858  0.00  0.00    -0.358 OA
ATOM     25  H42 ZIN A   1      15.668  -4.193  12.135  0.00  0.00     0.217 HD
ENDBRANCH  21  24
TORSDOF 2
ENDMDL
