MODEL 1
REMARK VINA RESULT:      -9.7      0.000      0.000
REMARK  7 active torsions:
REMARK  status: ('A' for Active; 'I' for Inactive)
REMARK    1  A    between atoms: C5_5  and  C6_6 
REMARK       I    between atoms: C6_6  and  N8_8 
REMARK    2  A    between atoms: N8_8  and  C9_9 
REMARK    3  A    between atoms: C9_9  and  C12_12 
REMARK    4  A    between atoms: C14_14  and  C15_15 
REMARK    5  A    between atoms: N17_17  and  C18_18 
REMARK    6  A    between atoms: C18_18  and  C19_19 
REMARK    7  A    between atoms: C26_26  and  O27_27 
ROOT
ATOM      1  C12 ZIN A   1      18.495   0.881  15.655  0.00  0.00     0.137 A 
ATOM      2  N13 ZIN A   1      18.315   1.382  14.466  0.00  0.00    -0.225 NA
ATOM      3  C14 ZIN A   1      18.690   2.640  14.168  0.00  0.00     0.153 A 
ATOM      4  C26 ZIN A   1      19.281   3.425  15.144  0.00  0.00     0.168 A 
ATOM      5  C28 ZIN A   1      19.471   2.865  16.434  0.00  0.00     0.284 A 
ATOM      6  O29 ZIN A   1      19.987   3.517  17.326  0.00  0.00    -0.265 OA
ATOM      7  N30 ZIN A   1      19.062   1.598  16.655  0.00  0.00    -0.302 N 
ATOM      8  C31 ZIN A   1      19.243   0.991  17.976  0.00  0.00     0.161 C 
ENDROOT
BRANCH   1   9
ATOM      9  C9  ZIN A   1      18.053  -0.534  15.926  0.00  0.00     0.086 C 
ATOM     10  C10 ZIN A   1      16.790  -0.519  16.789  0.00  0.00     0.046 C 
ATOM     11  C11 ZIN A   1      19.166  -1.283  16.663  0.00  0.00     0.046 C 
BRANCH   9  12
ATOM     12  N8  ZIN A   1      17.770  -1.208  14.656  0.00  0.00    -0.338 N 
ATOM     13  C6  ZIN A   1      18.783  -1.672  13.899  0.00  0.00     0.297 C 
ATOM     14  O7  ZIN A   1      19.933  -1.531  14.268  0.00  0.00    -0.264 OA
ATOM     15  H36 ZIN A   1      16.852  -1.321  14.362  0.00  0.00     0.164 HD
BRANCH  13  16
ATOM     16  C5  ZIN A   1      18.497  -2.352  12.622  0.00  0.00     0.261 A 
ATOM     17  N4  ZIN A   1      17.393  -2.254  11.918  0.00  0.00    -0.116 NA
ATOM     18  N3  ZIN A   1      17.498  -2.985  10.864  0.00  0.00    -0.127 NA
ATOM     19  C2  ZIN A   1      18.666  -3.573  10.856  0.00  0.00     0.166 A 
ATOM     20  C1  ZIN A   1      19.182  -4.514   9.797  0.00  0.00     0.102 C 
ATOM     21  O32 ZIN A   1      19.320  -3.194  11.962  0.00  0.00    -0.270 OA
ENDBRANCH  13  16
ENDBRANCH   9  12
ENDBRANCH   1   9
BRANCH   3  22
ATOM     22  C15 ZIN A   1      18.471   3.180  12.807  0.00  0.00     0.228 C 
ATOM     23  O16 ZIN A   1      17.624   4.219  12.622  0.00  0.00    -0.168 OA
ATOM     24  N17 ZIN A   1      19.092   2.658  11.793  0.00  0.00    -0.258 NA
BRANCH  24  25
ATOM     25  C18 ZIN A   1      18.874   3.194  10.447  0.00  0.00     0.190 C 
BRANCH  25  26
ATOM     26  C19 ZIN A   1      18.557   2.065   9.501  0.00  0.00    -0.038 A 
ATOM     27  C25 ZIN A   1      17.677   1.069   9.885  0.00  0.00     0.012 A 
ATOM     28  C24 ZIN A   1      17.381   0.036   9.016  0.00  0.00     0.043 A 
ATOM     29  C22 ZIN A   1      17.975  -0.008   7.766  0.00  0.00     0.116 A 
ATOM     30  C21 ZIN A   1      18.860   0.986   7.385  0.00  0.00     0.043 A 
ATOM     31  F23 ZIN A   1      17.691  -1.022   6.918  0.00  0.00    -0.206 F 
ATOM     32  C20 ZIN A   1      19.150   2.021   8.253  0.00  0.00     0.012 A 
ENDBRANCH  25  26
ENDBRANCH  24  25
ENDBRANCH   3  22
BRANCH   4  33
ATOM     33  O27 ZIN A   1      19.669   4.698  14.873  0.00  0.00    -0.354 OA
ATOM     34  H49 ZIN A   1      20.628   4.823  14.862  0.00  0.00     0.218 HD
ENDBRANCH   4  33
TORSDOF 7
ENDMDL
MODEL 2
REMARK VINA RESULT:      -9.2      3.048      8.394
REMARK  7 active torsions:
REMARK  status: ('A' for Active; 'I' for Inactive)
REMARK    1  A    between atoms: C5_5  and  C6_6 
REMARK       I    between atoms: C6_6  and  N8_8 
REMARK    2  A    between atoms: N8_8  and  C9_9 
REMARK    3  A    between atoms: C9_9  and  C12_12 
REMARK    4  A    between atoms: C14_14  and  C15_15 
REMARK    5  A    between atoms: N17_17  and  C18_18 
REMARK    6  A    between atoms: C18_18  and  C19_19 
REMARK    7  A    between atoms: C26_26  and  O27_27 
ROOT
ATOM      1  C12 ZIN A   1      18.594  -1.112   7.490  0.00  0.00     0.137 A 
ATOM      2  N13 ZIN A   1      18.516  -1.484   8.737  0.00  0.00    -0.225 NA
ATOM      3  C14 ZIN A   1      18.974  -2.682   9.144  0.00  0.00     0.153 A 
ATOM      4  C26 ZIN A   1      19.542  -3.545   8.221  0.00  0.00     0.168 A 
ATOM      5  C28 ZIN A   1      19.620  -3.127   6.867  0.00  0.00     0.284 A 
ATOM      6  O29 ZIN A   1      20.110  -3.852   6.018  0.00  0.00    -0.265 OA
ATOM      7  N30 ZIN A   1      19.132  -1.911   6.538  0.00  0.00    -0.302 N 
ATOM      8  C31 ZIN A   1      19.197  -1.450   5.149  0.00  0.00     0.161 C 
ENDROOT
BRANCH   1   9
ATOM      9  C9  ZIN A   1      18.064   0.242   7.097  0.00  0.00     0.086 C 
ATOM     10  C10 ZIN A   1      16.786   0.071   6.272  0.00  0.00     0.046 C 
ATOM     11  C11 ZIN A   1      19.114   0.979   6.264  0.00  0.00     0.046 C 
BRANCH   9  12
ATOM     12  N8  ZIN A   1      17.766   1.019   8.304  0.00  0.00    -0.338 N 
ATOM     13  C6  ZIN A   1      18.740   1.729   8.905  0.00  0.00     0.297 C 
ATOM     14  O7  ZIN A   1      19.867   1.726   8.448  0.00  0.00    -0.264 OA
ATOM     15  H36 ZIN A   1      16.867   1.022   8.669  0.00  0.00     0.164 HD
BRANCH  13  16
ATOM     16  C5  ZIN A   1      18.440   2.511  10.118  0.00  0.00     0.261 A 
ATOM     17  N4  ZIN A   1      17.273   2.611  10.712  0.00  0.00    -0.116 NA
ATOM     18  N3  ZIN A   1      17.386   3.375  11.741  0.00  0.00    -0.127 NA
ATOM     19  C2  ZIN A   1      18.623   3.790  11.841  0.00  0.00     0.166 A 
ATOM     20  C1  ZIN A   1      19.170   4.704  12.909  0.00  0.00     0.102 C 
ATOM     21  O32 ZIN A   1      19.313   3.262  10.823  0.00  0.00    -0.270 OA
ENDBRANCH  13  16
ENDBRANCH   9  12
ENDBRANCH   1   9
BRANCH   3  22
ATOM     22  C15 ZIN A   1      18.870  -3.075  10.567  0.00  0.00     0.228 C 
ATOM     23  O16 ZIN A   1      18.623  -4.364  10.896  0.00  0.00    -0.168 OA
ATOM     24  N17 ZIN A   1      19.017  -2.183  11.500  0.00  0.00    -0.258 NA
BRANCH  24  25
ATOM     25  C18 ZIN A   1      18.914  -2.573  12.908  0.00  0.00     0.190 C 
BRANCH  25  26
ATOM     26  C19 ZIN A   1      18.987  -1.344  13.777  0.00  0.00    -0.038 A 
ATOM     27  C25 ZIN A   1      19.404  -0.140  13.238  0.00  0.00     0.012 A 
ATOM     28  C24 ZIN A   1      19.466   0.988  14.032  0.00  0.00     0.043 A 
ATOM     29  C22 ZIN A   1      19.121   0.912  15.371  0.00  0.00     0.116 A 
ATOM     30  C21 ZIN A   1      18.710  -0.294  15.911  0.00  0.00     0.043 A 
ATOM     31  F23 ZIN A   1      19.187   2.014  16.150  0.00  0.00    -0.206 F 
ATOM     32  C20 ZIN A   1      18.643  -1.421  15.114  0.00  0.00     0.012 A 
ENDBRANCH  25  26
ENDBRANCH  24  25
ENDBRANCH   3  22
BRANCH   4  33
ATOM     33  O27 ZIN A   1      20.011  -4.761   8.602  0.00  0.00    -0.354 OA
ATOM     34  H49 ZIN A   1      19.888  -5.455   7.941  0.00  0.00     0.218 HD
ENDBRANCH   4  33
TORSDOF 7
ENDMDL
MODEL 3
REMARK VINA RESULT:      -9.1      2.929      6.901
REMARK  7 active torsions:
REMARK  status: ('A' for Active; 'I' for Inactive)
REMARK    1  A    between atoms: C5_5  and  C6_6 
REMARK       I    between atoms: C6_6  and  N8_8 
REMARK    2  A    between atoms: N8_8  and  C9_9 
REMARK    3  A    between atoms: C9_9  and  C12_12 
REMARK    4  A    between atoms: C14_14  and  C15_15 
REMARK    5  A    between atoms: N17_17  and  C18_18 
REMARK    6  A    between atoms: C18_18  and  C19_19 
REMARK    7  A    between atoms: C26_26  and  O27_27 
ROOT
ATOM      1  C12 ZIN A   1      18.471  -3.305   9.302  0.00  0.00     0.137 A 
ATOM      2  N13 ZIN A   1      18.434  -2.011   9.148  0.00  0.00    -0.225 NA
ATOM      3  C14 ZIN A   1      18.833  -1.427   8.004  0.00  0.00     0.153 A 
ATOM      4  C26 ZIN A   1      19.298  -2.212   6.962  0.00  0.00     0.168 A 
ATOM      5  C28 ZIN A   1      19.333  -3.620   7.144  0.00  0.00     0.284 A 
ATOM      6  O29 ZIN A   1      19.734  -4.353   6.256  0.00  0.00    -0.265 OA
ATOM      7  N30 ZIN A   1      18.919  -4.128   8.324  0.00  0.00    -0.302 N 
ATOM      8  C31 ZIN A   1      18.943  -5.577   8.544  0.00  0.00     0.161 C 
ENDROOT
BRANCH   1   9
ATOM      9  C9  ZIN A   1      18.009  -3.899  10.607  0.00  0.00     0.086 C 
ATOM     10  C10 ZIN A   1      19.140  -4.727  11.221  0.00  0.00     0.046 C 
ATOM     11  C11 ZIN A   1      16.796  -4.798  10.357  0.00  0.00     0.046 C 
BRANCH   9  12
ATOM     12  N8  ZIN A   1      17.636  -2.823  11.529  0.00  0.00    -0.338 N 
ATOM     13  C6  ZIN A   1      18.544  -2.333  12.396  0.00  0.00     0.297 C 
ATOM     14  O7  ZIN A   1      19.673  -2.785  12.414  0.00  0.00    -0.264 OA
ATOM     15  H36 ZIN A   1      16.736  -2.462  11.514  0.00  0.00     0.164 HD
BRANCH  13  16
ATOM     16  C5  ZIN A   1      18.169  -1.250  13.323  0.00  0.00     0.261 A 
ATOM     17  N4  ZIN A   1      17.628  -0.099  12.998  0.00  0.00    -0.116 NA
ATOM     18  N3  ZIN A   1      17.438   0.596  14.064  0.00  0.00    -0.127 NA
ATOM     19  C2  ZIN A   1      17.849  -0.083  15.104  0.00  0.00     0.166 A 
ATOM     20  C1  ZIN A   1      17.804   0.376  16.540  0.00  0.00     0.102 C 
ATOM     21  O32 ZIN A   1      18.322  -1.256  14.664  0.00  0.00    -0.270 OA
ENDBRANCH  13  16
ENDBRANCH   9  12
ENDBRANCH   1   9
BRANCH   3  22
ATOM     22  C15 ZIN A   1      18.779   0.046   7.861  0.00  0.00     0.228 C 
ATOM     23  O16 ZIN A   1      18.286   0.597   6.728  0.00  0.00    -0.168 OA
ATOM     24  N17 ZIN A   1      19.204   0.807   8.823  0.00  0.00    -0.258 NA
BRANCH  24  25
ATOM     25  C18 ZIN A   1      19.149   2.265   8.681  0.00  0.00     0.190 C 
BRANCH  25  26
ATOM     26  C19 ZIN A   1      18.857   2.890  10.021  0.00  0.00    -0.038 A 
ATOM     27  C25 ZIN A   1      17.829   3.807  10.147  0.00  0.00     0.012 A 
ATOM     28  C24 ZIN A   1      17.557   4.376  11.376  0.00  0.00     0.043 A 
ATOM     29  C22 ZIN A   1      18.321   4.036  12.480  0.00  0.00     0.116 A 
ATOM     30  C21 ZIN A   1      19.353   3.123  12.352  0.00  0.00     0.043 A 
ATOM     31  F23 ZIN A   1      18.060   4.597  13.681  0.00  0.00    -0.206 F 
ATOM     32  C20 ZIN A   1      19.620   2.550  11.123  0.00  0.00     0.012 A 
ENDBRANCH  25  26
ENDBRANCH  24  25
ENDBRANCH   3  22
BRANCH   4  33
ATOM     33  O27 ZIN A   1      19.709  -1.651   5.796  0.00  0.00    -0.354 OA
ATOM     34  H49 ZIN A   1      19.212  -1.945   5.021  0.00  0.00     0.218 HD
ENDBRANCH   4  33
TORSDOF 7
ENDMDL
MODEL 4
REMARK VINA RESULT:      -9.0      2.340      6.660
REMARK  7 active torsions:
REMARK  status: ('A' for Active; 'I' for Inactive)
REMARK    1  A    between atoms: C5_5  and  C6_6 
REMARK       I    between atoms: C6_6  and  N8_8 
REMARK    2  A    between atoms: N8_8  and  C9_9 
REMARK    3  A    between atoms: C9_9  and  C12_12 
REMARK    4  A    between atoms: C14_14  and  C15_15 
REMARK    5  A    between atoms: N17_17  and  C18_18 
REMARK    6  A    between atoms: C18_18  and  C19_19 
REMARK    7  A    between atoms: C26_26  and  O27_27 
ROOT
ATOM      1  C12 ZIN A   1      18.981   2.720  11.688  0.00  0.00     0.137 A 
ATOM      2  N13 ZIN A   1      19.425   1.514  11.900  0.00  0.00    -0.225 NA
ATOM      3  C14 ZIN A   1      19.638   0.654  10.887  0.00  0.00     0.153 A 
ATOM      4  C26 ZIN A   1      19.379   1.053   9.587  0.00  0.00     0.168 A 
ATOM      5  C28 ZIN A   1      18.895   2.370   9.371  0.00  0.00     0.284 A 
ATOM      6  O29 ZIN A   1      18.652   2.767   8.244  0.00  0.00    -0.265 OA
ATOM      7  N30 ZIN A   1      18.703   3.170  10.441  0.00  0.00    -0.302 N 
ATOM      8  C31 ZIN A   1      18.204   4.535  10.252  0.00  0.00     0.161 C 
ENDROOT
BRANCH   1   9
ATOM      9  C9  ZIN A   1      18.764   3.637  12.864  0.00  0.00     0.086 C 
ATOM     10  C10 ZIN A   1      17.323   4.150  12.853  0.00  0.00     0.046 C 
ATOM     11  C11 ZIN A   1      19.729   4.821  12.772  0.00  0.00     0.046 C 
BRANCH   9  12
ATOM     12  N8  ZIN A   1      19.011   2.902  14.107  0.00  0.00    -0.338 N 
ATOM     13  C6  ZIN A   1      18.677   3.451  15.292  0.00  0.00     0.297 C 
ATOM     14  O7  ZIN A   1      18.171   4.556  15.329  0.00  0.00    -0.264 OA
ATOM     15  H36 ZIN A   1      19.415   2.020  14.078  0.00  0.00     0.164 HD
BRANCH  13  16
ATOM     16  C5  ZIN A   1      18.925   2.711  16.543  0.00  0.00     0.261 A 
ATOM     17  N4  ZIN A   1      19.691   3.096  17.537  0.00  0.00    -0.116 NA
ATOM     18  N3  ZIN A   1      19.669   2.200  18.460  0.00  0.00    -0.127 NA
ATOM     19  C2  ZIN A   1      18.891   1.214  18.091  0.00  0.00     0.166 A 
ATOM     20  C1  ZIN A   1      18.596  -0.031  18.887  0.00  0.00     0.102 C 
ATOM     21  O32 ZIN A   1      18.409   1.509  16.877  0.00  0.00    -0.270 OA
ENDBRANCH  13  16
ENDBRANCH   9  12
ENDBRANCH   1   9
BRANCH   3  22
ATOM     22  C15 ZIN A   1      20.143  -0.710  11.162  0.00  0.00     0.228 C 
ATOM     23  O16 ZIN A   1      21.376  -1.072  10.741  0.00  0.00    -0.168 OA
ATOM     24  N17 ZIN A   1      19.402  -1.559  11.808  0.00  0.00    -0.258 NA
BRANCH  24  25
ATOM     25  C18 ZIN A   1      19.903  -2.909  12.081  0.00  0.00     0.190 C 
BRANCH  25  26
ATOM     26  C19 ZIN A   1      19.019  -3.920  11.397  0.00  0.00    -0.038 A 
ATOM     27  C25 ZIN A   1      17.747  -4.165  11.880  0.00  0.00     0.012 A 
ATOM     28  C24 ZIN A   1      16.934  -5.088  11.250  0.00  0.00     0.043 A 
ATOM     29  C22 ZIN A   1      17.399  -5.777  10.143  0.00  0.00     0.116 A 
ATOM     30  C21 ZIN A   1      18.675  -5.536   9.663  0.00  0.00     0.043 A 
ATOM     31  F23 ZIN A   1      16.607  -6.684   9.529  0.00  0.00    -0.206 F 
ATOM     32  C20 ZIN A   1      19.484  -4.608  10.291  0.00  0.00     0.012 A 
ENDBRANCH  25  26
ENDBRANCH  24  25
ENDBRANCH   3  22
BRANCH   4  33
ATOM     33  O27 ZIN A   1      19.583   0.207   8.545  0.00  0.00    -0.354 OA
ATOM     34  H49 ZIN A   1      19.173  -0.662   8.658  0.00  0.00     0.218 HD
ENDBRANCH   4  33
TORSDOF 7
ENDMDL
MODEL 5
REMARK VINA RESULT:      -9.0      4.160      7.598
REMARK  7 active torsions:
REMARK  status: ('A' for Active; 'I' for Inactive)
REMARK    1  A    between atoms: C5_5  and  C6_6 
REMARK       I    between atoms: C6_6  and  N8_8 
REMARK    2  A    between atoms: N8_8  and  C9_9 
REMARK    3  A    between atoms: C9_9  and  C12_12 
REMARK    4  A    between atoms: C14_14  and  C15_15 
REMARK    5  A    between atoms: N17_17  and  C18_18 
REMARK    6  A    between atoms: C18_18  and  C19_19 
REMARK    7  A    between atoms: C26_26  and  O27_27 
ROOT
ATOM      1  C12 ZIN A   1      18.959  -2.380   8.287  0.00  0.00     0.137 A 
ATOM      2  N13 ZIN A   1      19.206  -1.710   9.377  0.00  0.00    -0.225 NA
ATOM      3  C14 ZIN A   1      19.360  -0.373   9.361  0.00  0.00     0.153 A 
ATOM      4  C26 ZIN A   1      19.257   0.312   8.162  0.00  0.00     0.168 A 
ATOM      5  C28 ZIN A   1      18.987  -0.431   6.983  0.00  0.00     0.284 A 
ATOM      6  O29 ZIN A   1      18.888   0.127   5.904  0.00  0.00    -0.265 OA
ATOM      7  N30 ZIN A   1      18.851  -1.771   7.082  0.00  0.00    -0.302 N 
ATOM      8  C31 ZIN A   1      18.573  -2.567   5.883  0.00  0.00     0.161 C 
ENDROOT
BRANCH   1   9
ATOM      9  C9  ZIN A   1      18.795  -3.876   8.370  0.00  0.00     0.086 C 
ATOM     10  C10 ZIN A   1      19.131  -4.350   9.785  0.00  0.00     0.046 C 
ATOM     11  C11 ZIN A   1      19.739  -4.548   7.369  0.00  0.00     0.046 C 
BRANCH   9  12
ATOM     12  N8  ZIN A   1      17.411  -4.234   8.050  0.00  0.00    -0.338 N 
ATOM     13  C6  ZIN A   1      17.026  -5.525   8.075  0.00  0.00     0.297 C 
ATOM     14  O7  ZIN A   1      17.827  -6.393   8.362  0.00  0.00    -0.264 OA
ATOM     15  H36 ZIN A   1      16.771  -3.541   7.821  0.00  0.00     0.164 HD
BRANCH  13  16
ATOM     16  C5  ZIN A   1      15.633  -5.884   7.754  0.00  0.00     0.261 A 
ATOM     17  N4  ZIN A   1      15.193  -6.358   6.611  0.00  0.00    -0.116 NA
ATOM     18  N3  ZIN A   1      13.925  -6.556   6.694  0.00  0.00    -0.127 NA
ATOM     19  C2  ZIN A   1      13.509  -6.217   7.887  0.00  0.00     0.166 A 
ATOM     20  C1  ZIN A   1      12.090  -6.297   8.390  0.00  0.00     0.102 C 
ATOM     21  O32 ZIN A   1      14.569  -5.784   8.580  0.00  0.00    -0.270 OA
ENDBRANCH  13  16
ENDBRANCH   9  12
ENDBRANCH   1   9
BRANCH   3  22
ATOM     22  C15 ZIN A   1      19.641   0.359  10.617  0.00  0.00     0.228 C 
ATOM     23  O16 ZIN A   1      19.278   1.656  10.738  0.00  0.00    -0.168 OA
ATOM     24  N17 ZIN A   1      20.234  -0.245  11.602  0.00  0.00    -0.258 NA
BRANCH  24  25
ATOM     25  C18 ZIN A   1      20.511   0.480  12.845  0.00  0.00     0.190 C 
BRANCH  25  26
ATOM     26  C19 ZIN A   1      19.501   0.086  13.892  0.00  0.00    -0.038 A 
ATOM     27  C25 ZIN A   1      19.558  -1.170  14.468  0.00  0.00     0.012 A 
ATOM     28  C24 ZIN A   1      18.637  -1.531  15.432  0.00  0.00     0.043 A 
ATOM     29  C22 ZIN A   1      17.649  -0.639  15.813  0.00  0.00     0.116 A 
ATOM     30  C21 ZIN A   1      17.589   0.616  15.232  0.00  0.00     0.043 A 
ATOM     31  F23 ZIN A   1      16.743  -0.993  16.751  0.00  0.00    -0.206 F 
ATOM     32  C20 ZIN A   1      18.515   0.977  14.272  0.00  0.00     0.012 A 
ENDBRANCH  25  26
ENDBRANCH  24  25
ENDBRANCH   3  22
BRANCH   4  33
ATOM     33  O27 ZIN A   1      19.409   1.660   8.115  0.00  0.00    -0.354 OA
ATOM     34  H49 ZIN A   1      20.082   1.959   7.489  0.00  0.00     0.218 HD
ENDBRANCH   4  33
TORSDOF 7
ENDMDL
MODEL 6
REMARK VINA RESULT:      -8.9      3.679      7.970
REMARK  7 active torsions:
REMARK  status: ('A' for Active; 'I' for Inactive)
REMARK    1  A    between atoms: C5_5  and  C6_6 
REMARK       I    between atoms: C6_6  and  N8_8 
REMARK    2  A    between atoms: N8_8  and  C9_9 
REMARK    3  A    between atoms: C9_9  and  C12_12 
REMARK    4  A    between atoms: C14_14  and  C15_15 
REMARK    5  A    between atoms: N17_17  and  C18_18 
REMARK    6  A    between atoms: C18_18  and  C19_19 
REMARK    7  A    between atoms: C26_26  and  O27_27 
ROOT
ATOM      1  C12 ZIN A   1      19.079  -4.028   7.174  0.00  0.00     0.137 A 
ATOM      2  N13 ZIN A   1      19.202  -2.732   7.240  0.00  0.00    -0.225 NA
ATOM      3  C14 ZIN A   1      18.956  -1.947   6.175  0.00  0.00     0.153 A 
ATOM      4  C26 ZIN A   1      18.565  -2.524   4.978  0.00  0.00     0.168 A 
ATOM      5  C28 ZIN A   1      18.435  -3.936   4.921  0.00  0.00     0.284 A 
ATOM      6  O29 ZIN A   1      18.094  -4.489   3.890  0.00  0.00    -0.265 OA
ATOM      7  N30 ZIN A   1      18.706  -4.654   6.033  0.00  0.00    -0.302 N 
ATOM      8  C31 ZIN A   1      18.582  -6.113   6.007  0.00  0.00     0.161 C 
ENDROOT
BRANCH   1   9
ATOM      9  C9  ZIN A   1      19.368  -4.852   8.402  0.00  0.00     0.086 C 
ATOM     10  C10 ZIN A   1      20.735  -5.525   8.256  0.00  0.00     0.046 C 
ATOM     11  C11 ZIN A   1      18.287  -5.923   8.563  0.00  0.00     0.046 C 
BRANCH   9  12
ATOM     12  N8  ZIN A   1      19.375  -3.984   9.582  0.00  0.00    -0.338 N 
ATOM     13  C6  ZIN A   1      18.211  -3.616  10.154  0.00  0.00     0.297 C 
ATOM     14  O7  ZIN A   1      17.156  -4.003   9.690  0.00  0.00    -0.264 OA
ATOM     15  H36 ZIN A   1      20.216  -3.675   9.953  0.00  0.00     0.164 HD
BRANCH  13  16
ATOM     16  C5  ZIN A   1      18.218  -2.743  11.342  0.00  0.00     0.261 A 
ATOM     17  N4  ZIN A   1      17.286  -1.884  11.683  0.00  0.00    -0.116 NA
ATOM     18  N3  ZIN A   1      17.628  -1.300  12.777  0.00  0.00    -0.127 NA
ATOM     19  C2  ZIN A   1      18.786  -1.763  13.174  0.00  0.00     0.166 A 
ATOM     20  C1  ZIN A   1      19.537  -1.339  14.411  0.00  0.00     0.102 C 
ATOM     21  O32 ZIN A   1      19.186  -2.676  12.281  0.00  0.00    -0.270 OA
ENDBRANCH  13  16
ENDBRANCH   9  12
ENDBRANCH   1   9
BRANCH   3  22
ATOM     22  C15 ZIN A   1      19.106  -0.478   6.281  0.00  0.00     0.228 C 
ATOM     23  O16 ZIN A   1      19.530   0.237   5.214  0.00  0.00    -0.168 OA
ATOM     24  N17 ZIN A   1      18.829   0.123   7.399  0.00  0.00    -0.258 NA
BRANCH  24  25
ATOM     25  C18 ZIN A   1      18.977   1.577   7.503  0.00  0.00     0.190 C 
BRANCH  25  26
ATOM     26  C19 ZIN A   1      18.958   1.981   8.955  0.00  0.00    -0.038 A 
ATOM     27  C25 ZIN A   1      18.489   3.231   9.318  0.00  0.00     0.012 A 
ATOM     28  C24 ZIN A   1      18.466   3.600  10.649  0.00  0.00     0.043 A 
ATOM     29  C22 ZIN A   1      18.923   2.723  11.618  0.00  0.00     0.116 A 
ATOM     30  C21 ZIN A   1      19.398   1.475  11.253  0.00  0.00     0.043 A 
ATOM     31  F23 ZIN A   1      18.907   3.085  12.920  0.00  0.00    -0.206 F 
ATOM     32  C20 ZIN A   1      19.415   1.105   9.922  0.00  0.00     0.012 A 
ENDBRANCH  25  26
ENDBRANCH  24  25
ENDBRANCH   3  22
BRANCH   4  33
ATOM     33  O27 ZIN A   1      18.311  -1.757   3.886  0.00  0.00    -0.354 OA
ATOM     34  H49 ZIN A   1      17.625  -2.114   3.305  0.00  0.00     0.218 HD
ENDBRANCH   4  33
TORSDOF 7
ENDMDL
MODEL 7
REMARK VINA RESULT:      -8.8      4.657      8.407
REMARK  7 active torsions:
REMARK  status: ('A' for Active; 'I' for Inactive)
REMARK    1  A    between atoms: C5_5  and  C6_6 
REMARK       I    between atoms: C6_6  and  N8_8 
REMARK    2  A    between atoms: N8_8  and  C9_9 
REMARK    3  A    between atoms: C9_9  and  C12_12 
REMARK    4  A    between atoms: C14_14  and  C15_15 
REMARK    5  A    between atoms: N17_17  and  C18_18 
REMARK    6  A    between atoms: C18_18  and  C19_19 
REMARK    7  A    between atoms: C26_26  and  O27_27 
ROOT
ATOM      1  C12 ZIN A   1      18.203  -1.662   8.212  0.00  0.00     0.137 A 
ATOM      2  N13 ZIN A   1      17.742  -0.896   9.159  0.00  0.00    -0.225 NA
ATOM      3  C14 ZIN A   1      17.841  -1.242  10.456  0.00  0.00     0.153 A 
ATOM      4  C26 ZIN A   1      18.446  -2.440  10.798  0.00  0.00     0.168 A 
ATOM      5  C28 ZIN A   1      18.945  -3.264   9.755  0.00  0.00     0.284 A 
ATOM      6  O29 ZIN A   1      19.485  -4.328  10.007  0.00  0.00    -0.265 OA
ATOM      7  N30 ZIN A   1      18.801  -2.848   8.479  0.00  0.00    -0.302 N 
ATOM      8  C31 ZIN A   1      19.304  -3.676   7.380  0.00  0.00     0.161 C 
ENDROOT
BRANCH   1   9
ATOM      9  C9  ZIN A   1      18.062  -1.219   6.779  0.00  0.00     0.086 C 
ATOM     10  C10 ZIN A   1      19.399  -0.664   6.281  0.00  0.00     0.046 C 
ATOM     11  C11 ZIN A   1      16.991  -0.130   6.685  0.00  0.00     0.046 C 
BRANCH   9  12
ATOM     12  N8  ZIN A   1      17.669  -2.362   5.951  0.00  0.00    -0.338 N 
ATOM     13  C6  ZIN A   1      17.526  -2.212   4.620  0.00  0.00     0.297 C 
ATOM     14  O7  ZIN A   1      17.723  -1.128   4.105  0.00  0.00    -0.264 OA
ATOM     15  H36 ZIN A   1      17.513  -3.227   6.362  0.00  0.00     0.164 HD
BRANCH  13  16
ATOM     16  C5  ZIN A   1      17.132  -3.363   3.787  0.00  0.00     0.261 A 
ATOM     17  N4  ZIN A   1      15.906  -3.721   3.483  0.00  0.00    -0.116 NA
ATOM     18  N3  ZIN A   1      15.943  -4.770   2.739  0.00  0.00    -0.127 NA
ATOM     19  C2  ZIN A   1      17.188  -5.119   2.542  0.00  0.00     0.166 A 
ATOM     20  C1  ZIN A   1      17.664  -6.295   1.726  0.00  0.00     0.102 C 
ATOM     21  O32 ZIN A   1      17.964  -4.247   3.198  0.00  0.00    -0.270 OA
ENDBRANCH  13  16
ENDBRANCH   9  12
ENDBRANCH   1   9
BRANCH   3  22
ATOM     22  C15 ZIN A   1      17.306  -0.349  11.508  0.00  0.00     0.228 C 
ATOM     23  O16 ZIN A   1      15.999  -0.001  11.498  0.00  0.00    -0.168 OA
ATOM     24  N17 ZIN A   1      18.090   0.098  12.442  0.00  0.00    -0.258 NA
BRANCH  24  25
ATOM     25  C18 ZIN A   1      17.558   0.980  13.484  0.00  0.00     0.190 C 
BRANCH  25  26
ATOM     26  C19 ZIN A   1      18.064   0.530  14.830  0.00  0.00    -0.038 A 
ATOM     27  C25 ZIN A   1      18.481   1.464  15.760  0.00  0.00     0.012 A 
ATOM     28  C24 ZIN A   1      18.940   1.052  16.996  0.00  0.00     0.043 A 
ATOM     29  C22 ZIN A   1      18.992  -0.298  17.300  0.00  0.00     0.116 A 
ATOM     30  C21 ZIN A   1      18.579  -1.233  16.367  0.00  0.00     0.043 A 
ATOM     31  F23 ZIN A   1      19.445  -0.703  18.507  0.00  0.00    -0.206 F 
ATOM     32  C20 ZIN A   1      18.115  -0.818  15.133  0.00  0.00     0.012 A 
ENDBRANCH  25  26
ENDBRANCH  24  25
ENDBRANCH   3  22
BRANCH   4  33
ATOM     33  O27 ZIN A   1      18.560  -2.816  12.098  0.00  0.00    -0.354 OA
ATOM     34  H49 ZIN A   1      18.800  -2.096  12.696  0.00  0.00     0.218 HD
ENDBRANCH   4  33
TORSDOF 7
ENDMDL
MODEL 8
REMARK VINA RESULT:      -8.6      3.218      6.202
REMARK  7 active torsions:
REMARK  status: ('A' for Active; 'I' for Inactive)
REMARK    1  A    between atoms: C5_5  and  C6_6 
REMARK       I    between atoms: C6_6  and  N8_8 
REMARK    2  A    between atoms: N8_8  and  C9_9 
REMARK    3  A    between atoms: C9_9  and  C12_12 
REMARK    4  A    between atoms: C14_14  and  C15_15 
REMARK    5  A    between atoms: N17_17  and  C18_18 
REMARK    6  A    between atoms: C18_18  and  C19_19 
REMARK    7  A    between atoms: C26_26  and  O27_27 
ROOT
ATOM      1  C12 ZIN A   1      18.782   2.510  14.824  0.00  0.00     0.137 A 
ATOM      2  N13 ZIN A   1      18.967   1.716  13.808  0.00  0.00    -0.225 NA
ATOM      3  C14 ZIN A   1      19.167   0.395  13.975  0.00  0.00     0.153 A 
ATOM      4  C26 ZIN A   1      19.179  -0.137  15.253  0.00  0.00     0.168 A 
ATOM      5  C28 ZIN A   1      18.975   0.741  16.350  0.00  0.00     0.284 A 
ATOM      6  O29 ZIN A   1      18.977   0.319  17.494  0.00  0.00    -0.265 OA
ATOM      7  N30 ZIN A   1      18.787   2.054  16.099  0.00  0.00    -0.302 N 
ATOM      8  C31 ZIN A   1      18.575   2.986  17.209  0.00  0.00     0.161 C 
ENDROOT
BRANCH   1   9
ATOM      9  C9  ZIN A   1      18.562   3.979  14.572  0.00  0.00     0.086 C 
ATOM     10  C10 ZIN A   1      18.763   4.279  13.085  0.00  0.00     0.046 C 
ATOM     11  C11 ZIN A   1      19.562   4.793  15.396  0.00  0.00     0.046 C 
BRANCH   9  12
ATOM     12  N8  ZIN A   1      17.198   4.343  14.963  0.00  0.00    -0.338 N 
ATOM     13  C6  ZIN A   1      16.710   5.560  14.653  0.00  0.00     0.297 C 
ATOM     14  O7  ZIN A   1      17.401   6.357  14.048  0.00  0.00    -0.264 OA
ATOM     15  H36 ZIN A   1      16.646   3.707  15.446  0.00  0.00     0.164 HD
BRANCH  13  16
ATOM     16  C5  ZIN A   1      15.337   5.925  15.046  0.00  0.00     0.261 A 
ATOM     17  N4  ZIN A   1      14.962   6.416  16.204  0.00  0.00    -0.116 NA
ATOM     18  N3  ZIN A   1      13.691   6.614  16.190  0.00  0.00    -0.127 NA
ATOM     19  C2  ZIN A   1      13.209   6.258  15.027  0.00  0.00     0.166 A 
ATOM     20  C1  ZIN A   1      11.763   6.330  14.604  0.00  0.00     0.102 C 
ATOM     21  O32 ZIN A   1      14.229   5.813  14.283  0.00  0.00    -0.270 OA
ENDBRANCH  13  16
ENDBRANCH   9  12
ENDBRANCH   1   9
BRANCH   3  22
ATOM     22  C15 ZIN A   1      19.375  -0.481  12.800  0.00  0.00     0.228 C 
ATOM     23  O16 ZIN A   1      18.780  -1.695  12.749  0.00  0.00    -0.168 OA
ATOM     24  N17 ZIN A   1      20.127  -0.084  11.819  0.00  0.00    -0.258 NA
BRANCH  24  25
ATOM     25  C18 ZIN A   1      20.332  -0.951  10.656  0.00  0.00     0.190 C 
BRANCH  25  26
ATOM     26  C19 ZIN A   1      19.825  -0.259   9.417  0.00  0.00    -0.038 A 
ATOM     27  C25 ZIN A   1      19.707   1.119   9.394  0.00  0.00     0.012 A 
ATOM     28  C24 ZIN A   1      19.246   1.754   8.257  0.00  0.00     0.043 A 
ATOM     29  C22 ZIN A   1      18.892   1.010   7.145  0.00  0.00     0.116 A 
ATOM     30  C21 ZIN A   1      19.005  -0.369   7.170  0.00  0.00     0.043 A 
ATOM     31  F23 ZIN A   1      18.436   1.631   6.033  0.00  0.00    -0.206 F 
ATOM     32  C20 ZIN A   1      19.471  -1.002   8.306  0.00  0.00     0.012 A 
ENDBRANCH  25  26
ENDBRANCH  24  25
ENDBRANCH   3  22
BRANCH   4  33
ATOM     33  O27 ZIN A   1      19.379  -1.465  15.453  0.00  0.00    -0.354 OA
ATOM     34  H49 ZIN A   1      18.672  -1.900  15.949  0.00  0.00     0.218 HD
ENDBRANCH   4  33
TORSDOF 7
ENDMDL
MODEL 9
REMARK VINA RESULT:      -8.6      3.060      6.488
REMARK  7 active torsions:
REMARK  status: ('A' for Active; 'I' for Inactive)
REMARK    1  A    between atoms: C5_5  and  C6_6 
REMARK       I    between atoms: C6_6  and  N8_8 
REMARK    2  A    between atoms: N8_8  and  C9_9 
REMARK    3  A    between atoms: C9_9  and  C12_12 
REMARK    4  A    between atoms: C14_14  and  C15_15 
REMARK    5  A    between atoms: N17_17  and  C18_18 
REMARK    6  A    between atoms: C18_18  and  C19_19 
REMARK    7  A    between atoms: C26_26  and  O27_27 
ROOT
ATOM      1  C12 ZIN A   1      18.665   2.187  12.823  0.00  0.00     0.137 A 
ATOM      2  N13 ZIN A   1      18.817   1.287  11.894  0.00  0.00    -0.225 NA
ATOM      3  C14 ZIN A   1      19.181   0.025  12.189  0.00  0.00     0.153 A 
ATOM      4  C26 ZIN A   1      19.402  -0.331  13.510  0.00  0.00     0.168 A 
ATOM      5  C28 ZIN A   1      19.232   0.660  14.511  0.00  0.00     0.284 A 
ATOM      6  O29 ZIN A   1      19.415   0.395  15.687  0.00  0.00    -0.265 OA
ATOM      7  N30 ZIN A   1      18.871   1.905  14.132  0.00  0.00    -0.302 N 
ATOM      8  C31 ZIN A   1      18.688   2.951  15.142  0.00  0.00     0.161 C 
ENDROOT
BRANCH   1   9
ATOM      9  C9  ZIN A   1      18.255   3.582  12.430  0.00  0.00     0.086 C 
ATOM     10  C10 ZIN A   1      17.534   3.542  11.081  0.00  0.00     0.046 C 
ATOM     11  C11 ZIN A   1      19.499   4.466  12.317  0.00  0.00     0.046 C 
BRANCH   9  12
ATOM     12  N8  ZIN A   1      17.357   4.132  13.448  0.00  0.00    -0.338 N 
ATOM     13  C6  ZIN A   1      16.650   5.250  13.190  0.00  0.00     0.297 C 
ATOM     14  O7  ZIN A   1      16.758   5.803  12.112  0.00  0.00    -0.264 OA
ATOM     15  H36 ZIN A   1      17.270   3.691  14.308  0.00  0.00     0.164 HD
BRANCH  13  16
ATOM     16  C5  ZIN A   1      15.746   5.803  14.214  0.00  0.00     0.261 A 
ATOM     17  N4  ZIN A   1      16.101   6.430  15.311  0.00  0.00    -0.116 NA
ATOM     18  N3  ZIN A   1      15.047   6.771  15.965  0.00  0.00    -0.127 NA
ATOM     19  C2  ZIN A   1      13.984   6.376  15.312  0.00  0.00     0.166 A 
ATOM     20  C1  ZIN A   1      12.552   6.580  15.739  0.00  0.00     0.102 C 
ATOM     21  O32 ZIN A   1      14.396   5.756  14.200  0.00  0.00    -0.270 OA
ENDBRANCH  13  16
ENDBRANCH   9  12
ENDBRANCH   1   9
BRANCH   3  22
ATOM     22  C15 ZIN A   1      19.347  -0.975  11.110  0.00  0.00     0.228 C 
ATOM     23  O16 ZIN A   1      20.376  -1.852  11.153  0.00  0.00    -0.168 OA
ATOM     24  N17 ZIN A   1      18.504  -1.010  10.122  0.00  0.00    -0.258 NA
BRANCH  24  25
ATOM     25  C18 ZIN A   1      18.668  -2.000   9.055  0.00  0.00     0.190 C 
BRANCH  25  26
ATOM     26  C19 ZIN A   1      18.826  -1.293   7.733  0.00  0.00    -0.038 A 
ATOM     27  C25 ZIN A   1      19.154  -2.013   6.599  0.00  0.00     0.012 A 
ATOM     28  C24 ZIN A   1      19.294  -1.366   5.386  0.00  0.00     0.043 A 
ATOM     29  C22 ZIN A   1      19.117   0.005   5.309  0.00  0.00     0.116 A 
ATOM     30  C21 ZIN A   1      18.795   0.726   6.446  0.00  0.00     0.043 A 
ATOM     31  F23 ZIN A   1      19.259   0.640   4.124  0.00  0.00    -0.206 F 
ATOM     32  C20 ZIN A   1      18.650   0.076   7.657  0.00  0.00     0.012 A 
ENDBRANCH  25  26
ENDBRANCH  24  25
ENDBRANCH   3  22
BRANCH   4  33
ATOM     33  O27 ZIN A   1      19.771  -1.596  13.837  0.00  0.00    -0.354 OA
ATOM     34  H49 ZIN A   1      20.687  -1.673  14.139  0.00  0.00     0.218 HD
ENDBRANCH   4  33
TORSDOF 7
ENDMDL
