MODEL 1
REMARK VINA RESULT:      -7.3      0.000      0.000
REMARK  5 active torsions:
REMARK  status: ('A' for Active; 'I' for Inactive)
REMARK    1  A    between atoms: C2_2  and  C3_3 
REMARK    2  A    between atoms: C3_3  and  C4_4 
REMARK    3  A    between atoms: C4_4  and  N5_5 
REMARK    4  A    between atoms: C10_10  and  C12_11 
REMARK       I    between atoms: C12_11  and  N14_13 
REMARK    5  A    between atoms: N14_13  and  C15_14 
ROOT
ATOM      1  C12 ZIN A   1      17.676   0.882  11.784  0.00  0.00     0.255 C 
ATOM      2  O13 ZIN A   1      16.598   0.784  12.330  0.00  0.00    -0.271 OA
ATOM      3  N14 ZIN A   1      18.809   0.690  12.490  0.00  0.00    -0.324 N 
ATOM      4  H40 ZIN A   1      19.671   0.845  12.075  0.00  0.00     0.169 HD
ENDROOT
BRANCH   1   5
ATOM      5  C10 ZIN A   1      17.751   1.219  10.317  0.00  0.00     0.314 C 
ATOM      6  N5  ZIN A   1      18.797   2.228  10.100  0.00  0.00     0.102 N 
ATOM      7  C6  ZIN A   1      18.876   2.616   8.687  0.00  0.00     0.273 C 
ATOM      8  C7  ZIN A   1      19.243   1.395   7.841  0.00  0.00     0.030 C 
ATOM      9  C8  ZIN A   1      18.182   0.308   8.032  0.00  0.00     0.004 C 
ATOM     10  C9  ZIN A   1      18.086  -0.043   9.520  0.00  0.00     0.046 C 
BRANCH   6  11
ATOM     11  C4  ZIN A   1      18.582   3.401  10.958  0.00  0.00     0.273 C 
BRANCH  11  12
ATOM     12  C3  ZIN A   1      17.802   4.464  10.182  0.00  0.00     0.030 C 
BRANCH  12  13
ATOM     13  C2  ZIN A   1      16.590   4.908  11.002  0.00  0.00    -0.003 C 
ATOM     14  C1  ZIN A   1      17.020   5.175  12.445  0.00  0.00     0.005 C 
ENDBRANCH  12  13
ENDBRANCH  11  12
ENDBRANCH   6  11
ENDBRANCH   1   5
BRANCH   3  15
ATOM     15  C15 ZIN A   1      18.740   0.265  13.821  0.00  0.00     0.046 A 
ATOM     16  C21 ZIN A   1      18.729   1.198  14.850  0.00  0.00    -0.035 A 
ATOM     17  C20 ZIN A   1      18.655   0.775  16.163  0.00  0.00     0.009 A 
ATOM     18  C22 ZIN A   1      18.785   2.670  14.533  0.00  0.00     0.050 C 
ATOM     19  C19 ZIN A   1      18.604  -0.576  16.454  0.00  0.00     0.001 A 
ATOM     20  C18 ZIN A   1      18.621  -1.508  15.432  0.00  0.00     0.009 A 
ATOM     21  C16 ZIN A   1      18.689  -1.091  14.117  0.00  0.00    -0.035 A 
ATOM     22  C17 ZIN A   1      18.707  -2.107  13.004  0.00  0.00     0.050 C 
ENDBRANCH   3  15
TORSDOF 5
ENDMDL
MODEL 2
REMARK VINA RESULT:      -7.3      0.040      1.870
REMARK  5 active torsions:
REMARK  status: ('A' for Active; 'I' for Inactive)
REMARK    1  A    between atoms: C2_2  and  C3_3 
REMARK    2  A    between atoms: C3_3  and  C4_4 
REMARK    3  A    between atoms: C4_4  and  N5_5 
REMARK    4  A    between atoms: C10_10  and  C12_11 
REMARK       I    between atoms: C12_11  and  N14_13 
REMARK    5  A    between atoms: N14_13  and  C15_14 
ROOT
ATOM      1  C12 ZIN A   1      17.677   0.887  11.764  0.00  0.00     0.255 C 
ATOM      2  O13 ZIN A   1      16.598   0.783  12.308  0.00  0.00    -0.271 OA
ATOM      3  N14 ZIN A   1      18.809   0.698  12.470  0.00  0.00    -0.324 N 
ATOM      4  H40 ZIN A   1      19.671   0.859  12.056  0.00  0.00     0.169 HD
ENDROOT
BRANCH   1   5
ATOM      5  C10 ZIN A   1      17.752   1.228  10.298  0.00  0.00     0.314 C 
ATOM      6  N5  ZIN A   1      18.817   2.216  10.079  0.00  0.00     0.102 N 
ATOM      7  C6  ZIN A   1      18.897   2.607   8.666  0.00  0.00     0.273 C 
ATOM      8  C7  ZIN A   1      19.235   1.381   7.815  0.00  0.00     0.030 C 
ATOM      9  C8  ZIN A   1      18.153   0.316   8.008  0.00  0.00     0.004 C 
ATOM     10  C9  ZIN A   1      18.056  -0.039   9.495  0.00  0.00     0.046 C 
BRANCH   6  11
ATOM     11  C4  ZIN A   1      18.630   3.390  10.942  0.00  0.00     0.273 C 
BRANCH  11  12
ATOM     12  C3  ZIN A   1      17.817   4.448  10.193  0.00  0.00     0.030 C 
BRANCH  12  13
ATOM     13  C2  ZIN A   1      16.606   4.852  11.036  0.00  0.00    -0.003 C 
ATOM     14  C1  ZIN A   1      17.074   5.280  12.428  0.00  0.00     0.005 C 
ENDBRANCH  12  13
ENDBRANCH  11  12
ENDBRANCH   6  11
ENDBRANCH   1   5
BRANCH   3  15
ATOM     15  C15 ZIN A   1      18.741   0.270  13.801  0.00  0.00     0.046 A 
ATOM     16  C21 ZIN A   1      18.690  -1.087  14.093  0.00  0.00    -0.035 A 
ATOM     17  C20 ZIN A   1      18.629  -1.506  15.408  0.00  0.00     0.009 A 
ATOM     18  C22 ZIN A   1      18.715  -2.100  12.979  0.00  0.00     0.050 C 
ATOM     19  C19 ZIN A   1      18.606  -0.577  16.432  0.00  0.00     0.001 A 
ATOM     20  C18 ZIN A   1      18.650   0.776  16.143  0.00  0.00     0.009 A 
ATOM     21  C16 ZIN A   1      18.718   1.201  14.830  0.00  0.00    -0.035 A 
ATOM     22  C17 ZIN A   1      18.766   2.674  14.517  0.00  0.00     0.050 C 
ENDBRANCH   3  15
TORSDOF 5
ENDMDL
MODEL 3
REMARK VINA RESULT:      -7.1      1.578      5.688
REMARK  5 active torsions:
REMARK  status: ('A' for Active; 'I' for Inactive)
REMARK    1  A    between atoms: C2_2  and  C3_3 
REMARK    2  A    between atoms: C3_3  and  C4_4 
REMARK    3  A    between atoms: C4_4  and  N5_5 
REMARK    4  A    between atoms: C10_10  and  C12_11 
REMARK       I    between atoms: C12_11  and  N14_13 
REMARK    5  A    between atoms: N14_13  and  C15_14 
ROOT
ATOM      1  C12 ZIN A   1      19.735   0.607  12.508  0.00  0.00     0.255 C 
ATOM      2  O13 ZIN A   1      20.847   0.808  12.069  0.00  0.00    -0.271 OA
ATOM      3  N14 ZIN A   1      18.673   0.595  11.677  0.00  0.00    -0.324 N 
ATOM      4  H40 ZIN A   1      17.777   0.513  12.037  0.00  0.00     0.169 HD
ENDROOT
BRANCH   1   5
ATOM      5  C10 ZIN A   1      19.538   0.370  13.984  0.00  0.00     0.314 C 
ATOM      6  N5  ZIN A   1      18.578   1.349  14.512  0.00  0.00     0.102 N 
ATOM      7  C6  ZIN A   1      18.388   1.180  15.958  0.00  0.00     0.273 C 
ATOM      8  C7  ZIN A   1      17.817  -0.212  16.239  0.00  0.00     0.030 C 
ATOM      9  C8  ZIN A   1      18.783  -1.273  15.705  0.00  0.00     0.004 C 
ATOM     10  C9  ZIN A   1      19.001  -1.045  14.207  0.00  0.00     0.046 C 
BRANCH   6  11
ATOM     11  C4  ZIN A   1      18.994   2.721  14.191  0.00  0.00     0.273 C 
BRANCH  11  12
ATOM     12  C3  ZIN A   1      17.776   3.646  14.233  0.00  0.00     0.030 C 
BRANCH  12  13
ATOM     13  C2  ZIN A   1      18.151   5.010  13.651  0.00  0.00    -0.003 C 
ATOM     14  C1  ZIN A   1      19.673   5.108  13.521  0.00  0.00     0.005 C 
ENDBRANCH  12  13
ENDBRANCH  11  12
ENDBRANCH   6  11
ENDBRANCH   1   5
BRANCH   3  15
ATOM     15  C15 ZIN A   1      18.866   0.699  10.295  0.00  0.00     0.046 A 
ATOM     16  C21 ZIN A   1      19.078  -0.443   9.534  0.00  0.00    -0.035 A 
ATOM     17  C20 ZIN A   1      19.262  -0.337   8.169  0.00  0.00     0.009 A 
ATOM     18  C22 ZIN A   1      19.095  -1.797  10.194  0.00  0.00     0.050 C 
ATOM     19  C19 ZIN A   1      19.247   0.905   7.562  0.00  0.00     0.001 A 
ATOM     20  C18 ZIN A   1      19.042   2.045   8.318  0.00  0.00     0.009 A 
ATOM     21  C16 ZIN A   1      18.851   1.945   9.683  0.00  0.00    -0.035 A 
ATOM     22  C17 ZIN A   1      18.628   3.188  10.506  0.00  0.00     0.050 C 
ENDBRANCH   3  15
TORSDOF 5
ENDMDL
MODEL 4
REMARK VINA RESULT:      -7.1      1.589      5.391
REMARK  5 active torsions:
REMARK  status: ('A' for Active; 'I' for Inactive)
REMARK    1  A    between atoms: C2_2  and  C3_3 
REMARK    2  A    between atoms: C3_3  and  C4_4 
REMARK    3  A    between atoms: C4_4  and  N5_5 
REMARK    4  A    between atoms: C10_10  and  C12_11 
REMARK       I    between atoms: C12_11  and  N14_13 
REMARK    5  A    between atoms: N14_13  and  C15_14 
ROOT
ATOM      1  C12 ZIN A   1      19.710   0.606  12.574  0.00  0.00     0.255 C 
ATOM      2  O13 ZIN A   1      20.826   0.800  12.142  0.00  0.00    -0.271 OA
ATOM      3  N14 ZIN A   1      18.653   0.611  11.738  0.00  0.00    -0.324 N 
ATOM      4  H40 ZIN A   1      17.754   0.534  12.092  0.00  0.00     0.169 HD
ENDROOT
BRANCH   1   5
ATOM      5  C10 ZIN A   1      19.504   0.358  14.046  0.00  0.00     0.314 C 
ATOM      6  N5  ZIN A   1      18.551   1.341  14.578  0.00  0.00     0.102 N 
ATOM      7  C6  ZIN A   1      18.353   1.161  16.022  0.00  0.00     0.273 C 
ATOM      8  C7  ZIN A   1      17.767  -0.228  16.288  0.00  0.00     0.030 C 
ATOM      9  C8  ZIN A   1      18.725  -1.293  15.749  0.00  0.00     0.004 C 
ATOM     10  C9  ZIN A   1      18.953  -1.054  14.254  0.00  0.00     0.046 C 
BRANCH   6  11
ATOM     11  C4  ZIN A   1      18.982   2.711  14.272  0.00  0.00     0.273 C 
BRANCH  11  12
ATOM     12  C3  ZIN A   1      17.758   3.628  14.205  0.00  0.00     0.030 C 
BRANCH  12  13
ATOM     13  C2  ZIN A   1      18.216   5.083  14.092  0.00  0.00    -0.003 C 
ATOM     14  C1  ZIN A   1      19.660   5.126  13.588  0.00  0.00     0.005 C 
ENDBRANCH  12  13
ENDBRANCH  11  12
ENDBRANCH   6  11
ENDBRANCH   1   5
BRANCH   3  15
ATOM     15  C15 ZIN A   1      18.853   0.725  10.357  0.00  0.00     0.046 A 
ATOM     16  C21 ZIN A   1      18.824   1.975   9.752  0.00  0.00    -0.035 A 
ATOM     17  C20 ZIN A   1      19.028   2.085   8.390  0.00  0.00     0.009 A 
ATOM     18  C22 ZIN A   1      18.584   3.210  10.581  0.00  0.00     0.050 C 
ATOM     19  C19 ZIN A   1      19.248   0.953   7.628  0.00  0.00     0.001 A 
ATOM     20  C18 ZIN A   1      19.271  -0.294   8.228  0.00  0.00     0.009 A 
ATOM     21  C16 ZIN A   1      19.075  -0.410   9.590  0.00  0.00    -0.035 A 
ATOM     22  C17 ZIN A   1      19.100  -1.769  10.242  0.00  0.00     0.050 C 
ENDBRANCH   3  15
TORSDOF 5
ENDMDL
MODEL 5
REMARK VINA RESULT:      -7.1      1.677      6.770
REMARK  5 active torsions:
REMARK  status: ('A' for Active; 'I' for Inactive)
REMARK    1  A    between atoms: C2_2  and  C3_3 
REMARK    2  A    between atoms: C3_3  and  C4_4 
REMARK    3  A    between atoms: C4_4  and  N5_5 
REMARK    4  A    between atoms: C10_10  and  C12_11 
REMARK       I    between atoms: C12_11  and  N14_13 
REMARK    5  A    between atoms: N14_13  and  C15_14 
ROOT
ATOM      1  C12 ZIN A   1      17.561   0.074  11.349  0.00  0.00     0.255 C 
ATOM      2  O13 ZIN A   1      16.524   0.207  10.734  0.00  0.00    -0.271 OA
ATOM      3  N14 ZIN A   1      18.742   0.148  10.702  0.00  0.00    -0.324 N 
ATOM      4  H40 ZIN A   1      19.567  -0.036  11.176  0.00  0.00     0.169 HD
ENDROOT
BRANCH   1   5
ATOM      5  C10 ZIN A   1      17.531  -0.176  12.834  0.00  0.00     0.314 C 
ATOM      6  N5  ZIN A   1      18.512  -1.214  13.176  0.00  0.00     0.102 N 
ATOM      7  C6  ZIN A   1      18.487  -1.518  14.612  0.00  0.00     0.273 C 
ATOM      8  C7  ZIN A   1      18.860  -0.264  15.406  0.00  0.00     0.030 C 
ATOM      9  C8  ZIN A   1      17.865   0.854  15.085  0.00  0.00     0.004 C 
ATOM     10  C9  ZIN A   1      17.876   1.117  13.576  0.00  0.00     0.046 C 
BRANCH   6  11
ATOM     11  C4  ZIN A   1      18.295  -2.427  12.377  0.00  0.00     0.273 C 
BRANCH  11  12
ATOM     12  C3  ZIN A   1      19.640  -3.100  12.094  0.00  0.00     0.030 C 
BRANCH  12  13
ATOM     13  C2  ZIN A   1      19.403  -4.443  11.401  0.00  0.00    -0.003 C 
ATOM     14  C1  ZIN A   1      17.975  -4.917  11.681  0.00  0.00     0.005 C 
ENDBRANCH  12  13
ENDBRANCH  11  12
ENDBRANCH   6  11
ENDBRANCH   1   5
BRANCH   3  15
ATOM     15  C15 ZIN A   1      18.777   0.493   9.346  0.00  0.00     0.046 A 
ATOM     16  C21 ZIN A   1      18.729  -0.498   8.375  0.00  0.00    -0.035 A 
ATOM     17  C20 ZIN A   1      18.757  -0.154   7.037  0.00  0.00     0.009 A 
ATOM     18  C22 ZIN A   1      18.633  -1.946   8.779  0.00  0.00     0.050 C 
ATOM     19  C19 ZIN A   1      18.846   1.175   6.665  0.00  0.00     0.001 A 
ATOM     20  C18 ZIN A   1      18.900   2.164   7.631  0.00  0.00     0.009 A 
ATOM     21  C16 ZIN A   1      18.865   1.827   8.970  0.00  0.00    -0.035 A 
ATOM     22  C17 ZIN A   1      18.924   2.905  10.021  0.00  0.00     0.050 C 
ENDBRANCH   3  15
TORSDOF 5
ENDMDL
MODEL 6
REMARK VINA RESULT:      -7.1      2.480      6.364
REMARK  5 active torsions:
REMARK  status: ('A' for Active; 'I' for Inactive)
REMARK    1  A    between atoms: C2_2  and  C3_3 
REMARK    2  A    between atoms: C3_3  and  C4_4 
REMARK    3  A    between atoms: C4_4  and  N5_5 
REMARK    4  A    between atoms: C10_10  and  C12_11 
REMARK       I    between atoms: C12_11  and  N14_13 
REMARK    5  A    between atoms: N14_13  and  C15_14 
ROOT
ATOM      1  C12 ZIN A   1      18.748  -1.220   9.275  0.00  0.00     0.255 C 
ATOM      2  O13 ZIN A   1      17.589  -1.408   8.975  0.00  0.00    -0.271 OA
ATOM      3  N14 ZIN A   1      19.687  -1.128   8.313  0.00  0.00    -0.324 N 
ATOM      4  H40 ZIN A   1      20.624  -1.057   8.554  0.00  0.00     0.169 HD
ENDROOT
BRANCH   1   5
ATOM      5  C10 ZIN A   1      19.140  -1.090  10.725  0.00  0.00     0.314 C 
ATOM      6  N5  ZIN A   1      18.503   0.102  11.298  0.00  0.00     0.102 N 
ATOM      7  C6  ZIN A   1      18.892   0.290  12.701  0.00  0.00     0.273 C 
ATOM      8  C7  ZIN A   1      18.427  -0.913  13.526  0.00  0.00     0.030 C 
ATOM      9  C8  ZIN A   1      19.064  -2.187  12.966  0.00  0.00     0.004 C 
ATOM     10  C9  ZIN A   1      18.682  -2.333  11.490  0.00  0.00     0.046 C 
BRANCH   6  11
ATOM     11  C4  ZIN A   1      18.810   1.298  10.502  0.00  0.00     0.273 C 
BRANCH  11  12
ATOM     12  C3  ZIN A   1      17.692   2.328  10.676  0.00  0.00     0.030 C 
BRANCH  12  13
ATOM     13  C2  ZIN A   1      18.209   3.713  10.282  0.00  0.00    -0.003 C 
ATOM     14  C1  ZIN A   1      17.133   4.761  10.576  0.00  0.00     0.005 C 
ENDBRANCH  12  13
ENDBRANCH  11  12
ENDBRANCH   6  11
ENDBRANCH   1   5
BRANCH   3  15
ATOM     15  C15 ZIN A   1      19.311  -1.133   6.965  0.00  0.00     0.046 A 
ATOM     16  C21 ZIN A   1      18.952   0.053   6.338  0.00  0.00    -0.035 A 
ATOM     17  C20 ZIN A   1      18.587   0.046   5.006  0.00  0.00     0.009 A 
ATOM     18  C22 ZIN A   1      18.974   1.349   7.107  0.00  0.00     0.050 C 
ATOM     19  C19 ZIN A   1      18.566  -1.143   4.300  0.00  0.00     0.001 A 
ATOM     20  C18 ZIN A   1      18.917  -2.327   4.923  0.00  0.00     0.009 A 
ATOM     21  C16 ZIN A   1      19.290  -2.325   6.253  0.00  0.00    -0.035 A 
ATOM     22  C17 ZIN A   1      19.672  -3.616   6.931  0.00  0.00     0.050 C 
ENDBRANCH   3  15
TORSDOF 5
ENDMDL
MODEL 7
REMARK VINA RESULT:      -7.1      1.782      6.033
REMARK  5 active torsions:
REMARK  status: ('A' for Active; 'I' for Inactive)
REMARK    1  A    between atoms: C2_2  and  C3_3 
REMARK    2  A    between atoms: C3_3  and  C4_4 
REMARK    3  A    between atoms: C4_4  and  N5_5 
REMARK    4  A    between atoms: C10_10  and  C12_11 
REMARK       I    between atoms: C12_11  and  N14_13 
REMARK    5  A    between atoms: N14_13  and  C15_14 
ROOT
ATOM      1  C12 ZIN A   1      18.732  -0.500  10.466  0.00  0.00     0.255 C 
ATOM      2  O13 ZIN A   1      17.541  -0.402  10.264  0.00  0.00    -0.271 OA
ATOM      3  N14 ZIN A   1      19.585  -0.620   9.429  0.00  0.00    -0.324 N 
ATOM      4  H40 ZIN A   1      20.528  -0.778   9.591  0.00  0.00     0.169 HD
ENDROOT
BRANCH   1   5
ATOM      5  C10 ZIN A   1      19.261  -0.490  11.877  0.00  0.00     0.314 C 
ATOM      6  N5  ZIN A   1      19.046   0.838  12.470  0.00  0.00     0.102 N 
ATOM      7  C6  ZIN A   1      19.585   0.904  13.834  0.00  0.00     0.273 C 
ATOM      8  C7  ZIN A   1      18.858  -0.110  14.720  0.00  0.00     0.030 C 
ATOM      9  C8  ZIN A   1      19.050  -1.515  14.144  0.00  0.00     0.004 C 
ATOM     10  C9  ZIN A   1      18.525  -1.544  12.706  0.00  0.00     0.046 C 
BRANCH   6  11
ATOM     11  C4  ZIN A   1      19.623   1.891  11.623  0.00  0.00     0.273 C 
BRANCH  11  12
ATOM     12  C3  ZIN A   1      18.947   3.227  11.940  0.00  0.00     0.030 C 
BRANCH  12  13
ATOM     13  C2  ZIN A   1      17.596   3.298  11.224  0.00  0.00    -0.003 C 
ATOM     14  C1  ZIN A   1      17.533   4.573  10.381  0.00  0.00     0.005 C 
ENDBRANCH  12  13
ENDBRANCH  11  12
ENDBRANCH   6  11
ENDBRANCH   1   5
BRANCH   3  15
ATOM     15  C15 ZIN A   1      19.110  -0.515   8.117  0.00  0.00     0.046 A 
ATOM     16  C21 ZIN A   1      18.778  -1.659   7.403  0.00  0.00    -0.035 A 
ATOM     17  C20 ZIN A   1      18.304  -1.552   6.110  0.00  0.00     0.009 A 
ATOM     18  C22 ZIN A   1      18.924  -3.015   8.043  0.00  0.00     0.050 C 
ATOM     19  C19 ZIN A   1      18.170  -0.307   5.522  0.00  0.00     0.001 A 
ATOM     20  C18 ZIN A   1      18.505   0.834   6.229  0.00  0.00     0.009 A 
ATOM     21  C16 ZIN A   1      18.974   0.733   7.524  0.00  0.00    -0.035 A 
ATOM     22  C17 ZIN A   1      19.339   1.978   8.292  0.00  0.00     0.050 C 
ENDBRANCH   3  15
TORSDOF 5
ENDMDL
MODEL 8
REMARK VINA RESULT:      -7.1      1.747      5.720
REMARK  5 active torsions:
REMARK  status: ('A' for Active; 'I' for Inactive)
REMARK    1  A    between atoms: C2_2  and  C3_3 
REMARK    2  A    between atoms: C3_3  and  C4_4 
REMARK    3  A    between atoms: C4_4  and  N5_5 
REMARK    4  A    between atoms: C10_10  and  C12_11 
REMARK       I    between atoms: C12_11  and  N14_13 
REMARK    5  A    between atoms: N14_13  and  C15_14 
ROOT
ATOM      1  C12 ZIN A   1      18.729  -0.463  10.521  0.00  0.00     0.255 C 
ATOM      2  O13 ZIN A   1      17.534  -0.475  10.317  0.00  0.00    -0.271 OA
ATOM      3  N14 ZIN A   1      19.590  -0.500   9.484  0.00  0.00    -0.324 N 
ATOM      4  H40 ZIN A   1      20.543  -0.570   9.647  0.00  0.00     0.169 HD
ENDROOT
BRANCH   1   5
ATOM      5  C10 ZIN A   1      19.253  -0.407  11.933  0.00  0.00     0.314 C 
ATOM      6  N5  ZIN A   1      18.759   0.811  12.589  0.00  0.00     0.102 N 
ATOM      7  C6  ZIN A   1      19.280   0.925  13.957  0.00  0.00     0.273 C 
ATOM      8  C7  ZIN A   1      18.798  -0.265  14.789  0.00  0.00     0.030 C 
ATOM      9  C8  ZIN A   1      19.287  -1.565  14.145  0.00  0.00     0.004 C 
ATOM     10  C9  ZIN A   1      18.770  -1.636  12.705  0.00  0.00     0.046 C 
BRANCH   6  11
ATOM     11  C4  ZIN A   1      19.086   2.005  11.799  0.00  0.00     0.273 C 
BRANCH  11  12
ATOM     12  C3  ZIN A   1      17.851   2.903  11.697  0.00  0.00     0.030 C 
BRANCH  12  13
ATOM     13  C2  ZIN A   1      18.286   4.335  11.379  0.00  0.00    -0.003 C 
ATOM     14  C1  ZIN A   1      17.381   4.912  10.289  0.00  0.00     0.005 C 
ENDBRANCH  12  13
ENDBRANCH  11  12
ENDBRANCH   6  11
ENDBRANCH   1   5
BRANCH   3  15
ATOM     15  C15 ZIN A   1      19.108  -0.436   8.172  0.00  0.00     0.046 A 
ATOM     16  C21 ZIN A   1      18.914   0.796   7.561  0.00  0.00    -0.035 A 
ATOM     17  C20 ZIN A   1      18.444   0.856   6.263  0.00  0.00     0.009 A 
ATOM     18  C22 ZIN A   1      19.228   2.066   8.309  0.00  0.00     0.050 C 
ATOM     19  C19 ZIN A   1      18.154  -0.309   5.577  0.00  0.00     0.001 A 
ATOM     20  C18 ZIN A   1      18.341  -1.538   6.185  0.00  0.00     0.009 A 
ATOM     21  C16 ZIN A   1      18.817  -1.604   7.480  0.00  0.00    -0.035 A 
ATOM     22  C17 ZIN A   1      19.020  -2.943   8.140  0.00  0.00     0.050 C 
ENDBRANCH   3  15
TORSDOF 5
ENDMDL
MODEL 9
REMARK VINA RESULT:      -7.1      1.642      4.323
REMARK  5 active torsions:
REMARK  status: ('A' for Active; 'I' for Inactive)
REMARK    1  A    between atoms: C2_2  and  C3_3 
REMARK    2  A    between atoms: C3_3  and  C4_4 
REMARK    3  A    between atoms: C4_4  and  N5_5 
REMARK    4  A    between atoms: C10_10  and  C12_11 
REMARK       I    between atoms: C12_11  and  N14_13 
REMARK    5  A    between atoms: N14_13  and  C15_14 
ROOT
ATOM      1  C12 ZIN A   1      18.652   1.572  13.779  0.00  0.00     0.255 C 
ATOM      2  O13 ZIN A   1      17.494   1.729  14.100  0.00  0.00    -0.271 OA
ATOM      3  N14 ZIN A   1      19.585   1.323  14.720  0.00  0.00    -0.324 N 
ATOM      4  H40 ZIN A   1      20.522   1.276  14.474  0.00  0.00     0.169 HD
ENDROOT
BRANCH   1   5
ATOM      5  C10 ZIN A   1      19.050   1.654  12.328  0.00  0.00     0.314 C 
ATOM      6  N5  ZIN A   1      18.436   0.542  11.589  0.00  0.00     0.102 N 
ATOM      7  C6  ZIN A   1      18.832   0.560  10.176  0.00  0.00     0.273 C 
ATOM      8  C7  ZIN A   1      18.347   1.858   9.526  0.00  0.00     0.030 C 
ATOM      9  C8  ZIN A   1      18.959   3.053  10.262  0.00  0.00     0.004 C 
ATOM     10  C9  ZIN A   1      18.571   2.983  11.742  0.00  0.00     0.046 C 
BRANCH   6  11
ATOM     11  C4  ZIN A   1      18.764  -0.748  12.211  0.00  0.00     0.273 C 
BRANCH  11  12
ATOM     12  C3  ZIN A   1      17.608  -1.726  11.996  0.00  0.00     0.030 C 
BRANCH  12  13
ATOM     13  C2  ZIN A   1      18.149  -3.157  11.967  0.00  0.00    -0.003 C 
ATOM     14  C1  ZIN A   1      19.676  -3.123  11.889  0.00  0.00     0.005 C 
ENDBRANCH  12  13
ENDBRANCH  11  12
ENDBRANCH   6  11
ENDBRANCH   1   5
BRANCH   3  15
ATOM     15  C15 ZIN A   1      19.201   1.133  16.052  0.00  0.00     0.046 A 
ATOM     16  C21 ZIN A   1      18.820  -0.128  16.493  0.00  0.00    -0.035 A 
ATOM     17  C20 ZIN A   1      18.448  -0.313  17.811  0.00  0.00     0.009 A 
ATOM     18  C22 ZIN A   1      18.825  -1.294  15.539  0.00  0.00     0.050 C 
ATOM     19  C19 ZIN A   1      18.443   0.756  18.687  0.00  0.00     0.001 A 
ATOM     20  C18 ZIN A   1      18.816   2.015  18.249  0.00  0.00     0.009 A 
ATOM     21  C16 ZIN A   1      19.196   2.205  16.934  0.00  0.00    -0.035 A 
ATOM     22  C17 ZIN A   1      19.602   3.576  16.459  0.00  0.00     0.050 C 
ENDBRANCH   3  15
TORSDOF 5
ENDMDL
