MODEL 1
REMARK VINA RESULT:      -5.8      0.000      0.000
REMARK  4 active torsions:
REMARK  status: ('A' for Active; 'I' for Inactive)
REMARK    1  A    between atoms: C2_2  and  C3_3 
REMARK    2  A    between atoms: C3_3  and  C4_4 
REMARK    3  A    between atoms: C4_4  and  C7_6 
REMARK    4  A    between atoms: C7_6  and  C8_7 
ROOT
ATOM      1  C7  <0> d   1      18.325  -0.459  10.906  0.00  0.00     0.125 A 
ATOM      2  C10 <0> d   1      17.247   0.476  11.420  0.00  0.00     0.244 A 
ATOM      3  O11 <0> d   1      16.117   0.083  11.618  0.00  0.00    -0.272 OA
ATOM      4  N12 <0> d   1      17.592   1.760  11.648  0.00  0.00    -0.278 N 
ATOM      5  C13 <0> d   1      18.834   2.209  11.434  0.00  0.00     0.329 A 
ATOM      6  O14 <0> d   1      19.057   3.381  11.667  0.00  0.00    -0.247 OA
ATOM      7  N15 <0> d   1      19.848   1.462  10.984  0.00  0.00    -0.278 N 
ATOM      8  C16 <0> d   1      19.699   0.152  10.699  0.00  0.00     0.244 A 
ATOM      9  O17 <0> d   1      20.627  -0.513  10.291  0.00  0.00    -0.272 OA
ATOM     10  H33 <0> d   1      16.919   2.377  11.977  0.00  0.00     0.173 HD
ATOM     11  H34 <0> d   1      20.718   1.875  10.860  0.00  0.00     0.173 HD
ENDROOT
BRANCH   1  12
ATOM     12  C4  <0> d   1      18.465  -1.616  11.897  0.00  0.00     0.009 C 
ATOM     13  C6  <0> d   1      17.499  -2.738  11.512  0.00  0.00     0.011 C 
BRANCH  12  14
ATOM     14  C3  <0> d   1      18.137  -1.122  13.308  0.00  0.00     0.005 C 
BRANCH  14  15
ATOM     15  C2  <0> d   1      19.377  -1.251  14.195  0.00  0.00    -0.004 C 
ATOM     16  C1  <0> d   1      18.952  -1.300  15.663  0.00  0.00     0.005 C 
ENDBRANCH  14  15
ENDBRANCH  12  14
ENDBRANCH   1  12
BRANCH   1  17
ATOM     17  C8  <0> d   1      17.854  -1.035   9.570  0.00  0.00     0.025 C 
ATOM     18  C9  <0> d   1      17.626   0.105   8.574  0.00  0.00     0.007 C 
ENDBRANCH   1  17
TORSDOF 4
ENDMDL
MODEL 2
REMARK VINA RESULT:      -5.8      2.085      4.398
REMARK  4 active torsions:
REMARK  status: ('A' for Active; 'I' for Inactive)
REMARK    1  A    between atoms: C2_2  and  C3_3 
REMARK    2  A    between atoms: C3_3  and  C4_4 
REMARK    3  A    between atoms: C4_4  and  C7_6 
REMARK    4  A    between atoms: C7_6  and  C8_7 
ROOT
ATOM      1  C7  <0> d   1      18.050   0.967  11.726  0.00  0.00     0.125 A 
ATOM      2  C10 <0> d   1      17.009  -0.125  11.577  0.00  0.00     0.244 A 
ATOM      3  O11 <0> d   1      15.827   0.139  11.502  0.00  0.00    -0.272 OA
ATOM      4  N12 <0> d   1      17.445  -1.401  11.528  0.00  0.00    -0.278 N 
ATOM      5  C13 <0> d   1      18.744  -1.708  11.609  0.00  0.00     0.329 A 
ATOM      6  O14 <0> d   1      19.049  -2.884  11.557  0.00  0.00    -0.247 OA
ATOM      7  N15 <0> d   1      19.733  -0.817  11.741  0.00  0.00    -0.278 N 
ATOM      8  C16 <0> d   1      19.494   0.510  11.808  0.00  0.00     0.244 A 
ATOM      9  O17 <0> d   1      20.400   1.306  11.928  0.00  0.00    -0.272 OA
ATOM     10  H33 <0> d   1      16.797  -2.117  11.433  0.00  0.00     0.173 HD
ATOM     11  H34 <0> d   1      20.649  -1.134  11.791  0.00  0.00     0.173 HD
ENDROOT
BRANCH   1  12
ATOM     12  C4  <0> d   1      17.919   1.917  10.534  0.00  0.00     0.009 C 
ATOM     13  C6  <0> d   1      18.685   1.347   9.340  0.00  0.00     0.011 C 
BRANCH  12  14
ATOM     14  C3  <0> d   1      18.496   3.284  10.905  0.00  0.00     0.005 C 
BRANCH  14  15
ATOM     15  C2  <0> d   1      17.646   4.387  10.269  0.00  0.00    -0.004 C 
ATOM     16  C1  <0> d   1      16.747   5.018  11.334  0.00  0.00     0.005 C 
ENDBRANCH  14  15
ENDBRANCH  12  14
ENDBRANCH   1  12
BRANCH   1  17
ATOM     17  C8  <0> d   1      17.728   1.756  12.997  0.00  0.00     0.025 C 
ATOM     18  C9  <0> d   1      17.786   0.820  14.207  0.00  0.00     0.007 C 
ENDBRANCH   1  17
TORSDOF 4
ENDMDL
MODEL 3
REMARK VINA RESULT:      -5.8      2.032      4.574
REMARK  4 active torsions:
REMARK  status: ('A' for Active; 'I' for Inactive)
REMARK    1  A    between atoms: C2_2  and  C3_3 
REMARK    2  A    between atoms: C3_3  and  C4_4 
REMARK    3  A    between atoms: C4_4  and  C7_6 
REMARK    4  A    between atoms: C7_6  and  C8_7 
ROOT
ATOM      1  C7  <0> d   1      18.444   0.622  11.812  0.00  0.00     0.125 A 
ATOM      2  C10 <0> d   1      17.291  -0.295  11.450  0.00  0.00     0.244 A 
ATOM      3  O11 <0> d   1      16.184   0.147  11.226  0.00  0.00    -0.272 OA
ATOM      4  N12 <0> d   1      17.543  -1.619  11.386  0.00  0.00    -0.278 N 
ATOM      5  C13 <0> d   1      18.758  -2.121  11.630  0.00  0.00     0.329 A 
ATOM      6  O14 <0> d   1      18.896  -3.326  11.549  0.00  0.00    -0.247 OA
ATOM      7  N15 <0> d   1      19.833  -1.394  11.955  0.00  0.00    -0.278 N 
ATOM      8  C16 <0> d   1      19.780  -0.050  12.068  0.00  0.00     0.244 A 
ATOM      9  O17 <0> d   1      20.762   0.596  12.364  0.00  0.00    -0.272 OA
ATOM     10  H33 <0> d   1      16.821  -2.225  11.157  0.00  0.00     0.173 HD
ATOM     11  H34 <0> d   1      20.677  -1.847  12.114  0.00  0.00     0.173 HD
ENDROOT
BRANCH   1  12
ATOM     12  C4  <0> d   1      18.629   1.627  10.674  0.00  0.00     0.009 C 
ATOM     13  C6  <0> d   1      17.594   2.746  10.808  0.00  0.00     0.011 C 
BRANCH  12  14
ATOM     14  C3  <0> d   1      18.443   0.918   9.331  0.00  0.00     0.005 C 
BRANCH  14  15
ATOM     15  C2  <0> d   1      19.181   1.694   8.238  0.00  0.00    -0.004 C 
ATOM     16  C1  <0> d   1      18.845   1.094   6.871  0.00  0.00     0.005 C 
ENDBRANCH  14  15
ENDBRANCH  12  14
ENDBRANCH   1  12
BRANCH   1  17
ATOM     17  C8  <0> d   1      18.054   1.399  13.070  0.00  0.00     0.025 C 
ATOM     18  C9  <0> d   1      17.772   0.416  14.210  0.00  0.00     0.007 C 
ENDBRANCH   1  17
TORSDOF 4
ENDMDL
MODEL 4
REMARK VINA RESULT:      -5.7      1.774      2.641
REMARK  4 active torsions:
REMARK  status: ('A' for Active; 'I' for Inactive)
REMARK    1  A    between atoms: C2_2  and  C3_3 
REMARK    2  A    between atoms: C3_3  and  C4_4 
REMARK    3  A    between atoms: C4_4  and  C7_6 
REMARK    4  A    between atoms: C7_6  and  C8_7 
ROOT
ATOM      1  C7  <0> d   1      18.179   0.004  12.753  0.00  0.00     0.125 A 
ATOM      2  C10 <0> d   1      17.233   0.423  11.645  0.00  0.00     0.244 A 
ATOM      3  O11 <0> d   1      16.078   0.051  11.631  0.00  0.00    -0.272 OA
ATOM      4  N12 <0> d   1      17.722   1.225  10.676  0.00  0.00    -0.278 N 
ATOM      5  C13 <0> d   1      18.992   1.643  10.678  0.00  0.00     0.329 A 
ATOM      6  O14 <0> d   1      19.349   2.363   9.765  0.00  0.00    -0.247 OA
ATOM      7  N15 <0> d   1      19.899   1.328  11.610  0.00  0.00    -0.278 N 
ATOM      8  C16 <0> d   1      19.598   0.535  12.659  0.00  0.00     0.244 A 
ATOM      9  O17 <0> d   1      20.430   0.257  13.496  0.00  0.00    -0.272 OA
ATOM     10  H33 <0> d   1      17.135   1.505   9.956  0.00  0.00     0.173 HD
ATOM     11  H34 <0> d   1      20.800   1.680  11.528  0.00  0.00     0.173 HD
ENDROOT
BRANCH   1  12
ATOM     12  C4  <0> d   1      17.587   0.466  14.086  0.00  0.00     0.009 C 
ATOM     13  C6  <0> d   1      18.116   1.860  14.425  0.00  0.00     0.011 C 
BRANCH  12  14
ATOM     14  C3  <0> d   1      17.988  -0.515  15.189  0.00  0.00     0.005 C 
BRANCH  14  15
ATOM     15  C2  <0> d   1      17.199  -0.201  16.463  0.00  0.00    -0.004 C 
ATOM     16  C1  <0> d   1      18.141  -0.233  17.668  0.00  0.00     0.005 C 
ENDBRANCH  14  15
ENDBRANCH  12  14
ENDBRANCH   1  12
BRANCH   1  17
ATOM     17  C8  <0> d   1      18.244  -1.524  12.768  0.00  0.00     0.025 C 
ATOM     18  C9  <0> d   1      18.862  -2.022  11.459  0.00  0.00     0.007 C 
ENDBRANCH   1  17
TORSDOF 4
ENDMDL
MODEL 5
REMARK VINA RESULT:      -5.7      1.694      3.962
REMARK  4 active torsions:
REMARK  status: ('A' for Active; 'I' for Inactive)
REMARK    1  A    between atoms: C2_2  and  C3_3 
REMARK    2  A    between atoms: C3_3  and  C4_4 
REMARK    3  A    between atoms: C4_4  and  C7_6 
REMARK    4  A    between atoms: C7_6  and  C8_7 
ROOT
ATOM      1  C7  <0> d   1      18.224  -0.233  10.544  0.00  0.00     0.125 A 
ATOM      2  C10 <0> d   1      19.731  -0.266  10.704  0.00  0.00     0.244 A 
ATOM      3  O11 <0> d   1      20.459  -0.490   9.759  0.00  0.00    -0.272 OA
ATOM      4  N12 <0> d   1      20.234  -0.034  11.934  0.00  0.00    -0.278 N 
ATOM      5  C13 <0> d   1      19.445   0.215  12.985  0.00  0.00     0.329 A 
ATOM      6  O14 <0> d   1      19.982   0.413  14.058  0.00  0.00    -0.247 OA
ATOM      7  N15 <0> d   1      18.109   0.264  12.942  0.00  0.00    -0.278 N 
ATOM      8  C16 <0> d   1      17.423   0.060  11.799  0.00  0.00     0.244 A 
ATOM      9  O17 <0> d   1      16.212   0.106  11.775  0.00  0.00    -0.272 OA
ATOM     10  H33 <0> d   1      21.195  -0.050  12.061  0.00  0.00     0.173 HD
ATOM     11  H34 <0> d   1      17.618   0.453  13.759  0.00  0.00     0.173 HD
ENDROOT
BRANCH   1  12
ATOM     12  C4  <0> d   1      17.878   0.831   9.501  0.00  0.00     0.009 C 
ATOM     13  C6  <0> d   1      17.779   0.181   8.120  0.00  0.00     0.011 C 
BRANCH  12  14
ATOM     14  C3  <0> d   1      18.970   1.903   9.483  0.00  0.00     0.005 C 
BRANCH  14  15
ATOM     15  C2  <0> d   1      18.396   3.225   9.998  0.00  0.00    -0.004 C 
ATOM     16  C1  <0> d   1      19.016   3.556  11.357  0.00  0.00     0.005 C 
ENDBRANCH  14  15
ENDBRANCH  12  14
ENDBRANCH   1  12
BRANCH   1  17
ATOM     17  C8  <0> d   1      17.776  -1.591   9.999  0.00  0.00     0.025 C 
ATOM     18  C9  <0> d   1      18.000  -2.666  11.066  0.00  0.00     0.007 C 
ENDBRANCH   1  17
TORSDOF 4
ENDMDL
MODEL 6
REMARK VINA RESULT:      -5.7      1.662      3.437
REMARK  4 active torsions:
REMARK  status: ('A' for Active; 'I' for Inactive)
REMARK    1  A    between atoms: C2_2  and  C3_3 
REMARK    2  A    between atoms: C3_3  and  C4_4 
REMARK    3  A    between atoms: C4_4  and  C7_6 
REMARK    4  A    between atoms: C7_6  and  C8_7 
ROOT
ATOM      1  C7  <0> d   1      18.286   0.194  12.391  0.00  0.00     0.125 A 
ATOM      2  C10 <0> d   1      19.706   0.573  12.017  0.00  0.00     0.244 A 
ATOM      3  O11 <0> d   1      20.614   0.473  12.815  0.00  0.00    -0.272 OA
ATOM      4  N12 <0> d   1      19.922   1.025  10.764  0.00  0.00    -0.278 N 
ATOM      5  C13 <0> d   1      18.931   1.140   9.872  0.00  0.00     0.329 A 
ATOM      6  O14 <0> d   1      19.215   1.555   8.765  0.00  0.00    -0.247 OA
ATOM      7  N15 <0> d   1      17.652   0.831  10.109  0.00  0.00    -0.278 N 
ATOM      8  C16 <0> d   1      17.240   0.363  11.306  0.00  0.00     0.244 A 
ATOM      9  O17 <0> d   1      16.076   0.087  11.506  0.00  0.00    -0.272 OA
ATOM     10  H33 <0> d   1      20.822   1.274  10.502  0.00  0.00     0.173 HD
ATOM     11  H34 <0> d   1      17.000   0.947   9.399  0.00  0.00     0.173 HD
ENDROOT
BRANCH   1  12
ATOM     12  C4  <0> d   1      18.284  -1.272  12.829  0.00  0.00     0.009 C 
ATOM     13  C6  <0> d   1      18.627  -1.360  14.317  0.00  0.00     0.011 C 
BRANCH  12  14
ATOM     14  C3  <0> d   1      19.324  -2.048  12.019  0.00  0.00     0.005 C 
BRANCH  14  15
ATOM     15  C2  <0> d   1      18.813  -3.468  11.761  0.00  0.00    -0.004 C 
ATOM     16  C1  <0> d   1      17.349  -3.411  11.319  0.00  0.00     0.005 C 
ENDBRANCH  14  15
ENDBRANCH  12  14
ENDBRANCH   1  12
BRANCH   1  17
ATOM     17  C8  <0> d   1      17.869   1.047  13.591  0.00  0.00     0.025 C 
ATOM     18  C9  <0> d   1      17.950   2.529  13.215  0.00  0.00     0.007 C 
ENDBRANCH   1  17
TORSDOF 4
ENDMDL
MODEL 7
REMARK VINA RESULT:      -5.7      2.046      4.603
REMARK  4 active torsions:
REMARK  status: ('A' for Active; 'I' for Inactive)
REMARK    1  A    between atoms: C2_2  and  C3_3 
REMARK    2  A    between atoms: C3_3  and  C4_4 
REMARK    3  A    between atoms: C4_4  and  C7_6 
REMARK    4  A    between atoms: C7_6  and  C8_7 
ROOT
ATOM      1  C7  <0> d   1      18.960   0.625  11.638  0.00  0.00     0.125 A 
ATOM      2  C10 <0> d   1      20.167   0.719  12.550  0.00  0.00     0.244 A 
ATOM      3  O11 <0> d   1      21.295   0.626  12.112  0.00  0.00    -0.272 OA
ATOM      4  N12 <0> d   1      19.942   0.912  13.867  0.00  0.00    -0.278 N 
ATOM      5  C13 <0> d   1      18.705   1.018  14.364  0.00  0.00     0.329 A 
ATOM      6  O14 <0> d   1      18.593   1.191  15.563  0.00  0.00    -0.247 OA
ATOM      7  N15 <0> d   1      17.582   0.948  13.641  0.00  0.00    -0.278 N 
ATOM      8  C16 <0> d   1      17.604   0.759  12.305  0.00  0.00     0.244 A 
ATOM      9  O17 <0> d   1      16.578   0.697  11.662  0.00  0.00    -0.272 OA
ATOM     10  H33 <0> d   1      20.698   0.976  14.470  0.00  0.00     0.173 HD
ATOM     11  H34 <0> d   1      16.726   1.036  14.090  0.00  0.00     0.173 HD
ENDROOT
BRANCH   1  12
ATOM     12  C4  <0> d   1      19.077   1.721  10.577  0.00  0.00     0.009 C 
ATOM     13  C6  <0> d   1      18.411   3.000  11.087  0.00  0.00     0.011 C 
BRANCH  12  14
ATOM     14  C3  <0> d   1      18.386   1.263   9.291  0.00  0.00     0.005 C 
BRANCH  14  15
ATOM     15  C2  <0> d   1      19.167   1.779   8.081  0.00  0.00    -0.004 C 
ATOM     16  C1  <0> d   1      18.796   0.954   6.846  0.00  0.00     0.005 C 
ENDBRANCH  14  15
ENDBRANCH  12  14
ENDBRANCH   1  12
BRANCH   1  17
ATOM     17  C8  <0> d   1      19.009  -0.728  10.926  0.00  0.00     0.025 C 
ATOM     18  C9  <0> d   1      18.901  -1.852  11.961  0.00  0.00     0.007 C 
ENDBRANCH   1  17
TORSDOF 4
ENDMDL
MODEL 8
REMARK VINA RESULT:      -5.6      1.963      3.656
REMARK  4 active torsions:
REMARK  status: ('A' for Active; 'I' for Inactive)
REMARK    1  A    between atoms: C2_2  and  C3_3 
REMARK    2  A    between atoms: C3_3  and  C4_4 
REMARK    3  A    between atoms: C4_4  and  C7_6 
REMARK    4  A    between atoms: C7_6  and  C8_7 
ROOT
ATOM      1  C7  <0> d   1      18.198   0.490  12.314  0.00  0.00     0.125 A 
ATOM      2  C10 <0> d   1      19.636   0.011  12.301  0.00  0.00     0.244 A 
ATOM      3  O11 <0> d   1      20.505   0.614  12.895  0.00  0.00    -0.272 OA
ATOM      4  N12 <0> d   1      19.914  -1.112  11.607  0.00  0.00    -0.278 N 
ATOM      5  C13 <0> d   1      18.967  -1.789  10.947  0.00  0.00     0.329 A 
ATOM      6  O14 <0> d   1      19.306  -2.791  10.347  0.00  0.00    -0.247 OA
ATOM      7  N15 <0> d   1      17.675  -1.444  10.901  0.00  0.00    -0.278 N 
ATOM      8  C16 <0> d   1      17.204  -0.351  11.535  0.00  0.00     0.244 A 
ATOM      9  O17 <0> d   1      16.031  -0.050  11.483  0.00  0.00    -0.272 OA
ATOM     10  H33 <0> d   1      20.827  -1.438  11.584  0.00  0.00     0.173 HD
ATOM     11  H34 <0> d   1      17.059  -1.999  10.396  0.00  0.00     0.173 HD
ENDROOT
BRANCH   1  12
ATOM     12  C4  <0> d   1      17.729   0.553  13.769  0.00  0.00     0.009 C 
ATOM     13  C6  <0> d   1      18.364   1.762  14.458  0.00  0.00     0.011 C 
BRANCH  12  14
ATOM     14  C3  <0> d   1      18.147  -0.726  14.496  0.00  0.00     0.005 C 
BRANCH  14  15
ATOM     15  C2  <0> d   1      18.353  -0.425  15.982  0.00  0.00    -0.004 C 
ATOM     16  C1  <0> d   1      17.125  -0.885  16.770  0.00  0.00     0.005 C 
ENDBRANCH  14  15
ENDBRANCH  12  14
ENDBRANCH   1  12
BRANCH   1  17
ATOM     17  C8  <0> d   1      18.168   1.911  11.746  0.00  0.00     0.025 C 
ATOM     18  C9  <0> d   1      18.608   1.883  10.280  0.00  0.00     0.007 C 
ENDBRANCH   1  17
TORSDOF 4
ENDMDL
MODEL 9
REMARK VINA RESULT:      -5.6      2.280      4.493
REMARK  4 active torsions:
REMARK  status: ('A' for Active; 'I' for Inactive)
REMARK    1  A    between atoms: C2_2  and  C3_3 
REMARK    2  A    between atoms: C3_3  and  C4_4 
REMARK    3  A    between atoms: C4_4  and  C7_6 
REMARK    4  A    between atoms: C7_6  and  C8_7 
ROOT
ATOM      1  C7  <0> d   1      18.300   0.278  10.361  0.00  0.00     0.125 A 
ATOM      2  C10 <0> d   1      19.533  -0.571  10.122  0.00  0.00     0.244 A 
ATOM      3  O11 <0> d   1      20.475  -0.147   9.486  0.00  0.00    -0.272 OA
ATOM      4  N12 <0> d   1      19.545  -1.816  10.642  0.00  0.00    -0.278 N 
ATOM      5  C13 <0> d   1      18.514  -2.299  11.345  0.00  0.00     0.329 A 
ATOM      6  O14 <0> d   1      18.609  -3.431  11.778  0.00  0.00    -0.247 OA
ATOM      7  N15 <0> d   1      17.388  -1.627  11.608  0.00  0.00    -0.278 N 
ATOM      8  C16 <0> d   1      17.190  -0.365  11.172  0.00  0.00     0.244 A 
ATOM      9  O17 <0> d   1      16.164   0.232  11.417  0.00  0.00    -0.272 OA
ATOM     10  H33 <0> d   1      20.322  -2.378  10.502  0.00  0.00     0.173 HD
ATOM     11  H34 <0> d   1      16.692  -2.059  12.129  0.00  0.00     0.173 HD
ENDROOT
BRANCH   1  12
ATOM     12  C4  <0> d   1      18.734   1.556  11.081  0.00  0.00     0.009 C 
ATOM     13  C6  <0> d   1      18.242   1.519  12.529  0.00  0.00     0.011 C 
BRANCH  12  14
ATOM     14  C3  <0> d   1      18.136   2.771  10.370  0.00  0.00     0.005 C 
BRANCH  14  15
ATOM     15  C2  <0> d   1      17.397   3.645  11.385  0.00  0.00    -0.004 C 
ATOM     16  C1  <0> d   1      17.028   4.981  10.737  0.00  0.00     0.005 C 
ENDBRANCH  14  15
ENDBRANCH  12  14
ENDBRANCH   1  12
BRANCH   1  17
ATOM     17  C8  <0> d   1      17.726   0.674   9.000  0.00  0.00     0.025 C 
ATOM     18  C9  <0> d   1      17.392  -0.588   8.200  0.00  0.00     0.007 C 
ENDBRANCH   1  17
TORSDOF 4
ENDMDL
