MODEL 1
REMARK VINA RESULT:      -5.3      0.000      0.000
REMARK WARNING: 32 MAX_TORS EXCEEDED!!!
REMARK  33 active torsions:
REMARK  status: ('A' for Active; 'I' for Inactive)
REMARK    1  A    between atoms: C2_2  and  C3_3 
REMARK    2  A    between atoms: C3_3  and  C4_4 
REMARK    3  A    between atoms: C4_4  and  N5_5 
REMARK    4  A    between atoms: N5_5  and  C6_6 
REMARK    5  A    between atoms: C9_9  and  C10_10 
REMARK    6  A    between atoms: C10_10  and  O12_12 
REMARK    7  A    between atoms: O12_12  and  C13_13 
REMARK    8  A    between atoms: C13_13  and  C14_14 
REMARK    9  A    between atoms: C14_14  and  O15_15 
REMARK   10  A    between atoms: O15_15  and  C16_16 
REMARK   11  A    between atoms: C16_16  and  C17_17 
REMARK   12  A    between atoms: C17_17  and  O18_18 
REMARK   13  A    between atoms: O18_18  and  C19_19 
REMARK   14  A    between atoms: C19_19  and  C20_20 
REMARK   15  A    between atoms: C20_20  and  O21_21 
REMARK   16  A    between atoms: O21_21  and  C22_22 
REMARK   17  A    between atoms: C22_22  and  C23_23 
REMARK   18  A    between atoms: C23_23  and  O24_24 
REMARK   19  A    between atoms: O24_24  and  C25_25 
REMARK   20  A    between atoms: C25_25  and  C26_26 
REMARK   21  A    between atoms: C26_26  and  O27_27 
REMARK   22  A    between atoms: O27_27  and  C28_28 
REMARK   23  A    between atoms: C28_28  and  C29_29 
REMARK   24  A    between atoms: C29_29  and  O30_30 
REMARK   25  A    between atoms: O30_30  and  C31_31 
REMARK   26  A    between atoms: C31_31  and  C32_32 
REMARK   27  A    between atoms: C32_32  and  O33_33 
REMARK   28  A    between atoms: O33_33  and  C34_34 
REMARK   29  A    between atoms: C34_34  and  C35_35 
REMARK   30  A    between atoms: C35_35  and  O36_36 
REMARK   31  A    between atoms: O36_36  and  C37_37 
REMARK   32  A    between atoms: C37_37  and  C38_38 
REMARK   33  A    between atoms: C38_38  and  O39_39 
ROOT
ATOM      1  C19 ZIN A   1      14.599   6.248  17.369  0.00  0.00     0.193 C 
ENDROOT
BRANCH   1   2
ATOM      2  O18 ZIN A   1      15.636   7.115  16.905  0.00  0.00    -0.387 OA
BRANCH   2   3
ATOM      3  C17 ZIN A   1      16.290   6.657  15.719  0.00  0.00     0.193 C 
BRANCH   3   4
ATOM      4  C16 ZIN A   1      15.253   6.071  14.759  0.00  0.00     0.193 C 
BRANCH   4   5
ATOM      5  O15 ZIN A   1      15.894   5.694  13.538  0.00  0.00    -0.387 OA
BRANCH   5   6
ATOM      6  C14 ZIN A   1      17.002   4.809  13.713  0.00  0.00     0.194 C 
BRANCH   6   7
ATOM      7  C13 ZIN A   1      17.672   4.558  12.361  0.00  0.00     0.205 C 
BRANCH   7   8
ATOM      8  O12 ZIN A   1      17.909   3.135  12.196  0.00  0.00    -0.315 OA
BRANCH   8   9
ATOM      9  C10 ZIN A   1      18.842   2.770  11.293  0.00  0.00     0.293 C 
ATOM     10  O11 ZIN A   1      19.939   3.291  11.310  0.00  0.00    -0.259 OA
BRANCH   9  11
ATOM     11  C9  ZIN A   1      18.530   1.740  10.286  0.00  0.00     0.039 A 
ATOM     12  C8  ZIN A   1      19.269   1.674   9.101  0.00  0.00     0.020 A 
ATOM     13  C7  ZIN A   1      18.976   0.714   8.165  0.00  0.00     0.030 A 
ATOM     14  C6  ZIN A   1      17.946  -0.194   8.396  0.00  0.00     0.028 A 
ATOM     15  C42 ZIN A   1      17.205  -0.126   9.573  0.00  0.00     0.030 A 
ATOM     16  C41 ZIN A   1      17.496   0.827  10.515  0.00  0.00     0.020 A 
BRANCH  14  17
ATOM     17  N5  ZIN A   1      17.652  -1.165   7.447  0.00  0.00    -0.390 N 
ATOM     18  H52 ZIN A   1      16.729  -1.396   7.258  0.00  0.00     0.159 HD
BRANCH  17  19
ATOM     19  C4  ZIN A   1      18.737  -1.840   6.729  0.00  0.00     0.119 C 
BRANCH  19  20
ATOM     20  C3  ZIN A   1      18.267  -2.202   5.318  0.00  0.00     0.019 C 
BRANCH  20  21
ATOM     21  C2  ZIN A   1      17.710  -0.954   4.631  0.00  0.00    -0.003 C 
ATOM     22  C1  ZIN A   1      18.837   0.059   4.422  0.00  0.00     0.005 C 
ENDBRANCH  20  21
ENDBRANCH  19  20
ENDBRANCH  17  19
ENDBRANCH  14  17
ENDBRANCH   9  11
ENDBRANCH   8   9
ENDBRANCH   7   8
ENDBRANCH   6   7
ENDBRANCH   5   6
ENDBRANCH   4   5
ENDBRANCH   3   4
ENDBRANCH   2   3
ENDBRANCH   1   2
BRANCH   1  23
ATOM     23  C20 ZIN A   1      14.647   6.168  18.896  0.00  0.00     0.193 C 
BRANCH  23  24
ATOM     24  O21 ZIN A   1      15.189   4.906  19.291  0.00  0.00    -0.387 OA
BRANCH  24  25
ATOM     25  C22 ZIN A   1      16.616   4.882  19.361  0.00  0.00     0.193 C 
BRANCH  25  26
ATOM     26  C23 ZIN A   1      17.106   3.435  19.303  0.00  0.00     0.193 C 
BRANCH  26  27
ATOM     27  O24 ZIN A   1      18.265   3.356  18.471  0.00  0.00    -0.387 OA
BRANCH  27  28
ATOM     28  C25 ZIN A   1      18.902   2.077  18.480  0.00  0.00     0.193 C 
BRANCH  28  29
ATOM     29  C26 ZIN A   1      17.854   0.983  18.271  0.00  0.00     0.193 C 
BRANCH  29  30
ATOM     30  O27 ZIN A   1      18.483  -0.299  18.340  0.00  0.00    -0.387 OA
BRANCH  30  31
ATOM     31  C28 ZIN A   1      19.037  -0.741  17.099  0.00  0.00     0.193 C 
BRANCH  31  32
ATOM     32  C29 ZIN A   1      17.921  -1.304  16.215  0.00  0.00     0.193 C 
BRANCH  32  33
ATOM     33  O30 ZIN A   1      18.019  -0.736  14.906  0.00  0.00    -0.387 OA
BRANCH  33  34
ATOM     34  C31 ZIN A   1      19.308  -0.199  14.602  0.00  0.00     0.193 C 
BRANCH  34  35
ATOM     35  C32 ZIN A   1      19.595  -0.378  13.110  0.00  0.00     0.193 C 
BRANCH  35  36
ATOM     36  O33 ZIN A   1      19.164  -1.675  12.694  0.00  0.00    -0.387 OA
BRANCH  36  37
ATOM     37  C34 ZIN A   1      19.787  -2.139  11.495  0.00  0.00     0.193 C 
BRANCH  37  38
ATOM     38  C35 ZIN A   1      20.090  -3.634  11.623  0.00  0.00     0.193 C 
BRANCH  38  39
ATOM     39  O36 ZIN A   1      19.233  -4.370  10.748  0.00  0.00    -0.387 OA
BRANCH  39  40
ATOM     40  C37 ZIN A   1      18.213  -3.580  10.134  0.00  0.00     0.193 C 
BRANCH  40  41
ATOM     41  C38 ZIN A   1      17.405  -4.452   9.169  0.00  0.00     0.193 C 
BRANCH  41  42
ATOM     42  O39 ZIN A   1      17.772  -5.821   9.345  0.00  0.00    -0.394 OA
ATOM     43  C40 ZIN A   1      18.703  -6.302   8.372  0.00  0.00     0.201 C 
ENDBRANCH  41  42
ENDBRANCH  40  41
ENDBRANCH  39  40
ENDBRANCH  38  39
ENDBRANCH  37  38
ENDBRANCH  36  37
ENDBRANCH  35  36
ENDBRANCH  34  35
ENDBRANCH  33  34
ENDBRANCH  32  33
ENDBRANCH  31  32
ENDBRANCH  30  31
ENDBRANCH  29  30
ENDBRANCH  28  29
ENDBRANCH  27  28
ENDBRANCH  26  27
ENDBRANCH  25  26
ENDBRANCH  24  25
ENDBRANCH  23  24
ENDBRANCH   1  23
TORSDOF 33
ENDMDL
MODEL 2
REMARK VINA RESULT:      -5.3      2.503      9.507
REMARK WARNING: 32 MAX_TORS EXCEEDED!!!
REMARK  33 active torsions:
REMARK  status: ('A' for Active; 'I' for Inactive)
REMARK    1  A    between atoms: C2_2  and  C3_3 
REMARK    2  A    between atoms: C3_3  and  C4_4 
REMARK    3  A    between atoms: C4_4  and  N5_5 
REMARK    4  A    between atoms: N5_5  and  C6_6 
REMARK    5  A    between atoms: C9_9  and  C10_10 
REMARK    6  A    between atoms: C10_10  and  O12_12 
REMARK    7  A    between atoms: O12_12  and  C13_13 
REMARK    8  A    between atoms: C13_13  and  C14_14 
REMARK    9  A    between atoms: C14_14  and  O15_15 
REMARK   10  A    between atoms: O15_15  and  C16_16 
REMARK   11  A    between atoms: C16_16  and  C17_17 
REMARK   12  A    between atoms: C17_17  and  O18_18 
REMARK   13  A    between atoms: O18_18  and  C19_19 
REMARK   14  A    between atoms: C19_19  and  C20_20 
REMARK   15  A    between atoms: C20_20  and  O21_21 
REMARK   16  A    between atoms: O21_21  and  C22_22 
REMARK   17  A    between atoms: C22_22  and  C23_23 
REMARK   18  A    between atoms: C23_23  and  O24_24 
REMARK   19  A    between atoms: O24_24  and  C25_25 
REMARK   20  A    between atoms: C25_25  and  C26_26 
REMARK   21  A    between atoms: C26_26  and  O27_27 
REMARK   22  A    between atoms: O27_27  and  C28_28 
REMARK   23  A    between atoms: C28_28  and  C29_29 
REMARK   24  A    between atoms: C29_29  and  O30_30 
REMARK   25  A    between atoms: O30_30  and  C31_31 
REMARK   26  A    between atoms: C31_31  and  C32_32 
REMARK   27  A    between atoms: C32_32  and  O33_33 
REMARK   28  A    between atoms: O33_33  and  C34_34 
REMARK   29  A    between atoms: C34_34  and  C35_35 
REMARK   30  A    between atoms: C35_35  and  O36_36 
REMARK   31  A    between atoms: O36_36  and  C37_37 
REMARK   32  A    between atoms: C37_37  and  C38_38 
REMARK   33  A    between atoms: C38_38  and  O39_39 
ROOT
ATOM      1  C19 ZIN A   1      18.456   0.347   6.251  0.00  0.00     0.193 C 
ENDROOT
BRANCH   1   2
ATOM      2  O18 ZIN A   1      19.095  -0.931   6.311  0.00  0.00    -0.387 OA
BRANCH   2   3
ATOM      3  C17 ZIN A   1      19.177  -1.601   5.052  0.00  0.00     0.193 C 
BRANCH   3   4
ATOM      4  C16 ZIN A   1      17.936  -2.473   4.855  0.00  0.00     0.193 C 
BRANCH   4   5
ATOM      5  O15 ZIN A   1      18.273  -3.842   5.088  0.00  0.00    -0.387 OA
BRANCH   5   6
ATOM      6  C14 ZIN A   1      17.184  -4.748   4.901  0.00  0.00     0.194 C 
BRANCH   6   7
ATOM      7  C13 ZIN A   1      17.730  -6.146   4.602  0.00  0.00     0.205 C 
BRANCH   7   8
ATOM      8  O12 ZIN A   1      18.570  -6.583   5.702  0.00  0.00    -0.315 OA
BRANCH   8   9
ATOM      9  C10 ZIN A   1      17.949  -7.139   6.762  0.00  0.00     0.293 C 
ATOM     10  O11 ZIN A   1      17.299  -8.155   6.620  0.00  0.00    -0.259 OA
BRANCH   9  11
ATOM     11  C9  ZIN A   1      18.060  -6.515   8.093  0.00  0.00     0.039 A 
ATOM     12  C8  ZIN A   1      19.212  -5.802   8.439  0.00  0.00     0.020 A 
ATOM     13  C7  ZIN A   1      19.312  -5.223   9.678  0.00  0.00     0.030 A 
ATOM     14  C6  ZIN A   1      18.267  -5.343  10.591  0.00  0.00     0.028 A 
ATOM     15  C42 ZIN A   1      17.121  -6.057  10.250  0.00  0.00     0.030 A 
ATOM     16  C41 ZIN A   1      17.012  -6.634   9.012  0.00  0.00     0.020 A 
BRANCH  14  17
ATOM     17  N5  ZIN A   1      18.371  -4.755  11.845  0.00  0.00    -0.390 N 
ATOM     18  H52 ZIN A   1      18.240  -5.290  12.644  0.00  0.00     0.159 HD
BRANCH  17  19
ATOM     19  C4  ZIN A   1      18.679  -3.327  11.962  0.00  0.00     0.119 C 
BRANCH  19  20
ATOM     20  C3  ZIN A   1      17.503  -2.506  11.428  0.00  0.00     0.019 C 
BRANCH  20  21
ATOM     21  C2  ZIN A   1      17.939  -1.750  10.171  0.00  0.00    -0.003 C 
ATOM     22  C1  ZIN A   1      19.427  -1.409  10.272  0.00  0.00     0.005 C 
ENDBRANCH  20  21
ENDBRANCH  19  20
ENDBRANCH  17  19
ENDBRANCH  14  17
ENDBRANCH   9  11
ENDBRANCH   8   9
ENDBRANCH   7   8
ENDBRANCH   6   7
ENDBRANCH   5   6
ENDBRANCH   4   5
ENDBRANCH   3   4
ENDBRANCH   2   3
ENDBRANCH   1   2
BRANCH   1  23
ATOM     23  C20 ZIN A   1      19.152   1.310   7.214  0.00  0.00     0.193 C 
BRANCH  23  24
ATOM     24  O21 ZIN A   1      18.500   1.268   8.485  0.00  0.00    -0.387 OA
BRANCH  24  25
ATOM     25  C22 ZIN A   1      18.950   2.267   9.403  0.00  0.00     0.193 C 
BRANCH  25  26
ATOM     26  C23 ZIN A   1      17.968   2.365  10.571  0.00  0.00     0.193 C 
BRANCH  26  27
ATOM     27  O24 ZIN A   1      18.635   2.020  11.786  0.00  0.00    -0.387 OA
BRANCH  27  28
ATOM     28  C25 ZIN A   1      17.805   1.348  12.735  0.00  0.00     0.193 C 
BRANCH  28  29
ATOM     29  C26 ZIN A   1      18.646   0.347  13.531  0.00  0.00     0.193 C 
BRANCH  29  30
ATOM     30  O27 ZIN A   1      17.794  -0.415  14.389  0.00  0.00    -0.387 OA
BRANCH  30  31
ATOM     31  C28 ZIN A   1      18.469  -1.447  15.111  0.00  0.00     0.193 C 
BRANCH  31  32
ATOM     32  C29 ZIN A   1      18.849  -0.932  16.501  0.00  0.00     0.193 C 
BRANCH  32  33
ATOM     33  O30 ZIN A   1      17.662  -0.602  17.227  0.00  0.00    -0.387 OA
BRANCH  33  34
ATOM     34  C31 ZIN A   1      17.836   0.453  18.175  0.00  0.00     0.193 C 
BRANCH  34  35
ATOM     35  C32 ZIN A   1      19.328   0.745  18.344  0.00  0.00     0.193 C 
BRANCH  35  36
ATOM     36  O33 ZIN A   1      19.666   1.935  17.630  0.00  0.00    -0.387 OA
BRANCH  36  37
ATOM     37  C34 ZIN A   1      18.904   3.081  18.016  0.00  0.00     0.193 C 
BRANCH  37  38
ATOM     38  C35 ZIN A   1      19.147   4.215  17.016  0.00  0.00     0.193 C 
BRANCH  38  39
ATOM     39  O36 ZIN A   1      18.137   4.185  16.007  0.00  0.00    -0.387 OA
BRANCH  39  40
ATOM     40  C37 ZIN A   1      17.688   5.479  15.596  0.00  0.00     0.193 C 
BRANCH  40  41
ATOM     41  C38 ZIN A   1      18.650   6.544  16.127  0.00  0.00     0.193 C 
BRANCH  41  42
ATOM     42  O39 ZIN A   1      19.311   7.178  15.030  0.00  0.00    -0.394 OA
ATOM     43  C40 ZIN A   1      20.338   6.382  14.434  0.00  0.00     0.201 C 
ENDBRANCH  41  42
ENDBRANCH  40  41
ENDBRANCH  39  40
ENDBRANCH  38  39
ENDBRANCH  37  38
ENDBRANCH  36  37
ENDBRANCH  35  36
ENDBRANCH  34  35
ENDBRANCH  33  34
ENDBRANCH  32  33
ENDBRANCH  31  32
ENDBRANCH  30  31
ENDBRANCH  29  30
ENDBRANCH  28  29
ENDBRANCH  27  28
ENDBRANCH  26  27
ENDBRANCH  25  26
ENDBRANCH  24  25
ENDBRANCH  23  24
ENDBRANCH   1  23
TORSDOF 33
ENDMDL
MODEL 3
REMARK VINA RESULT:      -5.2      2.267      8.897
REMARK WARNING: 32 MAX_TORS EXCEEDED!!!
REMARK  33 active torsions:
REMARK  status: ('A' for Active; 'I' for Inactive)
REMARK    1  A    between atoms: C2_2  and  C3_3 
REMARK    2  A    between atoms: C3_3  and  C4_4 
REMARK    3  A    between atoms: C4_4  and  N5_5 
REMARK    4  A    between atoms: N5_5  and  C6_6 
REMARK    5  A    between atoms: C9_9  and  C10_10 
REMARK    6  A    between atoms: C10_10  and  O12_12 
REMARK    7  A    between atoms: O12_12  and  C13_13 
REMARK    8  A    between atoms: C13_13  and  C14_14 
REMARK    9  A    between atoms: C14_14  and  O15_15 
REMARK   10  A    between atoms: O15_15  and  C16_16 
REMARK   11  A    between atoms: C16_16  and  C17_17 
REMARK   12  A    between atoms: C17_17  and  O18_18 
REMARK   13  A    between atoms: O18_18  and  C19_19 
REMARK   14  A    between atoms: C19_19  and  C20_20 
REMARK   15  A    between atoms: C20_20  and  O21_21 
REMARK   16  A    between atoms: O21_21  and  C22_22 
REMARK   17  A    between atoms: C22_22  and  C23_23 
REMARK   18  A    between atoms: C23_23  and  O24_24 
REMARK   19  A    between atoms: O24_24  and  C25_25 
REMARK   20  A    between atoms: C25_25  and  C26_26 
REMARK   21  A    between atoms: C26_26  and  O27_27 
REMARK   22  A    between atoms: O27_27  and  C28_28 
REMARK   23  A    between atoms: C28_28  and  C29_29 
REMARK   24  A    between atoms: C29_29  and  O30_30 
REMARK   25  A    between atoms: O30_30  and  C31_31 
REMARK   26  A    between atoms: C31_31  and  C32_32 
REMARK   27  A    between atoms: C32_32  and  O33_33 
REMARK   28  A    between atoms: O33_33  and  C34_34 
REMARK   29  A    between atoms: C34_34  and  C35_35 
REMARK   30  A    between atoms: C35_35  and  O36_36 
REMARK   31  A    between atoms: O36_36  and  C37_37 
REMARK   32  A    between atoms: C37_37  and  C38_38 
REMARK   33  A    between atoms: C38_38  and  O39_39 
ROOT
ATOM      1  C19 ZIN A   1      19.273  -4.257  10.128  0.00  0.00     0.193 C 
ENDROOT
BRANCH   1   2
ATOM      2  O18 ZIN A   1      18.498  -5.324   9.575  0.00  0.00    -0.387 OA
BRANCH   2   3
ATOM      3  C17 ZIN A   1      17.170  -4.948   9.205  0.00  0.00     0.193 C 
BRANCH   3   4
ATOM      4  C16 ZIN A   1      16.415  -6.177   8.696  0.00  0.00     0.193 C 
BRANCH   4   5
ATOM      5  O15 ZIN A   1      16.003  -5.957   7.345  0.00  0.00    -0.387 OA
BRANCH   5   6
ATOM      6  C14 ZIN A   1      16.173  -7.092   6.494  0.00  0.00     0.194 C 
BRANCH   6   7
ATOM      7  C13 ZIN A   1      15.271  -6.948   5.266  0.00  0.00     0.205 C 
BRANCH   7   8
ATOM      8  O12 ZIN A   1      15.335  -5.583   4.776  0.00  0.00    -0.315 OA
BRANCH   8   9
ATOM      9  C10 ZIN A   1      16.415  -5.246   4.043  0.00  0.00     0.293 C 
ATOM     10  O11 ZIN A   1      16.751  -5.939   3.103  0.00  0.00    -0.259 OA
BRANCH   9  11
ATOM     11  C9  ZIN A   1      17.189  -4.038   4.381  0.00  0.00     0.039 A 
ATOM     12  C8  ZIN A   1      16.837  -2.804   3.826  0.00  0.00     0.020 A 
ATOM     13  C7  ZIN A   1      17.559  -1.681   4.142  0.00  0.00     0.030 A 
ATOM     14  C6  ZIN A   1      18.641  -1.770   5.015  0.00  0.00     0.028 A 
ATOM     15  C42 ZIN A   1      18.997  -3.000   5.564  0.00  0.00     0.030 A 
ATOM     16  C41 ZIN A   1      18.276  -4.124   5.256  0.00  0.00     0.020 A 
BRANCH  14  17
ATOM     17  N5  ZIN A   1      19.370  -0.631   5.334  0.00  0.00    -0.390 N 
ATOM     18  H52 ZIN A   1      20.321  -0.594   5.142  0.00  0.00     0.159 HD
BRANCH  17  19
ATOM     19  C4  ZIN A   1      18.704   0.515   5.958  0.00  0.00     0.119 C 
BRANCH  19  20
ATOM     20  C3  ZIN A   1      17.800   0.025   7.090  0.00  0.00     0.019 C 
BRANCH  20  21
ATOM     21  C2  ZIN A   1      18.364   0.494   8.433  0.00  0.00    -0.003 C 
ATOM     22  C1  ZIN A   1      19.227   1.739   8.215  0.00  0.00     0.005 C 
ENDBRANCH  20  21
ENDBRANCH  19  20
ENDBRANCH  17  19
ENDBRANCH  14  17
ENDBRANCH   9  11
ENDBRANCH   8   9
ENDBRANCH   7   8
ENDBRANCH   6   7
ENDBRANCH   5   6
ENDBRANCH   4   5
ENDBRANCH   3   4
ENDBRANCH   2   3
ENDBRANCH   1   2
BRANCH   1  23
ATOM     23  C20 ZIN A   1      18.495  -2.946  10.005  0.00  0.00     0.193 C 
BRANCH  23  24
ATOM     24  O21 ZIN A   1      18.879  -2.062  11.061  0.00  0.00    -0.387 OA
BRANCH  24  25
ATOM     25  C22 ZIN A   1      17.868  -1.866  12.051  0.00  0.00     0.193 C 
BRANCH  25  26
ATOM     26  C23 ZIN A   1      18.525  -1.641  13.413  0.00  0.00     0.193 C 
BRANCH  26  27
ATOM     27  O24 ZIN A   1      18.150  -0.358  13.918  0.00  0.00    -0.387 OA
BRANCH  27  28
ATOM     28  C25 ZIN A   1      17.863  -0.344  15.318  0.00  0.00     0.193 C 
BRANCH  28  29
ATOM     29  C26 ZIN A   1      18.916  -1.166  16.064  0.00  0.00     0.193 C 
BRANCH  29  30
ATOM     30  O27 ZIN A   1      19.121  -0.610  17.364  0.00  0.00    -0.387 OA
BRANCH  30  31
ATOM     31  C28 ZIN A   1      18.147   0.367  17.739  0.00  0.00     0.193 C 
BRANCH  31  32
ATOM     32  C29 ZIN A   1      18.797   1.412  18.649  0.00  0.00     0.193 C 
BRANCH  32  33
ATOM     33  O30 ZIN A   1      19.789   2.132  17.913  0.00  0.00    -0.387 OA
BRANCH  33  34
ATOM     34  C31 ZIN A   1      19.273   2.844  16.786  0.00  0.00     0.193 C 
BRANCH  34  35
ATOM     35  C32 ZIN A   1      18.439   4.031  17.272  0.00  0.00     0.193 C 
BRANCH  35  36
ATOM     36  O33 ZIN A   1      17.785   4.642  16.158  0.00  0.00    -0.387 OA
BRANCH  36  37
ATOM     37  C34 ZIN A   1      18.443   5.811  15.667  0.00  0.00     0.193 C 
BRANCH  37  38
ATOM     38  C35 ZIN A   1      18.563   5.727  14.143  0.00  0.00     0.193 C 
BRANCH  38  39
ATOM     39  O36 ZIN A   1      19.331   4.577  13.789  0.00  0.00    -0.387 OA
BRANCH  39  40
ATOM     40  C37 ZIN A   1      19.151   4.152  12.436  0.00  0.00     0.193 C 
BRANCH  40  41
ATOM     41  C38 ZIN A   1      17.792   4.638  11.926  0.00  0.00     0.193 C 
BRANCH  41  42
ATOM     42  O39 ZIN A   1      17.078   3.541  11.354  0.00  0.00    -0.394 OA
ATOM     43  C40 ZIN A   1      17.662   2.264  11.626  0.00  0.00     0.201 C 
ENDBRANCH  41  42
ENDBRANCH  40  41
ENDBRANCH  39  40
ENDBRANCH  38  39
ENDBRANCH  37  38
ENDBRANCH  36  37
ENDBRANCH  35  36
ENDBRANCH  34  35
ENDBRANCH  33  34
ENDBRANCH  32  33
ENDBRANCH  31  32
ENDBRANCH  30  31
ENDBRANCH  29  30
ENDBRANCH  28  29
ENDBRANCH  27  28
ENDBRANCH  26  27
ENDBRANCH  25  26
ENDBRANCH  24  25
ENDBRANCH  23  24
ENDBRANCH   1  23
TORSDOF 33
ENDMDL
MODEL 4
REMARK VINA RESULT:      -5.1      2.880      9.068
REMARK WARNING: 32 MAX_TORS EXCEEDED!!!
REMARK  33 active torsions:
REMARK  status: ('A' for Active; 'I' for Inactive)
REMARK    1  A    between atoms: C2_2  and  C3_3 
REMARK    2  A    between atoms: C3_3  and  C4_4 
REMARK    3  A    between atoms: C4_4  and  N5_5 
REMARK    4  A    between atoms: N5_5  and  C6_6 
REMARK    5  A    between atoms: C9_9  and  C10_10 
REMARK    6  A    between atoms: C10_10  and  O12_12 
REMARK    7  A    between atoms: O12_12  and  C13_13 
REMARK    8  A    between atoms: C13_13  and  C14_14 
REMARK    9  A    between atoms: C14_14  and  O15_15 
REMARK   10  A    between atoms: O15_15  and  C16_16 
REMARK   11  A    between atoms: C16_16  and  C17_17 
REMARK   12  A    between atoms: C17_17  and  O18_18 
REMARK   13  A    between atoms: O18_18  and  C19_19 
REMARK   14  A    between atoms: C19_19  and  C20_20 
REMARK   15  A    between atoms: C20_20  and  O21_21 
REMARK   16  A    between atoms: O21_21  and  C22_22 
REMARK   17  A    between atoms: C22_22  and  C23_23 
REMARK   18  A    between atoms: C23_23  and  O24_24 
REMARK   19  A    between atoms: O24_24  and  C25_25 
REMARK   20  A    between atoms: C25_25  and  C26_26 
REMARK   21  A    between atoms: C26_26  and  O27_27 
REMARK   22  A    between atoms: O27_27  and  C28_28 
REMARK   23  A    between atoms: C28_28  and  C29_29 
REMARK   24  A    between atoms: C29_29  and  O30_30 
REMARK   25  A    between atoms: O30_30  and  C31_31 
REMARK   26  A    between atoms: C31_31  and  C32_32 
REMARK   27  A    between atoms: C32_32  and  O33_33 
REMARK   28  A    between atoms: O33_33  and  C34_34 
REMARK   29  A    between atoms: C34_34  and  C35_35 
REMARK   30  A    between atoms: C35_35  and  O36_36 
REMARK   31  A    between atoms: O36_36  and  C37_37 
REMARK   32  A    between atoms: C37_37  and  C38_38 
REMARK   33  A    between atoms: C38_38  and  O39_39 
ROOT
ATOM      1  C19 ZIN A   1      18.488  -1.662  13.159  0.00  0.00     0.193 C 
ENDROOT
BRANCH   1   2
ATOM      2  O18 ZIN A   1      19.373  -0.827  13.909  0.00  0.00    -0.387 OA
BRANCH   2   3
ATOM      3  C17 ZIN A   1      19.586  -1.263  15.252  0.00  0.00     0.193 C 
BRANCH   3   4
ATOM      4  C16 ZIN A   1      18.238  -1.552  15.915  0.00  0.00     0.193 C 
BRANCH   4   5
ATOM      5  O15 ZIN A   1      18.070  -0.693  17.046  0.00  0.00    -0.387 OA
BRANCH   5   6
ATOM      6  C14 ZIN A   1      19.294  -0.346  17.698  0.00  0.00     0.194 C 
BRANCH   6   7
ATOM      7  C13 ZIN A   1      19.058   0.853  18.618  0.00  0.00     0.205 C 
BRANCH   7   8
ATOM      8  O12 ZIN A   1      19.751   2.014  18.088  0.00  0.00    -0.315 OA
BRANCH   8   9
ATOM      9  C10 ZIN A   1      19.004   3.103  17.819  0.00  0.00     0.293 C 
ATOM     10  O11 ZIN A   1      18.649   3.834  18.722  0.00  0.00    -0.259 OA
BRANCH   9  11
ATOM     11  C9  ZIN A   1      18.617   3.407  16.429  0.00  0.00     0.039 A 
ATOM     12  C8  ZIN A   1      18.973   2.535  15.396  0.00  0.00     0.020 A 
ATOM     13  C7  ZIN A   1      18.613   2.822  14.104  0.00  0.00     0.030 A 
ATOM     14  C6  ZIN A   1      17.892   3.980  13.821  0.00  0.00     0.028 A 
ATOM     15  C42 ZIN A   1      17.540   4.852  14.848  0.00  0.00     0.030 A 
ATOM     16  C41 ZIN A   1      17.893   4.569  16.142  0.00  0.00     0.020 A 
BRANCH  14  17
ATOM     17  N5  ZIN A   1      17.527   4.267  12.512  0.00  0.00    -0.390 N 
ATOM     18  H52 ZIN A   1      16.594   4.412  12.289  0.00  0.00     0.159 HD
BRANCH  17  19
ATOM     19  C4  ZIN A   1      18.551   4.351  11.467  0.00  0.00     0.119 C 
BRANCH  19  20
ATOM     20  C3  ZIN A   1      17.976   3.838  10.146  0.00  0.00     0.019 C 
BRANCH  20  21
ATOM     21  C2  ZIN A   1      18.435   2.397   9.916  0.00  0.00    -0.003 C 
ATOM     22  C1  ZIN A   1      17.531   1.442  10.698  0.00  0.00     0.005 C 
ENDBRANCH  20  21
ENDBRANCH  19  20
ENDBRANCH  17  19
ENDBRANCH  14  17
ENDBRANCH   9  11
ENDBRANCH   8   9
ENDBRANCH   7   8
ENDBRANCH   6   7
ENDBRANCH   5   6
ENDBRANCH   4   5
ENDBRANCH   3   4
ENDBRANCH   2   3
ENDBRANCH   1   2
BRANCH   1  23
ATOM     23  C20 ZIN A   1      19.157  -2.062  11.843  0.00  0.00     0.193 C 
BRANCH  23  24
ATOM     24  O21 ZIN A   1      18.793  -3.404  11.511  0.00  0.00    -0.387 OA
BRANCH  24  25
ATOM     25  C22 ZIN A   1      17.398  -3.583  11.259  0.00  0.00     0.193 C 
BRANCH  25  26
ATOM     26  C23 ZIN A   1      17.083  -5.076  11.170  0.00  0.00     0.193 C 
BRANCH  26  27
ATOM     27  O24 ZIN A   1      17.541  -5.586   9.916  0.00  0.00    -0.387 OA
BRANCH  27  28
ATOM     28  C25 ZIN A   1      16.525  -5.669   8.915  0.00  0.00     0.193 C 
BRANCH  28  29
ATOM     29  C26 ZIN A   1      16.419  -7.110   8.413  0.00  0.00     0.193 C 
BRANCH  29  30
ATOM     30  O27 ZIN A   1      15.981  -7.110   7.052  0.00  0.00    -0.387 OA
BRANCH  30  31
ATOM     31  C28 ZIN A   1      14.838  -6.286   6.811  0.00  0.00     0.193 C 
BRANCH  31  32
ATOM     32  C29 ZIN A   1      14.394  -6.444   5.354  0.00  0.00     0.193 C 
BRANCH  32  33
ATOM     33  O30 ZIN A   1      14.836  -5.315   4.597  0.00  0.00    -0.387 OA
BRANCH  33  34
ATOM     34  C31 ZIN A   1      15.645  -5.654   3.469  0.00  0.00     0.193 C 
BRANCH  34  35
ATOM     35  C32 ZIN A   1      16.172  -4.374   2.817  0.00  0.00     0.193 C 
BRANCH  35  36
ATOM     36  O33 ZIN A   1      17.572  -4.250   3.074  0.00  0.00    -0.387 OA
BRANCH  36  37
ATOM     37  C34 ZIN A   1      17.893  -4.000   4.443  0.00  0.00     0.193 C 
BRANCH  37  38
ATOM     38  C35 ZIN A   1      18.091  -2.496   4.654  0.00  0.00     0.193 C 
BRANCH  38  39
ATOM     39  O36 ZIN A   1      19.372  -2.262   5.240  0.00  0.00    -0.387 OA
BRANCH  39  40
ATOM     40  C37 ZIN A   1      19.383  -1.212   6.211  0.00  0.00     0.193 C 
BRANCH  40  41
ATOM     41  C38 ZIN A   1      19.190  -1.808   7.607  0.00  0.00     0.193 C 
BRANCH  41  42
ATOM     42  O39 ZIN A   1      18.118  -1.132   8.268  0.00  0.00    -0.394 OA
ATOM     43  C40 ZIN A   1      17.322  -0.320   7.402  0.00  0.00     0.201 C 
ENDBRANCH  41  42
ENDBRANCH  40  41
ENDBRANCH  39  40
ENDBRANCH  38  39
ENDBRANCH  37  38
ENDBRANCH  36  37
ENDBRANCH  35  36
ENDBRANCH  34  35
ENDBRANCH  33  34
ENDBRANCH  32  33
ENDBRANCH  31  32
ENDBRANCH  30  31
ENDBRANCH  29  30
ENDBRANCH  28  29
ENDBRANCH  27  28
ENDBRANCH  26  27
ENDBRANCH  25  26
ENDBRANCH  24  25
ENDBRANCH  23  24
ENDBRANCH   1  23
TORSDOF 33
ENDMDL
MODEL 5
REMARK VINA RESULT:      -5.0      1.913      8.516
REMARK WARNING: 32 MAX_TORS EXCEEDED!!!
REMARK  33 active torsions:
REMARK  status: ('A' for Active; 'I' for Inactive)
REMARK    1  A    between atoms: C2_2  and  C3_3 
REMARK    2  A    between atoms: C3_3  and  C4_4 
REMARK    3  A    between atoms: C4_4  and  N5_5 
REMARK    4  A    between atoms: N5_5  and  C6_6 
REMARK    5  A    between atoms: C9_9  and  C10_10 
REMARK    6  A    between atoms: C10_10  and  O12_12 
REMARK    7  A    between atoms: O12_12  and  C13_13 
REMARK    8  A    between atoms: C13_13  and  C14_14 
REMARK    9  A    between atoms: C14_14  and  O15_15 
REMARK   10  A    between atoms: O15_15  and  C16_16 
REMARK   11  A    between atoms: C16_16  and  C17_17 
REMARK   12  A    between atoms: C17_17  and  O18_18 
REMARK   13  A    between atoms: O18_18  and  C19_19 
REMARK   14  A    between atoms: C19_19  and  C20_20 
REMARK   15  A    between atoms: C20_20  and  O21_21 
REMARK   16  A    between atoms: O21_21  and  C22_22 
REMARK   17  A    between atoms: C22_22  and  C23_23 
REMARK   18  A    between atoms: C23_23  and  O24_24 
REMARK   19  A    between atoms: O24_24  and  C25_25 
REMARK   20  A    between atoms: C25_25  and  C26_26 
REMARK   21  A    between atoms: C26_26  and  O27_27 
REMARK   22  A    between atoms: O27_27  and  C28_28 
REMARK   23  A    between atoms: C28_28  and  C29_29 
REMARK   24  A    between atoms: C29_29  and  O30_30 
REMARK   25  A    between atoms: O30_30  and  C31_31 
REMARK   26  A    between atoms: C31_31  and  C32_32 
REMARK   27  A    between atoms: C32_32  and  O33_33 
REMARK   28  A    between atoms: O33_33  and  C34_34 
REMARK   29  A    between atoms: C34_34  and  C35_35 
REMARK   30  A    between atoms: C35_35  and  O36_36 
REMARK   31  A    between atoms: O36_36  and  C37_37 
REMARK   32  A    between atoms: C37_37  and  C38_38 
REMARK   33  A    between atoms: C38_38  and  O39_39 
ROOT
ATOM      1  C19 ZIN A   1      19.796  -1.657  11.086  0.00  0.00     0.193 C 
ENDROOT
BRANCH   1   2
ATOM      2  O18 ZIN A   1      19.217  -2.916  11.435  0.00  0.00    -0.387 OA
BRANCH   2   3
ATOM      3  C17 ZIN A   1      17.788  -2.914  11.454  0.00  0.00     0.193 C 
BRANCH   3   4
ATOM      4  C16 ZIN A   1      17.263  -3.986  10.497  0.00  0.00     0.193 C 
BRANCH   4   5
ATOM      5  O15 ZIN A   1      17.996  -5.198  10.691  0.00  0.00    -0.387 OA
BRANCH   5   6
ATOM      6  C14 ZIN A   1      17.288  -6.374  10.294  0.00  0.00     0.194 C 
BRANCH   6   7
ATOM      7  C13 ZIN A   1      16.472  -6.077   9.034  0.00  0.00     0.205 C 
BRANCH   7   8
ATOM      8  O12 ZIN A   1      16.526  -7.221   8.142  0.00  0.00    -0.315 OA
BRANCH   8   9
ATOM      9  C10 ZIN A   1      17.509  -7.232   7.220  0.00  0.00     0.293 C 
ATOM     10  O11 ZIN A   1      18.012  -8.285   6.881  0.00  0.00    -0.259 OA
BRANCH   9  11
ATOM     11  C9  ZIN A   1      17.974  -5.967   6.622  0.00  0.00     0.039 A 
ATOM     12  C8  ZIN A   1      17.248  -5.375   5.584  0.00  0.00     0.020 A 
ATOM     13  C7  ZIN A   1      17.683  -4.198   5.030  0.00  0.00     0.030 A 
ATOM     14  C6  ZIN A   1      18.846  -3.594   5.500  0.00  0.00     0.028 A 
ATOM     15  C42 ZIN A   1      19.574  -4.185   6.529  0.00  0.00     0.030 A 
ATOM     16  C41 ZIN A   1      19.142  -5.358   7.091  0.00  0.00     0.020 A 
BRANCH  14  17
ATOM     17  N5  ZIN A   1      19.284  -2.402   4.936  0.00  0.00    -0.390 N 
ATOM     18  H52 ZIN A   1      20.226  -2.169   4.964  0.00  0.00     0.159 HD
BRANCH  17  19
ATOM     19  C4  ZIN A   1      18.325  -1.496   4.298  0.00  0.00     0.119 C 
BRANCH  19  20
ATOM     20  C3  ZIN A   1      18.809  -0.052   4.449  0.00  0.00     0.019 C 
BRANCH  20  21
ATOM     21  C2  ZIN A   1      18.608   0.404   5.896  0.00  0.00    -0.003 C 
ATOM     22  C1  ZIN A   1      17.184   0.069   6.343  0.00  0.00     0.005 C 
ENDBRANCH  20  21
ENDBRANCH  19  20
ENDBRANCH  17  19
ENDBRANCH  14  17
ENDBRANCH   9  11
ENDBRANCH   8   9
ENDBRANCH   7   8
ENDBRANCH   6   7
ENDBRANCH   5   6
ENDBRANCH   4   5
ENDBRANCH   3   4
ENDBRANCH   2   3
ENDBRANCH   1   2
BRANCH   1  23
ATOM     23  C20 ZIN A   1      18.719  -0.747  10.493  0.00  0.00     0.193 C 
BRANCH  23  24
ATOM     24  O21 ZIN A   1      19.216  -0.133   9.302  0.00  0.00    -0.387 OA
BRANCH  24  25
ATOM     25  C22 ZIN A   1      19.350   1.287   9.392  0.00  0.00     0.193 C 
BRANCH  25  26
ATOM     26  C23 ZIN A   1      18.042   1.891   9.906  0.00  0.00     0.193 C 
BRANCH  26  27
ATOM     27  O24 ZIN A   1      18.315   3.130  10.563  0.00  0.00    -0.387 OA
BRANCH  27  28
ATOM     28  C25 ZIN A   1      17.333   3.504  11.532  0.00  0.00     0.193 C 
BRANCH  28  29
ATOM     29  C26 ZIN A   1      16.765   4.880  11.179  0.00  0.00     0.193 C 
BRANCH  29  30
ATOM     30  O27 ZIN A   1      16.104   5.429  12.320  0.00  0.00    -0.387 OA
BRANCH  30  31
ATOM     31  C28 ZIN A   1      16.991   5.866  13.352  0.00  0.00     0.193 C 
BRANCH  31  32
ATOM     32  C29 ZIN A   1      16.263   5.838  14.697  0.00  0.00     0.193 C 
BRANCH  32  33
ATOM     33  O30 ZIN A   1      17.086   5.191  15.671  0.00  0.00    -0.387 OA
BRANCH  33  34
ATOM     34  C31 ZIN A   1      18.221   4.521  15.118  0.00  0.00     0.193 C 
BRANCH  34  35
ATOM     35  C32 ZIN A   1      19.269   4.307  16.212  0.00  0.00     0.193 C 
BRANCH  35  36
ATOM     36  O33 ZIN A   1      19.247   2.942  16.633  0.00  0.00    -0.387 OA
BRANCH  36  37
ATOM     37  C34 ZIN A   1      19.155   2.771  18.049  0.00  0.00     0.193 C 
BRANCH  37  38
ATOM     38  C35 ZIN A   1      18.922   1.293  18.370  0.00  0.00     0.193 C 
BRANCH  38  39
ATOM     39  O36 ZIN A   1      19.272   0.498  17.235  0.00  0.00    -0.387 OA
BRANCH  39  40
ATOM     40  C37 ZIN A   1      18.150  -0.075  16.559  0.00  0.00     0.193 C 
BRANCH  40  41
ATOM     41  C38 ZIN A   1      18.581  -1.370  15.865  0.00  0.00     0.193 C 
BRANCH  41  42
ATOM     42  O39 ZIN A   1      18.871  -1.100  14.492  0.00  0.00    -0.394 OA
ATOM     43  C40 ZIN A   1      18.537   0.227  14.078  0.00  0.00     0.201 C 
ENDBRANCH  41  42
ENDBRANCH  40  41
ENDBRANCH  39  40
ENDBRANCH  38  39
ENDBRANCH  37  38
ENDBRANCH  36  37
ENDBRANCH  35  36
ENDBRANCH  34  35
ENDBRANCH  33  34
ENDBRANCH  32  33
ENDBRANCH  31  32
ENDBRANCH  30  31
ENDBRANCH  29  30
ENDBRANCH  28  29
ENDBRANCH  27  28
ENDBRANCH  26  27
ENDBRANCH  25  26
ENDBRANCH  24  25
ENDBRANCH  23  24
ENDBRANCH   1  23
TORSDOF 33
ENDMDL
MODEL 6
REMARK VINA RESULT:      -5.0      1.764      2.874
REMARK WARNING: 32 MAX_TORS EXCEEDED!!!
REMARK  33 active torsions:
REMARK  status: ('A' for Active; 'I' for Inactive)
REMARK    1  A    between atoms: C2_2  and  C3_3 
REMARK    2  A    between atoms: C3_3  and  C4_4 
REMARK    3  A    between atoms: C4_4  and  N5_5 
REMARK    4  A    between atoms: N5_5  and  C6_6 
REMARK    5  A    between atoms: C9_9  and  C10_10 
REMARK    6  A    between atoms: C10_10  and  O12_12 
REMARK    7  A    between atoms: O12_12  and  C13_13 
REMARK    8  A    between atoms: C13_13  and  C14_14 
REMARK    9  A    between atoms: C14_14  and  O15_15 
REMARK   10  A    between atoms: O15_15  and  C16_16 
REMARK   11  A    between atoms: C16_16  and  C17_17 
REMARK   12  A    between atoms: C17_17  and  O18_18 
REMARK   13  A    between atoms: O18_18  and  C19_19 
REMARK   14  A    between atoms: C19_19  and  C20_20 
REMARK   15  A    between atoms: C20_20  and  O21_21 
REMARK   16  A    between atoms: O21_21  and  C22_22 
REMARK   17  A    between atoms: C22_22  and  C23_23 
REMARK   18  A    between atoms: C23_23  and  O24_24 
REMARK   19  A    between atoms: O24_24  and  C25_25 
REMARK   20  A    between atoms: C25_25  and  C26_26 
REMARK   21  A    between atoms: C26_26  and  O27_27 
REMARK   22  A    between atoms: O27_27  and  C28_28 
REMARK   23  A    between atoms: C28_28  and  C29_29 
REMARK   24  A    between atoms: C29_29  and  O30_30 
REMARK   25  A    between atoms: O30_30  and  C31_31 
REMARK   26  A    between atoms: C31_31  and  C32_32 
REMARK   27  A    between atoms: C32_32  and  O33_33 
REMARK   28  A    between atoms: O33_33  and  C34_34 
REMARK   29  A    between atoms: C34_34  and  C35_35 
REMARK   30  A    between atoms: C35_35  and  O36_36 
REMARK   31  A    between atoms: O36_36  and  C37_37 
REMARK   32  A    between atoms: C37_37  and  C38_38 
REMARK   33  A    between atoms: C38_38  and  O39_39 
ROOT
ATOM      1  C19 ZIN A   1      15.884   5.988  18.605  0.00  0.00     0.193 C 
ENDROOT
BRANCH   1   2
ATOM      2  O18 ZIN A   1      16.699   7.118  18.924  0.00  0.00    -0.387 OA
BRANCH   2   3
ATOM      3  C17 ZIN A   1      17.251   7.778  17.784  0.00  0.00     0.193 C 
BRANCH   3   4
ATOM      4  C16 ZIN A   1      16.146   8.034  16.758  0.00  0.00     0.193 C 
BRANCH   4   5
ATOM      5  O15 ZIN A   1      16.694   7.963  15.439  0.00  0.00    -0.387 OA
BRANCH   5   6
ATOM      6  C14 ZIN A   1      15.983   7.088  14.562  0.00  0.00     0.194 C 
BRANCH   6   7
ATOM      7  C13 ZIN A   1      16.374   5.639  14.860  0.00  0.00     0.205 C 
BRANCH   7   8
ATOM      8  O12 ZIN A   1      16.702   4.961  13.619  0.00  0.00    -0.315 OA
BRANCH   8   9
ATOM      9  C10 ZIN A   1      18.010   4.826  13.323  0.00  0.00     0.293 C 
ATOM     10  O11 ZIN A   1      18.841   5.464  13.938  0.00  0.00    -0.259 OA
BRANCH   9  11
ATOM     11  C9  ZIN A   1      18.433   3.905  12.252  0.00  0.00     0.039 A 
ATOM     12  C8  ZIN A   1      17.828   3.969  10.994  0.00  0.00     0.020 A 
ATOM     13  C7  ZIN A   1      18.223   3.110  10.000  0.00  0.00     0.030 A 
ATOM     14  C6  ZIN A   1      19.227   2.175  10.244  0.00  0.00     0.028 A 
ATOM     15  C42 ZIN A   1      19.827   2.106  11.498  0.00  0.00     0.030 A 
ATOM     16  C41 ZIN A   1      19.440   2.965  12.494  0.00  0.00     0.020 A 
BRANCH  14  17
ATOM     17  N5  ZIN A   1      19.625   1.307   9.235  0.00  0.00    -0.390 N 
ATOM     18  H52 ZIN A   1      20.132   0.509   9.454  0.00  0.00     0.159 HD
BRANCH  17  19
ATOM     19  C4  ZIN A   1      19.279   1.595   7.841  0.00  0.00     0.119 C 
BRANCH  19  20
ATOM     20  C3  ZIN A   1      18.423   0.457   7.282  0.00  0.00     0.019 C 
BRANCH  20  21
ATOM     21  C2  ZIN A   1      18.392   0.546   5.755  0.00  0.00    -0.003 C 
ATOM     22  C1  ZIN A   1      19.251  -0.574   5.162  0.00  0.00     0.005 C 
ENDBRANCH  20  21
ENDBRANCH  19  20
ENDBRANCH  17  19
ENDBRANCH  14  17
ENDBRANCH   9  11
ENDBRANCH   8   9
ENDBRANCH   7   8
ENDBRANCH   6   7
ENDBRANCH   5   6
ENDBRANCH   4   5
ENDBRANCH   3   4
ENDBRANCH   2   3
ENDBRANCH   1   2
BRANCH   1  23
ATOM     23  C20 ZIN A   1      15.642   5.161  19.869  0.00  0.00     0.193 C 
BRANCH  23  24
ATOM     24  O21 ZIN A   1      15.852   3.777  19.580  0.00  0.00    -0.387 OA
BRANCH  24  25
ATOM     25  C22 ZIN A   1      17.123   3.490  18.995  0.00  0.00     0.193 C 
BRANCH  25  26
ATOM     26  C23 ZIN A   1      17.327   1.976  18.934  0.00  0.00     0.193 C 
BRANCH  26  27
ATOM     27  O24 ZIN A   1      18.083   1.643  17.768  0.00  0.00    -0.387 OA
BRANCH  27  28
ATOM     28  C25 ZIN A   1      18.234   0.239  17.553  0.00  0.00     0.193 C 
BRANCH  28  29
ATOM     29  C26 ZIN A   1      17.069  -0.275  16.704  0.00  0.00     0.193 C 
BRANCH  29  30
ATOM     30  O27 ZIN A   1      17.554  -0.668  15.418  0.00  0.00    -0.387 OA
BRANCH  30  31
ATOM     31  C28 ZIN A   1      18.933  -1.043  15.406  0.00  0.00     0.193 C 
BRANCH  31  32
ATOM     32  C29 ZIN A   1      19.503  -0.847  14.000  0.00  0.00     0.193 C 
BRANCH  32  33
ATOM     33  O30 ZIN A   1      19.314  -2.043  13.239  0.00  0.00    -0.387 OA
BRANCH  33  34
ATOM     34  C31 ZIN A   1      18.412  -1.895  12.140  0.00  0.00     0.193 C 
BRANCH  34  35
ATOM     35  C32 ZIN A   1      18.695  -2.980  11.099  0.00  0.00     0.193 C 
BRANCH  35  36
ATOM     36  O33 ZIN A   1      19.352  -2.400   9.971  0.00  0.00    -0.387 OA
BRANCH  36  37
ATOM     37  C34 ZIN A   1      18.868  -2.869   8.711  0.00  0.00     0.193 C 
BRANCH  37  38
ATOM     38  C35 ZIN A   1      17.869  -4.006   8.941  0.00  0.00     0.193 C 
BRANCH  38  39
ATOM     39  O36 ZIN A   1      17.943  -4.931   7.855  0.00  0.00    -0.387 OA
BRANCH  39  40
ATOM     40  C37 ZIN A   1      16.711  -5.601   7.578  0.00  0.00     0.193 C 
BRANCH  40  41
ATOM     41  C38 ZIN A   1      15.859  -5.648   8.849  0.00  0.00     0.193 C 
BRANCH  41  42
ATOM     42  O39 ZIN A   1      14.483  -5.799   8.493  0.00  0.00    -0.394 OA
ATOM     43  C40 ZIN A   1      14.201  -6.992   7.758  0.00  0.00     0.201 C 
ENDBRANCH  41  42
ENDBRANCH  40  41
ENDBRANCH  39  40
ENDBRANCH  38  39
ENDBRANCH  37  38
ENDBRANCH  36  37
ENDBRANCH  35  36
ENDBRANCH  34  35
ENDBRANCH  33  34
ENDBRANCH  32  33
ENDBRANCH  31  32
ENDBRANCH  30  31
ENDBRANCH  29  30
ENDBRANCH  28  29
ENDBRANCH  27  28
ENDBRANCH  26  27
ENDBRANCH  25  26
ENDBRANCH  24  25
ENDBRANCH  23  24
ENDBRANCH   1  23
TORSDOF 33
ENDMDL
MODEL 7
REMARK VINA RESULT:      -5.0      2.321     10.248
REMARK WARNING: 32 MAX_TORS EXCEEDED!!!
REMARK  33 active torsions:
REMARK  status: ('A' for Active; 'I' for Inactive)
REMARK    1  A    between atoms: C2_2  and  C3_3 
REMARK    2  A    between atoms: C3_3  and  C4_4 
REMARK    3  A    between atoms: C4_4  and  N5_5 
REMARK    4  A    between atoms: N5_5  and  C6_6 
REMARK    5  A    between atoms: C9_9  and  C10_10 
REMARK    6  A    between atoms: C10_10  and  O12_12 
REMARK    7  A    between atoms: O12_12  and  C13_13 
REMARK    8  A    between atoms: C13_13  and  C14_14 
REMARK    9  A    between atoms: C14_14  and  O15_15 
REMARK   10  A    between atoms: O15_15  and  C16_16 
REMARK   11  A    between atoms: C16_16  and  C17_17 
REMARK   12  A    between atoms: C17_17  and  O18_18 
REMARK   13  A    between atoms: O18_18  and  C19_19 
REMARK   14  A    between atoms: C19_19  and  C20_20 
REMARK   15  A    between atoms: C20_20  and  O21_21 
REMARK   16  A    between atoms: O21_21  and  C22_22 
REMARK   17  A    between atoms: C22_22  and  C23_23 
REMARK   18  A    between atoms: C23_23  and  O24_24 
REMARK   19  A    between atoms: O24_24  and  C25_25 
REMARK   20  A    between atoms: C25_25  and  C26_26 
REMARK   21  A    between atoms: C26_26  and  O27_27 
REMARK   22  A    between atoms: O27_27  and  C28_28 
REMARK   23  A    between atoms: C28_28  and  C29_29 
REMARK   24  A    between atoms: C29_29  and  O30_30 
REMARK   25  A    between atoms: O30_30  and  C31_31 
REMARK   26  A    between atoms: C31_31  and  C32_32 
REMARK   27  A    between atoms: C32_32  and  O33_33 
REMARK   28  A    between atoms: O33_33  and  C34_34 
REMARK   29  A    between atoms: C34_34  and  C35_35 
REMARK   30  A    between atoms: C35_35  and  O36_36 
REMARK   31  A    between atoms: O36_36  and  C37_37 
REMARK   32  A    between atoms: C37_37  and  C38_38 
REMARK   33  A    between atoms: C38_38  and  O39_39 
ROOT
ATOM      1  C19 ZIN A   1      17.643  -5.141   6.651  0.00  0.00     0.193 C 
ENDROOT
BRANCH   1   2
ATOM      2  O18 ZIN A   1      18.820  -5.039   5.845  0.00  0.00    -0.387 OA
BRANCH   2   3
ATOM      3  C17 ZIN A   1      19.387  -3.728   5.807  0.00  0.00     0.193 C 
BRANCH   3   4
ATOM      4  C16 ZIN A   1      18.654  -2.885   4.762  0.00  0.00     0.193 C 
BRANCH   4   5
ATOM      5  O15 ZIN A   1      19.447  -1.744   4.428  0.00  0.00    -0.387 OA
BRANCH   5   6
ATOM      6  C14 ZIN A   1      18.731  -0.508   4.465  0.00  0.00     0.194 C 
BRANCH   6   7
ATOM      7  C13 ZIN A   1      18.916   0.147   5.835  0.00  0.00     0.205 C 
BRANCH   7   8
ATOM      8  O12 ZIN A   1      17.675   0.062   6.584  0.00  0.00    -0.315 OA
BRANCH   8   9
ATOM      9  C10 ZIN A   1      17.757  -0.370   7.858  0.00  0.00     0.293 C 
ATOM     10  O11 ZIN A   1      17.569  -1.542   8.116  0.00  0.00    -0.259 OA
BRANCH   9  11
ATOM     11  C9  ZIN A   1      18.076   0.580   8.940  0.00  0.00     0.039 A 
ATOM     12  C8  ZIN A   1      17.191   0.746  10.010  0.00  0.00     0.020 A 
ATOM     13  C7  ZIN A   1      17.490   1.630  11.014  0.00  0.00     0.030 A 
ATOM     14  C6  ZIN A   1      18.674   2.363  10.969  0.00  0.00     0.028 A 
ATOM     15  C42 ZIN A   1      19.554   2.204   9.902  0.00  0.00     0.030 A 
ATOM     16  C41 ZIN A   1      19.264   1.317   8.897  0.00  0.00     0.020 A 
BRANCH  14  17
ATOM     17  N5  ZIN A   1      18.975   3.258  11.988  0.00  0.00    -0.390 N 
ATOM     18  H52 ZIN A   1      19.593   3.003  12.692  0.00  0.00     0.159 HD
BRANCH  17  19
ATOM     19  C4  ZIN A   1      18.360   4.588  12.001  0.00  0.00     0.119 C 
BRANCH  19  20
ATOM     20  C3  ZIN A   1      18.073   5.004  13.446  0.00  0.00     0.019 C 
BRANCH  20  21
ATOM     21  C2  ZIN A   1      16.612   5.440  13.570  0.00  0.00    -0.003 C 
ATOM     22  C1  ZIN A   1      16.553   6.889  14.057  0.00  0.00     0.005 C 
ENDBRANCH  20  21
ENDBRANCH  19  20
ENDBRANCH  17  19
ENDBRANCH  14  17
ENDBRANCH   9  11
ENDBRANCH   8   9
ENDBRANCH   7   8
ENDBRANCH   6   7
ENDBRANCH   5   6
ENDBRANCH   4   5
ENDBRANCH   3   4
ENDBRANCH   2   3
ENDBRANCH   1   2
BRANCH   1  23
ATOM     23  C20 ZIN A   1      17.358  -6.614   6.951  0.00  0.00     0.193 C 
BRANCH  23  24
ATOM     24  O21 ZIN A   1      17.291  -6.808   8.366  0.00  0.00    -0.387 OA
BRANCH  24  25
ATOM     25  C22 ZIN A   1      17.696  -5.670   9.129  0.00  0.00     0.193 C 
BRANCH  25  26
ATOM     26  C23 ZIN A   1      17.249  -5.845  10.581  0.00  0.00     0.193 C 
BRANCH  26  27
ATOM     27  O24 ZIN A   1      18.034  -5.002  11.427  0.00  0.00    -0.387 OA
BRANCH  27  28
ATOM     28  C25 ZIN A   1      18.768  -3.996  10.727  0.00  0.00     0.193 C 
BRANCH  28  29
ATOM     29  C26 ZIN A   1      19.687  -3.261  11.705  0.00  0.00     0.193 C 
BRANCH  29  30
ATOM     30  O27 ZIN A   1      18.896  -2.521  12.637  0.00  0.00    -0.387 OA
BRANCH  30  31
ATOM     31  C28 ZIN A   1      19.287  -1.153  12.772  0.00  0.00     0.193 C 
BRANCH  31  32
ATOM     32  C29 ZIN A   1      19.652  -0.869  14.231  0.00  0.00     0.193 C 
BRANCH  32  33
ATOM     33  O30 ZIN A   1      18.643  -1.408  15.088  0.00  0.00    -0.387 OA
BRANCH  33  34
ATOM     34  C31 ZIN A   1      18.791  -1.042  16.462  0.00  0.00     0.193 C 
BRANCH  34  35
ATOM     35  C32 ZIN A   1      18.268   0.381  16.668  0.00  0.00     0.193 C 
BRANCH  35  36
ATOM     36  O33 ZIN A   1      19.370   1.273  16.844  0.00  0.00    -0.387 OA
BRANCH  36  37
ATOM     37  C34 ZIN A   1      18.987   2.628  17.088  0.00  0.00     0.193 C 
BRANCH  37  38
ATOM     38  C35 ZIN A   1      18.091   2.690  18.328  0.00  0.00     0.193 C 
BRANCH  38  39
ATOM     39  O36 ZIN A   1      18.271   3.946  18.984  0.00  0.00    -0.387 OA
BRANCH  39  40
ATOM     40  C37 ZIN A   1      17.189   4.860  18.795  0.00  0.00     0.193 C 
BRANCH  40  41
ATOM     41  C38 ZIN A   1      17.493   5.771  17.603  0.00  0.00     0.193 C 
BRANCH  41  42
ATOM     42  O39 ZIN A   1      17.995   7.022  18.077  0.00  0.00    -0.394 OA
ATOM     43  C40 ZIN A   1      17.225   8.152  17.659  0.00  0.00     0.201 C 
ENDBRANCH  41  42
ENDBRANCH  40  41
ENDBRANCH  39  40
ENDBRANCH  38  39
ENDBRANCH  37  38
ENDBRANCH  36  37
ENDBRANCH  35  36
ENDBRANCH  34  35
ENDBRANCH  33  34
ENDBRANCH  32  33
ENDBRANCH  31  32
ENDBRANCH  30  31
ENDBRANCH  29  30
ENDBRANCH  28  29
ENDBRANCH  27  28
ENDBRANCH  26  27
ENDBRANCH  25  26
ENDBRANCH  24  25
ENDBRANCH  23  24
ENDBRANCH   1  23
TORSDOF 33
ENDMDL
MODEL 8
REMARK VINA RESULT:      -5.0      3.112      9.501
REMARK WARNING: 32 MAX_TORS EXCEEDED!!!
REMARK  33 active torsions:
REMARK  status: ('A' for Active; 'I' for Inactive)
REMARK    1  A    between atoms: C2_2  and  C3_3 
REMARK    2  A    between atoms: C3_3  and  C4_4 
REMARK    3  A    between atoms: C4_4  and  N5_5 
REMARK    4  A    between atoms: N5_5  and  C6_6 
REMARK    5  A    between atoms: C9_9  and  C10_10 
REMARK    6  A    between atoms: C10_10  and  O12_12 
REMARK    7  A    between atoms: O12_12  and  C13_13 
REMARK    8  A    between atoms: C13_13  and  C14_14 
REMARK    9  A    between atoms: C14_14  and  O15_15 
REMARK   10  A    between atoms: O15_15  and  C16_16 
REMARK   11  A    between atoms: C16_16  and  C17_17 
REMARK   12  A    between atoms: C17_17  and  O18_18 
REMARK   13  A    between atoms: O18_18  and  C19_19 
REMARK   14  A    between atoms: C19_19  and  C20_20 
REMARK   15  A    between atoms: C20_20  and  O21_21 
REMARK   16  A    between atoms: O21_21  and  C22_22 
REMARK   17  A    between atoms: C22_22  and  C23_23 
REMARK   18  A    between atoms: C23_23  and  O24_24 
REMARK   19  A    between atoms: O24_24  and  C25_25 
REMARK   20  A    between atoms: C25_25  and  C26_26 
REMARK   21  A    between atoms: C26_26  and  O27_27 
REMARK   22  A    between atoms: O27_27  and  C28_28 
REMARK   23  A    between atoms: C28_28  and  C29_29 
REMARK   24  A    between atoms: C29_29  and  O30_30 
REMARK   25  A    between atoms: O30_30  and  C31_31 
REMARK   26  A    between atoms: C31_31  and  C32_32 
REMARK   27  A    between atoms: C32_32  and  O33_33 
REMARK   28  A    between atoms: O33_33  and  C34_34 
REMARK   29  A    between atoms: C34_34  and  C35_35 
REMARK   30  A    between atoms: C35_35  and  O36_36 
REMARK   31  A    between atoms: O36_36  and  C37_37 
REMARK   32  A    between atoms: C37_37  and  C38_38 
REMARK   33  A    between atoms: C38_38  and  O39_39 
ROOT
ATOM      1  C19 ZIN A   1      19.482  -1.656  11.444  0.00  0.00     0.193 C 
ENDROOT
BRANCH   1   2
ATOM      2  O18 ZIN A   1      20.586  -0.766  11.263  0.00  0.00    -0.387 OA
BRANCH   2   3
ATOM      3  C17 ZIN A   1      20.392   0.528  11.836  0.00  0.00     0.193 C 
BRANCH   3   4
ATOM      4  C16 ZIN A   1      19.221   1.224  11.139  0.00  0.00     0.193 C 
BRANCH   4   5
ATOM      5  O15 ZIN A   1      19.171   2.594  11.546  0.00  0.00    -0.387 OA
BRANCH   5   6
ATOM      6  C14 ZIN A   1      17.898   3.212  11.346  0.00  0.00     0.194 C 
BRANCH   6   7
ATOM      7  C13 ZIN A   1      17.948   4.655  11.852  0.00  0.00     0.205 C 
BRANCH   7   8
ATOM      8  O12 ZIN A   1      17.095   4.787  13.020  0.00  0.00    -0.315 OA
BRANCH   8   9
ATOM      9  C10 ZIN A   1      17.646   5.337  14.121  0.00  0.00     0.293 C 
ATOM     10  O11 ZIN A   1      17.764   6.543  14.203  0.00  0.00    -0.259 OA
BRANCH   9  11
ATOM     11  C9  ZIN A   1      18.105   4.475  15.225  0.00  0.00     0.039 A 
ATOM     12  C8  ZIN A   1      17.852   4.840  16.550  0.00  0.00     0.020 A 
ATOM     13  C7  ZIN A   1      18.280   4.036  17.575  0.00  0.00     0.030 A 
ATOM     14  C6  ZIN A   1      18.967   2.857  17.296  0.00  0.00     0.028 A 
ATOM     15  C42 ZIN A   1      19.225   2.494  15.977  0.00  0.00     0.030 A 
ATOM     16  C41 ZIN A   1      18.794   3.290  14.948  0.00  0.00     0.020 A 
BRANCH  14  17
ATOM     17  N5  ZIN A   1      19.400   2.044  18.337  0.00  0.00    -0.390 N 
ATOM     18  H52 ZIN A   1      19.695   2.441  19.172  0.00  0.00     0.159 HD
BRANCH  17  19
ATOM     19  C4  ZIN A   1      19.409   0.588  18.175  0.00  0.00     0.119 C 
BRANCH  19  20
ATOM     20  C3  ZIN A   1      17.988   0.046  18.343  0.00  0.00     0.019 C 
BRANCH  20  21
ATOM     21  C2  ZIN A   1      17.551  -0.647  17.052  0.00  0.00    -0.003 C 
ATOM     22  C1  ZIN A   1      18.772  -1.264  16.366  0.00  0.00     0.005 C 
ENDBRANCH  20  21
ENDBRANCH  19  20
ENDBRANCH  17  19
ENDBRANCH  14  17
ENDBRANCH   9  11
ENDBRANCH   8   9
ENDBRANCH   7   8
ENDBRANCH   6   7
ENDBRANCH   5   6
ENDBRANCH   4   5
ENDBRANCH   3   4
ENDBRANCH   2   3
ENDBRANCH   1   2
BRANCH   1  23
ATOM     23  C20 ZIN A   1      19.932  -3.090  11.164  0.00  0.00     0.193 C 
BRANCH  23  24
ATOM     24  O21 ZIN A   1      19.069  -4.003  11.845  0.00  0.00    -0.387 OA
BRANCH  24  25
ATOM     25  C22 ZIN A   1      17.683  -3.664  11.763  0.00  0.00     0.193 C 
BRANCH  25  26
ATOM     26  C23 ZIN A   1      16.933  -4.765  11.012  0.00  0.00     0.193 C 
BRANCH  26  27
ATOM     27  O24 ZIN A   1      17.366  -4.794   9.651  0.00  0.00    -0.387 OA
BRANCH  27  28
ATOM     28  C25 ZIN A   1      16.378  -5.273   8.735  0.00  0.00     0.193 C 
BRANCH  28  29
ATOM     29  C26 ZIN A   1      16.695  -6.719   8.352  0.00  0.00     0.193 C 
BRANCH  29  30
ATOM     30  O27 ZIN A   1      15.765  -7.164   7.362  0.00  0.00    -0.387 OA
BRANCH  30  31
ATOM     31  C28 ZIN A   1      14.623  -6.319   7.216  0.00  0.00     0.193 C 
BRANCH  31  32
ATOM     32  C29 ZIN A   1      14.141  -6.359   5.764  0.00  0.00     0.193 C 
BRANCH  32  33
ATOM     33  O30 ZIN A   1      14.901  -5.431   4.985  0.00  0.00    -0.387 OA
BRANCH  33  34
ATOM     34  C31 ZIN A   1      15.533  -6.013   3.843  0.00  0.00     0.193 C 
BRANCH  34  35
ATOM     35  C32 ZIN A   1      16.981  -5.526   3.759  0.00  0.00     0.193 C 
BRANCH  35  36
ATOM     36  O33 ZIN A   1      17.372  -4.976   5.019  0.00  0.00    -0.387 OA
BRANCH  36  37
ATOM     37  C34 ZIN A   1      18.368  -3.956   4.923  0.00  0.00     0.193 C 
BRANCH  37  38
ATOM     38  C35 ZIN A   1      19.276  -4.013   6.154  0.00  0.00     0.193 C 
BRANCH  38  39
ATOM     39  O36 ZIN A   1      19.881  -2.736   6.360  0.00  0.00    -0.387 OA
BRANCH  39  40
ATOM     40  C37 ZIN A   1      19.146  -1.647   5.797  0.00  0.00     0.193 C 
BRANCH  40  41
ATOM     41  C38 ZIN A   1      18.166  -1.101   6.839  0.00  0.00     0.193 C 
BRANCH  41  42
ATOM     42  O39 ZIN A   1      18.885  -0.358   7.825  0.00  0.00    -0.394 OA
ATOM     43  C40 ZIN A   1      19.134   1.001   7.460  0.00  0.00     0.201 C 
ENDBRANCH  41  42
ENDBRANCH  40  41
ENDBRANCH  39  40
ENDBRANCH  38  39
ENDBRANCH  37  38
ENDBRANCH  36  37
ENDBRANCH  35  36
ENDBRANCH  34  35
ENDBRANCH  33  34
ENDBRANCH  32  33
ENDBRANCH  31  32
ENDBRANCH  30  31
ENDBRANCH  29  30
ENDBRANCH  28  29
ENDBRANCH  27  28
ENDBRANCH  26  27
ENDBRANCH  25  26
ENDBRANCH  24  25
ENDBRANCH  23  24
ENDBRANCH   1  23
TORSDOF 33
ENDMDL
MODEL 9
REMARK VINA RESULT:      -4.9      2.270      9.497
REMARK WARNING: 32 MAX_TORS EXCEEDED!!!
REMARK  33 active torsions:
REMARK  status: ('A' for Active; 'I' for Inactive)
REMARK    1  A    between atoms: C2_2  and  C3_3 
REMARK    2  A    between atoms: C3_3  and  C4_4 
REMARK    3  A    between atoms: C4_4  and  N5_5 
REMARK    4  A    between atoms: N5_5  and  C6_6 
REMARK    5  A    between atoms: C9_9  and  C10_10 
REMARK    6  A    between atoms: C10_10  and  O12_12 
REMARK    7  A    between atoms: O12_12  and  C13_13 
REMARK    8  A    between atoms: C13_13  and  C14_14 
REMARK    9  A    between atoms: C14_14  and  O15_15 
REMARK   10  A    between atoms: O15_15  and  C16_16 
REMARK   11  A    between atoms: C16_16  and  C17_17 
REMARK   12  A    between atoms: C17_17  and  O18_18 
REMARK   13  A    between atoms: O18_18  and  C19_19 
REMARK   14  A    between atoms: C19_19  and  C20_20 
REMARK   15  A    between atoms: C20_20  and  O21_21 
REMARK   16  A    between atoms: O21_21  and  C22_22 
REMARK   17  A    between atoms: C22_22  and  C23_23 
REMARK   18  A    between atoms: C23_23  and  O24_24 
REMARK   19  A    between atoms: O24_24  and  C25_25 
REMARK   20  A    between atoms: C25_25  and  C26_26 
REMARK   21  A    between atoms: C26_26  and  O27_27 
REMARK   22  A    between atoms: O27_27  and  C28_28 
REMARK   23  A    between atoms: C28_28  and  C29_29 
REMARK   24  A    between atoms: C29_29  and  O30_30 
REMARK   25  A    between atoms: O30_30  and  C31_31 
REMARK   26  A    between atoms: C31_31  and  C32_32 
REMARK   27  A    between atoms: C32_32  and  O33_33 
REMARK   28  A    between atoms: O33_33  and  C34_34 
REMARK   29  A    between atoms: C34_34  and  C35_35 
REMARK   30  A    between atoms: C35_35  and  O36_36 
REMARK   31  A    between atoms: O36_36  and  C37_37 
REMARK   32  A    between atoms: C37_37  and  C38_38 
REMARK   33  A    between atoms: C38_38  and  O39_39 
ROOT
ATOM      1  C19 ZIN A   1      17.625   0.156   7.301  0.00  0.00     0.193 C 
ENDROOT
BRANCH   1   2
ATOM      2  O18 ZIN A   1      18.688  -0.614   6.735  0.00  0.00    -0.387 OA
BRANCH   2   3
ATOM      3  C17 ZIN A   1      18.256  -1.798   6.063  0.00  0.00     0.193 C 
BRANCH   3   4
ATOM      4  C16 ZIN A   1      19.386  -2.324   5.176  0.00  0.00     0.193 C 
BRANCH   4   5
ATOM      5  O15 ZIN A   1      19.467  -3.746   5.300  0.00  0.00    -0.387 OA
BRANCH   5   6
ATOM      6  C14 ZIN A   1      19.479  -4.211   6.651  0.00  0.00     0.194 C 
BRANCH   6   7
ATOM      7  C13 ZIN A   1      19.019  -5.669   6.692  0.00  0.00     0.205 C 
BRANCH   7   8
ATOM      8  O12 ZIN A   1      19.220  -6.203   8.027  0.00  0.00    -0.315 OA
BRANCH   8   9
ATOM      9  C10 ZIN A   1      18.304  -5.878   8.961  0.00  0.00     0.293 C 
ATOM     10  O11 ZIN A   1      17.203  -6.390   8.936  0.00  0.00    -0.259 OA
BRANCH   9  11
ATOM     11  C9  ZIN A   1      18.638  -4.900  10.013  0.00  0.00     0.039 A 
ATOM     12  C8  ZIN A   1      17.648  -4.055  10.523  0.00  0.00     0.020 A 
ATOM     13  C7  ZIN A   1      17.962  -3.147  11.502  0.00  0.00     0.030 A 
ATOM     14  C6  ZIN A   1      19.265  -3.067  11.988  0.00  0.00     0.028 A 
ATOM     15  C42 ZIN A   1      20.253  -3.904  11.478  0.00  0.00     0.030 A 
ATOM     16  C41 ZIN A   1      19.945  -4.818  10.503  0.00  0.00     0.020 A 
BRANCH  14  17
ATOM     17  N5  ZIN A   1      19.579  -2.146  12.980  0.00  0.00    -0.390 N 
ATOM     18  H52 ZIN A   1      20.508  -1.938  13.172  0.00  0.00     0.159 HD
BRANCH  17  19
ATOM     19  C4  ZIN A   1      18.510  -1.488  13.735  0.00  0.00     0.119 C 
BRANCH  19  20
ATOM     20  C3  ZIN A   1      18.621   0.028  13.560  0.00  0.00     0.019 C 
BRANCH  20  21
ATOM     21  C2  ZIN A   1      20.092   0.443  13.631  0.00  0.00    -0.003 C 
ATOM     22  C1  ZIN A   1      20.613   0.715  12.218  0.00  0.00     0.005 C 
ENDBRANCH  20  21
ENDBRANCH  19  20
ENDBRANCH  17  19
ENDBRANCH  14  17
ENDBRANCH   9  11
ENDBRANCH   8   9
ENDBRANCH   7   8
ENDBRANCH   6   7
ENDBRANCH   5   6
ENDBRANCH   4   5
ENDBRANCH   3   4
ENDBRANCH   2   3
ENDBRANCH   1   2
BRANCH   1  23
ATOM     23  C20 ZIN A   1      17.909   0.405   8.783  0.00  0.00     0.193 C 
BRANCH  23  24
ATOM     24  O21 ZIN A   1      18.573   1.662   8.936  0.00  0.00    -0.387 OA
BRANCH  24  25
ATOM     25  C22 ZIN A   1      18.141   2.413  10.072  0.00  0.00     0.193 C 
BRANCH  25  26
ATOM     26  C23 ZIN A   1      18.313   3.907   9.791  0.00  0.00     0.193 C 
BRANCH  26  27
ATOM     27  O24 ZIN A   1      18.111   4.645  10.997  0.00  0.00    -0.387 OA
BRANCH  27  28
ATOM     28  C25 ZIN A   1      16.882   4.349  11.663  0.00  0.00     0.193 C 
BRANCH  28  29
ATOM     29  C26 ZIN A   1      16.920   4.919  13.082  0.00  0.00     0.193 C 
BRANCH  29  30
ATOM     30  O27 ZIN A   1      15.956   5.968  13.200  0.00  0.00    -0.387 OA
BRANCH  30  31
ATOM     31  C28 ZIN A   1      15.086   5.834  14.326  0.00  0.00     0.193 C 
BRANCH  31  32
ATOM     32  C29 ZIN A   1      15.442   6.891  15.374  0.00  0.00     0.193 C 
BRANCH  32  33
ATOM     33  O30 ZIN A   1      15.899   6.245  16.565  0.00  0.00    -0.387 OA
BRANCH  33  34
ATOM     34  C31 ZIN A   1      16.369   7.146  17.570  0.00  0.00     0.193 C 
BRANCH  34  35
ATOM     35  C32 ZIN A   1      17.739   7.693  17.163  0.00  0.00     0.193 C 
BRANCH  35  36
ATOM     36  O33 ZIN A   1      18.708   6.645  17.224  0.00  0.00    -0.387 OA
BRANCH  36  37
ATOM     37  C34 ZIN A   1      19.011   6.057  15.957  0.00  0.00     0.193 C 
BRANCH  37  38
ATOM     38  C35 ZIN A   1      20.406   5.428  16.008  0.00  0.00     0.193 C 
BRANCH  38  39
ATOM     39  O36 ZIN A   1      20.322   4.132  16.602  0.00  0.00    -0.387 OA
BRANCH  39  40
ATOM     40  C37 ZIN A   1      19.357   3.273  15.990  0.00  0.00     0.193 C 
BRANCH  40  41
ATOM     41  C38 ZIN A   1      18.697   2.403  17.063  0.00  0.00     0.193 C 
BRANCH  41  42
ATOM     42  O39 ZIN A   1      19.167   1.059  16.942  0.00  0.00    -0.394 OA
ATOM     43  C40 ZIN A   1      19.390   0.407  18.194  0.00  0.00     0.201 C 
ENDBRANCH  41  42
ENDBRANCH  40  41
ENDBRANCH  39  40
ENDBRANCH  38  39
ENDBRANCH  37  38
ENDBRANCH  36  37
ENDBRANCH  35  36
ENDBRANCH  34  35
ENDBRANCH  33  34
ENDBRANCH  32  33
ENDBRANCH  31  32
ENDBRANCH  30  31
ENDBRANCH  29  30
ENDBRANCH  28  29
ENDBRANCH  27  28
ENDBRANCH  26  27
ENDBRANCH  25  26
ENDBRANCH  24  25
ENDBRANCH  23  24
ENDBRANCH   1  23
TORSDOF 33
ENDMDL
