MODEL 1
REMARK VINA RESULT:      -6.6      0.000      0.000
REMARK  7 active torsions:
REMARK  status: ('A' for Active; 'I' for Inactive)
REMARK    1  A    between atoms: O2_2  and  C3_3 
REMARK    2  A    between atoms: N7_7  and  C8_8 
REMARK    3  A    between atoms: C11_10  and  C13_11 
REMARK    4  A    between atoms: C13_11  and  O14_12 
REMARK    5  A    between atoms: C15_13  and  O17_14 
REMARK    6  A    between atoms: C18_15  and  O20_16 
REMARK    7  A    between atoms: C23_19  and  N24_20 
ROOT
ATOM      1  C3  ZIN A   1      18.223   1.407  11.294  0.00  0.00     0.216 A 
ATOM      2  C4  ZIN A   1      18.056   0.700  10.094  0.00  0.00     0.158 A 
ATOM      3  N5  ZIN A   1      17.046   0.569   9.198  0.00  0.00    -0.235 NA
ATOM      4  C6  ZIN A   1      17.419  -0.225   8.238  0.00  0.00     0.214 A 
ATOM      5  N7  ZIN A   1      18.694  -0.655   8.456  0.00  0.00    -0.293 N 
ATOM      6  C21 ZIN A   1      19.126  -0.085   9.628  0.00  0.00     0.185 A 
ATOM      7  N22 ZIN A   1      20.250  -0.129  10.333  0.00  0.00    -0.042 NA
ATOM      8  C23 ZIN A   1      20.365   0.554  11.461  0.00  0.00     0.724 A 
ATOM      9  N25 ZIN A   1      19.381   1.309  11.933  0.00  0.00    -0.036 NA
ENDROOT
BRANCH   5  10
ATOM     10  C8  ZIN A   1      19.464  -1.559   7.599  0.00  0.00     0.262 C 
ATOM     11  C18 ZIN A   1      19.193  -3.037   7.982  0.00  0.00     0.198 C 
ATOM     12  C15 ZIN A   1      19.522  -3.778   6.661  0.00  0.00     0.182 C 
ATOM     13  C11 ZIN A   1      19.413  -2.687   5.577  0.00  0.00     0.179 C 
ATOM     14  O10 ZIN A   1      19.009  -1.473   6.231  0.00  0.00    -0.353 OA
BRANCH  11  15
ATOM     15  O20 ZIN A   1      17.824  -3.224   8.344  0.00  0.00    -0.388 OA
ATOM     16  H34 ZIN A   1      17.430  -4.034   7.992  0.00  0.00     0.210 HD
ENDBRANCH  11  15
BRANCH  12  17
ATOM     17  O17 ZIN A   1      20.846  -4.311   6.703  0.00  0.00    -0.390 OA
ATOM     18  H33 ZIN A   1      21.458  -3.804   7.253  0.00  0.00     0.210 HD
ENDBRANCH  12  17
BRANCH  13  19
ATOM     19  C13 ZIN A   1      18.369  -3.089   4.533  0.00  0.00     0.198 C 
BRANCH  19  20
ATOM     20  O14 ZIN A   1      17.234  -3.658   5.190  0.00  0.00    -0.398 OA
ATOM     21  H32 ZIN A   1      17.174  -3.441   6.131  0.00  0.00     0.209 HD
ENDBRANCH  19  20
ENDBRANCH  13  19
ENDBRANCH   5  10
BRANCH   1  22
ATOM     22  O2  ZIN A   1      17.224   2.177  11.787  0.00  0.00    -0.337 OA
ATOM     23  C1  ZIN A   1      17.471   3.582  11.875  0.00  0.00     0.211 C 
ENDBRANCH   1  22
BRANCH   8  24
ATOM     24  N24 ZIN A   1      21.553   0.483  12.168  0.00  0.00    -0.231 N 
ATOM     25  H35 ZIN A   1      22.021  -0.363  12.248  0.00  0.00     0.174 HD
ATOM     26  H36 ZIN A   1      21.917   1.280  12.585  0.00  0.00     0.174 HD
ENDBRANCH   8  24
TORSDOF 7
ENDMDL
MODEL 2
REMARK VINA RESULT:      -6.5      3.941      6.212
REMARK  7 active torsions:
REMARK  status: ('A' for Active; 'I' for Inactive)
REMARK    1  A    between atoms: O2_2  and  C3_3 
REMARK    2  A    between atoms: N7_7  and  C8_8 
REMARK    3  A    between atoms: C11_10  and  C13_11 
REMARK    4  A    between atoms: C13_11  and  O14_12 
REMARK    5  A    between atoms: C15_13  and  O17_14 
REMARK    6  A    between atoms: C18_15  and  O20_16 
REMARK    7  A    between atoms: C23_19  and  N24_20 
ROOT
ATOM      1  C3  ZIN A   1      19.190   1.871  16.866  0.00  0.00     0.216 A 
ATOM      2  C4  ZIN A   1      19.138   1.235  15.616  0.00  0.00     0.158 A 
ATOM      3  N5  ZIN A   1      19.393  -0.022  15.176  0.00  0.00    -0.235 NA
ATOM      4  C6  ZIN A   1      19.184  -0.083  13.894  0.00  0.00     0.214 A 
ATOM      5  N7  ZIN A   1      18.780   1.133  13.429  0.00  0.00    -0.293 N 
ATOM      6  C21 ZIN A   1      18.741   1.991  14.499  0.00  0.00     0.185 A 
ATOM      7  N22 ZIN A   1      18.430   3.272  14.662  0.00  0.00    -0.042 NA
ATOM      8  C23 ZIN A   1      18.492   3.832  15.860  0.00  0.00     0.724 A 
ATOM      9  N25 ZIN A   1      18.858   3.153  16.940  0.00  0.00    -0.036 NA
ENDROOT
BRANCH   5  10
ATOM     10  C8  ZIN A   1      18.447   1.464  12.041  0.00  0.00     0.262 C 
ATOM     11  C18 ZIN A   1      19.511   2.415  11.436  0.00  0.00     0.198 C 
ATOM     12  C15 ZIN A   1      19.374   2.129   9.919  0.00  0.00     0.182 C 
ATOM     13  C11 ZIN A   1      18.696   0.747   9.854  0.00  0.00     0.179 C 
ATOM     14  O10 ZIN A   1      18.525   0.290  11.205  0.00  0.00    -0.353 OA
BRANCH  11  15
ATOM     15  O20 ZIN A   1      20.818   2.075  11.903  0.00  0.00    -0.388 OA
ATOM     16  H34 ZIN A   1      20.934   2.174  12.858  0.00  0.00     0.210 HD
ENDBRANCH  11  15
BRANCH  12  17
ATOM     17  O17 ZIN A   1      18.555   3.119   9.296  0.00  0.00    -0.390 OA
ATOM     18  H33 ZIN A   1      17.789   3.384   9.822  0.00  0.00     0.210 HD
ENDBRANCH  12  17
BRANCH  13  19
ATOM     19  C13 ZIN A   1      19.580  -0.234   9.079  0.00  0.00     0.198 C 
BRANCH  19  20
ATOM     20  O14 ZIN A   1      20.861  -0.316   9.707  0.00  0.00    -0.398 OA
ATOM     21  H32 ZIN A   1      21.036  -1.166  10.134  0.00  0.00     0.209 HD
ENDBRANCH  19  20
ENDBRANCH  13  19
ENDBRANCH   5  10
BRANCH   1  22
ATOM     22  O2  ZIN A   1      19.566   1.188  17.974  0.00  0.00    -0.337 OA
ATOM     23  C1  ZIN A   1      18.559   0.420  18.635  0.00  0.00     0.211 C 
ENDBRANCH   1  22
BRANCH   8  24
ATOM     24  N24 ZIN A   1      18.160   5.170  15.991  0.00  0.00    -0.231 N 
ATOM     25  H35 ZIN A   1      17.416   5.433  16.555  0.00  0.00     0.174 HD
ATOM     26  H36 ZIN A   1      18.672   5.845  15.518  0.00  0.00     0.174 HD
ENDBRANCH   8  24
TORSDOF 7
ENDMDL
MODEL 3
REMARK VINA RESULT:      -6.5      2.720      6.677
REMARK  7 active torsions:
REMARK  status: ('A' for Active; 'I' for Inactive)
REMARK    1  A    between atoms: O2_2  and  C3_3 
REMARK    2  A    between atoms: N7_7  and  C8_8 
REMARK    3  A    between atoms: C11_10  and  C13_11 
REMARK    4  A    between atoms: C13_11  and  O14_12 
REMARK    5  A    between atoms: C15_13  and  O17_14 
REMARK    6  A    between atoms: C18_15  and  O20_16 
REMARK    7  A    between atoms: C23_19  and  N24_20 
ROOT
ATOM      1  C3  ZIN A   1      19.147   0.272   7.177  0.00  0.00     0.216 A 
ATOM      2  C4  ZIN A   1      18.932   0.972   8.373  0.00  0.00     0.158 A 
ATOM      3  N5  ZIN A   1      18.774   2.280   8.696  0.00  0.00    -0.235 NA
ATOM      4  C6  ZIN A   1      18.601   2.391   9.981  0.00  0.00     0.214 A 
ATOM      5  N7  ZIN A   1      18.636   1.159  10.565  0.00  0.00    -0.293 N 
ATOM      6  C21 ZIN A   1      18.846   0.238   9.569  0.00  0.00     0.185 A 
ATOM      7  N22 ZIN A   1      18.968  -1.084   9.527  0.00  0.00    -0.042 NA
ATOM      8  C23 ZIN A   1      19.171  -1.704   8.375  0.00  0.00     0.724 A 
ATOM      9  N25 ZIN A   1      19.255  -1.049   7.224  0.00  0.00    -0.036 NA
ENDROOT
BRANCH   5  10
ATOM     10  C8  ZIN A   1      18.480   0.871  11.992  0.00  0.00     0.262 C 
ATOM     11  C18 ZIN A   1      19.859   0.627  12.654  0.00  0.00     0.198 C 
ATOM     12  C15 ZIN A   1      19.575   0.984  14.135  0.00  0.00     0.182 C 
ATOM     13  C11 ZIN A   1      18.313   1.866  14.076  0.00  0.00     0.179 C 
ATOM     14  O10 ZIN A   1      17.967   2.026  12.690  0.00  0.00    -0.353 OA
BRANCH  11  15
ATOM     15  O20 ZIN A   1      20.849   1.497  12.101  0.00  0.00    -0.388 OA
ATOM     16  H34 ZIN A   1      21.396   1.942  12.762  0.00  0.00     0.210 HD
ENDBRANCH  11  15
BRANCH  12  17
ATOM     17  O17 ZIN A   1      19.324  -0.198  14.895  0.00  0.00    -0.390 OA
ATOM     18  H33 ZIN A   1      18.995  -0.030  15.789  0.00  0.00     0.210 HD
ENDBRANCH  12  17
BRANCH  13  19
ATOM     19  C13 ZIN A   1      18.600   3.234  14.702  0.00  0.00     0.198 C 
BRANCH  19  20
ATOM     20  O14 ZIN A   1      19.634   3.887  13.963  0.00  0.00    -0.398 OA
ATOM     21  H32 ZIN A   1      19.526   3.832  13.003  0.00  0.00     0.209 HD
ENDBRANCH  19  20
ENDBRANCH  13  19
ENDBRANCH   5  10
BRANCH   1  22
ATOM     22  O2  ZIN A   1      19.239   0.932   5.997  0.00  0.00    -0.337 OA
ATOM     23  C1  ZIN A   1      19.255   0.137   4.809  0.00  0.00     0.211 C 
ENDBRANCH   1  22
BRANCH   8  24
ATOM     24  N24 ZIN A   1      19.294  -3.084   8.371  0.00  0.00    -0.231 N 
ATOM     25  H35 ZIN A   1      18.624  -3.629   7.931  0.00  0.00     0.174 HD
ATOM     26  H36 ZIN A   1      20.051  -3.504   8.810  0.00  0.00     0.174 HD
ENDBRANCH   8  24
TORSDOF 7
ENDMDL
MODEL 4
REMARK VINA RESULT:      -6.5      2.606      6.423
REMARK  7 active torsions:
REMARK  status: ('A' for Active; 'I' for Inactive)
REMARK    1  A    between atoms: O2_2  and  C3_3 
REMARK    2  A    between atoms: N7_7  and  C8_8 
REMARK    3  A    between atoms: C11_10  and  C13_11 
REMARK    4  A    between atoms: C13_11  and  O14_12 
REMARK    5  A    between atoms: C15_13  and  O17_14 
REMARK    6  A    between atoms: C18_15  and  O20_16 
REMARK    7  A    between atoms: C23_19  and  N24_20 
ROOT
ATOM      1  C3  ZIN A   1      19.428  -3.261   6.550  0.00  0.00     0.216 A 
ATOM      2  C4  ZIN A   1      19.300  -2.140   7.386  0.00  0.00     0.158 A 
ATOM      3  N5  ZIN A   1      19.238  -0.801   7.179  0.00  0.00    -0.235 NA
ATOM      4  C6  ZIN A   1      19.117  -0.193   8.323  0.00  0.00     0.214 A 
ATOM      5  N7  ZIN A   1      19.093  -1.104   9.337  0.00  0.00    -0.293 N 
ATOM      6  C21 ZIN A   1      19.207  -2.350   8.773  0.00  0.00     0.185 A 
ATOM      7  N22 ZIN A   1      19.242  -3.591   9.243  0.00  0.00    -0.042 NA
ATOM      8  C23 ZIN A   1      19.365  -4.620   8.419  0.00  0.00     0.724 A 
ATOM      9  N25 ZIN A   1      19.451  -4.466   7.104  0.00  0.00    -0.036 NA
ENDROOT
BRANCH   5  10
ATOM     10  C8  ZIN A   1      18.967  -0.809  10.766  0.00  0.00     0.262 C 
ATOM     11  C18 ZIN A   1      20.337  -0.952  11.476  0.00  0.00     0.198 C 
ATOM     12  C15 ZIN A   1      20.160  -0.029  12.708  0.00  0.00     0.182 C 
ATOM     13  C11 ZIN A   1      19.006   0.914  12.313  0.00  0.00     0.179 C 
ATOM     14  O10 ZIN A   1      18.621   0.578  10.970  0.00  0.00    -0.353 OA
BRANCH  11  15
ATOM     15  O20 ZIN A   1      21.394  -0.485  10.636  0.00  0.00    -0.388 OA
ATOM     16  H34 ZIN A   1      22.213  -0.993  10.713  0.00  0.00     0.210 HD
ENDBRANCH  11  15
BRANCH  12  17
ATOM     17  O17 ZIN A   1      19.809  -0.795  13.860  0.00  0.00    -0.390 OA
ATOM     18  H33 ZIN A   1      18.862  -0.972  13.942  0.00  0.00     0.210 HD
ENDBRANCH  12  17
BRANCH  13  19
ATOM     19  C13 ZIN A   1      19.476   2.370  12.372  0.00  0.00     0.198 C 
BRANCH  19  20
ATOM     20  O14 ZIN A   1      20.737   2.489  11.711  0.00  0.00    -0.398 OA
ATOM     21  H32 ZIN A   1      21.375   3.047  12.178  0.00  0.00     0.209 HD
ENDBRANCH  19  20
ENDBRANCH  13  19
ENDBRANCH   5  10
BRANCH   1  22
ATOM     22  O2  ZIN A   1      19.522  -3.114   5.207  0.00  0.00    -0.337 OA
ATOM     23  C1  ZIN A   1      18.316  -3.255   4.454  0.00  0.00     0.211 C 
ENDBRANCH   1  22
BRANCH   8  24
ATOM     24  N24 ZIN A   1      19.398  -5.900   8.947  0.00  0.00    -0.231 N 
ATOM     25  H35 ZIN A   1      18.574  -6.336   9.214  0.00  0.00     0.174 HD
ATOM     26  H36 ZIN A   1      20.246  -6.360   9.048  0.00  0.00     0.174 HD
ENDBRANCH   8  24
TORSDOF 7
ENDMDL
MODEL 5
REMARK VINA RESULT:      -6.4      2.748      6.195
REMARK  7 active torsions:
REMARK  status: ('A' for Active; 'I' for Inactive)
REMARK    1  A    between atoms: O2_2  and  C3_3 
REMARK    2  A    between atoms: N7_7  and  C8_8 
REMARK    3  A    between atoms: C11_10  and  C13_11 
REMARK    4  A    between atoms: C13_11  and  O14_12 
REMARK    5  A    between atoms: C15_13  and  O17_14 
REMARK    6  A    between atoms: C18_15  and  O20_16 
REMARK    7  A    between atoms: C23_19  and  N24_20 
ROOT
ATOM      1  C3  ZIN A   1      19.102   0.398   7.495  0.00  0.00     0.216 A 
ATOM      2  C4  ZIN A   1      19.017   1.266   8.595  0.00  0.00     0.158 A 
ATOM      3  N5  ZIN A   1      18.883   2.608   8.740  0.00  0.00    -0.235 NA
ATOM      4  C6  ZIN A   1      18.857   2.905  10.007  0.00  0.00     0.214 A 
ATOM      5  N7  ZIN A   1      18.972   1.771  10.755  0.00  0.00    -0.293 N 
ATOM      6  C21 ZIN A   1      19.076   0.713   9.886  0.00  0.00     0.185 A 
ATOM      7  N22 ZIN A   1      19.207  -0.601  10.022  0.00  0.00    -0.042 NA
ATOM      8  C23 ZIN A   1      19.283  -1.383   8.956  0.00  0.00     0.724 A 
ATOM      9  N25 ZIN A   1      19.228  -0.903   7.721  0.00  0.00    -0.036 NA
ENDROOT
BRANCH   5  10
ATOM     10  C8  ZIN A   1      18.983   1.694  12.218  0.00  0.00     0.262 C 
ATOM     11  C18 ZIN A   1      17.563   1.389  12.759  0.00  0.00     0.198 C 
ATOM     12  C15 ZIN A   1      17.873   0.732  14.127  0.00  0.00     0.182 C 
ATOM     13  C11 ZIN A   1      19.332   0.252  13.995  0.00  0.00     0.179 C 
ATOM     14  O10 ZIN A   1      19.766   0.565  12.662  0.00  0.00    -0.353 OA
BRANCH  11  15
ATOM     15  O20 ZIN A   1      16.878   0.477  11.898  0.00  0.00    -0.388 OA
ATOM     16  H34 ZIN A   1      17.045  -0.454  12.097  0.00  0.00     0.210 HD
ENDBRANCH  11  15
BRANCH  12  17
ATOM     17  O17 ZIN A   1      17.755   1.690  15.180  0.00  0.00    -0.390 OA
ATOM     18  H33 ZIN A   1      18.599   2.052  15.480  0.00  0.00     0.210 HD
ENDBRANCH  12  17
BRANCH  13  19
ATOM     19  C13 ZIN A   1      19.408  -1.259  14.227  0.00  0.00     0.198 C 
BRANCH  19  20
ATOM     20  O14 ZIN A   1      19.711  -1.914  12.993  0.00  0.00    -0.398 OA
ATOM     21  H32 ZIN A   1      20.516  -1.592  12.564  0.00  0.00     0.209 HD
ENDBRANCH  19  20
ENDBRANCH  13  19
ENDBRANCH   5  10
BRANCH   1  22
ATOM     22  O2  ZIN A   1      19.050   0.879   6.230  0.00  0.00    -0.337 OA
ATOM     23  C1  ZIN A   1      19.305  -0.049   5.173  0.00  0.00     0.211 C 
ENDBRANCH   1  22
BRANCH   8  24
ATOM     24  N24 ZIN A   1      19.420  -2.750   9.138  0.00  0.00    -0.231 N 
ATOM     25  H35 ZIN A   1      19.919  -3.277   8.496  0.00  0.00     0.174 HD
ATOM     26  H36 ZIN A   1      19.015  -3.179   9.909  0.00  0.00     0.174 HD
ENDBRANCH   8  24
TORSDOF 7
ENDMDL
MODEL 6
REMARK VINA RESULT:      -6.3      4.161      6.271
REMARK  7 active torsions:
REMARK  status: ('A' for Active; 'I' for Inactive)
REMARK    1  A    between atoms: O2_2  and  C3_3 
REMARK    2  A    between atoms: N7_7  and  C8_8 
REMARK    3  A    between atoms: C11_10  and  C13_11 
REMARK    4  A    between atoms: C13_11  and  O14_12 
REMARK    5  A    between atoms: C15_13  and  O17_14 
REMARK    6  A    between atoms: C18_15  and  O20_16 
REMARK    7  A    between atoms: C23_19  and  N24_20 
ROOT
ATOM      1  C3  ZIN A   1      19.251   1.994  17.096  0.00  0.00     0.216 A 
ATOM      2  C4  ZIN A   1      19.075   2.458  15.783  0.00  0.00     0.158 A 
ATOM      3  N5  ZIN A   1      19.060   3.683  15.201  0.00  0.00    -0.235 NA
ATOM      4  C6  ZIN A   1      18.852   3.552  13.923  0.00  0.00     0.214 A 
ATOM      5  N7  ZIN A   1      18.720   2.233  13.605  0.00  0.00    -0.293 N 
ATOM      6  C21 ZIN A   1      18.857   1.514  14.765  0.00  0.00     0.185 A 
ATOM      7  N22 ZIN A   1      18.827   0.223  15.076  0.00  0.00    -0.042 NA
ATOM      8  C23 ZIN A   1      18.998  -0.172  16.328  0.00  0.00     0.724 A 
ATOM      9  N25 ZIN A   1      19.210   0.686  17.318  0.00  0.00    -0.036 NA
ENDROOT
BRANCH   5  10
ATOM     10  C8  ZIN A   1      18.478   1.684  12.269  0.00  0.00     0.262 C 
ATOM     11  C18 ZIN A   1      19.435   2.326  11.233  0.00  0.00     0.198 C 
ATOM     12  C15 ZIN A   1      19.494   1.238  10.130  0.00  0.00     0.182 C 
ATOM     13  C11 ZIN A   1      19.050  -0.052  10.847  0.00  0.00     0.179 C 
ATOM     14  O10 ZIN A   1      18.821   0.282  12.226  0.00  0.00    -0.353 OA
BRANCH  11  15
ATOM     15  O20 ZIN A   1      20.727   2.545  11.803  0.00  0.00    -0.388 OA
ATOM     16  H34 ZIN A   1      21.240   3.235  11.363  0.00  0.00     0.210 HD
ENDBRANCH  11  15
BRANCH  12  17
ATOM     17  O17 ZIN A   1      18.596   1.555   9.066  0.00  0.00    -0.390 OA
ATOM     18  H33 ZIN A   1      18.954   1.386   8.184  0.00  0.00     0.210 HD
ENDBRANCH  12  17
BRANCH  13  19
ATOM     19  C13 ZIN A   1      20.148  -1.113  10.743  0.00  0.00     0.198 C 
BRANCH  19  20
ATOM     20  O14 ZIN A   1      21.427  -0.489  10.878  0.00  0.00    -0.398 OA
ATOM     21  H32 ZIN A   1      21.584   0.226  10.247  0.00  0.00     0.209 HD
ENDBRANCH  19  20
ENDBRANCH  13  19
ENDBRANCH   5  10
BRANCH   1  22
ATOM     22  O2  ZIN A   1      19.464   2.862  18.113  0.00  0.00    -0.337 OA
ATOM     23  C1  ZIN A   1      18.308   3.434  18.730  0.00  0.00     0.211 C 
ENDBRANCH   1  22
BRANCH   8  24
ATOM     24  N24 ZIN A   1      18.959  -1.526  16.614  0.00  0.00    -0.231 N 
ATOM     25  H35 ZIN A   1      19.316  -1.856  17.453  0.00  0.00     0.174 HD
ATOM     26  H36 ZIN A   1      18.575  -2.146  15.973  0.00  0.00     0.174 HD
ENDBRANCH   8  24
TORSDOF 7
ENDMDL
MODEL 7
REMARK VINA RESULT:      -6.3      2.078      6.316
REMARK  7 active torsions:
REMARK  status: ('A' for Active; 'I' for Inactive)
REMARK    1  A    between atoms: O2_2  and  C3_3 
REMARK    2  A    between atoms: N7_7  and  C8_8 
REMARK    3  A    between atoms: C11_10  and  C13_11 
REMARK    4  A    between atoms: C13_11  and  O14_12 
REMARK    5  A    between atoms: C15_13  and  O17_14 
REMARK    6  A    between atoms: C18_15  and  O20_16 
REMARK    7  A    between atoms: C23_19  and  N24_20 
ROOT
ATOM      1  C3  ZIN A   1      18.576  -2.741   9.080  0.00  0.00     0.216 A 
ATOM      2  C4  ZIN A   1      18.161  -1.411   9.245  0.00  0.00     0.158 A 
ATOM      3  N5  ZIN A   1      17.435  -0.541   8.499  0.00  0.00    -0.235 NA
ATOM      4  C6  ZIN A   1      17.342   0.595   9.128  0.00  0.00     0.214 A 
ATOM      5  N7  ZIN A   1      18.002   0.525  10.318  0.00  0.00    -0.293 N 
ATOM      6  C21 ZIN A   1      18.533  -0.736  10.421  0.00  0.00     0.185 A 
ATOM      7  N22 ZIN A   1      19.259  -1.376  11.331  0.00  0.00    -0.042 NA
ATOM      8  C23 ZIN A   1      19.629  -2.632  11.135  0.00  0.00     0.724 A 
ATOM      9  N25 ZIN A   1      19.295  -3.305  10.042  0.00  0.00    -0.036 NA
ENDROOT
BRANCH   5  10
ATOM     10  C8  ZIN A   1      18.123   1.599  11.307  0.00  0.00     0.262 C 
ATOM     11  C18 ZIN A   1      19.462   2.358  11.127  0.00  0.00     0.198 C 
ATOM     12  C15 ZIN A   1      19.134   3.741  11.745  0.00  0.00     0.182 C 
ATOM     13  C11 ZIN A   1      17.596   3.817  11.708  0.00  0.00     0.179 C 
ATOM     14  O10 ZIN A   1      17.123   2.614  11.080  0.00  0.00    -0.353 OA
BRANCH  11  15
ATOM     15  O20 ZIN A   1      19.792   2.483   9.743  0.00  0.00    -0.388 OA
ATOM     16  H34 ZIN A   1      20.740   2.573   9.570  0.00  0.00     0.210 HD
ENDBRANCH  11  15
BRANCH  12  17
ATOM     17  O17 ZIN A   1      19.607   3.813  13.090  0.00  0.00    -0.390 OA
ATOM     18  H33 ZIN A   1      18.919   3.688  13.757  0.00  0.00     0.210 HD
ENDBRANCH  12  17
BRANCH  13  19
ATOM     19  C13 ZIN A   1      17.151   5.038  10.898  0.00  0.00     0.198 C 
BRANCH  19  20
ATOM     20  O14 ZIN A   1      17.757   4.996   9.604  0.00  0.00    -0.398 OA
ATOM     21  H32 ZIN A   1      18.569   4.473   9.567  0.00  0.00     0.209 HD
ENDBRANCH  19  20
ENDBRANCH  13  19
ENDBRANCH   5  10
BRANCH   1  22
ATOM     22  O2  ZIN A   1      18.244  -3.436   7.966  0.00  0.00    -0.337 OA
ATOM     23  C1  ZIN A   1      19.077  -3.256   6.818  0.00  0.00     0.211 C 
ENDBRANCH   1  22
BRANCH   8  24
ATOM     24  N24 ZIN A   1      20.385  -3.266  12.107  0.00  0.00    -0.231 N 
ATOM     25  H35 ZIN A   1      20.289  -3.013  13.038  0.00  0.00     0.174 HD
ATOM     26  H36 ZIN A   1      21.011  -3.963  11.856  0.00  0.00     0.174 HD
ENDBRANCH   8  24
TORSDOF 7
ENDMDL
MODEL 8
REMARK VINA RESULT:      -6.2      3.632      5.351
REMARK  7 active torsions:
REMARK  status: ('A' for Active; 'I' for Inactive)
REMARK    1  A    between atoms: O2_2  and  C3_3 
REMARK    2  A    between atoms: N7_7  and  C8_8 
REMARK    3  A    between atoms: C11_10  and  C13_11 
REMARK    4  A    between atoms: C13_11  and  O14_12 
REMARK    5  A    between atoms: C15_13  and  O17_14 
REMARK    6  A    between atoms: C18_15  and  O20_16 
REMARK    7  A    between atoms: C23_19  and  N24_20 
ROOT
ATOM      1  C3  ZIN A   1      17.332   4.763  13.535  0.00  0.00     0.216 A 
ATOM      2  C4  ZIN A   1      17.704   3.411  13.488  0.00  0.00     0.158 A 
ATOM      3  N5  ZIN A   1      17.959   2.461  14.422  0.00  0.00    -0.235 NA
ATOM      4  C6  ZIN A   1      18.272   1.345  13.830  0.00  0.00     0.214 A 
ATOM      5  N7  ZIN A   1      18.236   1.509  12.477  0.00  0.00    -0.293 N 
ATOM      6  C21 ZIN A   1      17.879   2.811  12.229  0.00  0.00     0.185 A 
ATOM      7  N22 ZIN A   1      17.686   3.537  11.134  0.00  0.00    -0.042 NA
ATOM      8  C23 ZIN A   1      17.335   4.811  11.224  0.00  0.00     0.724 A 
ATOM      9  N25 ZIN A   1      17.156   5.414  12.393  0.00  0.00    -0.036 NA
ENDROOT
BRANCH   5  10
ATOM     10  C8  ZIN A   1      18.526   0.485  11.471  0.00  0.00     0.262 C 
ATOM     11  C18 ZIN A   1      20.004   0.569  11.015  0.00  0.00     0.198 C 
ATOM     12  C15 ZIN A   1      20.273  -0.874  10.519  0.00  0.00     0.182 C 
ATOM     13  C11 ZIN A   1      19.184  -1.720  11.207  0.00  0.00     0.179 C 
ATOM     14  O10 ZIN A   1      18.422  -0.836  12.046  0.00  0.00    -0.353 OA
BRANCH  11  15
ATOM     15  O20 ZIN A   1      20.856   0.897  12.114  0.00  0.00    -0.388 OA
ATOM     16  H34 ZIN A   1      20.532   1.627  12.660  0.00  0.00     0.210 HD
ENDBRANCH  11  15
BRANCH  12  17
ATOM     17  O17 ZIN A   1      20.141  -0.947   9.099  0.00  0.00    -0.390 OA
ATOM     18  H33 ZIN A   1      19.515  -1.619   8.795  0.00  0.00     0.210 HD
ENDBRANCH  12  17
BRANCH  13  19
ATOM     19  C13 ZIN A   1      19.831  -2.816  12.057  0.00  0.00     0.198 C 
BRANCH  19  20
ATOM     20  O14 ZIN A   1      21.045  -3.245  11.436  0.00  0.00    -0.398 OA
ATOM     21  H32 ZIN A   1      21.672  -3.660  12.043  0.00  0.00     0.209 HD
ENDBRANCH  19  20
ENDBRANCH  13  19
ENDBRANCH   5  10
BRANCH   1  22
ATOM     22  O2  ZIN A   1      17.150   5.389  14.723  0.00  0.00    -0.337 OA
ATOM     23  C1  ZIN A   1      18.285   6.051  15.286  0.00  0.00     0.211 C 
ENDBRANCH   1  22
BRANCH   8  24
ATOM     24  N24 ZIN A   1      17.143   5.536  10.060  0.00  0.00    -0.231 N 
ATOM     25  H35 ZIN A   1      16.977   5.075   9.223  0.00  0.00     0.174 HD
ATOM     26  H36 ZIN A   1      17.174   6.506  10.083  0.00  0.00     0.174 HD
ENDBRANCH   8  24
TORSDOF 7
ENDMDL
MODEL 9
REMARK VINA RESULT:      -6.2      3.959      5.884
REMARK  7 active torsions:
REMARK  status: ('A' for Active; 'I' for Inactive)
REMARK    1  A    between atoms: O2_2  and  C3_3 
REMARK    2  A    between atoms: N7_7  and  C8_8 
REMARK    3  A    between atoms: C11_10  and  C13_11 
REMARK    4  A    between atoms: C13_11  and  O14_12 
REMARK    5  A    between atoms: C15_13  and  O17_14 
REMARK    6  A    between atoms: C18_15  and  O20_16 
REMARK    7  A    between atoms: C23_19  and  N24_20 
ROOT
ATOM      1  C3  ZIN A   1      19.326   2.860  16.376  0.00  0.00     0.216 A 
ATOM      2  C4  ZIN A   1      19.170   1.608  15.762  0.00  0.00     0.158 A 
ATOM      3  N5  ZIN A   1      19.251   0.322  16.189  0.00  0.00    -0.235 NA
ATOM      4  C6  ZIN A   1      19.015  -0.480  15.192  0.00  0.00     0.214 A 
ATOM      5  N7  ZIN A   1      18.768   0.241  14.061  0.00  0.00    -0.293 N 
ATOM      6  C21 ZIN A   1      18.859   1.570  14.392  0.00  0.00     0.185 A 
ATOM      7  N22 ZIN A   1      18.722   2.712  13.728  0.00  0.00    -0.042 NA
ATOM      8  C23 ZIN A   1      18.877   3.872  14.346  0.00  0.00     0.724 A 
ATOM      9  N25 ZIN A   1      19.167   3.952  15.639  0.00  0.00    -0.036 NA
ENDROOT
BRANCH   5  10
ATOM     10  C8  ZIN A   1      18.459  -0.302  12.736  0.00  0.00     0.262 C 
ATOM     11  C18 ZIN A   1      19.578   0.057  11.725  0.00  0.00     0.198 C 
ATOM     12  C15 ZIN A   1      19.431  -1.067  10.669  0.00  0.00     0.182 C 
ATOM     13  C11 ZIN A   1      18.677  -2.188  11.410  0.00  0.00     0.179 C 
ATOM     14  O10 ZIN A   1      18.475  -1.746  12.763  0.00  0.00    -0.353 OA
BRANCH  11  15
ATOM     15  O20 ZIN A   1      20.862   0.006  12.350  0.00  0.00    -0.388 OA
ATOM     16  H34 ZIN A   1      21.040  -0.822  12.818  0.00  0.00     0.210 HD
ENDBRANCH  11  15
BRANCH  12  17
ATOM     17  O17 ZIN A   1      18.671  -0.607   9.551  0.00  0.00    -0.390 OA
ATOM     18  H33 ZIN A   1      18.224   0.237   9.699  0.00  0.00     0.210 HD
ENDBRANCH  12  17
BRANCH  13  19
ATOM     19  C13 ZIN A   1      19.508  -3.473  11.401  0.00  0.00     0.198 C 
BRANCH  19  20
ATOM     20  O14 ZIN A   1      20.896  -3.143  11.482  0.00  0.00    -0.398 OA
ATOM     21  H32 ZIN A   1      21.068  -2.239  11.779  0.00  0.00     0.209 HD
ENDBRANCH  19  20
ENDBRANCH  13  19
ENDBRANCH   5  10
BRANCH   1  22
ATOM     22  O2  ZIN A   1      19.626   2.952  17.693  0.00  0.00    -0.337 OA
ATOM     23  C1  ZIN A   1      18.530   3.094  18.599  0.00  0.00     0.211 C 
ENDBRANCH   1  22
BRANCH   8  24
ATOM     24  N24 ZIN A   1      18.726   5.042  13.621  0.00  0.00    -0.231 N 
ATOM     25  H35 ZIN A   1      18.205   5.775  13.984  0.00  0.00     0.174 HD
ATOM     26  H36 ZIN A   1      19.141   5.128  12.748  0.00  0.00     0.174 HD
ENDBRANCH   8  24
TORSDOF 7
ENDMDL
