MODEL 1
REMARK VINA RESULT:      -8.5      0.000      0.000
REMARK  6 active torsions:
REMARK  status: ('A' for Active; 'I' for Inactive)
REMARK    1  A    between atoms: C4_4  and  C5_5 
REMARK    2  A    between atoms: C4_4  and  C11_11 
REMARK    3  A    between atoms: N19_19  and  C20_20 
REMARK    4  A    between atoms: C20_20  and  O21_21 
REMARK    5  A    between atoms: O21_21  and  P22_22 
REMARK    6  A    between atoms: P22_22  and  O25_25 
ROOT
ATOM      1  O1  <0> d   1      20.319   1.966  11.294  0.00  0.00    -0.247 OA
ATOM      2  C2  <0> d   1      19.509   1.149  11.687  0.00  0.00     0.328 A 
ATOM      3  N3  <0> d   1      19.819   0.113  12.487  0.00  0.00    -0.316 N 
ATOM      4  C4  <0> d   1      18.566  -0.624  12.725  0.00  0.00     0.171 A 
ATOM      5  C17 <0> d   1      17.535   0.160  11.938  0.00  0.00     0.267 A 
ATOM      6  O18 <0> d   1      16.350  -0.079  11.841  0.00  0.00    -0.269 OA
ATOM      7  N19 <0> d   1      18.208   1.184  11.376  0.00  0.00    -0.244 N 
ATOM      8  H26 <0> d   1      20.696  -0.106  12.838  0.00  0.00     0.166 HD
ENDROOT
BRANCH   4   9
ATOM      9  C5  <0> d   1      18.673  -2.033  12.200  0.00  0.00    -0.016 A 
ATOM     10  C10 <0> d   1      17.534  -2.800  12.041  0.00  0.00     0.010 A 
ATOM     11  C9  <0> d   1      17.631  -4.090  11.555  0.00  0.00     0.001 A 
ATOM     12  C8  <0> d   1      18.868  -4.618  11.237  0.00  0.00     0.000 A 
ATOM     13  C7  <0> d   1      20.009  -3.853  11.401  0.00  0.00     0.001 A 
ATOM     14  C6  <0> d   1      19.910  -2.560  11.881  0.00  0.00     0.010 A 
ENDBRANCH   4   9
BRANCH   4  15
ATOM     15  C11 <0> d   1      18.226  -0.632  14.192  0.00  0.00    -0.016 A 
ATOM     16  C16 <0> d   1      17.382   0.331  14.711  0.00  0.00     0.010 A 
ATOM     17  C15 <0> d   1      17.065   0.321  16.057  0.00  0.00     0.001 A 
ATOM     18  C14 <0> d   1      17.601  -0.647  16.886  0.00  0.00     0.000 A 
ATOM     19  C13 <0> d   1      18.450  -1.607  16.368  0.00  0.00     0.001 A 
ATOM     20  C12 <0> d   1      18.762  -1.600  15.021  0.00  0.00     0.010 A 
ENDBRANCH   4  15
BRANCH   7  21
ATOM     21  C20 <0> d   1      17.592   2.203  10.523  0.00  0.00     0.320 C 
BRANCH  21  22
ATOM     22  O21 <0> d   1      16.947   3.182  11.340  0.00  0.00    -0.270 OA
BRANCH  22  23
ATOM     23  P22 <0> d   1      17.451   4.709  11.443  0.00  0.00     0.407 P 
ATOM     24  O23 <0> d   1      16.553   5.480  12.435  0.00  0.00    -0.624 OA
ATOM     25  O24 <0> d   1      17.368   5.373  10.051  0.00  0.00    -0.624 OA
BRANCH  23  26
ATOM     26  O25 <0> d   1      18.974   4.738  11.963  0.00  0.00    -0.300 OA
ATOM     27  H39 <0> d   1      19.071   5.034  12.879  0.00  0.00     0.223 HD
ENDBRANCH  23  26
ENDBRANCH  22  23
ENDBRANCH  21  22
ENDBRANCH   7  21
TORSDOF 6
ENDMDL
MODEL 2
REMARK VINA RESULT:      -8.5      3.727      7.153
REMARK  6 active torsions:
REMARK  status: ('A' for Active; 'I' for Inactive)
REMARK    1  A    between atoms: C4_4  and  C5_5 
REMARK    2  A    between atoms: C4_4  and  C11_11 
REMARK    3  A    between atoms: N19_19  and  C20_20 
REMARK    4  A    between atoms: C20_20  and  O21_21 
REMARK    5  A    between atoms: O21_21  and  P22_22 
REMARK    6  A    between atoms: P22_22  and  O25_25 
ROOT
ATOM      1  O1  <0> d   1      20.309  -2.056  11.639  0.00  0.00    -0.247 OA
ATOM      2  C2  <0> d   1      19.514  -1.242  11.211  0.00  0.00     0.328 A 
ATOM      3  N3  <0> d   1      19.858  -0.194  10.441  0.00  0.00    -0.316 N 
ATOM      4  C4  <0> d   1      18.614   0.535  10.142  0.00  0.00     0.171 A 
ATOM      5  C17 <0> d   1      17.548  -0.268  10.861  0.00  0.00     0.267 A 
ATOM      6  O18 <0> d   1      16.358  -0.040  10.895  0.00  0.00    -0.269 OA
ATOM      7  N19 <0> d   1      18.199  -1.292  11.449  0.00  0.00    -0.244 N 
ATOM      8  H26 <0> d   1      20.751   0.037  10.142  0.00  0.00     0.166 HD
ENDROOT
BRANCH   4   9
ATOM      9  C5  <0> d   1      18.678   1.938  10.688  0.00  0.00    -0.016 A 
ATOM     10  C10 <0> d   1      17.651   2.828  10.432  0.00  0.00     0.010 A 
ATOM     11  C9  <0> d   1      17.707   4.113  10.936  0.00  0.00     0.001 A 
ATOM     12  C8  <0> d   1      18.796   4.514  11.689  0.00  0.00     0.000 A 
ATOM     13  C7  <0> d   1      19.826   3.626  11.940  0.00  0.00     0.001 A 
ATOM     14  C6  <0> d   1      19.766   2.339  11.441  0.00  0.00     0.010 A 
ENDBRANCH   4   9
BRANCH   4  15
ATOM     15  C11 <0> d   1      18.355   0.557   8.658  0.00  0.00    -0.016 A 
ATOM     16  C16 <0> d   1      19.173   1.297   7.825  0.00  0.00     0.010 A 
ATOM     17  C15 <0> d   1      18.940   1.313   6.463  0.00  0.00     0.001 A 
ATOM     18  C14 <0> d   1      17.882   0.597   5.934  0.00  0.00     0.000 A 
ATOM     19  C13 <0> d   1      17.060  -0.138   6.768  0.00  0.00     0.001 A 
ATOM     20  C12 <0> d   1      17.297  -0.158   8.130  0.00  0.00     0.010 A 
ENDBRANCH   4  15
BRANCH   7  21
ATOM     21  C20 <0> d   1      17.546  -2.326  12.255  0.00  0.00     0.320 C 
BRANCH  21  22
ATOM     22  O21 <0> d   1      17.004  -3.329  11.395  0.00  0.00    -0.270 OA
BRANCH  22  23
ATOM     23  P22 <0> d   1      17.587  -4.829  11.318  0.00  0.00     0.407 P 
ATOM     24  O23 <0> d   1      16.916  -5.582  10.148  0.00  0.00    -0.624 OA
ATOM     25  O24 <0> d   1      17.287  -5.566  12.642  0.00  0.00    -0.624 OA
BRANCH  23  26
ATOM     26  O25 <0> d   1      19.178  -4.775  11.080  0.00  0.00    -0.300 OA
ATOM     27  H39 <0> d   1      19.596  -3.966  11.405  0.00  0.00     0.223 HD
ENDBRANCH  23  26
ENDBRANCH  22  23
ENDBRANCH  21  22
ENDBRANCH   7  21
TORSDOF 6
ENDMDL
MODEL 3
REMARK VINA RESULT:      -8.5      3.275      6.824
REMARK  6 active torsions:
REMARK  status: ('A' for Active; 'I' for Inactive)
REMARK    1  A    between atoms: C4_4  and  C5_5 
REMARK    2  A    between atoms: C4_4  and  C11_11 
REMARK    3  A    between atoms: N19_19  and  C20_20 
REMARK    4  A    between atoms: C20_20  and  O21_21 
REMARK    5  A    between atoms: O21_21  and  P22_22 
REMARK    6  A    between atoms: P22_22  and  O25_25 
ROOT
ATOM      1  O1  <0> d   1      21.142   0.332  12.554  0.00  0.00    -0.247 OA
ATOM      2  C2  <0> d   1      20.100   0.622  12.000  0.00  0.00     0.328 A 
ATOM      3  N3  <0> d   1      20.004   1.535  11.017  0.00  0.00    -0.316 N 
ATOM      4  C4  <0> d   1      18.585   1.586  10.626  0.00  0.00     0.171 A 
ATOM      5  C17 <0> d   1      17.927   0.571  11.539  0.00  0.00     0.267 A 
ATOM      6  O18 <0> d   1      16.753   0.270  11.575  0.00  0.00    -0.269 OA
ATOM      7  N19 <0> d   1      18.920   0.066  12.298  0.00  0.00    -0.244 N 
ATOM      8  H26 <0> d   1      20.728   2.058  10.639  0.00  0.00     0.166 HD
ENDROOT
BRANCH   4   9
ATOM      9  C5  <0> d   1      18.018   2.961  10.867  0.00  0.00    -0.016 A 
ATOM     10  C10 <0> d   1      17.971   3.880   9.836  0.00  0.00     0.010 A 
ATOM     11  C9  <0> d   1      17.446   5.140  10.055  0.00  0.00     0.001 A 
ATOM     12  C8  <0> d   1      16.977   5.485  11.309  0.00  0.00     0.000 A 
ATOM     13  C7  <0> d   1      17.029   4.567  12.342  0.00  0.00     0.001 A 
ATOM     14  C6  <0> d   1      17.549   3.305  12.121  0.00  0.00     0.010 A 
ENDBRANCH   4   9
BRANCH   4  15
ATOM     15  C11 <0> d   1      18.418   1.192   9.182  0.00  0.00    -0.016 A 
ATOM     16  C16 <0> d   1      17.439   0.285   8.821  0.00  0.00     0.010 A 
ATOM     17  C15 <0> d   1      17.283  -0.073   7.495  0.00  0.00     0.001 A 
ATOM     18  C14 <0> d   1      18.111   0.469   6.530  0.00  0.00     0.000 A 
ATOM     19  C13 <0> d   1      19.094   1.371   6.891  0.00  0.00     0.001 A 
ATOM     20  C12 <0> d   1      19.247   1.733   8.217  0.00  0.00     0.010 A 
ENDBRANCH   4  15
BRANCH   7  21
ATOM     21  C20 <0> d   1      18.729  -0.959  13.327  0.00  0.00     0.320 C 
BRANCH  21  22
ATOM     22  O21 <0> d   1      19.263  -2.202  12.866  0.00  0.00    -0.270 OA
BRANCH  22  23
ATOM     23  P22 <0> d   1      18.656  -3.007  11.611  0.00  0.00     0.407 P 
ATOM     24  O23 <0> d   1      18.948  -4.515  11.776  0.00  0.00    -0.624 OA
ATOM     25  O24 <0> d   1      19.309  -2.496  10.308  0.00  0.00    -0.624 OA
BRANCH  23  26
ATOM     26  O25 <0> d   1      17.064  -2.773  11.542  0.00  0.00    -0.300 OA
ATOM     27  H39 <0> d   1      16.800  -2.025  10.989  0.00  0.00     0.223 HD
ENDBRANCH  23  26
ENDBRANCH  22  23
ENDBRANCH  21  22
ENDBRANCH   7  21
TORSDOF 6
ENDMDL
MODEL 4
REMARK VINA RESULT:      -8.4      3.946      6.454
REMARK  6 active torsions:
REMARK  status: ('A' for Active; 'I' for Inactive)
REMARK    1  A    between atoms: C4_4  and  C5_5 
REMARK    2  A    between atoms: C4_4  and  C11_11 
REMARK    3  A    between atoms: N19_19  and  C20_20 
REMARK    4  A    between atoms: C20_20  and  O21_21 
REMARK    5  A    between atoms: O21_21  and  P22_22 
REMARK    6  A    between atoms: P22_22  and  O25_25 
ROOT
ATOM      1  O1  <0> d   1      16.806  -1.917  12.022  0.00  0.00    -0.247 OA
ATOM      2  C2  <0> d   1      17.553  -1.172  11.419  0.00  0.00     0.328 A 
ATOM      3  N3  <0> d   1      17.141  -0.081  10.748  0.00  0.00    -0.316 N 
ATOM      4  C4  <0> d   1      18.346   0.535  10.166  0.00  0.00     0.171 A 
ATOM      5  C17 <0> d   1      19.468  -0.379  10.616  0.00  0.00     0.267 A 
ATOM      6  O18 <0> d   1      20.650  -0.263  10.373  0.00  0.00    -0.269 OA
ATOM      7  N19 <0> d   1      18.878  -1.343  11.352  0.00  0.00    -0.244 N 
ATOM      8  H26 <0> d   1      16.229   0.237  10.663  0.00  0.00     0.166 HD
ENDROOT
BRANCH   4   9
ATOM      9  C5  <0> d   1      18.254   0.559   8.662  0.00  0.00    -0.016 A 
ATOM     10  C10 <0> d   1      19.148   1.315   7.926  0.00  0.00     0.010 A 
ATOM     11  C9  <0> d   1      19.067   1.334   6.547  0.00  0.00     0.001 A 
ATOM     12  C8  <0> d   1      18.086   0.603   5.902  0.00  0.00     0.000 A 
ATOM     13  C7  <0> d   1      17.188  -0.148   6.637  0.00  0.00     0.001 A 
ATOM     14  C6  <0> d   1      17.273  -0.171   8.017  0.00  0.00     0.010 A 
ENDBRANCH   4   9
BRANCH   4  15
ATOM     15  C11 <0> d   1      18.542   1.928  10.705  0.00  0.00    -0.016 A 
ATOM     16  C16 <0> d   1      19.657   2.223  11.467  0.00  0.00     0.010 A 
ATOM     17  C15 <0> d   1      19.841   3.502  11.958  0.00  0.00     0.001 A 
ATOM     18  C14 <0> d   1      18.905   4.485  11.694  0.00  0.00     0.000 A 
ATOM     19  C13 <0> d   1      17.787   4.188  10.936  0.00  0.00     0.001 A 
ATOM     20  C12 <0> d   1      17.606   2.910  10.442  0.00  0.00     0.010 A 
ENDBRANCH   4  15
BRANCH   7  21
ATOM     21  C20 <0> d   1      19.599  -2.447  11.990  0.00  0.00     0.320 C 
BRANCH  21  22
ATOM     22  O21 <0> d   1      20.072  -3.350  10.988  0.00  0.00    -0.270 OA
BRANCH  22  23
ATOM     23  P22 <0> d   1      19.091  -4.271  10.103  0.00  0.00     0.407 P 
ATOM     24  O23 <0> d   1      19.845  -5.543   9.656  0.00  0.00    -0.624 OA
ATOM     25  O24 <0> d   1      18.629  -3.482   8.858  0.00  0.00    -0.624 OA
BRANCH  23  26
ATOM     26  O25 <0> d   1      17.808  -4.689  10.982  0.00  0.00    -0.300 OA
ATOM     27  H39 <0> d   1      16.980  -4.712  10.483  0.00  0.00     0.223 HD
ENDBRANCH  23  26
ENDBRANCH  22  23
ENDBRANCH  21  22
ENDBRANCH   7  21
TORSDOF 6
ENDMDL
MODEL 5
REMARK VINA RESULT:      -8.1      3.456      5.851
REMARK  6 active torsions:
REMARK  status: ('A' for Active; 'I' for Inactive)
REMARK    1  A    between atoms: C4_4  and  C5_5 
REMARK    2  A    between atoms: C4_4  and  C11_11 
REMARK    3  A    between atoms: N19_19  and  C20_20 
REMARK    4  A    between atoms: C20_20  and  O21_21 
REMARK    5  A    between atoms: O21_21  and  P22_22 
REMARK    6  A    between atoms: P22_22  and  O25_25 
ROOT
ATOM      1  O1  <0> d   1      20.636  -3.543  11.347  0.00  0.00    -0.247 OA
ATOM      2  C2  <0> d   1      19.826  -2.698  11.675  0.00  0.00     0.328 A 
ATOM      3  N3  <0> d   1      20.144  -1.581  12.353  0.00  0.00    -0.316 N 
ATOM      4  C4  <0> d   1      18.889  -0.835  12.547  0.00  0.00     0.171 A 
ATOM      5  C17 <0> d   1      17.847  -1.709  11.879  0.00  0.00     0.267 A 
ATOM      6  O18 <0> d   1      16.657  -1.493  11.789  0.00  0.00    -0.269 OA
ATOM      7  N19 <0> d   1      18.519  -2.774  11.397  0.00  0.00    -0.244 N 
ATOM      8  H26 <0> d   1      21.027  -1.318  12.655  0.00  0.00     0.166 HD
ENDROOT
BRANCH   4   9
ATOM      9  C5  <0> d   1      18.587  -0.680  14.016  0.00  0.00    -0.016 A 
ATOM     10  C10 <0> d   1      19.260  -1.450  14.945  0.00  0.00     0.010 A 
ATOM     11  C9  <0> d   1      18.987  -1.305  16.292  0.00  0.00     0.001 A 
ATOM     12  C8  <0> d   1      18.033  -0.395  16.710  0.00  0.00     0.000 A 
ATOM     13  C7  <0> d   1      17.356   0.372  15.780  0.00  0.00     0.001 A 
ATOM     14  C6  <0> d   1      17.634   0.230  14.433  0.00  0.00     0.010 A 
ENDBRANCH   4   9
BRANCH   4  15
ATOM     15  C11 <0> d   1      18.964   0.513  11.879  0.00  0.00    -0.016 A 
ATOM     16  C16 <0> d   1      19.938   1.418  12.255  0.00  0.00     0.010 A 
ATOM     17  C15 <0> d   1      20.011   2.653  11.639  0.00  0.00     0.001 A 
ATOM     18  C14 <0> d   1      19.103   2.987  10.651  0.00  0.00     0.000 A 
ATOM     19  C13 <0> d   1      18.124   2.084  10.278  0.00  0.00     0.001 A 
ATOM     20  C12 <0> d   1      18.056   0.847  10.892  0.00  0.00     0.010 A 
ENDBRANCH   4  15
BRANCH   7  21
ATOM     21  C20 <0> d   1      17.895  -3.880  10.669  0.00  0.00     0.320 C 
BRANCH  21  22
ATOM     22  O21 <0> d   1      17.625  -3.474   9.326  0.00  0.00    -0.270 OA
BRANCH  22  23
ATOM     23  P22 <0> d   1      18.754  -3.431   8.178  0.00  0.00     0.407 P 
ATOM     24  O23 <0> d   1      19.278  -1.986   8.026  0.00  0.00    -0.624 OA
ATOM     25  O24 <0> d   1      18.143  -3.899   6.839  0.00  0.00    -0.624 OA
BRANCH  23  26
ATOM     26  O25 <0> d   1      19.970  -4.404   8.585  0.00  0.00    -0.300 OA
ATOM     27  H39 <0> d   1      19.850  -4.849   9.435  0.00  0.00     0.223 HD
ENDBRANCH  23  26
ENDBRANCH  22  23
ENDBRANCH  21  22
ENDBRANCH   7  21
TORSDOF 6
ENDMDL
MODEL 6
REMARK VINA RESULT:      -8.1      2.674      4.286
REMARK  6 active torsions:
REMARK  status: ('A' for Active; 'I' for Inactive)
REMARK    1  A    between atoms: C4_4  and  C5_5 
REMARK    2  A    between atoms: C4_4  and  C11_11 
REMARK    3  A    between atoms: N19_19  and  C20_20 
REMARK    4  A    between atoms: C20_20  and  O21_21 
REMARK    5  A    between atoms: O21_21  and  P22_22 
REMARK    6  A    between atoms: P22_22  and  O25_25 
ROOT
ATOM      1  O1  <0> d   1      20.499   3.572  11.731  0.00  0.00    -0.247 OA
ATOM      2  C2  <0> d   1      19.741   2.679  11.405  0.00  0.00     0.328 A 
ATOM      3  N3  <0> d   1      20.109   1.621  10.661  0.00  0.00    -0.316 N 
ATOM      4  C4  <0> d   1      18.907   0.785  10.495  0.00  0.00     0.171 A 
ATOM      5  C17 <0> d   1      17.837   1.543  11.255  0.00  0.00     0.267 A 
ATOM      6  O18 <0> d   1      16.675   1.228  11.394  0.00  0.00    -0.269 OA
ATOM      7  N19 <0> d   1      18.450   2.637  11.751  0.00  0.00    -0.244 N 
ATOM      8  H26 <0> d   1      20.992   1.443  10.302  0.00  0.00     0.166 HD
ENDROOT
BRANCH   4   9
ATOM      9  C5  <0> d   1      18.540   0.669   9.038  0.00  0.00    -0.016 A 
ATOM     10  C10 <0> d   1      17.457  -0.102   8.657  0.00  0.00     0.010 A 
ATOM     11  C9  <0> d   1      17.117  -0.205   7.321  0.00  0.00     0.001 A 
ATOM     12  C8  <0> d   1      17.865   0.456   6.364  0.00  0.00     0.000 A 
ATOM     13  C7  <0> d   1      18.951   1.223   6.744  0.00  0.00     0.001 A 
ATOM     14  C6  <0> d   1      19.288   1.330   8.081  0.00  0.00     0.010 A 
ENDBRANCH   4   9
BRANCH   4  15
ATOM     15  C11 <0> d   1      19.123  -0.579  11.095  0.00  0.00    -0.016 A 
ATOM     16  C16 <0> d   1      18.941  -0.775  12.451  0.00  0.00     0.010 A 
ATOM     17  C15 <0> d   1      19.135  -2.028  13.002  0.00  0.00     0.001 A 
ATOM     18  C14 <0> d   1      19.519  -3.084  12.197  0.00  0.00     0.000 A 
ATOM     19  C13 <0> d   1      19.707  -2.888  10.841  0.00  0.00     0.001 A 
ATOM     20  C12 <0> d   1      19.508  -1.635  10.291  0.00  0.00     0.010 A 
ENDBRANCH   4  15
BRANCH   7  21
ATOM     21  C20 <0> d   1      17.781   3.658  12.561  0.00  0.00     0.320 C 
BRANCH  21  22
ATOM     22  O21 <0> d   1      17.602   3.168  13.892  0.00  0.00    -0.270 OA
BRANCH  22  23
ATOM     23  P22 <0> d   1      18.755   3.235  15.014  0.00  0.00     0.407 P 
ATOM     24  O23 <0> d   1      19.355   1.826  15.219  0.00  0.00    -0.624 OA
ATOM     25  O24 <0> d   1      18.149   3.734  16.345  0.00  0.00    -0.624 OA
BRANCH  23  26
ATOM     26  O25 <0> d   1      19.912   4.247  14.536  0.00  0.00    -0.300 OA
ATOM     27  H39 <0> d   1      19.639   5.175  14.519  0.00  0.00     0.223 HD
ENDBRANCH  23  26
ENDBRANCH  22  23
ENDBRANCH  21  22
ENDBRANCH   7  21
TORSDOF 6
ENDMDL
MODEL 7
REMARK VINA RESULT:      -7.8      3.041      4.866
REMARK  6 active torsions:
REMARK  status: ('A' for Active; 'I' for Inactive)
REMARK    1  A    between atoms: C4_4  and  C5_5 
REMARK    2  A    between atoms: C4_4  and  C11_11 
REMARK    3  A    between atoms: N19_19  and  C20_20 
REMARK    4  A    between atoms: C20_20  and  O21_21 
REMARK    5  A    between atoms: O21_21  and  P22_22 
REMARK    6  A    between atoms: P22_22  and  O25_25 
ROOT
ATOM      1  O1  <0> d   1      20.342  -0.536   9.766  0.00  0.00    -0.247 OA
ATOM      2  C2  <0> d   1      19.495  -0.145  10.544  0.00  0.00     0.328 A 
ATOM      3  N3  <0> d   1      19.771   0.549  11.663  0.00  0.00    -0.316 N 
ATOM      4  C4  <0> d   1      18.480   0.827  12.316  0.00  0.00     0.171 A 
ATOM      5  C17 <0> d   1      17.467   0.183  11.390  0.00  0.00     0.267 A 
ATOM      6  O18 <0> d   1      16.262   0.160  11.526  0.00  0.00    -0.269 OA
ATOM      7  N19 <0> d   1      18.184  -0.351  10.381  0.00  0.00    -0.244 N 
ATOM      8  H26 <0> d   1      20.649   0.814  11.979  0.00  0.00     0.166 HD
ENDROOT
BRANCH   4   9
ATOM      9  C5  <0> d   1      18.429   0.192  13.681  0.00  0.00    -0.016 A 
ATOM     10  C10 <0> d   1      19.340  -0.791  14.021  0.00  0.00     0.010 A 
ATOM     11  C9  <0> d   1      19.297  -1.371  15.275  0.00  0.00     0.001 A 
ATOM     12  C8  <0> d   1      18.335  -0.975  16.187  0.00  0.00     0.000 A 
ATOM     13  C7  <0> d   1      17.420   0.004  15.845  0.00  0.00     0.001 A 
ATOM     14  C6  <0> d   1      17.468   0.587  14.593  0.00  0.00     0.010 A 
ENDBRANCH   4   9
BRANCH   4  15
ATOM     15  C11 <0> d   1      18.245   2.311  12.415  0.00  0.00    -0.016 A 
ATOM     16  C16 <0> d   1      17.456   2.951  11.477  0.00  0.00     0.010 A 
ATOM     17  C15 <0> d   1      17.236   4.313  11.571  0.00  0.00     0.001 A 
ATOM     18  C14 <0> d   1      17.811   5.036  12.598  0.00  0.00     0.000 A 
ATOM     19  C13 <0> d   1      18.604   4.398  13.534  0.00  0.00     0.001 A 
ATOM     20  C12 <0> d   1      18.820   3.036  13.442  0.00  0.00     0.010 A 
ENDBRANCH   4  15
BRANCH   7  21
ATOM     21  C20 <0> d   1      17.599  -1.076   9.251  0.00  0.00     0.320 C 
BRANCH  21  22
ATOM     22  O21 <0> d   1      17.318  -0.160   8.191  0.00  0.00    -0.270 OA
BRANCH  22  23
ATOM     23  P22 <0> d   1      18.222  -0.051   6.862  0.00  0.00     0.407 P 
ATOM     24  O23 <0> d   1      18.859   1.354   6.788  0.00  0.00    -0.624 OA
ATOM     25  O24 <0> d   1      17.336  -0.281   5.618  0.00  0.00    -0.624 OA
BRANCH  23  26
ATOM     26  O25 <0> d   1      19.383  -1.165   6.910  0.00  0.00    -0.300 OA
ATOM     27  H39 <0> d   1      19.898  -1.231   6.094  0.00  0.00     0.223 HD
ENDBRANCH  23  26
ENDBRANCH  22  23
ENDBRANCH  21  22
ENDBRANCH   7  21
TORSDOF 6
ENDMDL
MODEL 8
REMARK VINA RESULT:      -7.7      3.086      5.228
REMARK  6 active torsions:
REMARK  status: ('A' for Active; 'I' for Inactive)
REMARK    1  A    between atoms: C4_4  and  C5_5 
REMARK    2  A    between atoms: C4_4  and  C11_11 
REMARK    3  A    between atoms: N19_19  and  C20_20 
REMARK    4  A    between atoms: C20_20  and  O21_21 
REMARK    5  A    between atoms: O21_21  and  P22_22 
REMARK    6  A    between atoms: P22_22  and  O25_25 
ROOT
ATOM      1  O1  <0> d   1      20.484   0.615  13.057  0.00  0.00    -0.247 OA
ATOM      2  C2  <0> d   1      19.607   0.195  12.328  0.00  0.00     0.328 A 
ATOM      3  N3  <0> d   1      19.839  -0.544  11.229  0.00  0.00    -0.316 N 
ATOM      4  C4  <0> d   1      18.523  -0.843  10.637  0.00  0.00     0.171 A 
ATOM      5  C17 <0> d   1      17.547  -0.158  11.573  0.00  0.00     0.267 A 
ATOM      6  O18 <0> d   1      16.339  -0.135  11.483  0.00  0.00    -0.269 OA
ATOM      7  N19 <0> d   1      18.303   0.414  12.532  0.00  0.00    -0.244 N 
ATOM      8  H26 <0> d   1      20.704  -0.826  10.891  0.00  0.00     0.166 HD
ENDROOT
BRANCH   4   9
ATOM      9  C5  <0> d   1      18.422  -0.263   9.250  0.00  0.00    -0.016 A 
ATOM     10  C10 <0> d   1      19.341   0.678   8.825  0.00  0.00     0.010 A 
ATOM     11  C9  <0> d   1      19.252   1.206   7.551  0.00  0.00     0.001 A 
ATOM     12  C8  <0> d   1      18.236   0.802   6.705  0.00  0.00     0.000 A 
ATOM     13  C7  <0> d   1      17.313  -0.135   7.132  0.00  0.00     0.001 A 
ATOM     14  C6  <0> d   1      17.407  -0.668   8.404  0.00  0.00     0.010 A 
ENDBRANCH   4   9
BRANCH   4  15
ATOM     15  C11 <0> d   1      18.280  -2.329  10.607  0.00  0.00    -0.016 A 
ATOM     16  C16 <0> d   1      18.958  -3.122   9.700  0.00  0.00     0.010 A 
ATOM     17  C15 <0> d   1      18.739  -4.487   9.674  0.00  0.00     0.001 A 
ATOM     18  C14 <0> d   1      17.836  -5.058  10.551  0.00  0.00     0.000 A 
ATOM     19  C13 <0> d   1      17.154  -4.265  11.456  0.00  0.00     0.001 A 
ATOM     20  C12 <0> d   1      17.377  -2.900  11.483  0.00  0.00     0.010 A 
ENDBRANCH   4  15
BRANCH   7  21
ATOM     21  C20 <0> d   1      17.763   1.186  13.653  0.00  0.00     0.320 C 
BRANCH  21  22
ATOM     22  O21 <0> d   1      17.373   0.296  14.701  0.00  0.00    -0.270 OA
BRANCH  22  23
ATOM     23  P22 <0> d   1      18.318  -0.046  15.960  0.00  0.00     0.407 P 
ATOM     24  O23 <0> d   1      17.439  -0.386  17.184  0.00  0.00    -0.624 OA
ATOM     25  O24 <0> d   1      19.203   1.177  16.286  0.00  0.00    -0.624 OA
BRANCH  23  26
ATOM     26  O25 <0> d   1      19.252  -1.308  15.603  0.00  0.00    -0.300 OA
ATOM     27  H39 <0> d   1      19.068  -2.096  16.132  0.00  0.00     0.223 HD
ENDBRANCH  23  26
ENDBRANCH  22  23
ENDBRANCH  21  22
ENDBRANCH   7  21
TORSDOF 6
ENDMDL
MODEL 9
REMARK VINA RESULT:      -7.6      3.282      5.576
REMARK  6 active torsions:
REMARK  status: ('A' for Active; 'I' for Inactive)
REMARK    1  A    between atoms: C4_4  and  C5_5 
REMARK    2  A    between atoms: C4_4  and  C11_11 
REMARK    3  A    between atoms: N19_19  and  C20_20 
REMARK    4  A    between atoms: C20_20  and  O21_21 
REMARK    5  A    between atoms: O21_21  and  P22_22 
REMARK    6  A    between atoms: P22_22  and  O25_25 
ROOT
ATOM      1  O1  <0> d   1      20.866  -0.930  10.736  0.00  0.00    -0.247 OA
ATOM      2  C2  <0> d   1      19.916  -0.517  11.371  0.00  0.00     0.328 A 
ATOM      3  N3  <0> d   1      20.029   0.225  12.487  0.00  0.00    -0.316 N 
ATOM      4  C4  <0> d   1      18.658   0.515  12.941  0.00  0.00     0.171 A 
ATOM      5  C17 <0> d   1      17.787  -0.178  11.912  0.00  0.00     0.267 A 
ATOM      6  O18 <0> d   1      16.576  -0.209  11.879  0.00  0.00    -0.269 OA
ATOM      7  N19 <0> d   1      18.641  -0.745  11.036  0.00  0.00    -0.244 N 
ATOM      8  H26 <0> d   1      20.853   0.513  12.911  0.00  0.00     0.166 HD
ENDROOT
BRANCH   4   9
ATOM      9  C5  <0> d   1      18.420  -0.065  14.312  0.00  0.00    -0.016 A 
ATOM     10  C10 <0> d   1      17.376   0.400  15.089  0.00  0.00     0.010 A 
ATOM     11  C9  <0> d   1      17.155  -0.135  16.343  0.00  0.00     0.001 A 
ATOM     12  C8  <0> d   1      17.984  -1.130  16.827  0.00  0.00     0.000 A 
ATOM     13  C7  <0> d   1      19.033  -1.592  16.053  0.00  0.00     0.001 A 
ATOM     14  C6  <0> d   1      19.250  -1.060  14.795  0.00  0.00     0.010 A 
ENDBRANCH   4   9
BRANCH   4  15
ATOM     15  C11 <0> d   1      18.403   1.999  12.945  0.00  0.00    -0.016 A 
ATOM     16  C16 <0> d   1      18.860   2.776  13.993  0.00  0.00     0.010 A 
ATOM     17  C15 <0> d   1      18.630   4.140  13.994  0.00  0.00     0.001 A 
ATOM     18  C14 <0> d   1      17.936   4.725  12.952  0.00  0.00     0.000 A 
ATOM     19  C13 <0> d   1      17.474   3.946  11.907  0.00  0.00     0.001 A 
ATOM     20  C12 <0> d   1      17.708   2.584  11.904  0.00  0.00     0.010 A 
ENDBRANCH   4  15
BRANCH   7  21
ATOM     21  C20 <0> d   1      18.224  -1.521   9.866  0.00  0.00     0.320 C 
BRANCH  21  22
ATOM     22  O21 <0> d   1      17.940  -2.864  10.263  0.00  0.00    -0.270 OA
BRANCH  22  23
ATOM     23  P22 <0> d   1      18.920  -4.101   9.941  0.00  0.00     0.407 P 
ATOM     24  O23 <0> d   1      19.168  -4.178   8.418  0.00  0.00    -0.624 OA
ATOM     25  O24 <0> d   1      18.266  -5.415  10.423  0.00  0.00    -0.624 OA
BRANCH  23  26
ATOM     26  O25 <0> d   1      20.323  -3.886  10.703  0.00  0.00    -0.300 OA
ATOM     27  H39 <0> d   1      20.977  -3.392  10.190  0.00  0.00     0.223 HD
ENDBRANCH  23  26
ENDBRANCH  22  23
ENDBRANCH  21  22
ENDBRANCH   7  21
TORSDOF 6
ENDMDL
