MODEL 1
REMARK VINA RESULT:      -6.3      0.000      0.000
REMARK  3 active torsions:
REMARK  status: ('A' for Active; 'I' for Inactive)
REMARK    1  A    between atoms: N4_4  and  N5_5 
REMARK    2  A    between atoms: C6_6  and  C7_7 
REMARK    3  A    between atoms: C10_10  and  N11_11 
ROOT
ATOM      1  N5  ZIN A   1      18.750   0.981  10.912  0.00  0.00    -0.177 NA
ATOM      2  C6  ZIN A   1      18.943   1.384   9.650  0.00  0.00     0.176 C 
ENDROOT
BRANCH   2   3
ATOM      3  C7  ZIN A   1      18.657   0.531   8.603  0.00  0.00     0.097 A 
ATOM      4  O14 ZIN A   1      19.552  -0.122   7.825  0.00  0.00    -0.287 OA
ATOM      5  C10 ZIN A   1      18.902  -0.856   6.918  0.00  0.00     0.215 A 
ATOM      6  C9  ZIN A   1      17.522  -0.698   7.071  0.00  0.00     0.065 A 
ATOM      7  C8  ZIN A   1      17.315   0.159   8.110  0.00  0.00     0.043 A 
BRANCH   5   8
ATOM      8  N11 ZIN A   1      19.552  -1.714   5.892  0.00  0.00    -0.090 N 
ATOM      9  O12 ZIN A   1      19.830  -1.221   4.703  0.00  0.00    -0.530 OA
ATOM     10  O13 ZIN A   1      19.850  -2.966   6.173  0.00  0.00    -0.530 OA
ENDBRANCH   5   8
ENDBRANCH   2   3
BRANCH   1  11
ATOM     11  N4  ZIN A   1      18.416  -0.241  11.156  0.00  0.00    -0.209 N 
ATOM     12  C3  ZIN A   1      19.308  -1.413  11.162  0.00  0.00     0.261 A 
ATOM     13  C2  ZIN A   1      18.383  -2.563  11.507  0.00  0.00     0.267 A 
ATOM     14  O1  ZIN A   1      18.681  -3.733  11.623  0.00  0.00    -0.269 OA
ATOM     15  N17 ZIN A   1      17.160  -2.016  11.651  0.00  0.00    -0.155 NA
ATOM     16  C15 ZIN A   1      17.184  -0.692  11.455  0.00  0.00     0.368 A 
ATOM     17  O16 ZIN A   1      16.205   0.020  11.534  0.00  0.00    -0.243 OA
ENDBRANCH   1  11
TORSDOF 3
ENDMDL
MODEL 2
REMARK VINA RESULT:      -6.2      3.539      5.261
REMARK  3 active torsions:
REMARK  status: ('A' for Active; 'I' for Inactive)
REMARK    1  A    between atoms: N4_4  and  N5_5 
REMARK    2  A    between atoms: C6_6  and  C7_7 
REMARK    3  A    between atoms: C10_10  and  N11_11 
ROOT
ATOM      1  N5  ZIN A   1      17.161  -0.843  11.981  0.00  0.00    -0.177 NA
ATOM      2  C6  ZIN A   1      16.762  -0.172  10.894  0.00  0.00     0.176 C 
ENDROOT
BRANCH   2   3
ATOM      3  C7  ZIN A   1      17.365   1.024  10.561  0.00  0.00     0.097 A 
ATOM      4  O14 ZIN A   1      17.078   2.243  11.074  0.00  0.00    -0.287 OA
ATOM      5  C10 ZIN A   1      17.870   3.160  10.511  0.00  0.00     0.215 A 
ATOM      6  C9  ZIN A   1      18.719   2.557   9.580  0.00  0.00     0.065 A 
ATOM      7  C8  ZIN A   1      18.444   1.222   9.572  0.00  0.00     0.043 A 
BRANCH   5   8
ATOM      8  N11 ZIN A   1      17.847   4.613  10.826  0.00  0.00    -0.090 N 
ATOM      9  O12 ZIN A   1      18.155   5.030  12.037  0.00  0.00    -0.530 OA
ATOM     10  O13 ZIN A   1      17.521   5.484   9.893  0.00  0.00    -0.530 OA
ENDBRANCH   5   8
ENDBRANCH   2   3
BRANCH   1  11
ATOM     11  N4  ZIN A   1      18.021  -0.315  12.786  0.00  0.00    -0.209 N 
ATOM     12  C3  ZIN A   1      17.728   0.543  13.947  0.00  0.00     0.261 A 
ATOM     13  C2  ZIN A   1      19.100   0.862  14.508  0.00  0.00     0.267 A 
ATOM     14  O1  ZIN A   1      19.354   1.547  15.476  0.00  0.00    -0.269 OA
ATOM     15  N17 ZIN A   1      19.978   0.231  13.704  0.00  0.00    -0.155 NA
ATOM     16  C15 ZIN A   1      19.359  -0.442  12.727  0.00  0.00     0.368 A 
ATOM     17  O16 ZIN A   1      19.939  -1.091  11.881  0.00  0.00    -0.243 OA
ENDBRANCH   1  11
TORSDOF 3
ENDMDL
MODEL 3
REMARK VINA RESULT:      -6.1      4.443      7.591
REMARK  3 active torsions:
REMARK  status: ('A' for Active; 'I' for Inactive)
REMARK    1  A    between atoms: N4_4  and  N5_5 
REMARK    2  A    between atoms: C6_6  and  C7_7 
REMARK    3  A    between atoms: C10_10  and  N11_11 
ROOT
ATOM      1  N5  ZIN A   1      18.802  -1.009  12.520  0.00  0.00    -0.177 NA
ATOM      2  C6  ZIN A   1      18.964  -1.479  13.762  0.00  0.00     0.176 C 
ENDROOT
BRANCH   2   3
ATOM      3  C7  ZIN A   1      18.677  -0.675  14.847  0.00  0.00     0.097 A 
ATOM      4  O14 ZIN A   1      19.514   0.207  15.442  0.00  0.00    -0.287 OA
ATOM      5  C10 ZIN A   1      18.883   0.803  16.458  0.00  0.00     0.215 A 
ATOM      6  C9  ZIN A   1      17.581   0.311  16.569  0.00  0.00     0.065 A 
ATOM      7  C8  ZIN A   1      17.400  -0.616  15.587  0.00  0.00     0.043 A 
BRANCH   5   8
ATOM      8  N11 ZIN A   1      19.482   1.836  17.344  0.00  0.00    -0.090 N 
ATOM      9  O12 ZIN A   1      19.716   1.562  18.610  0.00  0.00    -0.530 OA
ATOM     10  O13 ZIN A   1      19.780   3.025  16.861  0.00  0.00    -0.530 OA
ENDBRANCH   5   8
ENDBRANCH   2   3
BRANCH   1  11
ATOM     11  N4  ZIN A   1      18.499   0.231  12.333  0.00  0.00    -0.209 N 
ATOM     12  C3  ZIN A   1      19.421   1.379  12.376  0.00  0.00     0.261 A 
ATOM     13  C2  ZIN A   1      18.524   2.567  12.088  0.00  0.00     0.267 A 
ATOM     14  O1  ZIN A   1      18.852   3.733  12.024  0.00  0.00    -0.269 OA
ATOM     15  N17 ZIN A   1      17.287   2.058  11.926  0.00  0.00    -0.155 NA
ATOM     16  C15 ZIN A   1      17.278   0.727  12.061  0.00  0.00     0.368 A 
ATOM     17  O16 ZIN A   1      16.281   0.044  11.954  0.00  0.00    -0.243 OA
ENDBRANCH   1  11
TORSDOF 3
ENDMDL
MODEL 4
REMARK VINA RESULT:      -6.0      2.331      5.502
REMARK  3 active torsions:
REMARK  status: ('A' for Active; 'I' for Inactive)
REMARK    1  A    between atoms: N4_4  and  N5_5 
REMARK    2  A    between atoms: C6_6  and  C7_7 
REMARK    3  A    between atoms: C10_10  and  N11_11 
ROOT
ATOM      1  N5  ZIN A   1      19.664  -1.598   4.408  0.00  0.00    -0.177 NA
ATOM      2  C6  ZIN A   1      19.533  -0.463   5.105  0.00  0.00     0.176 C 
ENDROOT
BRANCH   2   3
ATOM      3  C7  ZIN A   1      18.781  -0.448   6.263  0.00  0.00     0.097 A 
ATOM      4  O14 ZIN A   1      19.208  -0.763   7.508  0.00  0.00    -0.287 OA
ATOM      5  C10 ZIN A   1      18.198  -0.629   8.372  0.00  0.00     0.215 A 
ATOM      6  C9  ZIN A   1      17.044  -0.217   7.702  0.00  0.00     0.065 A 
ATOM      7  C8  ZIN A   1      17.353  -0.090   6.381  0.00  0.00     0.043 A 
BRANCH   5   8
ATOM      8  N11 ZIN A   1      18.289  -0.884   9.834  0.00  0.00    -0.090 N 
ATOM      9  O12 ZIN A   1      17.332  -0.466  10.636  0.00  0.00    -0.530 OA
ATOM     10  O13 ZIN A   1      19.327  -1.529  10.327  0.00  0.00    -0.530 OA
ENDBRANCH   5   8
ENDBRANCH   2   3
BRANCH   1  11
ATOM     11  N4  ZIN A   1      18.989  -2.645   4.745  0.00  0.00    -0.209 N 
ATOM     12  C3  ZIN A   1      17.679  -3.057   4.214  0.00  0.00     0.261 A 
ATOM     13  C2  ZIN A   1      17.379  -4.340   4.963  0.00  0.00     0.267 A 
ATOM     14  O1  ZIN A   1      16.394  -5.040   4.851  0.00  0.00    -0.269 OA
ATOM     15  N17 ZIN A   1      18.429  -4.537   5.783  0.00  0.00    -0.155 NA
ATOM     16  C15 ZIN A   1      19.347  -3.572   5.653  0.00  0.00     0.368 A 
ATOM     17  O16 ZIN A   1      20.383  -3.535   6.284  0.00  0.00    -0.243 OA
ENDBRANCH   1  11
TORSDOF 3
ENDMDL
MODEL 5
REMARK VINA RESULT:      -5.9      3.704      5.834
REMARK  3 active torsions:
REMARK  status: ('A' for Active; 'I' for Inactive)
REMARK    1  A    between atoms: N4_4  and  N5_5 
REMARK    2  A    between atoms: C6_6  and  C7_7 
REMARK    3  A    between atoms: C10_10  and  N11_11 
ROOT
ATOM      1  N5  ZIN A   1      18.137   0.457   9.900  0.00  0.00    -0.177 NA
ATOM      2  C6  ZIN A   1      18.074   1.774   9.669  0.00  0.00     0.176 C 
ENDROOT
BRANCH   2   3
ATOM      3  C7  ZIN A   1      18.215   2.665  10.713  0.00  0.00     0.097 A 
ATOM      4  O14 ZIN A   1      17.219   3.210  11.450  0.00  0.00    -0.287 OA
ATOM      5  C10 ZIN A   1      17.741   4.024  12.371  0.00  0.00     0.215 A 
ATOM      6  C9  ZIN A   1      19.133   4.047  12.259  0.00  0.00     0.065 A 
ATOM      7  C8  ZIN A   1      19.482   3.215  11.238  0.00  0.00     0.043 A 
BRANCH   5   8
ATOM      8  N11 ZIN A   1      16.954   4.798  13.368  0.00  0.00    -0.090 N 
ATOM      9  O12 ZIN A   1      17.257   4.722  14.648  0.00  0.00    -0.530 OA
ATOM     10  O13 ZIN A   1      15.955   5.559  12.971  0.00  0.00    -0.530 OA
ENDBRANCH   5   8
ENDBRANCH   2   3
BRANCH   1  11
ATOM     11  N4  ZIN A   1      18.205   0.017  11.111  0.00  0.00    -0.209 N 
ATOM     12  C3  ZIN A   1      19.427  -0.349  11.848  0.00  0.00     0.261 A 
ATOM     13  C2  ZIN A   1      18.907  -0.792  13.201  0.00  0.00     0.267 A 
ATOM     14  O1  ZIN A   1      19.561  -1.185  14.144  0.00  0.00    -0.269 OA
ATOM     15  N17 ZIN A   1      17.567  -0.663  13.136  0.00  0.00    -0.155 NA
ATOM     16  C15 ZIN A   1      17.172  -0.198  11.946  0.00  0.00     0.368 A 
ATOM     17  O16 ZIN A   1      16.012   0.005  11.651  0.00  0.00    -0.243 OA
ENDBRANCH   1  11
TORSDOF 3
ENDMDL
MODEL 6
REMARK VINA RESULT:      -5.8      1.879      4.833
REMARK  3 active torsions:
REMARK  status: ('A' for Active; 'I' for Inactive)
REMARK    1  A    between atoms: N4_4  and  N5_5 
REMARK    2  A    between atoms: C6_6  and  C7_7 
REMARK    3  A    between atoms: C10_10  and  N11_11 
ROOT
ATOM      1  N5  ZIN A   1      16.991   1.050  11.108  0.00  0.00    -0.177 NA
ATOM      2  C6  ZIN A   1      16.800   0.183  12.109  0.00  0.00     0.176 C 
ENDROOT
BRANCH   2   3
ATOM      3  C7  ZIN A   1      17.539  -0.982  12.163  0.00  0.00     0.097 A 
ATOM      4  O14 ZIN A   1      17.188  -2.186  11.655  0.00  0.00    -0.287 OA
ATOM      5  C10 ZIN A   1      18.157  -3.072  11.898  0.00  0.00     0.215 A 
ATOM      6  C9  ZIN A   1      19.200  -2.463  12.599  0.00  0.00     0.065 A 
ATOM      7  C8  ZIN A   1      18.865  -1.156  12.791  0.00  0.00     0.043 A 
BRANCH   5   8
ATOM      8  N11 ZIN A   1      18.127  -4.501  11.486  0.00  0.00    -0.090 N 
ATOM      9  O12 ZIN A   1      17.456  -5.379  12.202  0.00  0.00    -0.530 OA
ATOM     10  O13 ZIN A   1      18.772  -4.888  10.404  0.00  0.00    -0.530 OA
ENDBRANCH   5   8
ENDBRANCH   2   3
BRANCH   1  11
ATOM     11  N4  ZIN A   1      17.772   0.744  10.127  0.00  0.00    -0.209 N 
ATOM     12  C3  ZIN A   1      17.433  -0.084   8.958  0.00  0.00     0.261 A 
ATOM     13  C2  ZIN A   1      18.717  -0.103   8.151  0.00  0.00     0.267 A 
ATOM     14  O1  ZIN A   1      18.910  -0.670   7.097  0.00  0.00    -0.269 OA
ATOM     15  N17 ZIN A   1      19.599   0.634   8.854  0.00  0.00    -0.155 NA
ATOM     16  C15 ZIN A   1      19.055   1.119   9.976  0.00  0.00     0.368 A 
ATOM     17  O16 ZIN A   1      19.653   1.815  10.770  0.00  0.00    -0.243 OA
ENDBRANCH   1  11
TORSDOF 3
ENDMDL
MODEL 7
REMARK VINA RESULT:      -5.7      3.308      4.534
REMARK  3 active torsions:
REMARK  status: ('A' for Active; 'I' for Inactive)
REMARK    1  A    between atoms: N4_4  and  N5_5 
REMARK    2  A    between atoms: C6_6  and  C7_7 
REMARK    3  A    between atoms: C10_10  and  N11_11 
ROOT
ATOM      1  N5  ZIN A   1      20.275  -5.779   8.605  0.00  0.00    -0.177 NA
ATOM      2  C6  ZIN A   1      20.527  -5.537   7.313  0.00  0.00     0.176 C 
ENDROOT
BRANCH   2   3
ATOM      3  C7  ZIN A   1      19.800  -4.580   6.635  0.00  0.00     0.097 A 
ATOM      4  O14 ZIN A   1      20.091  -3.262   6.540  0.00  0.00    -0.287 OA
ATOM      5  C10 ZIN A   1      19.159  -2.652   5.802  0.00  0.00     0.215 A 
ATOM      6  C9  ZIN A   1      18.197  -3.575   5.385  0.00  0.00     0.065 A 
ATOM      7  C8  ZIN A   1      18.549  -4.795   5.879  0.00  0.00     0.043 A 
BRANCH   5   8
ATOM      8  N11 ZIN A   1      19.146  -1.201   5.476  0.00  0.00    -0.090 N 
ATOM      9  O12 ZIN A   1      20.006  -0.714   4.606  0.00  0.00    -0.530 OA
ATOM     10  O13 ZIN A   1      18.272  -0.404   6.057  0.00  0.00    -0.530 OA
ENDBRANCH   5   8
ENDBRANCH   2   3
BRANCH   1  11
ATOM     11  N4  ZIN A   1      19.273  -5.209   9.185  0.00  0.00    -0.209 N 
ATOM     12  C3  ZIN A   1      19.278  -3.905   9.871  0.00  0.00     0.261 A 
ATOM     13  C2  ZIN A   1      17.848  -3.751  10.351  0.00  0.00     0.267 A 
ATOM     14  O1  ZIN A   1      17.382  -2.821  10.973  0.00  0.00    -0.269 OA
ATOM     15  N17 ZIN A   1      17.207  -4.865   9.948  0.00  0.00    -0.155 NA
ATOM     16  C15 ZIN A   1      18.021  -5.691   9.280  0.00  0.00     0.368 A 
ATOM     17  O16 ZIN A   1      17.670  -6.756   8.816  0.00  0.00    -0.243 OA
ENDBRANCH   1  11
TORSDOF 3
ENDMDL
MODEL 8
REMARK VINA RESULT:      -5.7      2.478      4.323
REMARK  3 active torsions:
REMARK  status: ('A' for Active; 'I' for Inactive)
REMARK    1  A    between atoms: N4_4  and  N5_5 
REMARK    2  A    between atoms: C6_6  and  C7_7 
REMARK    3  A    between atoms: C10_10  and  N11_11 
ROOT
ATOM      1  N5  ZIN A   1      18.469  -0.328  13.045  0.00  0.00    -0.177 NA
ATOM      2  C6  ZIN A   1      18.450  -1.638  13.320  0.00  0.00     0.176 C 
ENDROOT
BRANCH   2   3
ATOM      3  C7  ZIN A   1      18.551  -2.559  12.298  0.00  0.00     0.097 A 
ATOM      4  O14 ZIN A   1      17.543  -3.019  11.522  0.00  0.00    -0.287 OA
ATOM      5  C10 ZIN A   1      18.024  -3.898  10.639  0.00  0.00     0.215 A 
ATOM      6  C9  ZIN A   1      19.401  -4.053  10.818  0.00  0.00     0.065 A 
ATOM      7  C8  ZIN A   1      19.781  -3.239  11.843  0.00  0.00     0.043 A 
BRANCH   5   8
ATOM      8  N11 ZIN A   1      17.213  -4.612   9.618  0.00  0.00    -0.090 N 
ATOM      9  O12 ZIN A   1      17.494  -4.473   8.339  0.00  0.00    -0.530 OA
ATOM     10  O13 ZIN A   1      16.213  -5.384   9.993  0.00  0.00    -0.530 OA
ENDBRANCH   5   8
ENDBRANCH   2   3
BRANCH   1  11
ATOM     11  N4  ZIN A   1      18.456   0.074  11.818  0.00  0.00    -0.209 N 
ATOM     12  C3  ZIN A   1      19.627   0.326  10.962  0.00  0.00     0.261 A 
ATOM     13  C2  ZIN A   1      19.017   0.772   9.648  0.00  0.00     0.267 A 
ATOM     14  O1  ZIN A   1      19.608   1.090   8.637  0.00  0.00    -0.269 OA
ATOM     15  N17 ZIN A   1      17.684   0.748   9.838  0.00  0.00    -0.155 NA
ATOM     16  C15 ZIN A   1      17.368   0.345  11.074  0.00  0.00     0.368 A 
ATOM     17  O16 ZIN A   1      16.229   0.240  11.480  0.00  0.00    -0.243 OA
ENDBRANCH   1  11
TORSDOF 3
ENDMDL
MODEL 9
REMARK VINA RESULT:      -5.6      2.508      4.603
REMARK  3 active torsions:
REMARK  status: ('A' for Active; 'I' for Inactive)
REMARK    1  A    between atoms: N4_4  and  N5_5 
REMARK    2  A    between atoms: C6_6  and  C7_7 
REMARK    3  A    between atoms: C10_10  and  N11_11 
ROOT
ATOM      1  N5  ZIN A   1      17.455  -0.888  11.083  0.00  0.00    -0.177 NA
ATOM      2  C6  ZIN A   1      17.435  -2.078  11.695  0.00  0.00     0.176 C 
ENDROOT
BRANCH   2   3
ATOM      3  C7  ZIN A   1      18.297  -3.077  11.289  0.00  0.00     0.097 A 
ATOM      4  O14 ZIN A   1      18.078  -3.983  10.308  0.00  0.00    -0.287 OA
ATOM      5  C10 ZIN A   1      19.138  -4.788  10.200  0.00  0.00     0.215 A 
ATOM      6  C9  ZIN A   1      20.109  -4.432  11.139  0.00  0.00     0.065 A 
ATOM      7  C8  ZIN A   1      19.634  -3.368  11.846  0.00  0.00     0.043 A 
BRANCH   5   8
ATOM      8  N11 ZIN A   1      19.263  -5.905   9.227  0.00  0.00    -0.090 N 
ATOM      9  O12 ZIN A   1      20.450  -6.253   8.773  0.00  0.00    -0.530 OA
ATOM     10  O13 ZIN A   1      18.188  -6.547   8.819  0.00  0.00    -0.530 OA
ENDBRANCH   5   8
ENDBRANCH   2   3
BRANCH   1  11
ATOM     11  N4  ZIN A   1      18.188  -0.712  10.035  0.00  0.00    -0.209 N 
ATOM     12  C3  ZIN A   1      17.819  -1.016   8.642  0.00  0.00     0.261 A 
ATOM     13  C2  ZIN A   1      19.049  -0.613   7.853  0.00  0.00     0.267 A 
ATOM     14  O1  ZIN A   1      19.204  -0.686   6.652  0.00  0.00    -0.269 OA
ATOM     15  N17 ZIN A   1      19.934  -0.164   8.763  0.00  0.00    -0.155 NA
ATOM     16  C15 ZIN A   1      19.438  -0.217  10.004  0.00  0.00     0.368 A 
ATOM     17  O16 ZIN A   1      20.049   0.137  10.991  0.00  0.00    -0.243 OA
ENDBRANCH   1  11
TORSDOF 3
ENDMDL
