MODEL 1
REMARK VINA RESULT:      -9.1      0.000      0.000
REMARK  9 active torsions:
REMARK  status: ('A' for Active; 'I' for Inactive)
REMARK    1  A    between atoms: C5_5  and  C6_6 
REMARK       I    between atoms: C6_6  and  N8_8 
REMARK    2  A    between atoms: N8_8  and  C9_9 
REMARK    3  A    between atoms: C9_9  and  C10_10 
REMARK    4  A    between atoms: C10_10  and  C11_11 
REMARK    5  A    between atoms: C14_14  and  S15_15 
REMARK    6  A    between atoms: S15_15  and  N18_18 
REMARK    7  A    between atoms: C19_19  and  O20_20 
REMARK    8  A    between atoms: C19_19  and  N21_21 
REMARK    9  A    between atoms: N21_21  and  C22_22 
ROOT
ATOM      1  C11 ZIN A   1      18.079   0.571   7.615  0.00  0.00    -0.057 A 
ATOM      2  C12 ZIN A   1      18.957   1.637   7.547  0.00  0.00     0.009 A 
ATOM      3  C13 ZIN A   1      19.224   2.385   8.678  0.00  0.00     0.026 A 
ATOM      4  C14 ZIN A   1      18.613   2.069   9.877  0.00  0.00     0.081 A 
ATOM      5  C28 ZIN A   1      17.734   1.004   9.945  0.00  0.00     0.026 A 
ATOM      6  C29 ZIN A   1      17.464   0.258   8.813  0.00  0.00     0.009 A 
ENDROOT
BRANCH   4   7
ATOM      7  S15 ZIN A   1      18.954   3.023  11.318  0.00  0.00     0.286 S 
ATOM      8  O16 ZIN A   1      20.337   2.854  11.593  0.00  0.00    -0.198 OA
ATOM      9  O17 ZIN A   1      18.352   4.293  11.110  0.00  0.00    -0.198 OA
BRANCH   7  10
ATOM     10  N18 ZIN A   1      18.137   2.320  12.576  0.00  0.00    -0.117 NA
ATOM     11  C19 ZIN A   1      18.380   2.694  13.799  0.00  0.00     0.251 C 
BRANCH  11  12
ATOM     12  O20 ZIN A   1      19.297   3.655  14.041  0.00  0.00    -0.331 OA
ATOM     13  H43 ZIN A   1      19.032   4.288  14.723  0.00  0.00     0.221 HD
ENDBRANCH  11  12
BRANCH  11  14
ATOM     14  N21 ZIN A   1      17.703   2.111  14.842  0.00  0.00    -0.350 N 
ATOM     15  H44 ZIN A   1      17.169   2.657  15.439  0.00  0.00     0.163 HD
BRANCH  14  16
ATOM     16  C22 ZIN A   1      17.786   0.663  15.050  0.00  0.00     0.085 C 
ATOM     17  C27 ZIN A   1      17.368   0.330  16.484  0.00  0.00     0.025 C 
ATOM     18  C26 ZIN A   1      17.456  -1.182  16.701  0.00  0.00     0.002 C 
ATOM     19  C25 ZIN A   1      18.894  -1.650  16.467  0.00  0.00     0.000 C 
ATOM     20  C24 ZIN A   1      19.311  -1.316  15.034  0.00  0.00     0.002 C 
ATOM     21  C23 ZIN A   1      19.224   0.196  14.815  0.00  0.00     0.025 C 
ENDBRANCH  14  16
ENDBRANCH  11  14
ENDBRANCH   7  10
ENDBRANCH   4   7
BRANCH   1  22
ATOM     22  C10 ZIN A   1      17.788  -0.246   6.383  0.00  0.00     0.058 C 
BRANCH  22  23
ATOM     23  C9  ZIN A   1      18.841  -1.346   6.242  0.00  0.00     0.127 C 
BRANCH  23  24
ATOM     24  N8  ZIN A   1      18.230  -2.646   6.529  0.00  0.00    -0.355 N 
ATOM     25  C6  ZIN A   1      19.001  -3.750   6.613  0.00  0.00     0.271 C 
ATOM     26  O7  ZIN A   1      20.202  -3.665   6.449  0.00  0.00    -0.266 OA
ATOM     27  H36 ZIN A   1      17.272  -2.714   6.660  0.00  0.00     0.162 HD
BRANCH  25  28
ATOM     28  C5  ZIN A   1      18.383  -5.065   6.904  0.00  0.00     0.141 A 
ATOM     29  N4  ZIN A   1      17.534  -5.192   7.920  0.00  0.00    -0.252 NA
ATOM     30  C3  ZIN A   1      16.987  -6.363   8.176  0.00  0.00     0.144 A 
ATOM     31  C2  ZIN A   1      17.295  -7.463   7.389  0.00  0.00     0.048 A 
ATOM     32  C1  ZIN A   1      16.667  -8.800   7.688  0.00  0.00     0.072 C 
ATOM     33  N31 ZIN A   1      18.142  -7.343   6.382  0.00  0.00    -0.262 NA
ATOM     34  C30 ZIN A   1      18.691  -6.172   6.114  0.00  0.00     0.154 A 
ENDBRANCH  25  28
ENDBRANCH  23  24
ENDBRANCH  22  23
ENDBRANCH   1  22
TORSDOF 9
ENDMDL
MODEL 2
REMARK VINA RESULT:      -9.1      2.444      3.345
REMARK  9 active torsions:
REMARK  status: ('A' for Active; 'I' for Inactive)
REMARK    1  A    between atoms: C5_5  and  C6_6 
REMARK       I    between atoms: C6_6  and  N8_8 
REMARK    2  A    between atoms: N8_8  and  C9_9 
REMARK    3  A    between atoms: C9_9  and  C10_10 
REMARK    4  A    between atoms: C10_10  and  C11_11 
REMARK    5  A    between atoms: C14_14  and  S15_15 
REMARK    6  A    between atoms: S15_15  and  N18_18 
REMARK    7  A    between atoms: C19_19  and  O20_20 
REMARK    8  A    between atoms: C19_19  and  N21_21 
REMARK    9  A    between atoms: N21_21  and  C22_22 
ROOT
ATOM      1  C11 ZIN A   1      18.230   0.406   6.629  0.00  0.00    -0.057 A 
ATOM      2  C12 ZIN A   1      17.427  -0.171   7.595  0.00  0.00     0.009 A 
ATOM      3  C13 ZIN A   1      17.497   0.267   8.904  0.00  0.00     0.026 A 
ATOM      4  C14 ZIN A   1      18.370   1.282   9.249  0.00  0.00     0.081 A 
ATOM      5  C28 ZIN A   1      19.174   1.858   8.282  0.00  0.00     0.026 A 
ATOM      6  C29 ZIN A   1      19.107   1.418   6.974  0.00  0.00     0.009 A 
ENDROOT
BRANCH   4   7
ATOM      7  S15 ZIN A   1      18.458   1.840  10.917  0.00  0.00     0.286 S 
ATOM      8  O16 ZIN A   1      19.673   2.567  11.033  0.00  0.00    -0.198 OA
ATOM      9  O17 ZIN A   1      17.187   2.395  11.222  0.00  0.00    -0.198 OA
BRANCH   7  10
ATOM     10  N18 ZIN A   1      18.623   0.498  11.874  0.00  0.00    -0.117 NA
ATOM     11  C19 ZIN A   1      19.698  -0.231  11.793  0.00  0.00     0.251 C 
BRANCH  11  12
ATOM     12  O20 ZIN A   1      20.679   0.107  10.929  0.00  0.00    -0.331 OA
ATOM     13  H43 ZIN A   1      20.483  -0.111  10.007  0.00  0.00     0.221 HD
ENDBRANCH  11  12
BRANCH  11  14
ATOM     14  N21 ZIN A   1      19.835  -1.343  12.587  0.00  0.00    -0.350 N 
ATOM     15  H44 ZIN A   1      20.341  -1.290  13.412  0.00  0.00     0.163 HD
BRANCH  14  16
ATOM     16  C22 ZIN A   1      19.214  -2.609  12.188  0.00  0.00     0.085 C 
ATOM     17  C27 ZIN A   1      20.233  -3.459  11.427  0.00  0.00     0.025 C 
ATOM     18  C26 ZIN A   1      19.584  -4.780  11.009  0.00  0.00     0.002 C 
ATOM     19  C25 ZIN A   1      18.383  -4.495  10.106  0.00  0.00     0.000 C 
ATOM     20  C24 ZIN A   1      17.364  -3.645  10.866  0.00  0.00     0.002 C 
ATOM     21  C23 ZIN A   1      18.012  -2.323  11.284  0.00  0.00     0.025 C 
ENDBRANCH  14  16
ENDBRANCH  11  14
ENDBRANCH   7  10
ENDBRANCH   4   7
BRANCH   1  22
ATOM     22  C10 ZIN A   1      18.154  -0.070   5.201  0.00  0.00     0.058 C 
BRANCH  22  23
ATOM     23  C9  ZIN A   1      19.253  -1.104   4.951  0.00  0.00     0.127 C 
BRANCH  23  24
ATOM     24  N8  ZIN A   1      18.671  -2.449   4.971  0.00  0.00    -0.355 N 
ATOM     25  C6  ZIN A   1      19.151  -3.379   5.821  0.00  0.00     0.271 C 
ATOM     26  O7  ZIN A   1      20.066  -3.101   6.570  0.00  0.00    -0.266 OA
ATOM     27  H36 ZIN A   1      17.940  -2.671   4.374  0.00  0.00     0.162 HD
BRANCH  25  28
ATOM     28  C5  ZIN A   1      18.562  -4.738   5.843  0.00  0.00     0.141 A 
ATOM     29  N4  ZIN A   1      17.488  -5.011   5.107  0.00  0.00    -0.252 NA
ATOM     30  C3  ZIN A   1      16.967  -6.221   5.129  0.00  0.00     0.144 A 
ATOM     31  C2  ZIN A   1      17.536  -7.211   5.917  0.00  0.00     0.048 A 
ATOM     32  C1  ZIN A   1      16.935  -8.593   5.938  0.00  0.00     0.072 C 
ATOM     33  N31 ZIN A   1      18.600  -6.943   6.654  0.00  0.00    -0.262 NA
ATOM     34  C30 ZIN A   1      19.133  -5.734   6.634  0.00  0.00     0.154 A 
ENDBRANCH  25  28
ENDBRANCH  23  24
ENDBRANCH  22  23
ENDBRANCH   1  22
TORSDOF 9
ENDMDL
MODEL 3
REMARK VINA RESULT:      -9.0      2.825      5.734
REMARK  9 active torsions:
REMARK  status: ('A' for Active; 'I' for Inactive)
REMARK    1  A    between atoms: C5_5  and  C6_6 
REMARK       I    between atoms: C6_6  and  N8_8 
REMARK    2  A    between atoms: N8_8  and  C9_9 
REMARK    3  A    between atoms: C9_9  and  C10_10 
REMARK    4  A    between atoms: C10_10  and  C11_11 
REMARK    5  A    between atoms: C14_14  and  S15_15 
REMARK    6  A    between atoms: S15_15  and  N18_18 
REMARK    7  A    between atoms: C19_19  and  O20_20 
REMARK    8  A    between atoms: C19_19  and  N21_21 
REMARK    9  A    between atoms: N21_21  and  C22_22 
ROOT
ATOM      1  C11 ZIN A   1      18.189  -5.052  10.565  0.00  0.00    -0.057 A 
ATOM      2  C12 ZIN A   1      17.137  -4.237  10.939  0.00  0.00     0.009 A 
ATOM      3  C13 ZIN A   1      17.371  -3.124  11.724  0.00  0.00     0.026 A 
ATOM      4  C14 ZIN A   1      18.657  -2.825  12.136  0.00  0.00     0.081 A 
ATOM      5  C28 ZIN A   1      19.708  -3.641  11.762  0.00  0.00     0.026 A 
ATOM      6  C29 ZIN A   1      19.474  -4.757  10.980  0.00  0.00     0.009 A 
ENDROOT
BRANCH   4   7
ATOM      7  S15 ZIN A   1      18.954  -1.406  13.136  0.00  0.00     0.286 S 
ATOM      8  O16 ZIN A   1      17.679  -0.876  13.469  0.00  0.00    -0.198 OA
ATOM      9  O17 ZIN A   1      19.914  -1.795  14.109  0.00  0.00    -0.198 OA
BRANCH   7  10
ATOM     10  N18 ZIN A   1      19.694  -0.277  12.176  0.00  0.00    -0.117 NA
ATOM     11  C19 ZIN A   1      20.126   0.836  12.696  0.00  0.00     0.251 C 
BRANCH  11  12
ATOM     12  O20 ZIN A   1      19.971   1.068  14.017  0.00  0.00    -0.331 OA
ATOM     13  H43 ZIN A   1      20.627   0.625  14.574  0.00  0.00     0.221 HD
ENDBRANCH  11  12
BRANCH  11  14
ATOM     14  N21 ZIN A   1      20.739   1.772  11.900  0.00  0.00    -0.350 N 
ATOM     15  H44 ZIN A   1      21.689   1.703  11.714  0.00  0.00     0.163 HD
BRANCH  14  16
ATOM     16  C22 ZIN A   1      19.959   2.874  11.332  0.00  0.00     0.085 C 
ATOM     17  C27 ZIN A   1      19.034   3.451  12.406  0.00  0.00     0.025 C 
ATOM     18  C26 ZIN A   1      18.219   4.601  11.813  0.00  0.00     0.002 C 
ATOM     19  C25 ZIN A   1      17.380   4.082  10.643  0.00  0.00     0.000 C 
ATOM     20  C24 ZIN A   1      18.304   3.505   9.569  0.00  0.00     0.002 C 
ATOM     21  C23 ZIN A   1      19.120   2.354  10.162  0.00  0.00     0.025 C 
ENDBRANCH  14  16
ENDBRANCH  11  14
ENDBRANCH   7  10
ENDBRANCH   4   7
BRANCH   1  22
ATOM     22  C10 ZIN A   1      17.935  -6.266   9.708  0.00  0.00     0.058 C 
BRANCH  22  23
ATOM     23  C9  ZIN A   1      18.564  -6.056   8.329  0.00  0.00     0.127 C 
BRANCH  23  24
ATOM     24  N8  ZIN A   1      18.451  -4.645   7.952  0.00  0.00    -0.355 N 
ATOM     25  C6  ZIN A   1      19.447  -4.048   7.267  0.00  0.00     0.271 C 
ATOM     26  O7  ZIN A   1      20.438  -4.681   6.963  0.00  0.00    -0.266 OA
ATOM     27  H36 ZIN A   1      17.659  -4.139   8.194  0.00  0.00     0.162 HD
BRANCH  25  28
ATOM     28  C5  ZIN A   1      19.333  -2.621   6.884  0.00  0.00     0.141 A 
ATOM     29  N4  ZIN A   1      19.478  -2.259   5.613  0.00  0.00    -0.252 NA
ATOM     30  C3  ZIN A   1      19.376  -0.988   5.276  0.00  0.00     0.144 A 
ATOM     31  C2  ZIN A   1      19.118  -0.030   6.245  0.00  0.00     0.048 A 
ATOM     32  C1  ZIN A   1      19.003   1.422   5.854  0.00  0.00     0.072 C 
ATOM     33  N31 ZIN A   1      18.978  -0.384   7.510  0.00  0.00    -0.262 NA
ATOM     34  C30 ZIN A   1      19.073  -1.656   7.856  0.00  0.00     0.154 A 
ENDBRANCH  25  28
ENDBRANCH  23  24
ENDBRANCH  22  23
ENDBRANCH   1  22
TORSDOF 9
ENDMDL
MODEL 4
REMARK VINA RESULT:      -9.0      4.921     10.156
REMARK  9 active torsions:
REMARK  status: ('A' for Active; 'I' for Inactive)
REMARK    1  A    between atoms: C5_5  and  C6_6 
REMARK       I    between atoms: C6_6  and  N8_8 
REMARK    2  A    between atoms: N8_8  and  C9_9 
REMARK    3  A    between atoms: C9_9  and  C10_10 
REMARK    4  A    between atoms: C10_10  and  C11_11 
REMARK    5  A    between atoms: C14_14  and  S15_15 
REMARK    6  A    between atoms: S15_15  and  N18_18 
REMARK    7  A    between atoms: C19_19  and  O20_20 
REMARK    8  A    between atoms: C19_19  and  N21_21 
REMARK    9  A    between atoms: N21_21  and  C22_22 
ROOT
ATOM      1  C11 ZIN A   1      17.932  -0.037  16.281  0.00  0.00    -0.057 A 
ATOM      2  C12 ZIN A   1      17.324   0.608  15.220  0.00  0.00     0.009 A 
ATOM      3  C13 ZIN A   1      17.486   0.127  13.935  0.00  0.00     0.026 A 
ATOM      4  C14 ZIN A   1      18.256  -0.998  13.709  0.00  0.00     0.081 A 
ATOM      5  C28 ZIN A   1      18.865  -1.643  14.770  0.00  0.00     0.026 A 
ATOM      6  C29 ZIN A   1      18.706  -1.160  16.055  0.00  0.00     0.009 A 
ENDROOT
BRANCH   4   7
ATOM      7  S15 ZIN A   1      18.462  -1.611  12.070  0.00  0.00     0.286 S 
ATOM      8  O16 ZIN A   1      19.673  -2.353  12.069  0.00  0.00    -0.198 OA
ATOM      9  O17 ZIN A   1      17.211  -2.164  11.688  0.00  0.00    -0.198 OA
BRANCH   7  10
ATOM     10  N18 ZIN A   1      18.715  -0.303  11.086  0.00  0.00    -0.117 NA
ATOM     11  C19 ZIN A   1      19.825   0.371  11.171  0.00  0.00     0.251 C 
BRANCH  11  12
ATOM     12  O20 ZIN A   1      20.771   0.003  12.062  0.00  0.00    -0.331 OA
ATOM     13  H43 ZIN A   1      20.927  -0.951  12.098  0.00  0.00     0.221 HD
ENDBRANCH  11  12
BRANCH  11  14
ATOM     14  N21 ZIN A   1      20.034   1.455  10.355  0.00  0.00    -0.350 N 
ATOM     15  H44 ZIN A   1      20.530   1.351   9.528  0.00  0.00     0.163 HD
BRANCH  14  16
ATOM     16  C22 ZIN A   1      19.506   2.768  10.733  0.00  0.00     0.085 C 
ATOM     17  C27 ZIN A   1      19.381   2.849  12.256  0.00  0.00     0.025 C 
ATOM     18  C26 ZIN A   1      18.828   4.220  12.650  0.00  0.00     0.002 C 
ATOM     19  C25 ZIN A   1      17.451   4.418  12.014  0.00  0.00     0.000 C 
ATOM     20  C24 ZIN A   1      17.575   4.337  10.492  0.00  0.00     0.002 C 
ATOM     21  C23 ZIN A   1      18.128   2.965  10.096  0.00  0.00     0.025 C 
ENDBRANCH  14  16
ENDBRANCH  11  14
ENDBRANCH   7  10
ENDBRANCH   4   7
BRANCH   1  22
ATOM     22  C10 ZIN A   1      17.755   0.486  17.683  0.00  0.00     0.058 C 
BRANCH  22  23
ATOM     23  C9  ZIN A   1      18.762   1.610  17.938  0.00  0.00     0.127 C 
BRANCH  23  24
ATOM     24  N8  ZIN A   1      18.241   2.864  17.388  0.00  0.00    -0.355 N 
ATOM     25  C6  ZIN A   1      19.084   3.760  16.837  0.00  0.00     0.271 C 
ATOM     26  O7  ZIN A   1      20.276   3.526  16.796  0.00  0.00    -0.266 OA
ATOM     27  H36 ZIN A   1      17.290   3.051  17.421  0.00  0.00     0.162 HD
BRANCH  25  28
ATOM     28  C5  ZIN A   1      18.559   5.029  16.281  0.00  0.00     0.141 A 
ATOM     29  N4  ZIN A   1      17.321   5.081  15.796  0.00  0.00    -0.252 NA
ATOM     30  C3  ZIN A   1      16.857   6.211  15.301  0.00  0.00     0.144 A 
ATOM     31  C2  ZIN A   1      17.655   7.345  15.286  0.00  0.00     0.048 A 
ATOM     32  C1  ZIN A   1      17.119   8.635  14.719  0.00  0.00     0.072 C 
ATOM     33  N31 ZIN A   1      18.887   7.297  15.763  0.00  0.00    -0.262 NA
ATOM     34  C30 ZIN A   1      19.359   6.170  16.265  0.00  0.00     0.154 A 
ENDBRANCH  25  28
ENDBRANCH  23  24
ENDBRANCH  22  23
ENDBRANCH   1  22
TORSDOF 9
ENDMDL
MODEL 5
REMARK VINA RESULT:      -8.9      2.484      7.922
REMARK  9 active torsions:
REMARK  status: ('A' for Active; 'I' for Inactive)
REMARK    1  A    between atoms: C5_5  and  C6_6 
REMARK       I    between atoms: C6_6  and  N8_8 
REMARK    2  A    between atoms: N8_8  and  C9_9 
REMARK    3  A    between atoms: C9_9  and  C10_10 
REMARK    4  A    between atoms: C10_10  and  C11_11 
REMARK    5  A    between atoms: C14_14  and  S15_15 
REMARK    6  A    between atoms: S15_15  and  N18_18 
REMARK    7  A    between atoms: C19_19  and  O20_20 
REMARK    8  A    between atoms: C19_19  and  N21_21 
REMARK    9  A    between atoms: N21_21  and  C22_22 
ROOT
ATOM      1  C11 ZIN A   1      18.561   1.348   8.345  0.00  0.00    -0.057 A 
ATOM      2  C12 ZIN A   1      17.771   0.227   8.519  0.00  0.00     0.009 A 
ATOM      3  C13 ZIN A   1      17.710  -0.735   7.528  0.00  0.00     0.026 A 
ATOM      4  C14 ZIN A   1      18.439  -0.578   6.364  0.00  0.00     0.081 A 
ATOM      5  C28 ZIN A   1      19.229   0.544   6.191  0.00  0.00     0.026 A 
ATOM      6  C29 ZIN A   1      19.287   1.508   7.180  0.00  0.00     0.009 A 
ENDROOT
BRANCH   4   7
ATOM      7  S15 ZIN A   1      18.361  -1.805   5.103  0.00  0.00     0.286 S 
ATOM      8  O16 ZIN A   1      17.176  -1.545   4.364  0.00  0.00    -0.198 OA
ATOM      9  O17 ZIN A   1      19.652  -1.855   4.511  0.00  0.00    -0.198 OA
BRANCH   7  10
ATOM     10  N18 ZIN A   1      18.134  -3.265   5.852  0.00  0.00    -0.117 NA
ATOM     11  C19 ZIN A   1      19.089  -3.784   6.568  0.00  0.00     0.251 C 
BRANCH  11  12
ATOM     12  O20 ZIN A   1      20.265  -3.132   6.700  0.00  0.00    -0.331 OA
ATOM     13  H43 ZIN A   1      20.859  -3.522   7.355  0.00  0.00     0.221 HD
ENDBRANCH  11  12
BRANCH  11  14
ATOM     14  N21 ZIN A   1      18.901  -4.994   7.189  0.00  0.00    -0.350 N 
ATOM     15  H44 ZIN A   1      18.981  -5.817   6.682  0.00  0.00     0.163 HD
BRANCH  14  16
ATOM     16  C22 ZIN A   1      18.579  -5.041   8.618  0.00  0.00     0.085 C 
ATOM     17  C27 ZIN A   1      17.659  -6.233   8.894  0.00  0.00     0.025 C 
ATOM     18  C26 ZIN A   1      17.322  -6.281  10.385  0.00  0.00     0.002 C 
ATOM     19  C25 ZIN A   1      16.616  -4.986  10.792  0.00  0.00     0.000 C 
ATOM     20  C24 ZIN A   1      17.534  -3.795  10.515  0.00  0.00     0.002 C 
ATOM     21  C23 ZIN A   1      17.872  -3.746   9.023  0.00  0.00     0.025 C 
ENDBRANCH  14  16
ENDBRANCH  11  14
ENDBRANCH   7  10
ENDBRANCH   4   7
BRANCH   1  22
ATOM     22  C10 ZIN A   1      18.629   2.397   9.425  0.00  0.00     0.058 C 
BRANCH  22  23
ATOM     23  C9  ZIN A   1      17.467   2.199  10.400  0.00  0.00     0.127 C 
BRANCH  23  24
ATOM     24  N8  ZIN A   1      17.974   1.637  11.654  0.00  0.00    -0.355 N 
ATOM     25  C6  ZIN A   1      17.306   0.635  12.263  0.00  0.00     0.271 C 
ATOM     26  O7  ZIN A   1      16.284   0.201  11.770  0.00  0.00    -0.266 OA
ATOM     27  H36 ZIN A   1      18.790   1.983  12.048  0.00  0.00     0.162 HD
BRANCH  25  28
ATOM     28  C5  ZIN A   1      17.818   0.066  13.531  0.00  0.00     0.141 A 
ATOM     29  N4  ZIN A   1      17.432   0.580  14.696  0.00  0.00    -0.252 NA
ATOM     30  C3  ZIN A   1      17.891   0.070  15.822  0.00  0.00     0.144 A 
ATOM     31  C2  ZIN A   1      18.773  -0.999  15.795  0.00  0.00     0.048 A 
ATOM     32  C1  ZIN A   1      19.294  -1.576  17.086  0.00  0.00     0.072 C 
ATOM     33  N31 ZIN A   1      19.164  -1.510  14.640  0.00  0.00    -0.262 NA
ATOM     34  C30 ZIN A   1      18.706  -1.009  13.506  0.00  0.00     0.154 A 
ENDBRANCH  25  28
ENDBRANCH  23  24
ENDBRANCH  22  23
ENDBRANCH   1  22
TORSDOF 9
ENDMDL
MODEL 6
REMARK VINA RESULT:      -8.8      2.333      9.016
REMARK  9 active torsions:
REMARK  status: ('A' for Active; 'I' for Inactive)
REMARK    1  A    between atoms: C5_5  and  C6_6 
REMARK       I    between atoms: C6_6  and  N8_8 
REMARK    2  A    between atoms: N8_8  and  C9_9 
REMARK    3  A    between atoms: C9_9  and  C10_10 
REMARK    4  A    between atoms: C10_10  and  C11_11 
REMARK    5  A    between atoms: C14_14  and  S15_15 
REMARK    6  A    between atoms: S15_15  and  N18_18 
REMARK    7  A    between atoms: C19_19  and  O20_20 
REMARK    8  A    between atoms: C19_19  and  N21_21 
REMARK    9  A    between atoms: N21_21  and  C22_22 
ROOT
ATOM      1  C11 ZIN A   1      18.330   1.415   8.896  0.00  0.00    -0.057 A 
ATOM      2  C12 ZIN A   1      17.637   0.219   8.846  0.00  0.00     0.009 A 
ATOM      3  C13 ZIN A   1      17.721  -0.581   7.722  0.00  0.00     0.026 A 
ATOM      4  C14 ZIN A   1      18.498  -0.187   6.648  0.00  0.00     0.081 A 
ATOM      5  C28 ZIN A   1      19.190   1.009   6.699  0.00  0.00     0.026 A 
ATOM      6  C29 ZIN A   1      19.103   1.811   7.821  0.00  0.00     0.009 A 
ENDROOT
BRANCH   4   7
ATOM      7  S15 ZIN A   1      18.605  -1.207   5.216  0.00  0.00     0.286 S 
ATOM      8  O16 ZIN A   1      17.461  -0.913   4.428  0.00  0.00    -0.198 OA
ATOM      9  O17 ZIN A   1      19.935  -1.084   4.734  0.00  0.00    -0.198 OA
BRANCH   7  10
ATOM     10  N18 ZIN A   1      18.435  -2.777   5.719  0.00  0.00    -0.117 NA
ATOM     11  C19 ZIN A   1      18.544  -3.750   4.862  0.00  0.00     0.251 C 
BRANCH  11  12
ATOM     12  O20 ZIN A   1      18.796  -3.480   3.563  0.00  0.00    -0.331 OA
ATOM     13  H43 ZIN A   1      18.828  -2.535   3.356  0.00  0.00     0.221 HD
ENDBRANCH  11  12
BRANCH  11  14
ATOM     14  N21 ZIN A   1      18.403  -5.051   5.279  0.00  0.00    -0.350 N 
ATOM     15  H44 ZIN A   1      18.731  -5.776   4.724  0.00  0.00     0.163 HD
BRANCH  14  16
ATOM     16  C22 ZIN A   1      17.759  -5.342   6.562  0.00  0.00     0.085 C 
ATOM     17  C27 ZIN A   1      18.723  -6.135   7.448  0.00  0.00     0.025 C 
ATOM     18  C26 ZIN A   1      18.049  -6.440   8.787  0.00  0.00     0.002 C 
ATOM     19  C25 ZIN A   1      16.783  -7.264   8.546  0.00  0.00     0.000 C 
ATOM     20  C24 ZIN A   1      15.820  -6.473   7.661  0.00  0.00     0.002 C 
ATOM     21  C23 ZIN A   1      16.493  -6.167   6.320  0.00  0.00     0.025 C 
ENDBRANCH  14  16
ENDBRANCH  11  14
ENDBRANCH   7  10
ENDBRANCH   4   7
BRANCH   1  22
ATOM     22  C10 ZIN A   1      18.240   2.288  10.121  0.00  0.00     0.058 C 
BRANCH  22  23
ATOM     23  C9  ZIN A   1      19.581   2.270  10.858  0.00  0.00     0.127 C 
BRANCH  23  24
ATOM     24  N8  ZIN A   1      19.349   2.033  12.285  0.00  0.00    -0.355 N 
ATOM     25  C6  ZIN A   1      19.529   0.800  12.801  0.00  0.00     0.271 C 
ATOM     26  O7  ZIN A   1      19.882  -0.113  12.082  0.00  0.00    -0.266 OA
ATOM     27  H36 ZIN A   1      19.067   2.761  12.860  0.00  0.00     0.162 HD
BRANCH  25  28
ATOM     28  C5  ZIN A   1      19.295   0.559  14.244  0.00  0.00     0.141 A 
ATOM     29  N4  ZIN A   1      19.197  -0.685  14.704  0.00  0.00    -0.252 NA
ATOM     30  C3  ZIN A   1      18.988  -0.896  15.989  0.00  0.00     0.144 A 
ATOM     31  C2  ZIN A   1      18.872   0.177  16.861  0.00  0.00     0.048 A 
ATOM     32  C1  ZIN A   1      18.633  -0.071  18.328  0.00  0.00     0.072 C 
ATOM     33  N31 ZIN A   1      18.965   1.415  16.407  0.00  0.00    -0.262 NA
ATOM     34  C30 ZIN A   1      19.178   1.635  15.123  0.00  0.00     0.154 A 
ENDBRANCH  25  28
ENDBRANCH  23  24
ENDBRANCH  22  23
ENDBRANCH   1  22
TORSDOF 9
ENDMDL
MODEL 7
REMARK VINA RESULT:      -8.7      3.270      3.691
REMARK  9 active torsions:
REMARK  status: ('A' for Active; 'I' for Inactive)
REMARK    1  A    between atoms: C5_5  and  C6_6 
REMARK       I    between atoms: C6_6  and  N8_8 
REMARK    2  A    between atoms: N8_8  and  C9_9 
REMARK    3  A    between atoms: C9_9  and  C10_10 
REMARK    4  A    between atoms: C10_10  and  C11_11 
REMARK    5  A    between atoms: C14_14  and  S15_15 
REMARK    6  A    between atoms: S15_15  and  N18_18 
REMARK    7  A    between atoms: C19_19  and  O20_20 
REMARK    8  A    between atoms: C19_19  and  N21_21 
REMARK    9  A    between atoms: N21_21  and  C22_22 
ROOT
ATOM      1  C11 ZIN A   1      18.811   2.896   9.930  0.00  0.00    -0.057 A 
ATOM      2  C12 ZIN A   1      19.882   2.703  10.783  0.00  0.00     0.009 A 
ATOM      3  C13 ZIN A   1      19.974   3.433  11.953  0.00  0.00     0.026 A 
ATOM      4  C14 ZIN A   1      18.995   4.357  12.271  0.00  0.00     0.081 A 
ATOM      5  C28 ZIN A   1      17.925   4.550  11.417  0.00  0.00     0.026 A 
ATOM      6  C29 ZIN A   1      17.835   3.823  10.245  0.00  0.00     0.009 A 
ENDROOT
BRANCH   4   7
ATOM      7  S15 ZIN A   1      19.112   5.287  13.762  0.00  0.00     0.286 S 
ATOM      8  O16 ZIN A   1      20.376   5.935  13.733  0.00  0.00    -0.198 OA
ATOM      9  O17 ZIN A   1      17.883   5.986  13.897  0.00  0.00    -0.198 OA
BRANCH   7  10
ATOM     10  N18 ZIN A   1      19.172   4.203  15.013  0.00  0.00    -0.117 NA
ATOM     11  C19 ZIN A   1      18.155   3.426  15.250  0.00  0.00     0.251 C 
BRANCH  11  12
ATOM     12  O20 ZIN A   1      17.051   3.504  14.475  0.00  0.00    -0.331 OA
ATOM     13  H43 ZIN A   1      16.229   3.288  14.937  0.00  0.00     0.221 HD
ENDBRANCH  11  12
BRANCH  11  14
ATOM     14  N21 ZIN A   1      18.204   2.527  16.286  0.00  0.00    -0.350 N 
ATOM     15  H44 ZIN A   1      18.410   2.832  17.183  0.00  0.00     0.163 HD
BRANCH  14  16
ATOM     16  C22 ZIN A   1      17.946   1.107  16.036  0.00  0.00     0.085 C 
ATOM     17  C27 ZIN A   1      17.819   0.369  17.371  0.00  0.00     0.025 C 
ATOM     18  C26 ZIN A   1      17.551  -1.114  17.110  0.00  0.00     0.002 C 
ATOM     19  C25 ZIN A   1      18.708  -1.709  16.306  0.00  0.00     0.000 C 
ATOM     20  C24 ZIN A   1      18.836  -0.972  14.972  0.00  0.00     0.002 C 
ATOM     21  C23 ZIN A   1      19.105   0.512  15.233  0.00  0.00     0.025 C 
ENDBRANCH  14  16
ENDBRANCH  11  14
ENDBRANCH   7  10
ENDBRANCH   4   7
BRANCH   1  22
ATOM     22  C10 ZIN A   1      18.710   2.100   8.655  0.00  0.00     0.058 C 
BRANCH  22  23
ATOM     23  C9  ZIN A   1      19.763   0.991   8.663  0.00  0.00     0.127 C 
BRANCH  23  24
ATOM     24  N8  ZIN A   1      19.161  -0.250   9.158  0.00  0.00    -0.355 N 
ATOM     25  C6  ZIN A   1      19.748  -0.929  10.164  0.00  0.00     0.271 C 
ATOM     26  O7  ZIN A   1      20.776  -0.511  10.660  0.00  0.00    -0.266 OA
ATOM     27  H36 ZIN A   1      18.341  -0.584   8.762  0.00  0.00     0.162 HD
BRANCH  25  28
ATOM     28  C5  ZIN A   1      19.140  -2.184  10.665  0.00  0.00     0.141 A 
ATOM     29  N4  ZIN A   1      19.875  -3.289  10.761  0.00  0.00    -0.252 NA
ATOM     30  C3  ZIN A   1      19.330  -4.403  11.207  0.00  0.00     0.144 A 
ATOM     31  C2  ZIN A   1      17.993  -4.426  11.577  0.00  0.00     0.048 A 
ATOM     32  C1  ZIN A   1      17.376  -5.703  12.085  0.00  0.00     0.072 C 
ATOM     33  N31 ZIN A   1      17.258  -3.332  11.479  0.00  0.00    -0.262 NA
ATOM     34  C30 ZIN A   1      17.797  -2.209  11.038  0.00  0.00     0.154 A 
ENDBRANCH  25  28
ENDBRANCH  23  24
ENDBRANCH  22  23
ENDBRANCH   1  22
TORSDOF 9
ENDMDL
MODEL 8
REMARK VINA RESULT:      -8.6      3.931      5.530
REMARK  9 active torsions:
REMARK  status: ('A' for Active; 'I' for Inactive)
REMARK    1  A    between atoms: C5_5  and  C6_6 
REMARK       I    between atoms: C6_6  and  N8_8 
REMARK    2  A    between atoms: N8_8  and  C9_9 
REMARK    3  A    between atoms: C9_9  and  C10_10 
REMARK    4  A    between atoms: C10_10  and  C11_11 
REMARK    5  A    between atoms: C14_14  and  S15_15 
REMARK    6  A    between atoms: S15_15  and  N18_18 
REMARK    7  A    between atoms: C19_19  and  O20_20 
REMARK    8  A    between atoms: C19_19  and  N21_21 
REMARK    9  A    between atoms: N21_21  and  C22_22 
ROOT
ATOM      1  C11 ZIN A   1      17.710   5.130  12.138  0.00  0.00    -0.057 A 
ATOM      2  C12 ZIN A   1      19.039   4.761  12.235  0.00  0.00     0.009 A 
ATOM      3  C13 ZIN A   1      19.715   4.923  13.430  0.00  0.00     0.026 A 
ATOM      4  C14 ZIN A   1      19.064   5.454  14.528  0.00  0.00     0.081 A 
ATOM      5  C28 ZIN A   1      17.735   5.823  14.430  0.00  0.00     0.026 A 
ATOM      6  C29 ZIN A   1      17.060   5.665  13.234  0.00  0.00     0.009 A 
ENDROOT
BRANCH   4   7
ATOM      7  S15 ZIN A   1      19.925   5.659  16.050  0.00  0.00     0.286 S 
ATOM      8  O16 ZIN A   1      21.231   6.108  15.714  0.00  0.00    -0.198 OA
ATOM      9  O17 ZIN A   1      19.053   6.378  16.911  0.00  0.00    -0.198 OA
BRANCH   7  10
ATOM     10  N18 ZIN A   1      20.106   4.155  16.718  0.00  0.00    -0.117 NA
ATOM     11  C19 ZIN A   1      19.082   3.551  17.249  0.00  0.00     0.251 C 
BRANCH  11  12
ATOM     12  O20 ZIN A   1      17.873   4.152  17.253  0.00  0.00    -0.331 OA
ATOM     13  H43 ZIN A   1      17.127   3.535  17.266  0.00  0.00     0.221 HD
ENDBRANCH  11  12
BRANCH  11  14
ATOM     14  N21 ZIN A   1      19.232   2.304  17.803  0.00  0.00    -0.350 N 
ATOM     15  H44 ZIN A   1      19.745   2.194  18.619  0.00  0.00     0.163 HD
BRANCH  14  16
ATOM     16  C22 ZIN A   1      18.617   1.139  17.161  0.00  0.00     0.085 C 
ATOM     17  C27 ZIN A   1      19.312  -0.136  17.644  0.00  0.00     0.025 C 
ATOM     18  C26 ZIN A   1      18.670  -1.351  16.973  0.00  0.00     0.002 C 
ATOM     19  C25 ZIN A   1      18.818  -1.234  15.455  0.00  0.00     0.000 C 
ATOM     20  C24 ZIN A   1      18.124   0.040  14.971  0.00  0.00     0.002 C 
ATOM     21  C23 ZIN A   1      18.766   1.257  15.642  0.00  0.00     0.025 C 
ENDBRANCH  14  16
ENDBRANCH  11  14
ENDBRANCH   7  10
ENDBRANCH   4   7
BRANCH   1  22
ATOM     22  C10 ZIN A   1      16.972   4.953  10.836  0.00  0.00     0.058 C 
BRANCH  22  23
ATOM     23  C9  ZIN A   1      17.767   4.016   9.924  0.00  0.00     0.127 C 
BRANCH  23  24
ATOM     24  N8  ZIN A   1      17.546   2.628  10.340  0.00  0.00    -0.355 N 
ATOM     25  C6  ZIN A   1      18.517   1.709  10.165  0.00  0.00     0.271 C 
ATOM     26  O7  ZIN A   1      19.576   2.033   9.663  0.00  0.00    -0.266 OA
ATOM     27  H36 ZIN A   1      16.702   2.369  10.741  0.00  0.00     0.162 HD
BRANCH  25  28
ATOM     28  C5  ZIN A   1      18.295   0.306  10.585  0.00  0.00     0.141 A 
ATOM     29  N4  ZIN A   1      19.156  -0.642  10.224  0.00  0.00    -0.252 NA
ATOM     30  C3  ZIN A   1      18.955  -1.889  10.600  0.00  0.00     0.144 A 
ATOM     31  C2  ZIN A   1      17.848  -2.215  11.370  0.00  0.00     0.048 A 
ATOM     32  C1  ZIN A   1      17.623  -3.643  11.796  0.00  0.00     0.072 C 
ATOM     33  N31 ZIN A   1      16.988  -1.277  11.727  0.00  0.00    -0.262 NA
ATOM     34  C30 ZIN A   1      17.184  -0.024  11.360  0.00  0.00     0.154 A 
ENDBRANCH  25  28
ENDBRANCH  23  24
ENDBRANCH  22  23
ENDBRANCH   1  22
TORSDOF 9
ENDMDL
MODEL 9
REMARK VINA RESULT:      -8.6      2.118      9.128
REMARK  9 active torsions:
REMARK  status: ('A' for Active; 'I' for Inactive)
REMARK    1  A    between atoms: C5_5  and  C6_6 
REMARK       I    between atoms: C6_6  and  N8_8 
REMARK    2  A    between atoms: N8_8  and  C9_9 
REMARK    3  A    between atoms: C9_9  and  C10_10 
REMARK    4  A    between atoms: C10_10  and  C11_11 
REMARK    5  A    between atoms: C14_14  and  S15_15 
REMARK    6  A    between atoms: S15_15  and  N18_18 
REMARK    7  A    between atoms: C19_19  and  O20_20 
REMARK    8  A    between atoms: C19_19  and  N21_21 
REMARK    9  A    between atoms: N21_21  and  C22_22 
ROOT
ATOM      1  C11 ZIN A   1      19.034   1.608   8.873  0.00  0.00    -0.057 A 
ATOM      2  C12 ZIN A   1      18.805   1.966   7.558  0.00  0.00     0.009 A 
ATOM      3  C13 ZIN A   1      18.771   0.996   6.574  0.00  0.00     0.026 A 
ATOM      4  C14 ZIN A   1      18.966  -0.332   6.904  0.00  0.00     0.081 A 
ATOM      5  C28 ZIN A   1      19.196  -0.690   8.220  0.00  0.00     0.026 A 
ATOM      6  C29 ZIN A   1      19.234   0.281   9.204  0.00  0.00     0.009 A 
ENDROOT
BRANCH   4   7
ATOM      7  S15 ZIN A   1      18.921  -1.568   5.650  0.00  0.00     0.286 S 
ATOM      8  O16 ZIN A   1      17.566  -1.672   5.237  0.00  0.00    -0.198 OA
ATOM      9  O17 ZIN A   1      19.986  -1.272   4.757  0.00  0.00    -0.198 OA
BRANCH   7  10
ATOM     10  N18 ZIN A   1      19.303  -3.011   6.370  0.00  0.00    -0.117 NA
ATOM     11  C19 ZIN A   1      19.146  -4.125   5.716  0.00  0.00     0.251 C 
BRANCH  11  12
ATOM     12  O20 ZIN A   1      18.673  -4.105   4.451  0.00  0.00    -0.331 OA
ATOM     13  H43 ZIN A   1      18.649  -3.223   4.054  0.00  0.00     0.221 HD
ENDBRANCH  11  12
BRANCH  11  14
ATOM     14  N21 ZIN A   1      19.463  -5.321   6.312  0.00  0.00    -0.350 N 
ATOM     15  H44 ZIN A   1      20.315  -5.745   6.127  0.00  0.00     0.163 HD
BRANCH  14  16
ATOM     16  C22 ZIN A   1      18.513  -5.955   7.230  0.00  0.00     0.085 C 
ATOM     17  C27 ZIN A   1      17.087  -5.550   6.848  0.00  0.00     0.025 C 
ATOM     18  C26 ZIN A   1      16.096  -6.211   7.808  0.00  0.00     0.002 C 
ATOM     19  C25 ZIN A   1      16.389  -5.757   9.239  0.00  0.00     0.000 C 
ATOM     20  C24 ZIN A   1      17.814  -6.162   9.620  0.00  0.00     0.002 C 
ATOM     21  C23 ZIN A   1      18.807  -5.500   8.662  0.00  0.00     0.025 C 
ENDBRANCH  14  16
ENDBRANCH  11  14
ENDBRANCH   7  10
ENDBRANCH   4   7
BRANCH   1  22
ATOM     22  C10 ZIN A   1      19.071   2.665   9.947  0.00  0.00     0.058 C 
BRANCH  22  23
ATOM     23  C9  ZIN A   1      17.774   2.613  10.757  0.00  0.00     0.127 C 
BRANCH  23  24
ATOM     24  N8  ZIN A   1      18.040   2.007  12.064  0.00  0.00    -0.355 N 
ATOM     25  C6  ZIN A   1      18.016   2.768  13.177  0.00  0.00     0.271 C 
ATOM     26  O7  ZIN A   1      17.773   3.956  13.095  0.00  0.00    -0.266 OA
ATOM     27  H36 ZIN A   1      18.234   1.059  12.131  0.00  0.00     0.162 HD
BRANCH  25  28
ATOM     28  C5  ZIN A   1      18.284   2.157  14.500  0.00  0.00     0.141 A 
ATOM     29  N4  ZIN A   1      17.787   0.958  14.793  0.00  0.00    -0.252 NA
ATOM     30  C3  ZIN A   1      18.028   0.418  15.971  0.00  0.00     0.144 A 
ATOM     31  C2  ZIN A   1      18.798   1.095  16.904  0.00  0.00     0.048 A 
ATOM     32  C1  ZIN A   1      19.069   0.472  18.249  0.00  0.00     0.072 C 
ATOM     33  N31 ZIN A   1      19.290   2.289  16.619  0.00  0.00    -0.262 NA
ATOM     34  C30 ZIN A   1      19.059   2.836  15.439  0.00  0.00     0.154 A 
ENDBRANCH  25  28
ENDBRANCH  23  24
ENDBRANCH  22  23
ENDBRANCH   1  22
TORSDOF 9
ENDMDL
