MODEL 1
REMARK VINA RESULT:      -7.2      0.000      0.000
REMARK  2 active torsions:
REMARK  status: ('A' for Active; 'I' for Inactive)
REMARK    1  A    between atoms: C8_8  and  N9_9 
REMARK       I    between atoms: N9_9  and  C10_10 
REMARK    2  A    between atoms: C10_10  and  C12_12 
ROOT
ATOM      1  N9  <0> d   1      18.635   0.620  11.841  0.00  0.00    -0.324 N 
ATOM      2  C10 <0> d   1      19.679   0.611  12.692  0.00  0.00     0.255 C 
ATOM      3  O11 <0> d   1      20.794   0.864  12.287  0.00  0.00    -0.271 OA
ATOM      4  H29 <0> d   1      17.733   0.494  12.179  0.00  0.00     0.169 HD
ENDROOT
BRANCH   1   5
ATOM      5  C8  <0> d   1      18.849   0.810  10.472  0.00  0.00     0.046 A 
ATOM      6  C2  <0> d   1      18.779   2.087   9.928  0.00  0.00    -0.035 A 
ATOM      7  C1  <0> d   1      18.477   3.269  10.813  0.00  0.00     0.050 C 
ATOM      8  C3  <0> d   1      18.992   2.272   8.576  0.00  0.00     0.009 A 
ATOM      9  C4  <0> d   1      19.268   1.187   7.763  0.00  0.00     0.001 A 
ATOM     10  C5  <0> d   1      19.333  -0.085   8.301  0.00  0.00     0.009 A 
ATOM     11  C6  <0> d   1      19.121  -0.277   9.652  0.00  0.00    -0.035 A 
ATOM     12  C7  <0> d   1      19.193  -1.663  10.238  0.00  0.00     0.050 C 
ENDBRANCH   1   5
BRANCH   2  13
ATOM     13  C12 <0> d   1      19.463   0.289  14.149  0.00  0.00     0.314 C 
ATOM     14  N18 <0> d   1      18.449   1.193  14.704  0.00  0.00     0.098 N 
ATOM     15  C17 <0> d   1      18.237   0.939  16.136  0.00  0.00     0.273 C 
ATOM     16  C19 <0> d   1      18.807   2.598  14.466  0.00  0.00     0.310 C 
ATOM     17  C16 <0> d   1      17.726  -0.489  16.332  0.00  0.00     0.030 C 
ATOM     18  C15 <0> d   1      18.750  -1.475  15.765  0.00  0.00     0.004 C 
ATOM     19  C14 <0> d   1      18.987  -1.159  14.285  0.00  0.00     0.046 C 
ENDBRANCH   2  13
TORSDOF 2
ENDMDL
MODEL 2
REMARK VINA RESULT:      -7.2      0.041      2.019
REMARK  2 active torsions:
REMARK  status: ('A' for Active; 'I' for Inactive)
REMARK    1  A    between atoms: C8_8  and  N9_9 
REMARK       I    between atoms: N9_9  and  C10_10 
REMARK    2  A    between atoms: C10_10  and  C12_12 
ROOT
ATOM      1  N9  <0> d   1      18.622   0.606  11.811  0.00  0.00    -0.324 N 
ATOM      2  C10 <0> d   1      19.665   0.624  12.663  0.00  0.00     0.255 C 
ATOM      3  O11 <0> d   1      20.773   0.911  12.260  0.00  0.00    -0.271 OA
ATOM      4  H29 <0> d   1      17.724   0.453  12.146  0.00  0.00     0.169 HD
ENDROOT
BRANCH   1   5
ATOM      5  C8  <0> d   1      18.832   0.810  10.443  0.00  0.00     0.046 A 
ATOM      6  C2  <0> d   1      19.128  -0.267   9.616  0.00  0.00    -0.035 A 
ATOM      7  C1  <0> d   1      19.218  -1.657  10.191  0.00  0.00     0.050 C 
ATOM      8  C3  <0> d   1      19.333  -0.062   8.266  0.00  0.00     0.009 A 
ATOM      9  C4  <0> d   1      19.252   1.214   7.738  0.00  0.00     0.001 A 
ATOM     10  C5  <0> d   1      18.963   2.288   8.559  0.00  0.00     0.009 A 
ATOM     11  C6  <0> d   1      18.756   2.090   9.910  0.00  0.00    -0.035 A 
ATOM     12  C7  <0> d   1      18.441   3.261  10.804  0.00  0.00     0.050 C 
ENDBRANCH   1   5
BRANCH   2  13
ATOM     13  C12 <0> d   1      19.457   0.288  14.118  0.00  0.00     0.314 C 
ATOM     14  N18 <0> d   1      18.434   1.176  14.683  0.00  0.00     0.098 N 
ATOM     15  C17 <0> d   1      18.230   0.909  16.113  0.00  0.00     0.273 C 
ATOM     16  C19 <0> d   1      18.775   2.587  14.455  0.00  0.00     0.310 C 
ATOM     17  C16 <0> d   1      17.735  -0.527  16.299  0.00  0.00     0.030 C 
ATOM     18  C15 <0> d   1      18.770  -1.497  15.722  0.00  0.00     0.004 C 
ATOM     19  C14 <0> d   1      18.999  -1.166  14.244  0.00  0.00     0.046 C 
ENDBRANCH   2  13
TORSDOF 2
ENDMDL
MODEL 3
REMARK VINA RESULT:      -7.0      1.707      6.298
REMARK  2 active torsions:
REMARK  status: ('A' for Active; 'I' for Inactive)
REMARK    1  A    between atoms: C8_8  and  N9_9 
REMARK       I    between atoms: N9_9  and  C10_10 
REMARK    2  A    between atoms: C10_10  and  C12_12 
ROOT
ATOM      1  N9  <0> d   1      18.672  -0.122  10.933  0.00  0.00    -0.324 N 
ATOM      2  C10 <0> d   1      19.736  -0.324  10.132  0.00  0.00     0.255 C 
ATOM      3  O11 <0> d   1      20.811  -0.617  10.613  0.00  0.00    -0.271 OA
ATOM      4  H29 <0> d   1      17.796   0.036  10.546  0.00  0.00     0.169 HD
ENDROOT
BRANCH   1   5
ATOM      5  C8  <0> d   1      18.829  -0.141  12.323  0.00  0.00     0.046 A 
ATOM      6  C2  <0> d   1      18.638  -1.323  13.029  0.00  0.00    -0.035 A 
ATOM      7  C1  <0> d   1      18.266  -2.586  12.298  0.00  0.00     0.050 C 
ATOM      8  C3  <0> d   1      18.795  -1.338  14.401  0.00  0.00     0.009 A 
ATOM      9  C4  <0> d   1      19.135  -0.178  15.073  0.00  0.00     0.001 A 
ATOM     10  C5  <0> d   1      19.321   1.001  14.374  0.00  0.00     0.009 A 
ATOM     11  C6  <0> d   1      19.165   1.023  13.001  0.00  0.00    -0.035 A 
ATOM     12  C7  <0> d   1      19.368   2.307  12.240  0.00  0.00     0.050 C 
ENDBRANCH   1   5
BRANCH   2  13
ATOM     13  C12 <0> d   1      19.592  -0.187   8.638  0.00  0.00     0.314 C 
ATOM     14  N18 <0> d   1      18.594  -1.148   8.152  0.00  0.00     0.098 N 
ATOM     15  C17 <0> d   1      18.454  -1.076   6.692  0.00  0.00     0.273 C 
ATOM     16  C19 <0> d   1      18.925  -2.514   8.582  0.00  0.00     0.310 C 
ATOM     17  C16 <0> d   1      17.968   0.319   6.294  0.00  0.00     0.030 C 
ATOM     18  C15 <0> d   1      18.976   1.363   6.780  0.00  0.00     0.004 C 
ATOM     19  C14 <0> d   1      19.140   1.234   8.297  0.00  0.00     0.046 C 
ENDBRANCH   2  13
TORSDOF 2
ENDMDL
MODEL 4
REMARK VINA RESULT:      -6.9      1.695      5.983
REMARK  2 active torsions:
REMARK  status: ('A' for Active; 'I' for Inactive)
REMARK    1  A    between atoms: C8_8  and  N9_9 
REMARK       I    between atoms: N9_9  and  C10_10 
REMARK    2  A    between atoms: C10_10  and  C12_12 
ROOT
ATOM      1  N9  <0> d   1      18.665  -0.155  10.977  0.00  0.00    -0.324 N 
ATOM      2  C10 <0> d   1      19.736  -0.333  10.180  0.00  0.00     0.255 C 
ATOM      3  O11 <0> d   1      20.814  -0.606  10.664  0.00  0.00    -0.271 OA
ATOM      4  H29 <0> d   1      17.787  -0.014  10.586  0.00  0.00     0.169 HD
ENDROOT
BRANCH   1   5
ATOM      5  C8  <0> d   1      18.816  -0.175  12.367  0.00  0.00     0.046 A 
ATOM      6  C2  <0> d   1      19.158   0.988  13.047  0.00  0.00    -0.035 A 
ATOM      7  C1  <0> d   1      19.363   2.273  12.286  0.00  0.00     0.050 C 
ATOM      8  C3  <0> d   1      19.305   0.965  14.419  0.00  0.00     0.009 A 
ATOM      9  C4  <0> d   1      19.119  -0.214  15.117  0.00  0.00     0.001 A 
ATOM     10  C5  <0> d   1      18.783  -1.374  14.444  0.00  0.00     0.009 A 
ATOM     11  C6  <0> d   1      18.634  -1.358  13.071  0.00  0.00    -0.035 A 
ATOM     12  C7  <0> d   1      18.268  -2.622  12.337  0.00  0.00     0.050 C 
ENDBRANCH   1   5
BRANCH   2  13
ATOM     13  C12 <0> d   1      19.596  -0.195   8.685  0.00  0.00     0.314 C 
ATOM     14  N18 <0> d   1      18.601  -1.157   8.196  0.00  0.00     0.098 N 
ATOM     15  C17 <0> d   1      18.464  -1.084   6.735  0.00  0.00     0.273 C 
ATOM     16  C19 <0> d   1      18.933  -2.523   8.625  0.00  0.00     0.310 C 
ATOM     17  C16 <0> d   1      17.978   0.311   6.337  0.00  0.00     0.030 C 
ATOM     18  C15 <0> d   1      18.983   1.356   6.827  0.00  0.00     0.004 C 
ATOM     19  C14 <0> d   1      19.143   1.226   8.345  0.00  0.00     0.046 C 
ENDBRANCH   2  13
TORSDOF 2
ENDMDL
MODEL 5
REMARK VINA RESULT:      -6.9      3.419      5.829
REMARK  2 active torsions:
REMARK  status: ('A' for Active; 'I' for Inactive)
REMARK    1  A    between atoms: C8_8  and  N9_9 
REMARK       I    between atoms: N9_9  and  C10_10 
REMARK    2  A    between atoms: C10_10  and  C12_12 
ROOT
ATOM      1  N9  <0> d   1      17.533  -1.081   8.866  0.00  0.00    -0.324 N 
ATOM      2  C10 <0> d   1      18.365  -2.090   9.191  0.00  0.00     0.255 C 
ATOM      3  O11 <0> d   1      19.382  -1.862   9.811  0.00  0.00    -0.271 OA
ATOM      4  H29 <0> d   1      16.683  -1.271   8.439  0.00  0.00     0.169 HD
ENDROOT
BRANCH   1   5
ATOM      5  C8  <0> d   1      17.895   0.241   9.145  0.00  0.00     0.046 A 
ATOM      6  C2  <0> d   1      17.545   0.817  10.361  0.00  0.00    -0.035 A 
ATOM      7  C1  <0> d   1      16.779   0.017  11.381  0.00  0.00     0.050 C 
ATOM      8  C3  <0> d   1      17.905   2.122  10.633  0.00  0.00     0.009 A 
ATOM      9  C4  <0> d   1      18.608   2.858   9.695  0.00  0.00     0.001 A 
ATOM     10  C5  <0> d   1      18.953   2.289   8.483  0.00  0.00     0.009 A 
ATOM     11  C6  <0> d   1      18.596   0.985   8.204  0.00  0.00    -0.035 A 
ATOM     12  C7  <0> d   1      18.973   0.366   6.884  0.00  0.00     0.050 C 
ENDBRANCH   1   5
BRANCH   2  13
ATOM     13  C12 <0> d   1      18.030  -3.503   8.785  0.00  0.00     0.314 C 
ATOM     14  N18 <0> d   1      19.143  -4.066   8.011  0.00  0.00     0.098 N 
ATOM     15  C17 <0> d   1      18.840  -5.430   7.559  0.00  0.00     0.273 C 
ATOM     16  C19 <0> d   1      19.487  -3.200   6.875  0.00  0.00     0.310 C 
ATOM     17  C16 <0> d   1      18.630  -6.336   8.774  0.00  0.00     0.030 C 
ATOM     18  C15 <0> d   1      17.476  -5.790   9.619  0.00  0.00     0.004 C 
ATOM     19  C14 <0> d   1      17.796  -4.351  10.036  0.00  0.00     0.046 C 
ENDBRANCH   2  13
TORSDOF 2
ENDMDL
MODEL 6
REMARK VINA RESULT:      -6.8      1.577      3.061
REMARK  2 active torsions:
REMARK  status: ('A' for Active; 'I' for Inactive)
REMARK    1  A    between atoms: C8_8  and  N9_9 
REMARK       I    between atoms: N9_9  and  C10_10 
REMARK    2  A    between atoms: C10_10  and  C12_12 
ROOT
ATOM      1  N9  <0> d   1      17.824   1.809  13.201  0.00  0.00    -0.324 N 
ATOM      2  C10 <0> d   1      18.765   1.305  14.023  0.00  0.00     0.255 C 
ATOM      3  O11 <0> d   1      19.836   0.952  13.576  0.00  0.00    -0.271 OA
ATOM      4  H29 <0> d   1      16.998   2.163  13.569  0.00  0.00     0.169 HD
ENDROOT
BRANCH   1   5
ATOM      5  C8  <0> d   1      18.037   1.822  11.819  0.00  0.00     0.046 A 
ATOM      6  C2  <0> d   1      17.629   0.745  11.041  0.00  0.00    -0.035 A 
ATOM      7  C1  <0> d   1      16.953  -0.437  11.686  0.00  0.00     0.050 C 
ATOM      8  C3  <0> d   1      17.840   0.762   9.677  0.00  0.00     0.009 A 
ATOM      9  C4  <0> d   1      18.461   1.847   9.085  0.00  0.00     0.001 A 
ATOM     10  C5  <0> d   1      18.873   2.918   9.856  0.00  0.00     0.009 A 
ATOM     11  C6  <0> d   1      18.665   2.907  11.222  0.00  0.00    -0.035 A 
ATOM     12  C7  <0> d   1      19.114   4.075  12.061  0.00  0.00     0.050 C 
ENDBRANCH   1   5
BRANCH   2  13
ATOM     13  C12 <0> d   1      18.489   1.182  15.500  0.00  0.00     0.314 C 
ATOM     14  N18 <0> d   1      18.903  -0.147  15.966  0.00  0.00     0.098 N 
ATOM     15  C17 <0> d   1      18.612  -0.325  17.395  0.00  0.00     0.273 C 
ATOM     16  C19 <0> d   1      18.274  -1.206  15.165  0.00  0.00     0.310 C 
ATOM     17  C16 <0> d   1      19.398   0.704  18.208  0.00  0.00     0.030 C 
ATOM     18  C15 <0> d   1      19.003   2.113  17.758  0.00  0.00     0.004 C 
ATOM     19  C14 <0> d   1      19.272   2.256  16.257  0.00  0.00     0.046 C 
ENDBRANCH   2  13
TORSDOF 2
ENDMDL
MODEL 7
REMARK VINA RESULT:      -6.8      3.320      5.739
REMARK  2 active torsions:
REMARK  status: ('A' for Active; 'I' for Inactive)
REMARK    1  A    between atoms: C8_8  and  N9_9 
REMARK       I    between atoms: N9_9  and  C10_10 
REMARK    2  A    between atoms: C10_10  and  C12_12 
ROOT
ATOM      1  N9  <0> d   1      17.532  -1.011   9.023  0.00  0.00    -0.324 N 
ATOM      2  C10 <0> d   1      18.375  -2.006   9.362  0.00  0.00     0.255 C 
ATOM      3  O11 <0> d   1      19.385  -1.758   9.986  0.00  0.00    -0.271 OA
ATOM      4  H29 <0> d   1      16.686  -1.217   8.592  0.00  0.00     0.169 HD
ENDROOT
BRANCH   1   5
ATOM      5  C8  <0> d   1      17.874   0.318   9.291  0.00  0.00     0.046 A 
ATOM      6  C2  <0> d   1      18.566   1.064   8.344  0.00  0.00    -0.035 A 
ATOM      7  C1  <0> d   1      18.944   0.442   7.025  0.00  0.00     0.050 C 
ATOM      8  C3  <0> d   1      18.901   2.376   8.612  0.00  0.00     0.009 A 
ATOM      9  C4  <0> d   1      18.554   2.947   9.824  0.00  0.00     0.001 A 
ATOM     10  C5  <0> d   1      17.870   2.206  10.770  0.00  0.00     0.009 A 
ATOM     11  C6  <0> d   1      17.532   0.893  10.508  0.00  0.00    -0.035 A 
ATOM     12  C7  <0> d   1      16.786   0.087  11.539  0.00  0.00     0.050 C 
ENDBRANCH   1   5
BRANCH   2  13
ATOM     13  C12 <0> d   1      18.062  -3.427   8.968  0.00  0.00     0.314 C 
ATOM     14  N18 <0> d   1      19.173  -3.970   8.176  0.00  0.00     0.098 N 
ATOM     15  C17 <0> d   1      18.889  -5.342   7.734  0.00  0.00     0.273 C 
ATOM     16  C19 <0> d   1      19.478  -3.102   7.030  0.00  0.00     0.310 C 
ATOM     17  C16 <0> d   1      18.720  -6.247   8.956  0.00  0.00     0.030 C 
ATOM     18  C15 <0> d   1      17.571  -5.721   9.820  0.00  0.00     0.004 C 
ATOM     19  C14 <0> d   1      17.869  -4.275  10.226  0.00  0.00     0.046 C 
ENDBRANCH   2  13
TORSDOF 2
ENDMDL
MODEL 8
REMARK VINA RESULT:      -6.8      1.316      5.994
REMARK  2 active torsions:
REMARK  status: ('A' for Active; 'I' for Inactive)
REMARK    1  A    between atoms: C8_8  and  N9_9 
REMARK       I    between atoms: N9_9  and  C10_10 
REMARK    2  A    between atoms: C10_10  and  C12_12 
ROOT
ATOM      1  N9  <0> d   1      19.654   1.066  13.680  0.00  0.00    -0.324 N 
ATOM      2  C10 <0> d   1      18.783   1.097  12.652  0.00  0.00     0.255 C 
ATOM      3  O11 <0> d   1      17.601   0.910  12.852  0.00  0.00    -0.271 OA
ATOM      4  H29 <0> d   1      20.586   1.292  13.532  0.00  0.00     0.169 HD
ENDROOT
BRANCH   1   5
ATOM      5  C8  <0> d   1      19.215   0.708  14.959  0.00  0.00     0.046 A 
ATOM      6  C2  <0> d   1      18.871   1.693  15.877  0.00  0.00    -0.035 A 
ATOM      7  C1  <0> d   1      18.966   3.147  15.495  0.00  0.00     0.050 C 
ATOM      8  C3  <0> d   1      18.437   1.336  17.138  0.00  0.00     0.009 A 
ATOM      9  C4  <0> d   1      18.350   0.001  17.490  0.00  0.00     0.001 A 
ATOM     10  C5  <0> d   1      18.696  -0.981  16.580  0.00  0.00     0.009 A 
ATOM     11  C6  <0> d   1      19.131  -0.631  15.317  0.00  0.00    -0.035 A 
ATOM     12  C7  <0> d   1      19.508  -1.701  14.326  0.00  0.00     0.050 C 
ENDBRANCH   1   5
BRANCH   2  13
ATOM     13  C12 <0> d   1      19.276   1.366  11.253  0.00  0.00     0.314 C 
ATOM     14  N18 <0> d   1      19.171   0.140  10.453  0.00  0.00     0.098 N 
ATOM     15  C17 <0> d   1      19.682   0.348   9.092  0.00  0.00     0.273 C 
ATOM     16  C19 <0> d   1      19.862  -0.978  11.109  0.00  0.00     0.310 C 
ATOM     17  C16 <0> d   1      18.845   1.419   8.390  0.00  0.00     0.030 C 
ATOM     18  C15 <0> d   1      18.919   2.723   9.188  0.00  0.00     0.004 C 
ATOM     19  C14 <0> d   1      18.427   2.467  10.616  0.00  0.00     0.046 C 
ENDBRANCH   2  13
TORSDOF 2
ENDMDL
MODEL 9
REMARK VINA RESULT:      -6.7      1.564      2.419
REMARK  2 active torsions:
REMARK  status: ('A' for Active; 'I' for Inactive)
REMARK    1  A    between atoms: C8_8  and  N9_9 
REMARK       I    between atoms: N9_9  and  C10_10 
REMARK    2  A    between atoms: C10_10  and  C12_12 
ROOT
ATOM      1  N9  <0> d   1      17.782   1.771  13.156  0.00  0.00    -0.324 N 
ATOM      2  C10 <0> d   1      18.728   1.354  14.020  0.00  0.00     0.255 C 
ATOM      3  O11 <0> d   1      19.834   1.064  13.614  0.00  0.00    -0.271 OA
ATOM      4  H29 <0> d   1      16.922   2.077  13.489  0.00  0.00     0.169 HD
ENDROOT
BRANCH   1   5
ATOM      5  C8  <0> d   1      18.037   1.763  11.781  0.00  0.00     0.046 A 
ATOM      6  C2  <0> d   1      18.650   2.856  11.180  0.00  0.00    -0.035 A 
ATOM      7  C1  <0> d   1      19.045   4.049  12.012  0.00  0.00     0.050 C 
ATOM      8  C3  <0> d   1      18.901   2.845   9.823  0.00  0.00     0.009 A 
ATOM      9  C4  <0> d   1      18.538   1.750   9.060  0.00  0.00     0.001 A 
ATOM     10  C5  <0> d   1      17.922   0.663   9.653  0.00  0.00     0.009 A 
ATOM     11  C6  <0> d   1      17.668   0.668  11.011  0.00  0.00    -0.035 A 
ATOM     12  C7  <0> d   1      16.998  -0.516  11.656  0.00  0.00     0.050 C 
ENDBRANCH   1   5
BRANCH   2  13
ATOM     13  C12 <0> d   1      18.414   1.250  15.490  0.00  0.00     0.314 C 
ATOM     14  N18 <0> d   1      18.789  -0.083  15.977  0.00  0.00     0.098 N 
ATOM     15  C17 <0> d   1      18.460  -0.242  17.400  0.00  0.00     0.273 C 
ATOM     16  C19 <0> d   1      18.156  -1.136  15.171  0.00  0.00     0.310 C 
ATOM     17  C16 <0> d   1      19.248   0.778  18.223  0.00  0.00     0.030 C 
ATOM     18  C15 <0> d   1      18.894   2.191  17.752  0.00  0.00     0.004 C 
ATOM     19  C14 <0> d   1      19.201   2.314  16.257  0.00  0.00     0.046 C 
ENDBRANCH   2  13
TORSDOF 2
ENDMDL
