MODEL 1
REMARK VINA RESULT:      -8.0      0.000      0.000
REMARK  5 active torsions:
REMARK  status: ('A' for Active; 'I' for Inactive)
REMARK    1  A    between atoms: O2_2  and  C3_3 
REMARK    2  A    between atoms: C8_8  and  S9_9 
REMARK    3  A    between atoms: S9_9  and  C11_11 
REMARK    4  A    between atoms: C11_11  and  C12_12 
REMARK    5  A    between atoms: C17_17  and  O18_18 
ROOT
ATOM      1  S9  <0> d   1      17.344  -0.676  11.838  0.00  0.00     0.091 S 
ATOM      2  O10 <0> d   1      16.211   0.177  11.762  0.00  0.00    -0.249 OA
ENDROOT
BRANCH   1   3
ATOM      3  C8  <0> d   1      17.907  -0.443  13.491  0.00  0.00     0.198 A 
ATOM      4  N7  <0> d   1      18.200  -1.444  14.363  0.00  0.00    -0.331 N 
ATOM      5  C6  <0> d   1      18.605  -0.854  15.546  0.00  0.00     0.063 A 
ATOM      6  H30 <0> d   1      18.136  -2.396  14.187  0.00  0.00     0.168 HD
ATOM      7  C5  <0> d   1      19.021  -1.345  16.775  0.00  0.00     0.035 A 
ATOM      8  C23 <0> d   1      18.537   0.533  15.329  0.00  0.00     0.089 A 
ATOM      9  C4  <0> d   1      19.368  -0.471  17.782  0.00  0.00     0.039 A 
ATOM     10  C3  <0> d   1      19.303   0.904  17.575  0.00  0.00     0.070 A 
ATOM     11  C24 <0> d   1      18.886   1.409  16.359  0.00  0.00     0.070 A 
ATOM     12  N22 <0> d   1      18.104   0.714  14.055  0.00  0.00    -0.220 NA
BRANCH  10  13
ATOM     13  O2  <0> d   1      19.649   1.755  18.578  0.00  0.00    -0.356 OA
ATOM     14  C1  <0> d   1      18.951   3.001  18.641  0.00  0.00     0.210 C 
ENDBRANCH  10  13
ENDBRANCH   1   3
BRANCH   1  15
ATOM     15  C11 <0> d   1      18.694   0.021  10.845  0.00  0.00     0.177 C 
BRANCH  15  16
ATOM     16  C12 <0> d   1      18.852  -0.780   9.579  0.00  0.00     0.054 A 
ATOM     17  C20 <0> d   1      19.003  -0.125   8.373  0.00  0.00    -0.003 A 
ATOM     18  C17 <0> d   1      19.154  -0.875   7.209  0.00  0.00     0.083 A 
ATOM     19  C21 <0> d   1      19.017   1.381   8.319  0.00  0.00     0.053 C 
ATOM     20  C15 <0> d   1      19.134  -2.264   7.312  0.00  0.00    -0.011 A 
ATOM     21  C14 <0> d   1      18.972  -2.843   8.554  0.00  0.00     0.126 A 
ATOM     22  C16 <0> d   1      19.287  -3.123   6.083  0.00  0.00     0.052 C 
ATOM     23  N13 <0> d   1      18.838  -2.098   9.635  0.00  0.00    -0.263 NA
BRANCH  18  24
ATOM     24  O18 <0> d   1      19.310  -0.268   6.006  0.00  0.00    -0.355 OA
ATOM     25  C19 <0> d   1      18.122   0.035   5.273  0.00  0.00     0.210 C 
ENDBRANCH  18  24
ENDBRANCH  15  16
ENDBRANCH   1  15
TORSDOF 5
ENDMDL
MODEL 2
REMARK VINA RESULT:      -7.9      1.907      2.603
REMARK  5 active torsions:
REMARK  status: ('A' for Active; 'I' for Inactive)
REMARK    1  A    between atoms: O2_2  and  C3_3 
REMARK    2  A    between atoms: C8_8  and  S9_9 
REMARK    3  A    between atoms: S9_9  and  C11_11 
REMARK    4  A    between atoms: C11_11  and  C12_12 
REMARK    5  A    between atoms: C17_17  and  O18_18 
ROOT
ATOM      1  S9  <0> d   1      17.046   0.146  11.654  0.00  0.00     0.091 S 
ATOM      2  O10 <0> d   1      17.035   1.530  11.332  0.00  0.00    -0.249 OA
ENDROOT
BRANCH   1   3
ATOM      3  C8  <0> d   1      17.652   0.129  13.308  0.00  0.00     0.198 A 
ATOM      4  N7  <0> d   1      17.922  -0.992  14.028  0.00  0.00    -0.331 N 
ATOM      5  C6  <0> d   1      18.374  -0.585  15.269  0.00  0.00     0.063 A 
ATOM      6  H30 <0> d   1      17.817  -1.908  13.725  0.00  0.00     0.168 HD
ATOM      7  C5  <0> d   1      18.795  -1.255  16.409  0.00  0.00     0.035 A 
ATOM      8  C23 <0> d   1      18.357   0.820  15.246  0.00  0.00     0.089 A 
ATOM      9  C4  <0> d   1      19.198  -0.541  17.516  0.00  0.00     0.039 A 
ATOM     10  C3  <0> d   1      19.184   0.851  17.501  0.00  0.00     0.070 A 
ATOM     11  C24 <0> d   1      18.762   1.532  16.377  0.00  0.00     0.070 A 
ATOM     12  N22 <0> d   1      17.906   1.190  14.020  0.00  0.00    -0.220 NA
BRANCH  10  13
ATOM     13  O2  <0> d   1      19.583   1.543  18.601  0.00  0.00    -0.356 OA
ATOM     14  C1  <0> d   1      19.085   2.874  18.747  0.00  0.00     0.210 C 
ENDBRANCH  10  13
ENDBRANCH   1   3
BRANCH   1  15
ATOM     15  C11 <0> d   1      18.370  -0.679  10.727  0.00  0.00     0.177 C 
BRANCH  15  16
ATOM     16  C12 <0> d   1      17.984  -2.113  10.469  0.00  0.00     0.054 A 
ATOM     17  C20 <0> d   1      18.162  -2.650   9.211  0.00  0.00    -0.003 A 
ATOM     18  C17 <0> d   1      17.807  -3.979   8.986  0.00  0.00     0.083 A 
ATOM     19  C21 <0> d   1      18.742  -1.815   8.098  0.00  0.00     0.053 C 
ATOM     20  C15 <0> d   1      17.275  -4.708  10.045  0.00  0.00    -0.011 A 
ATOM     21  C14 <0> d   1      17.124  -4.096  11.273  0.00  0.00     0.126 A 
ATOM     22  C16 <0> d   1      16.868  -6.147   9.854  0.00  0.00     0.052 C 
ATOM     23  N13 <0> d   1      17.476  -2.836  11.449  0.00  0.00    -0.263 NA
BRANCH  18  24
ATOM     24  O18 <0> d   1      17.971  -4.544   7.763  0.00  0.00    -0.355 OA
ATOM     25  C19 <0> d   1      19.231  -5.165   7.499  0.00  0.00     0.210 C 
ENDBRANCH  18  24
ENDBRANCH  15  16
ENDBRANCH   1  15
TORSDOF 5
ENDMDL
MODEL 3
REMARK VINA RESULT:      -7.8      1.534      9.148
REMARK  5 active torsions:
REMARK  status: ('A' for Active; 'I' for Inactive)
REMARK    1  A    between atoms: O2_2  and  C3_3 
REMARK    2  A    between atoms: C8_8  and  S9_9 
REMARK    3  A    between atoms: S9_9  and  C11_11 
REMARK    4  A    between atoms: C11_11  and  C12_12 
REMARK    5  A    between atoms: C17_17  and  O18_18 
ROOT
ATOM      1  S9  <0> d   1      17.395   0.248  11.593  0.00  0.00     0.091 S 
ATOM      2  O10 <0> d   1      16.659  -0.955  11.768  0.00  0.00    -0.249 OA
ENDROOT
BRANCH   1   3
ATOM      3  C8  <0> d   1      17.917   0.152   9.913  0.00  0.00     0.198 A 
ATOM      4  N7  <0> d   1      18.094   1.219   9.090  0.00  0.00    -0.331 N 
ATOM      5  C6  <0> d   1      18.505   0.729   7.864  0.00  0.00     0.063 A 
ATOM      6  H30 <0> d   1      17.958   2.152   9.320  0.00  0.00     0.168 HD
ATOM      7  C5  <0> d   1      18.836   1.319   6.652  0.00  0.00     0.035 A 
ATOM      8  C23 <0> d   1      18.561  -0.668   8.004  0.00  0.00     0.089 A 
ATOM      9  C4  <0> d   1      19.219   0.532   5.588  0.00  0.00     0.039 A 
ATOM     10  C3  <0> d   1      19.277  -0.852   5.719  0.00  0.00     0.070 A 
ATOM     11  C24 <0> d   1      18.945  -1.455   6.917  0.00  0.00     0.070 A 
ATOM     12  N22 <0> d   1      18.189  -0.953   9.279  0.00  0.00    -0.220 NA
BRANCH  10  13
ATOM     13  O2  <0> d   1      19.656  -1.616   4.660  0.00  0.00    -0.356 OA
ATOM     14  C1  <0> d   1      18.964  -2.852   4.470  0.00  0.00     0.210 C 
ENDBRANCH  10  13
ENDBRANCH   1   3
BRANCH   1  15
ATOM     15  C11 <0> d   1      18.956   0.141  12.512  0.00  0.00     0.177 C 
BRANCH  15  16
ATOM     16  C12 <0> d   1      18.842   0.932  13.789  0.00  0.00     0.054 A 
ATOM     17  C20 <0> d   1      18.594   0.276  14.977  0.00  0.00    -0.003 A 
ATOM     18  C17 <0> d   1      18.497   1.017  16.153  0.00  0.00     0.083 A 
ATOM     19  C21 <0> d   1      18.443  -1.223  15.005  0.00  0.00     0.053 C 
ATOM     20  C15 <0> d   1      18.644   2.400  16.075  0.00  0.00    -0.011 A 
ATOM     21  C14 <0> d   1      18.885   2.981  14.847  0.00  0.00     0.126 A 
ATOM     22  C16 <0> d   1      18.541   3.249  17.316  0.00  0.00     0.052 C 
ATOM     23  N13 <0> d   1      18.975   2.245  13.756  0.00  0.00    -0.263 NA
BRANCH  18  24
ATOM     24  O18 <0> d   1      18.259   0.407  17.341  0.00  0.00    -0.355 OA
ATOM     25  C19 <0> d   1      19.398   0.039  18.121  0.00  0.00     0.210 C 
ENDBRANCH  18  24
ENDBRANCH  15  16
ENDBRANCH   1  15
TORSDOF 5
ENDMDL
MODEL 4
REMARK VINA RESULT:      -7.8      1.135      1.951
REMARK  5 active torsions:
REMARK  status: ('A' for Active; 'I' for Inactive)
REMARK    1  A    between atoms: O2_2  and  C3_3 
REMARK    2  A    between atoms: C8_8  and  S9_9 
REMARK    3  A    between atoms: S9_9  and  C11_11 
REMARK    4  A    between atoms: C11_11  and  C12_12 
REMARK    5  A    between atoms: C17_17  and  O18_18 
ROOT
ATOM      1  S9  <0> d   1      17.644   0.192  11.405  0.00  0.00     0.091 S 
ATOM      2  O10 <0> d   1      17.131   1.505  11.226  0.00  0.00    -0.249 OA
ENDROOT
BRANCH   1   3
ATOM      3  C8  <0> d   1      18.062   0.160  13.116  0.00  0.00     0.198 A 
ATOM      4  N7  <0> d   1      18.082  -0.955  13.892  0.00  0.00    -0.331 N 
ATOM      5  C6  <0> d   1      18.457  -0.565  15.164  0.00  0.00     0.063 A 
ATOM      6  H30 <0> d   1      17.872  -1.859  13.606  0.00  0.00     0.168 HD
ATOM      7  C5  <0> d   1      18.649  -1.239  16.362  0.00  0.00     0.035 A 
ATOM      8  C23 <0> d   1      18.656   0.825  15.099  0.00  0.00     0.089 A 
ATOM      9  C4  <0> d   1      19.036  -0.543  17.487  0.00  0.00     0.039 A 
ATOM     10  C3  <0> d   1      19.235   0.834  17.430  0.00  0.00     0.070 A 
ATOM     11  C24 <0> d   1      19.042   1.519  16.247  0.00  0.00     0.070 A 
ATOM     12  N22 <0> d   1      18.397   1.202  13.820  0.00  0.00    -0.220 NA
BRANCH  10  13
ATOM     13  O2  <0> d   1      19.616   1.508  18.548  0.00  0.00    -0.356 OA
ATOM     14  C1  <0> d   1      19.094   2.827  18.721  0.00  0.00     0.210 C 
ENDBRANCH  10  13
ENDBRANCH   1   3
BRANCH   1  15
ATOM     15  C11 <0> d   1      19.259   0.058  10.588  0.00  0.00     0.177 C 
BRANCH  15  16
ATOM     16  C12 <0> d   1      19.064   0.004   9.095  0.00  0.00     0.054 A 
ATOM     17  C20 <0> d   1      18.827  -1.210   8.482  0.00  0.00    -0.003 A 
ATOM     18  C17 <0> d   1      18.642  -1.246   7.102  0.00  0.00     0.083 A 
ATOM     19  C21 <0> d   1      18.757  -2.475   9.297  0.00  0.00     0.053 C 
ATOM     20  C15 <0> d   1      18.717  -0.050   6.394  0.00  0.00    -0.011 A 
ATOM     21  C14 <0> d   1      18.963   1.122   7.080  0.00  0.00     0.126 A 
ATOM     22  C16 <0> d   1      18.531  -0.035   4.898  0.00  0.00     0.052 C 
ATOM     23  N13 <0> d   1      19.128   1.117   8.389  0.00  0.00    -0.263 NA
BRANCH  18  24
ATOM     24  O18 <0> d   1      18.402  -2.420   6.464  0.00  0.00    -0.355 OA
ATOM     25  C19 <0> d   1      19.540  -3.202   6.095  0.00  0.00     0.210 C 
ENDBRANCH  18  24
ENDBRANCH  15  16
ENDBRANCH   1  15
TORSDOF 5
ENDMDL
MODEL 5
REMARK VINA RESULT:      -7.7      1.838      8.637
REMARK  5 active torsions:
REMARK  status: ('A' for Active; 'I' for Inactive)
REMARK    1  A    between atoms: O2_2  and  C3_3 
REMARK    2  A    between atoms: C8_8  and  S9_9 
REMARK    3  A    between atoms: S9_9  and  C11_11 
REMARK    4  A    between atoms: C11_11  and  C12_12 
REMARK    5  A    between atoms: C17_17  and  O18_18 
ROOT
ATOM      1  S9  <0> d   1      18.112   2.137  10.939  0.00  0.00     0.091 S 
ATOM      2  O10 <0> d   1      17.019   1.400  11.469  0.00  0.00    -0.249 OA
ENDROOT
BRANCH   1   3
ATOM      3  C8  <0> d   1      18.465   1.296   9.432  0.00  0.00     0.198 A 
ATOM      4  N7  <0> d   1      18.597   1.894   8.219  0.00  0.00    -0.331 N 
ATOM      5  C6  <0> d   1      18.871   0.900   7.298  0.00  0.00     0.063 A 
ATOM      6  H30 <0> d   1      18.515   2.843   8.033  0.00  0.00     0.168 HD
ATOM      7  C5  <0> d   1      19.102   0.890   5.930  0.00  0.00     0.035 A 
ATOM      8  C23 <0> d   1      18.893  -0.304   8.023  0.00  0.00     0.089 A 
ATOM      9  C4  <0> d   1      19.353  -0.301   5.284  0.00  0.00     0.039 A 
ATOM     10  C3  <0> d   1      19.377  -1.497   5.996  0.00  0.00     0.070 A 
ATOM     11  C24 <0> d   1      19.143  -1.505   7.357  0.00  0.00     0.070 A 
ATOM     12  N22 <0> d   1      18.637   0.011   9.320  0.00  0.00    -0.220 NA
BRANCH  10  13
ATOM     13  O2  <0> d   1      19.626  -2.665   5.346  0.00  0.00    -0.356 OA
ATOM     14  C1  <0> d   1      19.105  -3.859   5.933  0.00  0.00     0.210 C 
ENDBRANCH  10  13
ENDBRANCH   1   3
BRANCH   1  15
ATOM     15  C11 <0> d   1      19.593   1.823  11.939  0.00  0.00     0.177 C 
BRANCH  15  16
ATOM     16  C12 <0> d   1      19.241   0.913  13.087  0.00  0.00     0.054 A 
ATOM     17  C20 <0> d   1      18.871   1.457  14.300  0.00  0.00    -0.003 A 
ATOM     18  C17 <0> d   1      18.542   0.606  15.352  0.00  0.00     0.083 A 
ATOM     19  C21 <0> d   1      18.812   2.953  14.479  0.00  0.00     0.053 C 
ATOM     20  C15 <0> d   1      18.612  -0.768  15.136  0.00  0.00    -0.011 A 
ATOM     21  C14 <0> d   1      18.997  -1.234  13.895  0.00  0.00     0.126 A 
ATOM     22  C16 <0> d   1      18.272  -1.733  16.243  0.00  0.00     0.052 C 
ATOM     23  N13 <0> d   1      19.296  -0.395  12.921  0.00  0.00    -0.263 NA
BRANCH  18  24
ATOM     24  O18 <0> d   1      18.168   1.104  16.558  0.00  0.00    -0.355 OA
ATOM     25  C19 <0> d   1      19.202   1.309  17.523  0.00  0.00     0.210 C 
ENDBRANCH  18  24
ENDBRANCH  15  16
ENDBRANCH   1  15
TORSDOF 5
ENDMDL
MODEL 6
REMARK VINA RESULT:      -7.7      2.235      8.528
REMARK  5 active torsions:
REMARK  status: ('A' for Active; 'I' for Inactive)
REMARK    1  A    between atoms: O2_2  and  C3_3 
REMARK    2  A    between atoms: C8_8  and  S9_9 
REMARK    3  A    between atoms: S9_9  and  C11_11 
REMARK    4  A    between atoms: C11_11  and  C12_12 
REMARK    5  A    between atoms: C17_17  and  O18_18 
ROOT
ATOM      1  S9  <0> d   1      19.350   3.270  12.332  0.00  0.00     0.091 S 
ATOM      2  O10 <0> d   1      19.172   4.587  11.829  0.00  0.00    -0.249 OA
ENDROOT
BRANCH   1   3
ATOM      3  C8  <0> d   1      19.270   2.277  10.879  0.00  0.00     0.198 A 
ATOM      4  N7  <0> d   1      19.420   0.926  10.850  0.00  0.00    -0.331 N 
ATOM      5  C6  <0> d   1      19.290   0.526   9.533  0.00  0.00     0.063 A 
ATOM      6  H30 <0> d   1      19.586   0.349  11.613  0.00  0.00     0.168 HD
ATOM      7  C5  <0> d   1      19.344  -0.702   8.888  0.00  0.00     0.035 A 
ATOM      8  C23 <0> d   1      19.059   1.699   8.794  0.00  0.00     0.089 A 
ATOM      9  C4  <0> d   1      19.169  -0.769   7.523  0.00  0.00     0.039 A 
ATOM     10  C3  <0> d   1      18.940   0.388   6.784  0.00  0.00     0.070 A 
ATOM     11  C24 <0> d   1      18.889   1.618   7.410  0.00  0.00     0.070 A 
ATOM     12  N22 <0> d   1      19.059   2.730   9.677  0.00  0.00    -0.220 NA
BRANCH  10  13
ATOM     13  O2  <0> d   1      18.770   0.307   5.438  0.00  0.00    -0.356 OA
ATOM     14  C1  <0> d   1      19.304  -0.846   4.784  0.00  0.00     0.210 C 
ENDBRANCH  10  13
ENDBRANCH   1   3
BRANCH   1  15
ATOM     15  C11 <0> d   1      17.868   2.768  13.251  0.00  0.00     0.177 C 
BRANCH  15  16
ATOM     16  C12 <0> d   1      18.208   1.617  14.163  0.00  0.00     0.054 A 
ATOM     17  C20 <0> d   1      18.649   1.872  15.445  0.00  0.00    -0.003 A 
ATOM     18  C17 <0> d   1      18.954   0.800  16.281  0.00  0.00     0.083 A 
ATOM     19  C21 <0> d   1      18.787   3.289  15.939  0.00  0.00     0.053 C 
ATOM     20  C15 <0> d   1      18.811  -0.491  15.779  0.00  0.00    -0.011 A 
ATOM     21  C14 <0> d   1      18.369  -0.661  14.482  0.00  0.00     0.126 A 
ATOM     22  C16 <0> d   1      19.134  -1.685  16.639  0.00  0.00     0.052 C 
ATOM     23  N13 <0> d   1      18.085   0.380  13.722  0.00  0.00    -0.263 NA
BRANCH  18  24
ATOM     24  O18 <0> d   1      19.386   1.010  17.550  0.00  0.00    -0.355 OA
ATOM     25  C19 <0> d   1      18.396   1.019  18.580  0.00  0.00     0.210 C 
ENDBRANCH  18  24
ENDBRANCH  15  16
ENDBRANCH   1  15
TORSDOF 5
ENDMDL
MODEL 7
REMARK VINA RESULT:      -7.6      1.544      8.971
REMARK  5 active torsions:
REMARK  status: ('A' for Active; 'I' for Inactive)
REMARK    1  A    between atoms: O2_2  and  C3_3 
REMARK    2  A    between atoms: C8_8  and  S9_9 
REMARK    3  A    between atoms: S9_9  and  C11_11 
REMARK    4  A    between atoms: C11_11  and  C12_12 
REMARK    5  A    between atoms: C17_17  and  O18_18 
ROOT
ATOM      1  S9  <0> d   1      17.585   0.100  11.603  0.00  0.00     0.091 S 
ATOM      2  O10 <0> d   1      17.004  -1.171  11.857  0.00  0.00    -0.249 OA
ENDROOT
BRANCH   1   3
ATOM      3  C8  <0> d   1      18.027   0.002   9.901  0.00  0.00     0.198 A 
ATOM      4  N7  <0> d   1      18.055   1.055   9.042  0.00  0.00    -0.331 N 
ATOM      5  C6  <0> d   1      18.449   0.569   7.809  0.00  0.00     0.063 A 
ATOM      6  H30 <0> d   1      17.840   1.977   9.254  0.00  0.00     0.168 HD
ATOM      7  C5  <0> d   1      18.657   1.149   6.566  0.00  0.00     0.035 A 
ATOM      8  C23 <0> d   1      18.650  -0.811   7.983  0.00  0.00     0.089 A 
ATOM      9  C4  <0> d   1      19.061   0.370   5.503  0.00  0.00     0.039 A 
ATOM     10  C3  <0> d   1      19.262  -0.997   5.668  0.00  0.00     0.070 A 
ATOM     11  C24 <0> d   1      19.054  -1.591   6.897  0.00  0.00     0.070 A 
ATOM     12  N22 <0> d   1      18.374  -1.090   9.283  0.00  0.00    -0.220 NA
BRANCH  10  13
ATOM     13  O2  <0> d   1      19.661  -1.754   4.611  0.00  0.00    -0.356 OA
ATOM     14  C1  <0> d   1      18.889  -2.921   4.320  0.00  0.00     0.210 C 
ENDBRANCH  10  13
ENDBRANCH   1   3
BRANCH   1  15
ATOM     15  C11 <0> d   1      19.193   0.207  12.437  0.00  0.00     0.177 C 
BRANCH  15  16
ATOM     16  C12 <0> d   1      18.993   0.129  13.928  0.00  0.00     0.054 A 
ATOM     17  C20 <0> d   1      18.776   1.287  14.648  0.00  0.00    -0.003 A 
ATOM     18  C17 <0> d   1      18.585   1.202  16.025  0.00  0.00     0.083 A 
ATOM     19  C21 <0> d   1      18.734   2.623  13.952  0.00  0.00     0.053 C 
ATOM     20  C15 <0> d   1      18.634  -0.055  16.622  0.00  0.00    -0.011 A 
ATOM     21  C14 <0> d   1      18.861  -1.164  15.833  0.00  0.00     0.126 A 
ATOM     22  C16 <0> d   1      18.441  -0.202  18.110  0.00  0.00     0.052 C 
ATOM     23  N13 <0> d   1      19.031  -1.044  14.530  0.00  0.00    -0.263 NA
BRANCH  18  24
ATOM     24  O18 <0> d   1      18.365   2.317  16.766  0.00  0.00    -0.355 OA
ATOM     25  C19 <0> d   1      19.516   3.037  17.214  0.00  0.00     0.210 C 
ENDBRANCH  18  24
ENDBRANCH  15  16
ENDBRANCH   1  15
TORSDOF 5
ENDMDL
MODEL 8
REMARK VINA RESULT:      -7.4      4.077      5.222
REMARK  5 active torsions:
REMARK  status: ('A' for Active; 'I' for Inactive)
REMARK    1  A    between atoms: O2_2  and  C3_3 
REMARK    2  A    between atoms: C8_8  and  S9_9 
REMARK    3  A    between atoms: S9_9  and  C11_11 
REMARK    4  A    between atoms: C11_11  and  C12_12 
REMARK    5  A    between atoms: C17_17  and  O18_18 
ROOT
ATOM      1  S9  <0> d   1      19.473   0.690   8.699  0.00  0.00     0.091 S 
ATOM      2  O10 <0> d   1      20.364  -0.146   9.424  0.00  0.00    -0.249 OA
ENDROOT
BRANCH   1   3
ATOM      3  C8  <0> d   1      19.076   1.951   9.863  0.00  0.00     0.198 A 
ATOM      4  N7  <0> d   1      19.930   2.447  10.797  0.00  0.00    -0.331 N 
ATOM      5  C6  <0> d   1      19.246   3.414  11.509  0.00  0.00     0.063 A 
ATOM      6  H30 <0> d   1      20.851   2.173  10.937  0.00  0.00     0.168 HD
ATOM      7  C5  <0> d   1      19.579   4.251  12.564  0.00  0.00     0.035 A 
ATOM      8  C23 <0> d   1      17.956   3.463  10.953  0.00  0.00     0.089 A 
ATOM      9  C4  <0> d   1      18.645   5.132  13.064  0.00  0.00     0.039 A 
ATOM     10  C3  <0> d   1      17.365   5.186  12.518  0.00  0.00     0.070 A 
ATOM     11  C24 <0> d   1      17.016   4.355  11.472  0.00  0.00     0.070 A 
ATOM     12  N22 <0> d   1      17.921   2.545   9.953  0.00  0.00    -0.220 NA
BRANCH  10  13
ATOM     13  O2  <0> d   1      16.453   6.060  13.022  0.00  0.00    -0.356 OA
ATOM     14  C1  <0> d   1      15.883   5.742  14.293  0.00  0.00     0.210 C 
ENDBRANCH  10  13
ENDBRANCH   1   3
BRANCH   1  15
ATOM     15  C11 <0> d   1      17.890  -0.168   8.470  0.00  0.00     0.177 C 
BRANCH  15  16
ATOM     16  C12 <0> d   1      17.853  -1.395   9.343  0.00  0.00     0.054 A 
ATOM     17  C20 <0> d   1      18.151  -2.628   8.798  0.00  0.00    -0.003 A 
ATOM     18  C17 <0> d   1      18.120  -3.755   9.616  0.00  0.00     0.083 A 
ATOM     19  C21 <0> d   1      18.517  -2.750   7.341  0.00  0.00     0.053 C 
ATOM     20  C15 <0> d   1      17.776  -3.589  10.955  0.00  0.00    -0.011 A 
ATOM     21  C14 <0> d   1      17.486  -2.324  11.422  0.00  0.00     0.126 A 
ATOM     22  C16 <0> d   1      17.720  -4.777  11.882  0.00  0.00     0.052 C 
ATOM     23  N13 <0> d   1      17.531  -1.279  10.617  0.00  0.00    -0.263 NA
BRANCH  18  24
ATOM     24  O18 <0> d   1      18.411  -4.983   9.118  0.00  0.00    -0.355 OA
ATOM     25  C19 <0> d   1      19.775  -5.404   9.186  0.00  0.00     0.210 C 
ENDBRANCH  18  24
ENDBRANCH  15  16
ENDBRANCH   1  15
TORSDOF 5
ENDMDL
MODEL 9
REMARK VINA RESULT:      -7.3      2.043      2.971
REMARK  5 active torsions:
REMARK  status: ('A' for Active; 'I' for Inactive)
REMARK    1  A    between atoms: O2_2  and  C3_3 
REMARK    2  A    between atoms: C8_8  and  S9_9 
REMARK    3  A    between atoms: S9_9  and  C11_11 
REMARK    4  A    between atoms: C11_11  and  C12_12 
REMARK    5  A    between atoms: C17_17  and  O18_18 
ROOT
ATOM      1  S9  <0> d   1      19.595  -3.111  10.915  0.00  0.00     0.091 S 
ATOM      2  O10 <0> d   1      19.584  -4.401  11.510  0.00  0.00    -0.249 OA
ENDROOT
BRANCH   1   3
ATOM      3  C8  <0> d   1      19.361  -2.037  12.292  0.00  0.00     0.198 A 
ATOM      4  N7  <0> d   1      19.836  -0.767  12.379  0.00  0.00    -0.331 N 
ATOM      5  C6  <0> d   1      19.442  -0.263  13.605  0.00  0.00     0.063 A 
ATOM      6  H30 <0> d   1      20.355  -0.300  11.705  0.00  0.00     0.168 HD
ATOM      7  C5  <0> d   1      19.621   0.951  14.251  0.00  0.00     0.035 A 
ATOM      8  C23 <0> d   1      18.716  -1.292  14.231  0.00  0.00     0.089 A 
ATOM      9  C4  <0> d   1      19.087   1.148  15.506  0.00  0.00     0.039 A 
ATOM     10  C3  <0> d   1      18.367   0.134  16.132  0.00  0.00     0.070 A 
ATOM     11  C24 <0> d   1      18.185  -1.083  15.504  0.00  0.00     0.070 A 
ATOM     12  N22 <0> d   1      18.706  -2.346  13.374  0.00  0.00    -0.220 NA
BRANCH  10  13
ATOM     13  O2  <0> d   1      17.845   0.341  17.370  0.00  0.00    -0.356 OA
ATOM     14  C1  <0> d   1      18.719   0.888  18.360  0.00  0.00     0.210 C 
ENDBRANCH  10  13
ENDBRANCH   1   3
BRANCH   1  15
ATOM     15  C11 <0> d   1      18.076  -2.876   9.951  0.00  0.00     0.177 C 
BRANCH  15  16
ATOM     16  C12 <0> d   1      18.362  -1.985   8.771  0.00  0.00     0.054 A 
ATOM     17  C20 <0> d   1      18.877  -2.532   7.613  0.00  0.00    -0.003 A 
ATOM     18  C17 <0> d   1      19.132  -1.699   6.526  0.00  0.00     0.083 A 
ATOM     19  C21 <0> d   1      19.147  -4.011   7.522  0.00  0.00     0.053 C 
ATOM     20  C15 <0> d   1      18.866  -0.338   6.659  0.00  0.00    -0.011 A 
ATOM     21  C14 <0> d   1      18.358   0.132   7.853  0.00  0.00     0.126 A 
ATOM     22  C16 <0> d   1      19.131   0.607   5.516  0.00  0.00     0.052 C 
ATOM     23  N13 <0> d   1      18.124  -0.690   8.859  0.00  0.00    -0.263 NA
BRANCH  18  24
ATOM     24  O18 <0> d   1      19.633  -2.200   5.368  0.00  0.00    -0.355 OA
ATOM     25  C19 <0> d   1      18.691  -2.576   4.362  0.00  0.00     0.210 C 
ENDBRANCH  18  24
ENDBRANCH  15  16
ENDBRANCH   1  15
TORSDOF 5
ENDMDL
