MODEL 1
REMARK VINA RESULT:      -8.7      0.000      0.000
REMARK  11 active torsions:
REMARK  status: ('A' for Active; 'I' for Inactive)
REMARK    1  A    between atoms: C2_2  and  C3_3 
REMARK    2  A    between atoms: C3_3  and  C4_4 
REMARK    3  A    between atoms: C4_4  and  C5_5 
REMARK    4  A    between atoms: C9_9  and  C10_10 
REMARK    5  A    between atoms: C10_10  and  C11_11 
REMARK    6  A    between atoms: C11_11  and  C12_12 
REMARK    7  A    between atoms: C11_11  and  C18_18 
REMARK    8  A    between atoms: C12_12  and  C13_13 
REMARK    9  A    between atoms: N21_21  and  C22_22 
REMARK   10  A    between atoms: C22_22  and  C23_23 
REMARK   11  A    between atoms: C26_26  and  C27_27 
ROOT
ATOM      1  C5  ZIN A   1      19.583  -0.589  13.496  0.00  0.00     0.084 A 
ATOM      2  N6  ZIN A   1      20.588   0.241  13.371  0.00  0.00    -0.353 N 
ATOM      3  H7  ZIN A   1      21.161   0.535  14.096  0.00  0.00     0.166 HD
ATOM      4  C8  ZIN A   1      20.705   0.619  12.100  0.00  0.00     0.119 A 
ATOM      5  C9  ZIN A   1      19.708  -0.015  11.382  0.00  0.00     0.052 A 
ATOM      6  N21 ZIN A   1      19.010  -0.785  12.293  0.00  0.00    -0.331 N 
ENDROOT
BRANCH   5   7
ATOM      7  C10 ZIN A   1      19.457   0.096   9.993  0.00  0.00     0.045 C 
BRANCH   7   8
ATOM      8  C11 ZIN A   1      18.340   0.734   9.553  0.00  0.00     0.025 C 
BRANCH   8   9
ATOM      9  C12 ZIN A   1      17.440   0.067   8.546  0.00  0.00     0.091 C 
BRANCH   9  10
ATOM     10  C13 ZIN A   1      18.182  -0.106   7.246  0.00  0.00    -0.013 A 
ATOM     11  S17 ZIN A   1      18.710  -1.644   6.577  0.00  0.00    -0.106 SA
ATOM     12  C16 ZIN A   1      19.405  -0.833   5.180  0.00  0.00     0.050 A 
ATOM     13  C15 ZIN A   1      19.219   0.483   5.289  0.00  0.00     0.008 A 
ATOM     14  C14 ZIN A   1      18.544   0.885   6.429  0.00  0.00     0.015 A 
ENDBRANCH   9  10
ENDBRANCH   8   9
BRANCH   8  15
ATOM     15  C18 ZIN A   1      18.025   2.018  10.038  0.00  0.00     0.205 C 
ATOM     16  O19 ZIN A   1      17.150   2.158  11.033  0.00  0.00    -0.644 OA
ATOM     17  O20 ZIN A   1      18.602   3.092   9.501  0.00  0.00    -0.644 OA
ENDBRANCH   8  15
ENDBRANCH   7   8
ENDBRANCH   5   7
BRANCH   6  18
ATOM     18  C22 ZIN A   1      17.858  -1.643  12.007  0.00  0.00     0.169 C 
BRANCH  18  19
ATOM     19  C23 ZIN A   1      18.306  -2.827  11.188  0.00  0.00    -0.040 A 
ATOM     20  C31 ZIN A   1      17.601  -3.185  10.053  0.00  0.00     0.010 A 
ATOM     21  C30 ZIN A   1      18.010  -4.262   9.295  0.00  0.00     0.019 A 
ATOM     22  C26 ZIN A   1      19.130  -5.001   9.683  0.00  0.00     0.040 A 
ATOM     23  C25 ZIN A   1      19.834  -4.636  10.834  0.00  0.00     0.019 A 
ATOM     24  C24 ZIN A   1      19.417  -3.553  11.579  0.00  0.00     0.010 A 
BRANCH  22  25
ATOM     25  C27 ZIN A   1      19.569  -6.158   8.881  0.00  0.00     0.209 C 
ATOM     26  O28 ZIN A   1      18.762  -6.766   8.193  0.00  0.00    -0.644 OA
ATOM     27  O29 ZIN A   1      20.740  -6.510   8.904  0.00  0.00    -0.644 OA
ENDBRANCH  22  25
ENDBRANCH  18  19
ENDBRANCH   6  18
BRANCH   1  28
ATOM     28  C4  ZIN A   1      19.140  -1.232  14.785  0.00  0.00     0.076 C 
BRANCH  28  29
ATOM     29  C3  ZIN A   1      17.900  -0.510  15.316  0.00  0.00     0.007 C 
BRANCH  29  30
ATOM     30  C2  ZIN A   1      17.766  -0.764  16.818  0.00  0.00    -0.004 C 
ATOM     31  C1  ZIN A   1      19.124  -0.557  17.493  0.00  0.00     0.005 C 
ENDBRANCH  29  30
ENDBRANCH  28  29
ENDBRANCH   1  28
TORSDOF 11
ENDMDL
MODEL 2
REMARK VINA RESULT:      -8.6      2.939      5.622
REMARK  11 active torsions:
REMARK  status: ('A' for Active; 'I' for Inactive)
REMARK    1  A    between atoms: C2_2  and  C3_3 
REMARK    2  A    between atoms: C3_3  and  C4_4 
REMARK    3  A    between atoms: C4_4  and  C5_5 
REMARK    4  A    between atoms: C9_9  and  C10_10 
REMARK    5  A    between atoms: C10_10  and  C11_11 
REMARK    6  A    between atoms: C11_11  and  C12_12 
REMARK    7  A    between atoms: C11_11  and  C18_18 
REMARK    8  A    between atoms: C12_12  and  C13_13 
REMARK    9  A    between atoms: N21_21  and  C22_22 
REMARK   10  A    between atoms: C22_22  and  C23_23 
REMARK   11  A    between atoms: C26_26  and  C27_27 
ROOT
ATOM      1  C5  ZIN A   1      19.622   2.263  11.471  0.00  0.00     0.084 A 
ATOM      2  N6  ZIN A   1      20.724   1.933  12.095  0.00  0.00    -0.353 N 
ATOM      3  H7  ZIN A   1      21.298   2.549  12.576  0.00  0.00     0.166 HD
ATOM      4  C8  ZIN A   1      20.940   0.625  11.971  0.00  0.00     0.119 A 
ATOM      5  C9  ZIN A   1      19.904   0.100  11.220  0.00  0.00     0.052 A 
ATOM      6  N21 ZIN A   1      19.073   1.164  10.919  0.00  0.00    -0.331 N 
ENDROOT
BRANCH   5   7
ATOM      7  C10 ZIN A   1      19.725  -1.252  10.842  0.00  0.00     0.045 C 
BRANCH   7   8
ATOM      8  C11 ZIN A   1      19.262  -2.155  11.747  0.00  0.00     0.025 C 
BRANCH   8   9
ATOM      9  C12 ZIN A   1      19.884  -3.524  11.831  0.00  0.00     0.091 C 
BRANCH   9  10
ATOM     10  C13 ZIN A   1      19.005  -4.520  11.120  0.00  0.00    -0.013 A 
ATOM     11  S17 ZIN A   1      19.240  -5.085   9.471  0.00  0.00    -0.106 SA
ATOM     12  C16 ZIN A   1      17.823  -6.120   9.593  0.00  0.00     0.050 A 
ATOM     13  C15 ZIN A   1      17.274  -5.988  10.800  0.00  0.00     0.008 A 
ATOM     14  C14 ZIN A   1      17.926  -5.105  11.644  0.00  0.00     0.015 A 
ENDBRANCH   9  10
ENDBRANCH   8   9
BRANCH   8  15
ATOM     15  C18 ZIN A   1      18.198  -1.810  12.604  0.00  0.00     0.205 C 
ATOM     16  O19 ZIN A   1      18.416  -1.667  13.910  0.00  0.00    -0.644 OA
ATOM     17  O20 ZIN A   1      16.975  -1.630  12.108  0.00  0.00    -0.644 OA
ENDBRANCH   8  15
ENDBRANCH   7   8
ENDBRANCH   5   7
BRANCH   6  18
ATOM     18  C22 ZIN A   1      17.835   1.108  10.138  0.00  0.00     0.169 C 
BRANCH  18  19
ATOM     19  C23 ZIN A   1      18.155   0.715   8.718  0.00  0.00    -0.040 A 
ATOM     20  C31 ZIN A   1      17.643  -0.459   8.196  0.00  0.00     0.010 A 
ATOM     21  C30 ZIN A   1      17.927  -0.821   6.896  0.00  0.00     0.019 A 
ATOM     22  C26 ZIN A   1      18.743  -0.006   6.109  0.00  0.00     0.040 A 
ATOM     23  C25 ZIN A   1      19.261   1.176   6.645  0.00  0.00     0.019 A 
ATOM     24  C24 ZIN A   1      18.964   1.529   7.945  0.00  0.00     0.010 A 
BRANCH  22  25
ATOM     25  C27 ZIN A   1      19.056  -0.390   4.720  0.00  0.00     0.209 C 
ATOM     26  O28 ZIN A   1      18.532   0.205   3.788  0.00  0.00    -0.644 OA
ATOM     27  O29 ZIN A   1      19.839  -1.302   4.499  0.00  0.00    -0.644 OA
ENDBRANCH  22  25
ENDBRANCH  18  19
ENDBRANCH   6  18
BRANCH   1  28
ATOM     28  C4  ZIN A   1      19.050   3.655  11.390  0.00  0.00     0.076 C 
BRANCH  28  29
ATOM     29  C3  ZIN A   1      17.948   3.815  12.440  0.00  0.00     0.007 C 
BRANCH  29  30
ATOM     30  C2  ZIN A   1      16.967   4.899  11.988  0.00  0.00    -0.004 C 
ATOM     31  C1  ZIN A   1      17.022   5.033  10.464  0.00  0.00     0.005 C 
ENDBRANCH  29  30
ENDBRANCH  28  29
ENDBRANCH   1  28
TORSDOF 11
ENDMDL
MODEL 3
REMARK VINA RESULT:      -8.5      2.944      5.618
REMARK  11 active torsions:
REMARK  status: ('A' for Active; 'I' for Inactive)
REMARK    1  A    between atoms: C2_2  and  C3_3 
REMARK    2  A    between atoms: C3_3  and  C4_4 
REMARK    3  A    between atoms: C4_4  and  C5_5 
REMARK    4  A    between atoms: C9_9  and  C10_10 
REMARK    5  A    between atoms: C10_10  and  C11_11 
REMARK    6  A    between atoms: C11_11  and  C12_12 
REMARK    7  A    between atoms: C11_11  and  C18_18 
REMARK    8  A    between atoms: C12_12  and  C13_13 
REMARK    9  A    between atoms: N21_21  and  C22_22 
REMARK   10  A    between atoms: C22_22  and  C23_23 
REMARK   11  A    between atoms: C26_26  and  C27_27 
ROOT
ATOM      1  C5  ZIN A   1      19.534  -2.107  11.660  0.00  0.00     0.084 A 
ATOM      2  N6  ZIN A   1      20.650  -1.946  10.997  0.00  0.00    -0.353 N 
ATOM      3  H7  ZIN A   1      21.227  -2.664  10.693  0.00  0.00     0.166 HD
ATOM      4  C8  ZIN A   1      20.875  -0.648  10.800  0.00  0.00     0.119 A 
ATOM      5  C9  ZIN A   1      19.831   0.049  11.378  0.00  0.00     0.052 A 
ATOM      6  N21 ZIN A   1      18.985  -0.904  11.914  0.00  0.00    -0.331 N 
ENDROOT
BRANCH   5   7
ATOM      7  C10 ZIN A   1      19.658   1.454  11.409  0.00  0.00     0.045 C 
BRANCH   7   8
ATOM      8  C11 ZIN A   1      19.122   2.096  10.337  0.00  0.00     0.025 C 
BRANCH   8   9
ATOM      9  C12 ZIN A   1      19.762   1.960   8.980  0.00  0.00     0.091 C 
BRANCH   9  10
ATOM     10  C13 ZIN A   1      18.837   1.204   8.062  0.00  0.00    -0.013 A 
ATOM     11  S17 ZIN A   1      17.612   0.053   8.580  0.00  0.00    -0.106 SA
ATOM     12  C16 ZIN A   1      17.133  -0.233   6.912  0.00  0.00     0.050 A 
ATOM     13  C15 ZIN A   1      17.885   0.507   6.096  0.00  0.00     0.008 A 
ATOM     14  C14 ZIN A   1      18.826   1.301   6.731  0.00  0.00     0.015 A 
ENDBRANCH   9  10
ENDBRANCH   8   9
BRANCH   8  15
ATOM     15  C18 ZIN A   1      17.969   2.890  10.495  0.00  0.00     0.205 C 
ATOM     16  O19 ZIN A   1      16.964   2.459  11.256  0.00  0.00    -0.644 OA
ATOM     17  O20 ZIN A   1      17.884   4.070   9.883  0.00  0.00    -0.644 OA
ENDBRANCH   8  15
ENDBRANCH   7   8
ENDBRANCH   5   7
BRANCH   6  18
ATOM     18  C22 ZIN A   1      17.734  -0.652  12.634  0.00  0.00     0.169 C 
BRANCH  18  19
ATOM     19  C23 ZIN A   1      18.040  -0.333  14.075  0.00  0.00    -0.040 A 
ATOM     20  C31 ZIN A   1      17.876   0.958  14.545  0.00  0.00     0.010 A 
ATOM     21  C30 ZIN A   1      18.147   1.255  15.863  0.00  0.00     0.019 A 
ATOM     22  C26 ZIN A   1      18.600   0.252  16.724  0.00  0.00     0.040 A 
ATOM     23  C25 ZIN A   1      18.768  -1.048  16.241  0.00  0.00     0.019 A 
ATOM     24  C24 ZIN A   1      18.488  -1.332  14.921  0.00  0.00     0.010 A 
BRANCH  22  25
ATOM     25  C27 ZIN A   1      18.899   0.564  18.134  0.00  0.00     0.209 C 
ATOM     26  O28 ZIN A   1      20.014   0.953  18.451  0.00  0.00    -0.644 OA
ATOM     27  O29 ZIN A   1      18.031   0.435  18.986  0.00  0.00    -0.644 OA
ENDBRANCH  22  25
ENDBRANCH  18  19
ENDBRANCH   6  18
BRANCH   1  28
ATOM     28  C4  ZIN A   1      18.948  -3.434  12.070  0.00  0.00     0.076 C 
BRANCH  28  29
ATOM     29  C3  ZIN A   1      19.323  -4.498  11.036  0.00  0.00     0.007 C 
BRANCH  29  30
ATOM     30  C2  ZIN A   1      18.068  -5.265  10.615  0.00  0.00    -0.004 C 
ATOM     31  C1  ZIN A   1      16.884  -4.815  11.474  0.00  0.00     0.005 C 
ENDBRANCH  29  30
ENDBRANCH  28  29
ENDBRANCH   1  28
TORSDOF 11
ENDMDL
MODEL 4
REMARK VINA RESULT:      -8.4      3.020      6.237
REMARK  11 active torsions:
REMARK  status: ('A' for Active; 'I' for Inactive)
REMARK    1  A    between atoms: C2_2  and  C3_3 
REMARK    2  A    between atoms: C3_3  and  C4_4 
REMARK    3  A    between atoms: C4_4  and  C5_5 
REMARK    4  A    between atoms: C9_9  and  C10_10 
REMARK    5  A    between atoms: C10_10  and  C11_11 
REMARK    6  A    between atoms: C11_11  and  C12_12 
REMARK    7  A    between atoms: C11_11  and  C18_18 
REMARK    8  A    between atoms: C12_12  and  C13_13 
REMARK    9  A    between atoms: N21_21  and  C22_22 
REMARK   10  A    between atoms: C22_22  and  C23_23 
REMARK   11  A    between atoms: C26_26  and  C27_27 
ROOT
ATOM      1  C5  ZIN A   1      19.568   2.412  11.418  0.00  0.00     0.084 A 
ATOM      2  N6  ZIN A   1      20.628   2.029  12.084  0.00  0.00    -0.353 N 
ATOM      3  H7  ZIN A   1      21.229   2.621  12.563  0.00  0.00     0.166 HD
ATOM      4  C8  ZIN A   1      20.756   0.706  12.007  0.00  0.00     0.119 A 
ATOM      5  C9  ZIN A   1      19.708   0.229  11.242  0.00  0.00     0.052 A 
ATOM      6  N21 ZIN A   1      18.961   1.336  10.883  0.00  0.00    -0.331 N 
ENDROOT
BRANCH   5   7
ATOM      7  C10 ZIN A   1      19.447  -1.119  10.901  0.00  0.00     0.045 C 
BRANCH   7   8
ATOM      8  C11 ZIN A   1      18.692  -1.895  11.724  0.00  0.00     0.025 C 
BRANCH   8   9
ATOM      9  C12 ZIN A   1      17.535  -1.290  12.476  0.00  0.00     0.091 C 
BRANCH   9  10
ATOM     10  C13 ZIN A   1      18.016  -0.779  13.810  0.00  0.00    -0.013 A 
ATOM     11  S17 ZIN A   1      17.763   0.851  14.421  0.00  0.00    -0.106 SA
ATOM     12  C16 ZIN A   1      18.621   0.459  15.905  0.00  0.00     0.050 A 
ATOM     13  C15 ZIN A   1      19.037  -0.807  15.861  0.00  0.00     0.008 A 
ATOM     14  C14 ZIN A   1      18.703  -1.491  14.704  0.00  0.00     0.015 A 
ENDBRANCH   9  10
ENDBRANCH   8   9
BRANCH   8  15
ATOM     15  C18 ZIN A   1      18.992  -3.263  11.874  0.00  0.00     0.205 C 
ATOM     16  O19 ZIN A   1      18.009  -4.146  12.042  0.00  0.00    -0.644 OA
ATOM     17  O20 ZIN A   1      20.260  -3.673  11.850  0.00  0.00    -0.644 OA
ENDBRANCH   8  15
ENDBRANCH   7   8
ENDBRANCH   5   7
BRANCH   6  18
ATOM     18  C22 ZIN A   1      17.745   1.339  10.067  0.00  0.00     0.169 C 
BRANCH  18  19
ATOM     19  C23 ZIN A   1      18.078   0.885   8.669  0.00  0.00    -0.040 A 
ATOM     20  C31 ZIN A   1      18.975   1.610   7.904  0.00  0.00     0.010 A 
ATOM     21  C30 ZIN A   1      19.290   1.197   6.627  0.00  0.00     0.019 A 
ATOM     22  C26 ZIN A   1      18.693   0.049   6.100  0.00  0.00     0.040 A 
ATOM     23  C25 ZIN A   1      17.785  -0.675   6.876  0.00  0.00     0.019 A 
ATOM     24  C24 ZIN A   1      17.483  -0.253   8.154  0.00  0.00     0.010 A 
BRANCH  22  25
ATOM     25  C27 ZIN A   1      19.021  -0.395   4.733  0.00  0.00     0.209 C 
ATOM     26  O28 ZIN A   1      19.919  -1.206   4.552  0.00  0.00    -0.644 OA
ATOM     27  O29 ZIN A   1      18.394   0.046   3.780  0.00  0.00    -0.644 OA
ENDBRANCH  22  25
ENDBRANCH  18  19
ENDBRANCH   6  18
BRANCH   1  28
ATOM     28  C4  ZIN A   1      19.097   3.837  11.276  0.00  0.00     0.076 C 
BRANCH  28  29
ATOM     29  C3  ZIN A   1      18.812   4.420  12.662  0.00  0.00     0.007 C 
BRANCH  29  30
ATOM     30  C2  ZIN A   1      17.388   4.977  12.698  0.00  0.00    -0.004 C 
ATOM     31  C1  ZIN A   1      16.773   4.895  11.299  0.00  0.00     0.005 C 
ENDBRANCH  29  30
ENDBRANCH  28  29
ENDBRANCH   1  28
TORSDOF 11
ENDMDL
MODEL 5
REMARK VINA RESULT:      -8.1      3.327      6.643
REMARK  11 active torsions:
REMARK  status: ('A' for Active; 'I' for Inactive)
REMARK    1  A    between atoms: C2_2  and  C3_3 
REMARK    2  A    between atoms: C3_3  and  C4_4 
REMARK    3  A    between atoms: C4_4  and  C5_5 
REMARK    4  A    between atoms: C9_9  and  C10_10 
REMARK    5  A    between atoms: C10_10  and  C11_11 
REMARK    6  A    between atoms: C11_11  and  C12_12 
REMARK    7  A    between atoms: C11_11  and  C18_18 
REMARK    8  A    between atoms: C12_12  and  C13_13 
REMARK    9  A    between atoms: N21_21  and  C22_22 
REMARK   10  A    between atoms: C22_22  and  C23_23 
REMARK   11  A    between atoms: C26_26  and  C27_27 
ROOT
ATOM      1  C5  ZIN A   1      19.598  -1.944  11.670  0.00  0.00     0.084 A 
ATOM      2  N6  ZIN A   1      20.673  -1.685  10.969  0.00  0.00    -0.353 N 
ATOM      3  H7  ZIN A   1      21.303  -2.349  10.649  0.00  0.00     0.166 HD
ATOM      4  C8  ZIN A   1      20.770  -0.373  10.760  0.00  0.00     0.119 A 
ATOM      5  C9  ZIN A   1      19.685   0.228  11.370  0.00  0.00     0.052 A 
ATOM      6  N21 ZIN A   1      18.950  -0.795  11.938  0.00  0.00    -0.331 N 
ENDROOT
BRANCH   5   7
ATOM      7  C10 ZIN A   1      19.385   1.611  11.402  0.00  0.00     0.045 C 
BRANCH   7   8
ATOM      8  C11 ZIN A   1      18.787   2.201  10.332  0.00  0.00     0.025 C 
BRANCH   8   9
ATOM      9  C12 ZIN A   1      18.302   3.623  10.431  0.00  0.00     0.091 C 
BRANCH   9  10
ATOM     10  C13 ZIN A   1      18.573   4.152  11.816  0.00  0.00    -0.013 A 
ATOM     11  S17 ZIN A   1      17.367   4.347  13.081  0.00  0.00    -0.106 SA
ATOM     12  C16 ZIN A   1      18.585   4.965  14.188  0.00  0.00     0.050 A 
ATOM     13  C15 ZIN A   1      19.770   4.997  13.578  0.00  0.00     0.008 A 
ATOM     14  C14 ZIN A   1      19.764   4.547  12.268  0.00  0.00     0.015 A 
ENDBRANCH   9  10
ENDBRANCH   8   9
BRANCH   8  15
ATOM     15  C18 ZIN A   1      18.619   1.480   9.133  0.00  0.00     0.205 C 
ATOM     16  O19 ZIN A   1      17.567   0.679   8.980  0.00  0.00    -0.644 OA
ATOM     17  O20 ZIN A   1      19.515   1.601   8.154  0.00  0.00    -0.644 OA
ENDBRANCH   8  15
ENDBRANCH   7   8
ENDBRANCH   5   7
BRANCH   6  18
ATOM     18  C22 ZIN A   1      17.705  -0.655  12.698  0.00  0.00     0.169 C 
BRANCH  18  19
ATOM     19  C23 ZIN A   1      18.028  -0.338  14.136  0.00  0.00    -0.040 A 
ATOM     20  C31 ZIN A   1      17.906   0.960  14.599  0.00  0.00     0.010 A 
ATOM     21  C30 ZIN A   1      18.193   1.256  15.915  0.00  0.00     0.019 A 
ATOM     22  C26 ZIN A   1      18.621   0.245  16.778  0.00  0.00     0.040 A 
ATOM     23  C25 ZIN A   1      18.747  -1.063  16.302  0.00  0.00     0.019 A 
ATOM     24  C24 ZIN A   1      18.451  -1.345  14.985  0.00  0.00     0.010 A 
BRANCH  22  25
ATOM     25  C27 ZIN A   1      18.937   0.555  18.185  0.00  0.00     0.209 C 
ATOM     26  O28 ZIN A   1      18.172   0.208  19.074  0.00  0.00    -0.644 OA
ATOM     27  O29 ZIN A   1      19.964   1.158  18.463  0.00  0.00    -0.644 OA
ENDBRANCH  22  25
ENDBRANCH  18  19
ENDBRANCH   6  18
BRANCH   1  28
ATOM     28  C4  ZIN A   1      19.151  -3.317  12.103  0.00  0.00     0.076 C 
BRANCH  28  29
ATOM     29  C3  ZIN A   1      19.876  -4.376  11.270  0.00  0.00     0.007 C 
BRANCH  29  30
ATOM     30  C2  ZIN A   1      18.906  -4.973  10.249  0.00  0.00    -0.004 C 
ATOM     31  C1  ZIN A   1      17.656  -5.482  10.970  0.00  0.00     0.005 C 
ENDBRANCH  29  30
ENDBRANCH  28  29
ENDBRANCH   1  28
TORSDOF 11
ENDMDL
MODEL 6
REMARK VINA RESULT:      -8.0      3.755      7.833
REMARK  11 active torsions:
REMARK  status: ('A' for Active; 'I' for Inactive)
REMARK    1  A    between atoms: C2_2  and  C3_3 
REMARK    2  A    between atoms: C3_3  and  C4_4 
REMARK    3  A    between atoms: C4_4  and  C5_5 
REMARK    4  A    between atoms: C9_9  and  C10_10 
REMARK    5  A    between atoms: C10_10  and  C11_11 
REMARK    6  A    between atoms: C11_11  and  C12_12 
REMARK    7  A    between atoms: C11_11  and  C18_18 
REMARK    8  A    between atoms: C12_12  and  C13_13 
REMARK    9  A    between atoms: N21_21  and  C22_22 
REMARK   10  A    between atoms: C22_22  and  C23_23 
REMARK   11  A    between atoms: C26_26  and  C27_27 
ROOT
ATOM      1  C5  ZIN A   1      19.112  -1.580  10.666  0.00  0.00     0.084 A 
ATOM      2  N6  ZIN A   1      18.441  -2.602  11.136  0.00  0.00    -0.353 N 
ATOM      3  H7  ZIN A   1      17.983  -3.264  10.594  0.00  0.00     0.166 HD
ATOM      4  C8  ZIN A   1      18.483  -2.597  12.466  0.00  0.00     0.119 A 
ATOM      5  C9  ZIN A   1      19.229  -1.500  12.857  0.00  0.00     0.052 A 
ATOM      6  N21 ZIN A   1      19.624  -0.872  11.691  0.00  0.00    -0.331 N 
ENDROOT
BRANCH   5   7
ATOM      7  C10 ZIN A   1      19.532  -1.105  14.181  0.00  0.00     0.045 C 
BRANCH   7   8
ATOM      8  C11 ZIN A   1      18.539  -0.684  15.009  0.00  0.00     0.025 C 
BRANCH   8   9
ATOM      9  C12 ZIN A   1      17.663   0.473  14.607  0.00  0.00     0.091 C 
BRANCH   9  10
ATOM     10  C13 ZIN A   1      18.236   1.753  15.160  0.00  0.00    -0.013 A 
ATOM     11  S17 ZIN A   1      19.195   1.883  16.628  0.00  0.00    -0.106 SA
ATOM     12  C16 ZIN A   1      19.355   3.620  16.405  0.00  0.00     0.050 A 
ATOM     13  C15 ZIN A   1      18.707   3.992  15.300  0.00  0.00     0.008 A 
ATOM     14  C14 ZIN A   1      18.089   2.961  14.612  0.00  0.00     0.015 A 
ENDBRANCH   9  10
ENDBRANCH   8   9
BRANCH   8  15
ATOM     15  C18 ZIN A   1      18.332  -1.330  16.244  0.00  0.00     0.205 C 
ATOM     16  O19 ZIN A   1      19.355  -1.899  16.878  0.00  0.00    -0.644 OA
ATOM     17  O20 ZIN A   1      17.111  -1.371  16.776  0.00  0.00    -0.644 OA
ENDBRANCH   8  15
ENDBRANCH   7   8
ENDBRANCH   5   7
BRANCH   6  18
ATOM     18  C22 ZIN A   1      20.436   0.343  11.588  0.00  0.00     0.169 C 
BRANCH  18  19
ATOM     19  C23 ZIN A   1      19.533   1.537  11.411  0.00  0.00    -0.040 A 
ATOM     20  C31 ZIN A   1      18.182   1.351  11.181  0.00  0.00     0.010 A 
ATOM     21  C30 ZIN A   1      17.349   2.438  11.026  0.00  0.00     0.019 A 
ATOM     22  C26 ZIN A   1      17.874   3.731  11.089  0.00  0.00     0.040 A 
ATOM     23  C25 ZIN A   1      19.241   3.912  11.317  0.00  0.00     0.019 A 
ATOM     24  C24 ZIN A   1      20.061   2.815  11.476  0.00  0.00     0.010 A 
BRANCH  22  25
ATOM     25  C27 ZIN A   1      16.990   4.900  10.917  0.00  0.00     0.209 C 
ATOM     26  O28 ZIN A   1      16.035   5.059  11.664  0.00  0.00    -0.644 OA
ATOM     27  O29 ZIN A   1      17.213   5.709  10.028  0.00  0.00    -0.644 OA
ENDBRANCH  22  25
ENDBRANCH  18  19
ENDBRANCH   6  18
BRANCH   1  28
ATOM     28  C4  ZIN A   1      19.290  -1.252   9.206  0.00  0.00     0.076 C 
BRANCH  28  29
ATOM     29  C3  ZIN A   1      17.918  -1.120   8.542  0.00  0.00     0.007 C 
BRANCH  29  30
ATOM     30  C2  ZIN A   1      17.995  -0.092   7.412  0.00  0.00    -0.004 C 
ATOM     31  C1  ZIN A   1      19.032   0.976   7.765  0.00  0.00     0.005 C 
ENDBRANCH  29  30
ENDBRANCH  28  29
ENDBRANCH   1  28
TORSDOF 11
ENDMDL
MODEL 7
REMARK VINA RESULT:      -8.0      3.438      5.757
REMARK  11 active torsions:
REMARK  status: ('A' for Active; 'I' for Inactive)
REMARK    1  A    between atoms: C2_2  and  C3_3 
REMARK    2  A    between atoms: C3_3  and  C4_4 
REMARK    3  A    between atoms: C4_4  and  C5_5 
REMARK    4  A    between atoms: C9_9  and  C10_10 
REMARK    5  A    between atoms: C10_10  and  C11_11 
REMARK    6  A    between atoms: C11_11  and  C12_12 
REMARK    7  A    between atoms: C11_11  and  C18_18 
REMARK    8  A    between atoms: C12_12  and  C13_13 
REMARK    9  A    between atoms: N21_21  and  C22_22 
REMARK   10  A    between atoms: C22_22  and  C23_23 
REMARK   11  A    between atoms: C26_26  and  C27_27 
ROOT
ATOM      1  C5  ZIN A   1      19.351  -1.014  12.191  0.00  0.00     0.084 A 
ATOM      2  N6  ZIN A   1      20.362  -0.484  12.832  0.00  0.00    -0.353 N 
ATOM      3  H7  ZIN A   1      20.941  -0.959  13.449  0.00  0.00     0.166 HD
ATOM      4  C8  ZIN A   1      20.475   0.803  12.512  0.00  0.00     0.119 A 
ATOM      5  C9  ZIN A   1      19.470   1.099  11.610  0.00  0.00     0.052 A 
ATOM      6  N21 ZIN A   1      18.771  -0.077  11.416  0.00  0.00    -0.331 N 
ENDROOT
BRANCH   5   7
ATOM      7  C10 ZIN A   1      19.213   2.351  11.002  0.00  0.00     0.045 C 
BRANCH   7   8
ATOM      8  C11 ZIN A   1      18.220   3.148  11.482  0.00  0.00     0.025 C 
BRANCH   8   9
ATOM      9  C12 ZIN A   1      17.858   3.103  12.943  0.00  0.00     0.091 C 
BRANCH   9  10
ATOM     10  C13 ZIN A   1      18.500   4.265  13.656  0.00  0.00    -0.013 A 
ATOM     11  S17 ZIN A   1      17.847   5.069  15.078  0.00  0.00    -0.106 SA
ATOM     12  C16 ZIN A   1      19.214   6.174  15.118  0.00  0.00     0.050 A 
ATOM     13  C15 ZIN A   1      20.041   5.900  14.109  0.00  0.00     0.008 A 
ATOM     14  C14 ZIN A   1      19.648   4.846  13.302  0.00  0.00     0.015 A 
ENDBRANCH   9  10
ENDBRANCH   8   9
BRANCH   8  15
ATOM     15  C18 ZIN A   1      17.530   4.014  10.611  0.00  0.00     0.205 C 
ATOM     16  O19 ZIN A   1      16.358   4.531  10.977  0.00  0.00    -0.644 OA
ATOM     17  O20 ZIN A   1      18.049   4.314   9.421  0.00  0.00    -0.644 OA
ENDBRANCH   8  15
ENDBRANCH   7   8
ENDBRANCH   5   7
BRANCH   6  18
ATOM     18  C22 ZIN A   1      17.610  -0.268  10.542  0.00  0.00     0.169 C 
BRANCH  18  19
ATOM     19  C23 ZIN A   1      18.075  -0.406   9.115  0.00  0.00    -0.040 A 
ATOM     20  C31 ZIN A   1      17.911   0.646   8.232  0.00  0.00     0.010 A 
ATOM     21  C30 ZIN A   1      18.340   0.529   6.927  0.00  0.00     0.019 A 
ATOM     22  C26 ZIN A   1      18.932  -0.660   6.493  0.00  0.00     0.040 A 
ATOM     23  C25 ZIN A   1      19.091  -1.720   7.390  0.00  0.00     0.019 A 
ATOM     24  C24 ZIN A   1      18.661  -1.587   8.693  0.00  0.00     0.010 A 
BRANCH  22  25
ATOM     25  C27 ZIN A   1      19.388  -0.795   5.097  0.00  0.00     0.209 C 
ATOM     26  O28 ZIN A   1      19.386   0.179   4.357  0.00  0.00    -0.644 OA
ATOM     27  O29 ZIN A   1      19.768  -1.880   4.680  0.00  0.00    -0.644 OA
ENDBRANCH  22  25
ENDBRANCH  18  19
ENDBRANCH   6  18
BRANCH   1  28
ATOM     28  C4  ZIN A   1      18.910  -2.452  12.295  0.00  0.00     0.076 C 
BRANCH  28  29
ATOM     29  C3  ZIN A   1      19.949  -3.353  11.625  0.00  0.00     0.007 C 
BRANCH  29  30
ATOM     30  C2  ZIN A   1      19.282  -4.655  11.179  0.00  0.00    -0.004 C 
ATOM     31  C1  ZIN A   1      19.821  -5.059   9.805  0.00  0.00     0.005 C 
ENDBRANCH  29  30
ENDBRANCH  28  29
ENDBRANCH   1  28
TORSDOF 11
ENDMDL
MODEL 8
REMARK VINA RESULT:      -7.9      2.974      6.628
REMARK  11 active torsions:
REMARK  status: ('A' for Active; 'I' for Inactive)
REMARK    1  A    between atoms: C2_2  and  C3_3 
REMARK    2  A    between atoms: C3_3  and  C4_4 
REMARK    3  A    between atoms: C4_4  and  C5_5 
REMARK    4  A    between atoms: C9_9  and  C10_10 
REMARK    5  A    between atoms: C10_10  and  C11_11 
REMARK    6  A    between atoms: C11_11  and  C12_12 
REMARK    7  A    between atoms: C11_11  and  C18_18 
REMARK    8  A    between atoms: C12_12  and  C13_13 
REMARK    9  A    between atoms: N21_21  and  C22_22 
REMARK   10  A    between atoms: C22_22  and  C23_23 
REMARK   11  A    between atoms: C26_26  and  C27_27 
ROOT
ATOM      1  C5  ZIN A   1      19.135   0.615  11.021  0.00  0.00     0.084 A 
ATOM      2  N6  ZIN A   1      20.204   0.228  10.373  0.00  0.00    -0.353 N 
ATOM      3  H7  ZIN A   1      20.690   0.766   9.728  0.00  0.00     0.166 HD
ATOM      4  C8  ZIN A   1      20.525  -1.014  10.731  0.00  0.00     0.119 A 
ATOM      5  C9  ZIN A   1      19.595  -1.433  11.665  0.00  0.00     0.052 A 
ATOM      6  N21 ZIN A   1      18.724  -0.374  11.838  0.00  0.00    -0.331 N 
ENDROOT
BRANCH   5   7
ATOM      7  C10 ZIN A   1      19.549  -2.688  12.317  0.00  0.00     0.045 C 
BRANCH   7   8
ATOM      8  C11 ZIN A   1      19.107  -3.786  11.648  0.00  0.00     0.025 C 
BRANCH   8   9
ATOM      9  C12 ZIN A   1      20.051  -4.563  10.768  0.00  0.00     0.091 C 
BRANCH   9  10
ATOM     10  C13 ZIN A   1      19.396  -4.825   9.437  0.00  0.00    -0.013 A 
ATOM     11  S17 ZIN A   1      18.880  -3.587   8.299  0.00  0.00    -0.106 SA
ATOM     12  C16 ZIN A   1      18.302  -4.814   7.180  0.00  0.00     0.050 A 
ATOM     13  C15 ZIN A   1      18.510  -6.026   7.697  0.00  0.00     0.008 A 
ATOM     14  C14 ZIN A   1      19.114  -6.032   8.943  0.00  0.00     0.015 A 
ENDBRANCH   9  10
ENDBRANCH   8   9
BRANCH   8  15
ATOM     15  C18 ZIN A   1      17.765  -4.195  11.776  0.00  0.00     0.205 C 
ATOM     16  O19 ZIN A   1      17.478  -5.370  12.334  0.00  0.00    -0.644 OA
ATOM     17  O20 ZIN A   1      16.784  -3.408  11.336  0.00  0.00    -0.644 OA
ENDBRANCH   8  15
ENDBRANCH   7   8
ENDBRANCH   5   7
BRANCH   6  18
ATOM     18  C22 ZIN A   1      17.564  -0.338  12.733  0.00  0.00     0.169 C 
BRANCH  18  19
ATOM     19  C23 ZIN A   1      18.026  -0.065  14.141  0.00  0.00    -0.040 A 
ATOM     20  C31 ZIN A   1      18.296   1.232  14.539  0.00  0.00     0.010 A 
ATOM     21  C30 ZIN A   1      18.712   1.489  15.828  0.00  0.00     0.019 A 
ATOM     22  C26 ZIN A   1      18.873   0.435  16.731  0.00  0.00     0.040 A 
ATOM     23  C25 ZIN A   1      18.604  -0.873  16.320  0.00  0.00     0.019 A 
ATOM     24  C24 ZIN A   1      18.183  -1.115  15.030  0.00  0.00     0.010 A 
BRANCH  22  25
ATOM     25  C27 ZIN A   1      19.325   0.702  18.109  0.00  0.00     0.209 C 
ATOM     26  O28 ZIN A   1      19.821   1.783  18.391  0.00  0.00    -0.644 OA
ATOM     27  O29 ZIN A   1      19.202  -0.158  18.970  0.00  0.00    -0.644 OA
ENDBRANCH  22  25
ENDBRANCH  18  19
ENDBRANCH   6  18
BRANCH   1  28
ATOM     28  C4  ZIN A   1      18.472   1.961  10.882  0.00  0.00     0.076 C 
BRANCH  28  29
ATOM     29  C3  ZIN A   1      19.340   3.029  11.551  0.00  0.00     0.007 C 
BRANCH  29  30
ATOM     30  C2  ZIN A   1      18.586   4.360  11.571  0.00  0.00    -0.004 C 
ATOM     31  C1  ZIN A   1      17.252   4.201  10.839  0.00  0.00     0.005 C 
ENDBRANCH  29  30
ENDBRANCH  28  29
ENDBRANCH   1  28
TORSDOF 11
ENDMDL
MODEL 9
REMARK VINA RESULT:      -7.8      2.198      3.218
REMARK  11 active torsions:
REMARK  status: ('A' for Active; 'I' for Inactive)
REMARK    1  A    between atoms: C2_2  and  C3_3 
REMARK    2  A    between atoms: C3_3  and  C4_4 
REMARK    3  A    between atoms: C4_4  and  C5_5 
REMARK    4  A    between atoms: C9_9  and  C10_10 
REMARK    5  A    between atoms: C10_10  and  C11_11 
REMARK    6  A    between atoms: C11_11  and  C12_12 
REMARK    7  A    between atoms: C11_11  and  C18_18 
REMARK    8  A    between atoms: C12_12  and  C13_13 
REMARK    9  A    between atoms: N21_21  and  C22_22 
REMARK   10  A    between atoms: C22_22  and  C23_23 
REMARK   11  A    between atoms: C26_26  and  C27_27 
ROOT
ATOM      1  C5  ZIN A   1      19.232  -0.877  13.953  0.00  0.00     0.084 A 
ATOM      2  N6  ZIN A   1      20.243  -0.050  14.035  0.00  0.00    -0.353 N 
ATOM      3  H7  ZIN A   1      20.691   0.202  14.858  0.00  0.00     0.166 HD
ATOM      4  C8  ZIN A   1      20.565   0.393  12.821  0.00  0.00     0.119 A 
ATOM      5  C9  ZIN A   1      19.699  -0.196  11.919  0.00  0.00     0.052 A 
ATOM      6  N21 ZIN A   1      18.863  -1.006  12.664  0.00  0.00    -0.331 N 
ENDROOT
BRANCH   5   7
ATOM      7  C10 ZIN A   1      19.677  -0.013  10.516  0.00  0.00     0.045 C 
BRANCH   7   8
ATOM      8  C11 ZIN A   1      18.887   0.949   9.969  0.00  0.00     0.025 C 
BRANCH   8   9
ATOM      9  C12 ZIN A   1      19.399   2.359   9.837  0.00  0.00     0.091 C 
BRANCH   9  10
ATOM     10  C13 ZIN A   1      18.480   3.298  10.574  0.00  0.00    -0.013 A 
ATOM     11  S17 ZIN A   1      18.191   3.281  12.309  0.00  0.00    -0.106 SA
ATOM     12  C16 ZIN A   1      17.078   4.636  12.168  0.00  0.00     0.050 A 
ATOM     13  C15 ZIN A   1      16.982   5.005  10.890  0.00  0.00     0.008 A 
ATOM     14  C14 ZIN A   1      17.756   4.267  10.010  0.00  0.00     0.015 A 
ENDBRANCH   9  10
ENDBRANCH   8   9
BRANCH   8  15
ATOM     15  C18 ZIN A   1      17.589   0.627   9.526  0.00  0.00     0.205 C 
ATOM     16  O19 ZIN A   1      16.580   0.590  10.395  0.00  0.00    -0.644 OA
ATOM     17  O20 ZIN A   1      17.371   0.357   8.240  0.00  0.00    -0.644 OA
ENDBRANCH   8  15
ENDBRANCH   7   8
ENDBRANCH   5   7
BRANCH   6  18
ATOM     18  C22 ZIN A   1      17.772  -1.840  12.151  0.00  0.00     0.169 C 
BRANCH  18  19
ATOM     19  C23 ZIN A   1      18.338  -2.900  11.241  0.00  0.00    -0.040 A 
ATOM     20  C31 ZIN A   1      19.380  -3.698  11.677  0.00  0.00     0.010 A 
ATOM     21  C30 ZIN A   1      19.898  -4.675  10.853  0.00  0.00     0.019 A 
ATOM     22  C26 ZIN A   1      19.376  -4.850   9.569  0.00  0.00     0.040 A 
ATOM     23  C25 ZIN A   1      18.327  -4.036   9.133  0.00  0.00     0.019 A 
ATOM     24  C24 ZIN A   1      17.816  -3.068   9.970  0.00  0.00     0.010 A 
BRANCH  22  25
ATOM     25  C27 ZIN A   1      19.929  -5.888   8.679  0.00  0.00     0.209 C 
ATOM     26  O28 ZIN A   1      19.266  -6.879   8.410  0.00  0.00    -0.644 OA
ATOM     27  O29 ZIN A   1      21.050  -5.756   8.209  0.00  0.00    -0.644 OA
ENDBRANCH  22  25
ENDBRANCH  18  19
ENDBRANCH   6  18
BRANCH   1  28
ATOM     28  C4  ZIN A   1      18.586  -1.582  15.118  0.00  0.00     0.076 C 
BRANCH  28  29
ATOM     29  C3  ZIN A   1      19.290  -1.175  16.414  0.00  0.00     0.007 C 
BRANCH  29  30
ATOM     30  C2  ZIN A   1      18.245  -0.878  17.490  0.00  0.00    -0.004 C 
ATOM     31  C1  ZIN A   1      17.069  -0.124  16.864  0.00  0.00     0.005 C 
ENDBRANCH  29  30
ENDBRANCH  28  29
ENDBRANCH   1  28
TORSDOF 11
ENDMDL
