MODEL 1
REMARK VINA RESULT:      -8.4      0.000      0.000
REMARK  6 active torsions:
REMARK  status: ('A' for Active; 'I' for Inactive)
REMARK    1  A    between atoms: C2_2  and  C3_3 
REMARK       I    between atoms: C3_3  and  N5_5 
REMARK    2  A    between atoms: N5_5  and  C6_6 
REMARK    3  A    between atoms: N5_5  and  C12_12 
REMARK    4  A    between atoms: N15_15  and  C17_17 
REMARK    5  A    between atoms: C17_17  and  C18_18 
REMARK    6  A    between atoms: C18_18  and  C19_19 
ROOT
ATOM      1  C12 ZIN A   1      18.488   1.761  12.037  0.00  0.00     0.096 C 
ATOM      2  C13 ZIN A   1      17.499   0.603  12.196  0.00  0.00     0.053 C 
ATOM      3  C14 ZIN A   1      17.814  -0.157  13.486  0.00  0.00     0.237 C 
ATOM      4  N15 ZIN A   1      19.182  -0.686  13.424  0.00  0.00    -0.071 N 
ATOM      5  H16 ZIN A   1      19.278  -1.272  12.608  0.00  0.00     0.279 HD
ATOM      6  C25 ZIN A   1      20.141   0.422  13.344  0.00  0.00     0.237 C 
ATOM      7  C26 ZIN A   1      19.915   1.204  12.048  0.00  0.00     0.053 C 
ENDROOT
BRANCH   1   8
ATOM      8  N5  ZIN A   1      18.240   2.447  10.766  0.00  0.00    -0.313 N 
ATOM      9  C3  ZIN A   1      17.982   3.769  10.754  0.00  0.00     0.224 C 
ATOM     10  O4  ZIN A   1      17.664   4.315   9.720  0.00  0.00    -0.273 OA
BRANCH   9  11
ATOM     11  C2  ZIN A   1      18.090   4.570  12.027  0.00  0.00     0.099 C 
ATOM     12  C1  ZIN A   1      16.733   5.201  12.349  0.00  0.00     0.014 C 
ENDBRANCH   9  11
BRANCH   8  13
ATOM     13  C6  ZIN A   1      18.270   1.729   9.566  0.00  0.00     0.037 A 
ATOM     14  C11 ZIN A   1      17.372   0.693   9.352  0.00  0.00     0.030 A 
ATOM     15  C10 ZIN A   1      17.399  -0.010   8.163  0.00  0.00     0.002 A 
ATOM     16  C9  ZIN A   1      18.331   0.309   7.192  0.00  0.00     0.000 A 
ATOM     17  C8  ZIN A   1      19.232   1.336   7.405  0.00  0.00     0.002 A 
ATOM     18  C7  ZIN A   1      19.204   2.047   8.589  0.00  0.00     0.030 A 
ENDBRANCH   8  13
ENDBRANCH   1   8
BRANCH   4  19
ATOM     19  C17 ZIN A   1      19.454  -1.479  14.631  0.00  0.00     0.239 C 
BRANCH  19  20
ATOM     20  C18 ZIN A   1      18.162  -1.650  15.431  0.00  0.00     0.066 C 
BRANCH  20  21
ATOM     21  C19 ZIN A   1      18.179  -0.721  16.617  0.00  0.00    -0.057 A 
ATOM     22  C24 ZIN A   1      19.354  -0.513  17.315  0.00  0.00     0.007 A 
ATOM     23  C23 ZIN A   1      19.370   0.341  18.401  0.00  0.00     0.001 A 
ATOM     24  C22 ZIN A   1      18.211   0.982  18.795  0.00  0.00     0.000 A 
ATOM     25  C21 ZIN A   1      17.034   0.769  18.101  0.00  0.00     0.001 A 
ATOM     26  C20 ZIN A   1      17.019  -0.083  17.012  0.00  0.00     0.007 A 
ENDBRANCH  20  21
ENDBRANCH  19  20
ENDBRANCH   4  19
TORSDOF 6
ENDMDL
MODEL 2
REMARK VINA RESULT:      -8.4      2.145      7.543
REMARK  6 active torsions:
REMARK  status: ('A' for Active; 'I' for Inactive)
REMARK    1  A    between atoms: C2_2  and  C3_3 
REMARK       I    between atoms: C3_3  and  N5_5 
REMARK    2  A    between atoms: N5_5  and  C6_6 
REMARK    3  A    between atoms: N5_5  and  C12_12 
REMARK    4  A    between atoms: N15_15  and  C17_17 
REMARK    5  A    between atoms: C17_17  and  C18_18 
REMARK    6  A    between atoms: C18_18  and  C19_19 
ROOT
ATOM      1  C12 ZIN A   1      18.658   0.601  12.105  0.00  0.00     0.096 C 
ATOM      2  C13 ZIN A   1      20.047   0.042  11.783  0.00  0.00     0.053 C 
ATOM      3  C14 ZIN A   1      20.015  -0.631  10.409  0.00  0.00     0.237 C 
ATOM      4  N15 ZIN A   1      19.036  -1.726  10.421  0.00  0.00    -0.071 N 
ATOM      5  H16 ZIN A   1      19.271  -2.378  11.155  0.00  0.00     0.279 HD
ATOM      6  C25 ZIN A   1      17.691  -1.189  10.657  0.00  0.00     0.237 C 
ATOM      7  C26 ZIN A   1      17.634  -0.536  12.040  0.00  0.00     0.053 C 
ENDROOT
BRANCH   1   8
ATOM      8  N5  ZIN A   1      18.662   1.181  13.450  0.00  0.00    -0.313 N 
ATOM      9  C3  ZIN A   1      18.881   2.501  13.613  0.00  0.00     0.224 C 
ATOM     10  O4  ZIN A   1      18.999   2.962  14.728  0.00  0.00    -0.273 OA
BRANCH   9  11
ATOM     11  C2  ZIN A   1      18.979   3.404  12.411  0.00  0.00     0.099 C 
ATOM     12  C1  ZIN A   1      19.681   4.705  12.806  0.00  0.00     0.014 C 
ENDBRANCH   9  11
BRANCH   8  13
ATOM     13  C6  ZIN A   1      18.439   0.366  14.564  0.00  0.00     0.037 A 
ATOM     14  C11 ZIN A   1      19.365  -0.610  14.909  0.00  0.00     0.030 A 
ATOM     15  C10 ZIN A   1      19.145  -1.409  16.014  0.00  0.00     0.002 A 
ATOM     16  C9  ZIN A   1      17.997  -1.248  16.768  0.00  0.00     0.000 A 
ATOM     17  C8  ZIN A   1      17.071  -0.282  16.423  0.00  0.00     0.002 A 
ATOM     18  C7  ZIN A   1      17.289   0.525  15.324  0.00  0.00     0.030 A 
ENDBRANCH   8  13
ENDBRANCH   1   8
BRANCH   4  19
ATOM     19  C17 ZIN A   1      19.063  -2.418   9.125  0.00  0.00     0.239 C 
BRANCH  19  20
ATOM     20  C18 ZIN A   1      17.878  -1.956   8.275  0.00  0.00     0.066 C 
BRANCH  20  21
ATOM     21  C19 ZIN A   1      18.386  -1.220   7.062  0.00  0.00    -0.057 A 
ATOM     22  C24 ZIN A   1      18.776  -1.926   5.940  0.00  0.00     0.007 A 
ATOM     23  C23 ZIN A   1      19.239  -1.250   4.826  0.00  0.00     0.001 A 
ATOM     24  C22 ZIN A   1      19.319   0.129   4.837  0.00  0.00     0.000 A 
ATOM     25  C21 ZIN A   1      18.935   0.834   5.963  0.00  0.00     0.001 A 
ATOM     26  C20 ZIN A   1      18.468   0.159   7.075  0.00  0.00     0.007 A 
ENDBRANCH  20  21
ENDBRANCH  19  20
ENDBRANCH   4  19
TORSDOF 6
ENDMDL
MODEL 3
REMARK VINA RESULT:      -8.4      2.149      7.505
REMARK  6 active torsions:
REMARK  status: ('A' for Active; 'I' for Inactive)
REMARK    1  A    between atoms: C2_2  and  C3_3 
REMARK       I    between atoms: C3_3  and  N5_5 
REMARK    2  A    between atoms: N5_5  and  C6_6 
REMARK    3  A    between atoms: N5_5  and  C12_12 
REMARK    4  A    between atoms: N15_15  and  C17_17 
REMARK    5  A    between atoms: C17_17  and  C18_18 
REMARK    6  A    between atoms: C18_18  and  C19_19 
ROOT
ATOM      1  C12 ZIN A   1      18.638   0.642  12.285  0.00  0.00     0.096 C 
ATOM      2  C13 ZIN A   1      20.026   0.092  11.942  0.00  0.00     0.053 C 
ATOM      3  C14 ZIN A   1      19.985  -0.551  10.554  0.00  0.00     0.237 C 
ATOM      4  N15 ZIN A   1      19.007  -1.646  10.547  0.00  0.00    -0.071 N 
ATOM      5  H16 ZIN A   1      19.247  -2.314  11.265  0.00  0.00     0.279 HD
ATOM      6  C25 ZIN A   1      17.663  -1.116  10.804  0.00  0.00     0.237 C 
ATOM      7  C26 ZIN A   1      17.615  -0.494  12.201  0.00  0.00     0.053 C 
ENDROOT
BRANCH   1   8
ATOM      8  N5  ZIN A   1      18.650   1.192  13.643  0.00  0.00    -0.313 N 
ATOM      9  C3  ZIN A   1      18.901   2.502  13.836  0.00  0.00     0.224 C 
ATOM     10  O4  ZIN A   1      19.025   2.935  14.962  0.00  0.00    -0.273 OA
BRANCH   9  11
ATOM     11  C2  ZIN A   1      19.027   3.429  12.654  0.00  0.00     0.099 C 
ATOM     12  C1  ZIN A   1      19.520   4.797  13.129  0.00  0.00     0.014 C 
ENDBRANCH   9  11
BRANCH   8  13
ATOM     13  C6  ZIN A   1      18.402   0.358  14.737  0.00  0.00     0.037 A 
ATOM     14  C11 ZIN A   1      17.230   0.497  15.468  0.00  0.00     0.030 A 
ATOM     15  C10 ZIN A   1      16.984  -0.333  16.544  0.00  0.00     0.002 A 
ATOM     16  C9  ZIN A   1      17.912  -1.294  16.903  0.00  0.00     0.000 A 
ATOM     17  C8  ZIN A   1      19.083  -1.431  16.182  0.00  0.00     0.002 A 
ATOM     18  C7  ZIN A   1      19.331  -0.609  15.100  0.00  0.00     0.030 A 
ENDBRANCH   8  13
ENDBRANCH   1   8
BRANCH   4  19
ATOM     19  C17 ZIN A   1      19.027  -2.310   9.236  0.00  0.00     0.239 C 
BRANCH  19  20
ATOM     20  C18 ZIN A   1      17.852  -1.809   8.394  0.00  0.00     0.066 C 
BRANCH  20  21
ATOM     21  C19 ZIN A   1      18.376  -1.059   7.196  0.00  0.00    -0.057 A 
ATOM     22  C24 ZIN A   1      18.414   0.323   7.209  0.00  0.00     0.007 A 
ATOM     23  C23 ZIN A   1      18.897   1.010   6.111  0.00  0.00     0.001 A 
ATOM     24  C22 ZIN A   1      19.335   0.317   4.999  0.00  0.00     0.000 A 
ATOM     25  C21 ZIN A   1      19.291  -1.065   4.984  0.00  0.00     0.001 A 
ATOM     26  C20 ZIN A   1      18.811  -1.752   6.084  0.00  0.00     0.007 A 
ENDBRANCH  20  21
ENDBRANCH  19  20
ENDBRANCH   4  19
TORSDOF 6
ENDMDL
MODEL 4
REMARK VINA RESULT:      -8.1      2.966      6.336
REMARK  6 active torsions:
REMARK  status: ('A' for Active; 'I' for Inactive)
REMARK    1  A    between atoms: C2_2  and  C3_3 
REMARK       I    between atoms: C3_3  and  N5_5 
REMARK    2  A    between atoms: N5_5  and  C6_6 
REMARK    3  A    between atoms: N5_5  and  C12_12 
REMARK    4  A    between atoms: N15_15  and  C17_17 
REMARK    5  A    between atoms: C17_17  and  C18_18 
REMARK    6  A    between atoms: C18_18  and  C19_19 
ROOT
ATOM      1  C12 ZIN A   1      18.176   1.227  12.068  0.00  0.00     0.096 C 
ATOM      2  C13 ZIN A   1      19.467   0.642  11.488  0.00  0.00     0.053 C 
ATOM      3  C14 ZIN A   1      19.222   0.214  10.039  0.00  0.00     0.237 C 
ATOM      4  N15 ZIN A   1      18.161  -0.800   9.999  0.00  0.00    -0.071 N 
ATOM      5  H16 ZIN A   1      18.421  -1.581  10.583  0.00  0.00     0.279 HD
ATOM      6  C25 ZIN A   1      16.902  -0.224  10.486  0.00  0.00     0.237 C 
ATOM      7  C26 ZIN A   1      17.058   0.186  11.951  0.00  0.00     0.053 C 
ENDROOT
BRANCH   1   8
ATOM      8  N5  ZIN A   1      18.382   1.569  13.477  0.00  0.00    -0.313 N 
ATOM      9  C3  ZIN A   1      18.574   2.853  13.838  0.00  0.00     0.224 C 
ATOM     10  O4  ZIN A   1      18.858   3.125  14.984  0.00  0.00    -0.273 OA
BRANCH   9  11
ATOM     11  C2  ZIN A   1      18.433   3.952  12.816  0.00  0.00     0.099 C 
ATOM     12  C1  ZIN A   1      19.797   4.604  12.577  0.00  0.00     0.014 C 
ENDBRANCH   9  11
BRANCH   8  13
ATOM     13  C6  ZIN A   1      18.381   0.562  14.449  0.00  0.00     0.037 A 
ATOM     14  C11 ZIN A   1      19.420  -0.357  14.499  0.00  0.00     0.030 A 
ATOM     15  C10 ZIN A   1      19.419  -1.346  15.464  0.00  0.00     0.002 A 
ATOM     16  C9  ZIN A   1      18.378  -1.429  16.370  0.00  0.00     0.000 A 
ATOM     17  C8  ZIN A   1      17.339  -0.518  16.319  0.00  0.00     0.002 A 
ATOM     18  C7  ZIN A   1      17.338   0.477  15.361  0.00  0.00     0.030 A 
ENDBRANCH   8  13
ENDBRANCH   1   8
BRANCH   4  19
ATOM     19  C17 ZIN A   1      17.981  -1.263   8.615  0.00  0.00     0.239 C 
BRANCH  19  20
ATOM     20  C18 ZIN A   1      18.737  -2.578   8.416  0.00  0.00     0.066 C 
BRANCH  20  21
ATOM     21  C19 ZIN A   1      18.327  -3.560   9.483  0.00  0.00    -0.057 A 
ATOM     22  C24 ZIN A   1      19.184  -3.839  10.531  0.00  0.00     0.007 A 
ATOM     23  C23 ZIN A   1      18.806  -4.737  11.511  0.00  0.00     0.001 A 
ATOM     24  C22 ZIN A   1      17.576  -5.363  11.439  0.00  0.00     0.000 A 
ATOM     25  C21 ZIN A   1      16.722  -5.089  10.387  0.00  0.00     0.001 A 
ATOM     26  C20 ZIN A   1      17.098  -4.187   9.409  0.00  0.00     0.007 A 
ENDBRANCH  20  21
ENDBRANCH  19  20
ENDBRANCH   4  19
TORSDOF 6
ENDMDL
MODEL 5
REMARK VINA RESULT:      -8.0      2.446      7.780
REMARK  6 active torsions:
REMARK  status: ('A' for Active; 'I' for Inactive)
REMARK    1  A    between atoms: C2_2  and  C3_3 
REMARK       I    between atoms: C3_3  and  N5_5 
REMARK    2  A    between atoms: N5_5  and  C6_6 
REMARK    3  A    between atoms: N5_5  and  C12_12 
REMARK    4  A    between atoms: N15_15  and  C17_17 
REMARK    5  A    between atoms: C17_17  and  C18_18 
REMARK    6  A    between atoms: C18_18  and  C19_19 
ROOT
ATOM      1  C12 ZIN A   1      18.519   2.641  13.173  0.00  0.00     0.096 C 
ATOM      2  C13 ZIN A   1      19.812   2.672  12.352  0.00  0.00     0.053 C 
ATOM      3  C14 ZIN A   1      19.474   2.951  10.886  0.00  0.00     0.237 C 
ATOM      4  N15 ZIN A   1      18.594   1.893  10.375  0.00  0.00    -0.071 N 
ATOM      5  H16 ZIN A   1      19.042   0.997  10.494  0.00  0.00     0.279 HD
ATOM      6  C25 ZIN A   1      17.323   1.905  11.109  0.00  0.00     0.237 C 
ATOM      7  C26 ZIN A   1      17.578   1.586  12.583  0.00  0.00     0.053 C 
ENDROOT
BRANCH   1   8
ATOM      8  N5  ZIN A   1      18.829   2.300  14.563  0.00  0.00    -0.313 N 
ATOM      9  C3  ZIN A   1      19.267   3.253  15.408  0.00  0.00     0.224 C 
ATOM     10  O4  ZIN A   1      19.632   2.953  16.525  0.00  0.00    -0.273 OA
BRANCH   9  11
ATOM     11  C2  ZIN A   1      19.304   4.694  14.967  0.00  0.00     0.099 C 
ATOM     12  C1  ZIN A   1      20.274   5.476  15.856  0.00  0.00     0.014 C 
ENDBRANCH   9  11
BRANCH   8  13
ATOM     13  C6  ZIN A   1      18.669   0.986  15.013  0.00  0.00     0.037 A 
ATOM     14  C11 ZIN A   1      17.621   0.664  15.865  0.00  0.00     0.030 A 
ATOM     15  C10 ZIN A   1      17.462  -0.636  16.303  0.00  0.00     0.002 A 
ATOM     16  C9  ZIN A   1      18.353  -1.616  15.903  0.00  0.00     0.000 A 
ATOM     17  C8  ZIN A   1      19.401  -1.297  15.059  0.00  0.00     0.002 A 
ATOM     18  C7  ZIN A   1      19.561  -0.000  14.614  0.00  0.00     0.030 A 
ENDBRANCH   8  13
ENDBRANCH   1   8
BRANCH   4  19
ATOM     19  C17 ZIN A   1      18.333   2.123   8.947  0.00  0.00     0.239 C 
BRANCH  19  20
ATOM     20  C18 ZIN A   1      19.473   1.529   8.118  0.00  0.00     0.066 C 
BRANCH  20  21
ATOM     21  C19 ZIN A   1      18.903   0.778   6.943  0.00  0.00    -0.057 A 
ATOM     22  C24 ZIN A   1      17.698   0.111   7.069  0.00  0.00     0.007 A 
ATOM     23  C23 ZIN A   1      17.173  -0.576   5.990  0.00  0.00     0.001 A 
ATOM     24  C22 ZIN A   1      17.856  -0.602   4.789  0.00  0.00     0.000 A 
ATOM     25  C21 ZIN A   1      19.063   0.060   4.665  0.00  0.00     0.001 A 
ATOM     26  C20 ZIN A   1      19.586   0.750   5.743  0.00  0.00     0.007 A 
ENDBRANCH  20  21
ENDBRANCH  19  20
ENDBRANCH   4  19
TORSDOF 6
ENDMDL
MODEL 6
REMARK VINA RESULT:      -8.0      3.065      4.576
REMARK  6 active torsions:
REMARK  status: ('A' for Active; 'I' for Inactive)
REMARK    1  A    between atoms: C2_2  and  C3_3 
REMARK       I    between atoms: C3_3  and  N5_5 
REMARK    2  A    between atoms: N5_5  and  C6_6 
REMARK    3  A    between atoms: N5_5  and  C12_12 
REMARK    4  A    between atoms: N15_15  and  C17_17 
REMARK    5  A    between atoms: C17_17  and  C18_18 
REMARK    6  A    between atoms: C18_18  and  C19_19 
ROOT
ATOM      1  C12 ZIN A   1      18.566  -1.841  10.457  0.00  0.00     0.096 C 
ATOM      2  C13 ZIN A   1      19.717  -0.847  10.274  0.00  0.00     0.053 C 
ATOM      3  C14 ZIN A   1      20.035  -0.190  11.619  0.00  0.00     0.237 C 
ATOM      4  N15 ZIN A   1      18.848   0.519  12.112  0.00  0.00    -0.071 N 
ATOM      5  H16 ZIN A   1      18.550   1.194  11.423  0.00  0.00     0.279 HD
ATOM      6  C25 ZIN A   1      17.763  -0.438  12.358  0.00  0.00     0.237 C 
ATOM      7  C26 ZIN A   1      17.358  -1.105  11.042  0.00  0.00     0.053 C 
ENDROOT
BRANCH   1   8
ATOM      8  N5  ZIN A   1      18.207  -2.419   9.159  0.00  0.00    -0.313 N 
ATOM      9  C3  ZIN A   1      17.868  -3.720   9.072  0.00  0.00     0.224 C 
ATOM     10  O4  ZIN A   1      17.682  -4.227   7.987  0.00  0.00    -0.273 OA
BRANCH   9  11
ATOM     11  C2  ZIN A   1      17.719  -4.546  10.324  0.00  0.00     0.099 C 
ATOM     12  C1  ZIN A   1      17.114  -5.906   9.969  0.00  0.00     0.014 C 
ENDBRANCH   9  11
BRANCH   8  13
ATOM     13  C6  ZIN A   1      18.216  -1.620   8.011  0.00  0.00     0.037 A 
ATOM     14  C11 ZIN A   1      17.210  -0.686   7.805  0.00  0.00     0.030 A 
ATOM     15  C10 ZIN A   1      17.225   0.106   6.674  0.00  0.00     0.002 A 
ATOM     16  C9  ZIN A   1      18.234  -0.040   5.740  0.00  0.00     0.000 A 
ATOM     17  C8  ZIN A   1      19.234  -0.973   5.939  0.00  0.00     0.002 A 
ATOM     18  C7  ZIN A   1      19.228  -1.763   7.071  0.00  0.00     0.030 A 
ENDBRANCH   8  13
ENDBRANCH   1   8
BRANCH   4  19
ATOM     19  C17 ZIN A   1      19.179   1.212  13.365  0.00  0.00     0.239 C 
BRANCH  19  20
ATOM     20  C18 ZIN A   1      17.988   1.134  14.321  0.00  0.00     0.066 C 
BRANCH  20  21
ATOM     21  C19 ZIN A   1      18.460   0.675  15.677  0.00  0.00    -0.057 A 
ATOM     22  C24 ZIN A   1      18.794   1.606  16.643  0.00  0.00     0.007 A 
ATOM     23  C23 ZIN A   1      19.224   1.185  17.887  0.00  0.00     0.001 A 
ATOM     24  C22 ZIN A   1      19.329  -0.165  18.163  0.00  0.00     0.000 A 
ATOM     25  C21 ZIN A   1      19.001  -1.095  17.194  0.00  0.00     0.001 A 
ATOM     26  C20 ZIN A   1      18.567  -0.674  15.951  0.00  0.00     0.007 A 
ENDBRANCH  20  21
ENDBRANCH  19  20
ENDBRANCH   4  19
TORSDOF 6
ENDMDL
MODEL 7
REMARK VINA RESULT:      -7.9      3.515      4.975
REMARK  6 active torsions:
REMARK  status: ('A' for Active; 'I' for Inactive)
REMARK    1  A    between atoms: C2_2  and  C3_3 
REMARK       I    between atoms: C3_3  and  N5_5 
REMARK    2  A    between atoms: N5_5  and  C6_6 
REMARK    3  A    between atoms: N5_5  and  C12_12 
REMARK    4  A    between atoms: N15_15  and  C17_17 
REMARK    5  A    between atoms: C17_17  and  C18_18 
REMARK    6  A    between atoms: C18_18  and  C19_19 
ROOT
ATOM      1  C12 ZIN A   1      18.978  -1.211   9.082  0.00  0.00     0.096 C 
ATOM      2  C13 ZIN A   1      17.682  -0.499   9.478  0.00  0.00     0.053 C 
ATOM      3  C14 ZIN A   1      18.001   0.611  10.481  0.00  0.00     0.237 C 
ATOM      4  N15 ZIN A   1      18.626   0.030  11.676  0.00  0.00    -0.071 N 
ATOM      5  H16 ZIN A   1      18.013  -0.669  12.069  0.00  0.00     0.279 HD
ATOM      6  C25 ZIN A   1      19.906  -0.593  11.316  0.00  0.00     0.237 C 
ATOM      7  C26 ZIN A   1      19.659  -1.749  10.344  0.00  0.00     0.053 C 
ENDROOT
BRANCH   1   8
ATOM      8  N5  ZIN A   1      18.671  -2.323   8.179  0.00  0.00    -0.313 N 
ATOM      9  C3  ZIN A   1      18.636  -2.120   6.848  0.00  0.00     0.224 C 
ATOM     10  O4  ZIN A   1      18.271  -3.009   6.108  0.00  0.00    -0.273 OA
BRANCH   9  11
ATOM     11  C2  ZIN A   1      19.053  -0.789   6.277  0.00  0.00     0.099 C 
ATOM     12  C1  ZIN A   1      17.823  -0.061   5.729  0.00  0.00     0.014 C 
ENDBRANCH   9  11
BRANCH   8  13
ATOM     13  C6  ZIN A   1      18.413  -3.596   8.700  0.00  0.00     0.037 A 
ATOM     14  C11 ZIN A   1      17.173  -3.883   9.254  0.00  0.00     0.030 A 
ATOM     15  C10 ZIN A   1      16.918  -5.142   9.760  0.00  0.00     0.002 A 
ATOM     16  C9  ZIN A   1      17.903  -6.113   9.730  0.00  0.00     0.000 A 
ATOM     17  C8  ZIN A   1      19.141  -5.828   9.184  0.00  0.00     0.002 A 
ATOM     18  C7  ZIN A   1      19.398  -4.573   8.670  0.00  0.00     0.030 A 
ENDBRANCH   8  13
ENDBRANCH   1   8
BRANCH   4  19
ATOM     19  C17 ZIN A   1      18.862   1.088  12.668  0.00  0.00     0.239 C 
BRANCH  19  20
ATOM     20  C18 ZIN A   1      19.827   0.577  13.738  0.00  0.00     0.066 C 
BRANCH  20  21
ATOM     21  C19 ZIN A   1      19.045   0.119  14.943  0.00  0.00    -0.057 A 
ATOM     22  C24 ZIN A   1      18.841  -1.230  15.161  0.00  0.00     0.007 A 
ATOM     23  C23 ZIN A   1      18.127  -1.650  16.268  0.00  0.00     0.001 A 
ATOM     24  C22 ZIN A   1      17.610  -0.721  17.151  0.00  0.00     0.000 A 
ATOM     25  C21 ZIN A   1      17.810   0.629  16.929  0.00  0.00     0.001 A 
ATOM     26  C20 ZIN A   1      18.528   1.048  15.824  0.00  0.00     0.007 A 
ENDBRANCH  20  21
ENDBRANCH  19  20
ENDBRANCH   4  19
TORSDOF 6
ENDMDL
MODEL 8
REMARK VINA RESULT:      -7.8      2.961      4.372
REMARK  6 active torsions:
REMARK  status: ('A' for Active; 'I' for Inactive)
REMARK    1  A    between atoms: C2_2  and  C3_3 
REMARK       I    between atoms: C3_3  and  N5_5 
REMARK    2  A    between atoms: N5_5  and  C6_6 
REMARK    3  A    between atoms: N5_5  and  C12_12 
REMARK    4  A    between atoms: N15_15  and  C17_17 
REMARK    5  A    between atoms: C17_17  and  C18_18 
REMARK    6  A    between atoms: C18_18  and  C19_19 
ROOT
ATOM      1  C12 ZIN A   1      18.935  -0.126  10.400  0.00  0.00     0.096 C 
ATOM      2  C13 ZIN A   1      17.638   0.414  11.012  0.00  0.00     0.053 C 
ATOM      3  C14 ZIN A   1      17.960   1.628  11.886  0.00  0.00     0.237 C 
ATOM      4  N15 ZIN A   1      18.881   1.232  12.958  0.00  0.00    -0.071 N 
ATOM      5  H16 ZIN A   1      18.471   0.481  13.493  0.00  0.00     0.279 HD
ATOM      6  C25 ZIN A   1      20.154   0.782  12.381  0.00  0.00     0.237 C 
ATOM      7  C26 ZIN A   1      19.916  -0.465  11.526  0.00  0.00     0.053 C 
ENDROOT
BRANCH   1   8
ATOM      8  N5  ZIN A   1      18.644  -1.333   9.623  0.00  0.00    -0.313 N 
ATOM      9  C3  ZIN A   1      18.487  -1.252   8.287  0.00  0.00     0.224 C 
ATOM     10  O4  ZIN A   1      18.135  -2.227   7.658  0.00  0.00    -0.273 OA
BRANCH   9  11
ATOM     11  C2  ZIN A   1      18.751   0.049   7.574  0.00  0.00     0.099 C 
ATOM     12  C1  ZIN A   1      17.910   0.111   6.297  0.00  0.00     0.014 C 
ENDBRANCH   9  11
BRANCH   8  13
ATOM     13  C6  ZIN A   1      18.530  -2.569  10.267  0.00  0.00     0.037 A 
ATOM     14  C11 ZIN A   1      17.352  -2.908  10.919  0.00  0.00     0.030 A 
ATOM     15  C10 ZIN A   1      17.239  -4.132  11.549  0.00  0.00     0.002 A 
ATOM     16  C9  ZIN A   1      18.304  -5.015  11.542  0.00  0.00     0.000 A 
ATOM     17  C8  ZIN A   1      19.481  -4.677  10.899  0.00  0.00     0.002 A 
ATOM     18  C7  ZIN A   1      19.596  -3.458  10.262  0.00  0.00     0.030 A 
ENDBRANCH   8  13
ENDBRANCH   1   8
BRANCH   4  19
ATOM     19  C17 ZIN A   1      19.128   2.383  13.840  0.00  0.00     0.239 C 
BRANCH  19  20
ATOM     20  C18 ZIN A   1      18.036   2.448  14.909  0.00  0.00     0.066 C 
BRANCH  20  21
ATOM     21  C19 ZIN A   1      18.319   1.427  15.980  0.00  0.00    -0.057 A 
ATOM     22  C24 ZIN A   1      17.742   0.173  15.909  0.00  0.00     0.007 A 
ATOM     23  C23 ZIN A   1      18.005  -0.765  16.890  0.00  0.00     0.001 A 
ATOM     24  C22 ZIN A   1      18.838  -0.447  17.946  0.00  0.00     0.000 A 
ATOM     25  C21 ZIN A   1      19.410   0.809  18.020  0.00  0.00     0.001 A 
ATOM     26  C20 ZIN A   1      19.150   1.746  17.036  0.00  0.00     0.007 A 
ENDBRANCH  20  21
ENDBRANCH  19  20
ENDBRANCH   4  19
TORSDOF 6
ENDMDL
MODEL 9
REMARK VINA RESULT:      -7.8      3.451      6.862
REMARK  6 active torsions:
REMARK  status: ('A' for Active; 'I' for Inactive)
REMARK    1  A    between atoms: C2_2  and  C3_3 
REMARK       I    between atoms: C3_3  and  N5_5 
REMARK    2  A    between atoms: N5_5  and  C6_6 
REMARK    3  A    between atoms: N5_5  and  C12_12 
REMARK    4  A    between atoms: N15_15  and  C17_17 
REMARK    5  A    between atoms: C17_17  and  C18_18 
REMARK    6  A    between atoms: C18_18  and  C19_19 
ROOT
ATOM      1  C12 ZIN A   1      18.808   1.411  13.507  0.00  0.00     0.096 C 
ATOM      2  C13 ZIN A   1      19.945   0.422  13.779  0.00  0.00     0.053 C 
ATOM      3  C14 ZIN A   1      20.267  -0.344  12.494  0.00  0.00     0.237 C 
ATOM      4  N15 ZIN A   1      19.076  -1.077  12.046  0.00  0.00    -0.071 N 
ATOM      5  H16 ZIN A   1      18.764  -1.692  12.783  0.00  0.00     0.279 HD
ATOM      6  C25 ZIN A   1      18.004  -0.130  11.714  0.00  0.00     0.237 C 
ATOM      7  C26 ZIN A   1      17.596   0.643  12.969  0.00  0.00     0.053 C 
ENDROOT
BRANCH   1   8
ATOM      8  N5  ZIN A   1      18.444   2.094  14.751  0.00  0.00    -0.313 N 
ATOM      9  C3  ZIN A   1      18.143   3.407  14.735  0.00  0.00     0.224 C 
ATOM     10  O4  ZIN A   1      17.954   3.998  15.776  0.00  0.00    -0.273 OA
BRANCH   9  11
ATOM     11  C2  ZIN A   1      18.041   4.141  13.423  0.00  0.00     0.099 C 
ATOM     12  C1  ZIN A   1      19.158   5.183  13.333  0.00  0.00     0.014 C 
ENDBRANCH   9  11
BRANCH   8  13
ATOM     13  C6  ZIN A   1      18.408   1.382  15.954  0.00  0.00     0.037 A 
ATOM     14  C11 ZIN A   1      19.325   1.666  16.958  0.00  0.00     0.030 A 
ATOM     15  C10 ZIN A   1      19.283   0.966  18.148  0.00  0.00     0.002 A 
ATOM     16  C9  ZIN A   1      18.338  -0.026  18.336  0.00  0.00     0.000 A 
ATOM     17  C8  ZIN A   1      17.428  -0.315  17.336  0.00  0.00     0.002 A 
ATOM     18  C7  ZIN A   1      17.460   0.386  16.147  0.00  0.00     0.030 A 
ENDBRANCH   8  13
ENDBRANCH   1   8
BRANCH   4  19
ATOM     19  C17 ZIN A   1      19.410  -1.871  10.855  0.00  0.00     0.239 C 
BRANCH  19  20
ATOM     20  C18 ZIN A   1      19.984  -3.221  11.288  0.00  0.00     0.066 C 
BRANCH  20  21
ATOM     21  C19 ZIN A   1      19.046  -4.323  10.868  0.00  0.00    -0.057 A 
ATOM     22  C24 ZIN A   1      17.947  -4.629  11.649  0.00  0.00     0.007 A 
ATOM     23  C23 ZIN A   1      17.084  -5.638  11.263  0.00  0.00     0.001 A 
ATOM     24  C22 ZIN A   1      17.325  -6.346  10.101  0.00  0.00     0.000 A 
ATOM     25  C21 ZIN A   1      18.427  -6.044   9.323  0.00  0.00     0.001 A 
ATOM     26  C20 ZIN A   1      19.287  -5.032   9.708  0.00  0.00     0.007 A 
ENDBRANCH  20  21
ENDBRANCH  19  20
ENDBRANCH   4  19
TORSDOF 6
ENDMDL
