MODEL 1
REMARK VINA RESULT:      -8.9      0.000      0.000
REMARK  8 active torsions:
REMARK  status: ('A' for Active; 'I' for Inactive)
REMARK    1  A    between atoms: O1_1  and  C2_2 
REMARK    2  A    between atoms: C2_2  and  C4_3 
REMARK    3  A    between atoms: C2_2  and  C24_21 
REMARK    4  A    between atoms: C4_3  and  N5_4 
REMARK    5  A    between atoms: N5_4  and  C8_7 
REMARK    6  A    between atoms: C8_7  and  C9_8 
REMARK    7  A    between atoms: C9_8  and  O11_9 
REMARK    8  A    between atoms: C9_8  and  C12_10 
ROOT
ATOM      1  N5  ZIN A   1      17.706  -3.626   6.897  0.00  0.00    -0.070 N 
ATOM      2  H6  ZIN A   1      16.705  -3.641   6.776  0.00  0.00     0.277 HD
ATOM      3  H7  ZIN A   1      17.979  -2.762   7.340  0.00  0.00     0.277 HD
ENDROOT
BRANCH   1   4
ATOM      4  C4  ZIN A   1      18.115  -4.757   7.740  0.00  0.00     0.266 C 
BRANCH   4   5
ATOM      5  C2  ZIN A   1      17.433  -4.648   9.106  0.00  0.00     0.173 C 
BRANCH   5   6
ATOM      6  O1  ZIN A   1      17.358  -5.943   9.705  0.00  0.00    -0.391 OA
ATOM      7  H36 ZIN A   1      16.836  -6.581   9.200  0.00  0.00     0.210 HD
ENDBRANCH   5   6
BRANCH   5   8
ATOM      8  C24 ZIN A   1      18.244  -3.715  10.008  0.00  0.00     0.159 C 
ATOM      9  O35 ZIN A   1      17.360  -2.867  10.741  0.00  0.00    -0.343 OA
ATOM     10  C34 ZIN A   1      17.882  -2.134  11.761  0.00  0.00     0.075 A 
ATOM     11  C28 ZIN A   1      19.111  -2.435  12.320  0.00  0.00    -0.022 A 
ATOM     12  C33 ZIN A   1      17.147  -1.058  12.248  0.00  0.00     0.040 A 
ATOM     13  C27 ZIN A   1      19.942  -3.589  11.817  0.00  0.00     0.044 C 
ATOM     14  C29 ZIN A   1      19.600  -1.668  13.364  0.00  0.00     0.052 A 
ATOM     15  C26 ZIN A   1      19.061  -4.543  11.007  0.00  0.00     0.040 C 
ATOM     16  C30 ZIN A   1      18.867  -0.600  13.848  0.00  0.00     0.117 A 
ATOM     17  F31 ZIN A   1      19.348   0.144  14.867  0.00  0.00    -0.206 F 
ATOM     18  C32 ZIN A   1      17.639  -0.295  13.287  0.00  0.00     0.045 A 
ENDBRANCH   5   8
ENDBRANCH   4   5
ENDBRANCH   1   4
BRANCH   1  19
ATOM     19  C8  ZIN A   1      18.360  -3.731   5.586  0.00  0.00     0.266 C 
BRANCH  19  20
ATOM     20  C9  ZIN A   1      19.357  -2.582   5.420  0.00  0.00     0.173 C 
BRANCH  20  21
ATOM     21  O11 ZIN A   1      19.445  -2.224   4.040  0.00  0.00    -0.391 OA
ATOM     22  H41 ZIN A   1      20.164  -1.608   3.837  0.00  0.00     0.210 HD
ENDBRANCH  20  21
BRANCH  20  23
ATOM     23  C12 ZIN A   1      18.881  -1.373   6.230  0.00  0.00     0.159 C 
ATOM     24  O23 ZIN A   1      19.568  -1.333   7.482  0.00  0.00    -0.343 OA
ATOM     25  C22 ZIN A   1      19.448  -0.208   8.236  0.00  0.00     0.075 A 
ATOM     26  C16 ZIN A   1      19.000   0.986   7.698  0.00  0.00    -0.022 A 
ATOM     27  C21 ZIN A   1      19.796  -0.272   9.580  0.00  0.00     0.040 A 
ATOM     28  C15 ZIN A   1      18.608   1.095   6.246  0.00  0.00     0.044 C 
ATOM     29  C17 ZIN A   1      18.906   2.110   8.500  0.00  0.00     0.052 A 
ATOM     30  C14 ZIN A   1      19.194  -0.082   5.464  0.00  0.00     0.040 C 
ATOM     31  C18 ZIN A   1      19.252   2.045   9.838  0.00  0.00     0.117 A 
ATOM     32  F19 ZIN A   1      19.158   3.146  10.615  0.00  0.00    -0.206 F 
ATOM     33  C20 ZIN A   1      19.697   0.851  10.378  0.00  0.00     0.045 A 
ENDBRANCH  20  23
ENDBRANCH  19  20
ENDBRANCH   1  19
TORSDOF 8
ENDMDL
MODEL 2
REMARK VINA RESULT:      -8.8      0.238      5.231
REMARK  8 active torsions:
REMARK  status: ('A' for Active; 'I' for Inactive)
REMARK    1  A    between atoms: O1_1  and  C2_2 
REMARK    2  A    between atoms: C2_2  and  C4_3 
REMARK    3  A    between atoms: C2_2  and  C24_21 
REMARK    4  A    between atoms: C4_3  and  N5_4 
REMARK    5  A    between atoms: N5_4  and  C8_7 
REMARK    6  A    between atoms: C8_7  and  C9_8 
REMARK    7  A    between atoms: C9_8  and  O11_9 
REMARK    8  A    between atoms: C9_8  and  C12_10 
ROOT
ATOM      1  N5  ZIN A   1      17.957  -3.534   7.208  0.00  0.00    -0.070 N 
ATOM      2  H6  ZIN A   1      18.542  -2.936   7.772  0.00  0.00     0.277 HD
ATOM      3  H7  ZIN A   1      17.067  -3.084   7.052  0.00  0.00     0.277 HD
ENDROOT
BRANCH   1   4
ATOM      4  C4  ZIN A   1      18.611  -3.784   5.917  0.00  0.00     0.266 C 
BRANCH   4   5
ATOM      5  C2  ZIN A   1      19.462  -2.571   5.533  0.00  0.00     0.173 C 
BRANCH   5   6
ATOM      6  O1  ZIN A   1      19.364  -2.347   4.125  0.00  0.00    -0.391 OA
ATOM      7  H36 ZIN A   1      18.476  -2.480   3.766  0.00  0.00     0.210 HD
ENDBRANCH   5   6
BRANCH   5   8
ATOM      8  C24 ZIN A   1      18.957  -1.336   6.281  0.00  0.00     0.159 C 
ATOM      9  O35 ZIN A   1      19.590  -1.256   7.559  0.00  0.00    -0.343 OA
ATOM     10  C34 ZIN A   1      19.444  -0.107   8.270  0.00  0.00     0.075 A 
ATOM     11  C28 ZIN A   1      19.023   1.070   7.675  0.00  0.00    -0.022 A 
ATOM     12  C33 ZIN A   1      19.733  -0.127   9.631  0.00  0.00     0.040 A 
ATOM     13  C27 ZIN A   1      18.694   1.133   6.206  0.00  0.00     0.044 C 
ATOM     14  C29 ZIN A   1      18.898   2.220   8.437  0.00  0.00     0.052 A 
ATOM     15  C26 ZIN A   1      19.308  -0.071   5.488  0.00  0.00     0.040 C 
ATOM     16  C30 ZIN A   1      19.189   2.198   9.789  0.00  0.00     0.117 A 
ATOM     17  F31 ZIN A   1      19.065   3.323  10.525  0.00  0.00    -0.206 F 
ATOM     18  C32 ZIN A   1      19.605   1.021  10.386  0.00  0.00     0.045 A 
ENDBRANCH   5   8
ENDBRANCH   4   5
ENDBRANCH   1   4
BRANCH   1  19
ATOM     19  C8  ZIN A   1      17.745  -4.810   7.904  0.00  0.00     0.266 C 
BRANCH  19  20
ATOM     20  C9  ZIN A   1      17.078  -4.548   9.256  0.00  0.00     0.173 C 
BRANCH  20  21
ATOM     21  O11 ZIN A   1      16.868  -5.789   9.932  0.00  0.00    -0.391 OA
ATOM     22  H41 ZIN A   1      16.112  -6.295   9.602  0.00  0.00     0.210 HD
ENDBRANCH  20  21
BRANCH  20  23
ATOM     23  C12 ZIN A   1      17.982  -3.652  10.106  0.00  0.00     0.159 C 
ATOM     24  O23 ZIN A   1      17.181  -2.759  10.882  0.00  0.00    -0.343 OA
ATOM     25  C22 ZIN A   1      17.794  -2.048  11.866  0.00  0.00     0.075 A 
ATOM     26  C16 ZIN A   1      19.035  -2.407  12.359  0.00  0.00    -0.022 A 
ATOM     27  C21 ZIN A   1      17.139  -0.937  12.385  0.00  0.00     0.040 A 
ATOM     28  C15 ZIN A   1      19.780  -3.602  11.818  0.00  0.00     0.044 C 
ATOM     29  C17 ZIN A   1      19.617  -1.661  13.369  0.00  0.00     0.052 A 
ATOM     30  C14 ZIN A   1      18.811  -4.515  11.064  0.00  0.00     0.040 C 
ATOM     31  C18 ZIN A   1      18.965  -0.556  13.886  0.00  0.00     0.117 A 
ATOM     32  F19 ZIN A   1      19.537   0.167  14.873  0.00  0.00    -0.206 F 
ATOM     33  C20 ZIN A   1      17.723  -0.194  13.392  0.00  0.00     0.045 A 
ENDBRANCH  20  23
ENDBRANCH  19  20
ENDBRANCH   1  19
TORSDOF 8
ENDMDL
MODEL 3
REMARK VINA RESULT:      -8.8      5.845      8.581
REMARK  8 active torsions:
REMARK  status: ('A' for Active; 'I' for Inactive)
REMARK    1  A    between atoms: O1_1  and  C2_2 
REMARK    2  A    between atoms: C2_2  and  C4_3 
REMARK    3  A    between atoms: C2_2  and  C24_21 
REMARK    4  A    between atoms: C4_3  and  N5_4 
REMARK    5  A    between atoms: N5_4  and  C8_7 
REMARK    6  A    between atoms: C8_7  and  C9_8 
REMARK    7  A    between atoms: C9_8  and  O11_9 
REMARK    8  A    between atoms: C9_8  and  C12_10 
ROOT
ATOM      1  N5  ZIN A   1      19.852   4.414  16.753  0.00  0.00    -0.070 N 
ATOM      2  H6  ZIN A   1      20.628   4.260  17.380  0.00  0.00     0.277 HD
ATOM      3  H7  ZIN A   1      19.863   3.714  16.027  0.00  0.00     0.277 HD
ENDROOT
BRANCH   1   4
ATOM      4  C4  ZIN A   1      18.592   4.325  17.501  0.00  0.00     0.266 C 
BRANCH   4   5
ATOM      5  C2  ZIN A   1      18.670   3.163  18.494  0.00  0.00     0.173 C 
BRANCH   5   6
ATOM      6  O1  ZIN A   1      17.725   3.372  19.546  0.00  0.00    -0.391 OA
ATOM      7  H36 ZIN A   1      16.810   3.456  19.242  0.00  0.00     0.210 HD
ENDBRANCH   5   6
BRANCH   5   8
ATOM      8  C24 ZIN A   1      18.348   1.852  17.773  0.00  0.00     0.159 C 
ATOM      9  O35 ZIN A   1      18.346   2.068  16.361  0.00  0.00    -0.343 OA
ATOM     10  C34 ZIN A   1      18.310   0.977  15.552  0.00  0.00     0.075 A 
ATOM     11  C28 ZIN A   1      18.622  -0.288  16.019  0.00  0.00    -0.022 A 
ATOM     12  C33 ZIN A   1      17.951   1.151  14.219  0.00  0.00     0.040 A 
ATOM     13  C27 ZIN A   1      19.009  -0.521  17.457  0.00  0.00     0.044 C 
ATOM     14  C29 ZIN A   1      18.582  -1.370  15.155  0.00  0.00     0.052 A 
ATOM     15  C26 ZIN A   1      19.419   0.805  18.102  0.00  0.00     0.040 C 
ATOM     16  C30 ZIN A   1      18.228  -1.194  13.830  0.00  0.00     0.117 A 
ATOM     17  F31 ZIN A   1      18.191  -2.253  12.993  0.00  0.00    -0.206 F 
ATOM     18  C32 ZIN A   1      17.910   0.070  13.363  0.00  0.00     0.045 A 
ENDBRANCH   5   8
ENDBRANCH   4   5
ENDBRANCH   1   4
BRANCH   1  19
ATOM     19  C8  ZIN A   1      19.969   5.748  16.148  0.00  0.00     0.266 C 
BRANCH  19  20
ATOM     20  C9  ZIN A   1      18.577   6.260  15.770  0.00  0.00     0.173 C 
BRANCH  20  21
ATOM     21  O11 ZIN A   1      18.518   7.672  15.975  0.00  0.00    -0.391 OA
ATOM     22  H41 ZIN A   1      19.383   8.105  15.992  0.00  0.00     0.210 HD
ENDBRANCH  20  21
BRANCH  20  23
ATOM     23  C12 ZIN A   1      18.300   5.946  14.298  0.00  0.00     0.159 C 
ATOM     24  O23 ZIN A   1      19.134   4.867  13.872  0.00  0.00    -0.343 OA
ATOM     25  C22 ZIN A   1      18.868   4.297  12.667  0.00  0.00     0.075 A 
ATOM     26  C16 ZIN A   1      17.654   4.475  12.028  0.00  0.00    -0.022 A 
ATOM     27  C21 ZIN A   1      19.851   3.510  12.076  0.00  0.00     0.040 A 
ATOM     28  C15 ZIN A   1      16.565   5.325  12.633  0.00  0.00     0.044 C 
ATOM     29  C17 ZIN A   1      17.422   3.866  10.807  0.00  0.00     0.052 A 
ATOM     30  C14 ZIN A   1      16.836   5.524  14.126  0.00  0.00     0.040 C 
ATOM     31  C18 ZIN A   1      18.400   3.083  10.220  0.00  0.00     0.117 A 
ATOM     32  F19 ZIN A   1      18.167   2.490   9.029  0.00  0.00    -0.206 F 
ATOM     33  C20 ZIN A   1      19.617   2.906  10.856  0.00  0.00     0.045 A 
ENDBRANCH  20  23
ENDBRANCH  19  20
ENDBRANCH   1  19
TORSDOF 8
ENDMDL
MODEL 4
REMARK VINA RESULT:      -8.8      3.506      5.667
REMARK  8 active torsions:
REMARK  status: ('A' for Active; 'I' for Inactive)
REMARK    1  A    between atoms: O1_1  and  C2_2 
REMARK    2  A    between atoms: C2_2  and  C4_3 
REMARK    3  A    between atoms: C2_2  and  C24_21 
REMARK    4  A    between atoms: C4_3  and  N5_4 
REMARK    5  A    between atoms: N5_4  and  C8_7 
REMARK    6  A    between atoms: C8_7  and  C9_8 
REMARK    7  A    between atoms: C9_8  and  O11_9 
REMARK    8  A    between atoms: C9_8  and  C12_10 
ROOT
ATOM      1  N5  ZIN A   1      19.102   1.814  10.717  0.00  0.00    -0.070 N 
ATOM      2  H6  ZIN A   1      19.351   2.657  10.222  0.00  0.00     0.277 HD
ATOM      3  H7  ZIN A   1      19.467   1.013  10.222  0.00  0.00     0.277 HD
ENDROOT
BRANCH   1   4
ATOM      4  C4  ZIN A   1      19.669   1.853  12.070  0.00  0.00     0.266 C 
BRANCH   4   5
ATOM      5  C2  ZIN A   1      20.344   0.515  12.380  0.00  0.00     0.173 C 
BRANCH   5   6
ATOM      6  O1  ZIN A   1      21.750   0.626  12.151  0.00  0.00    -0.391 OA
ATOM      7  H36 ZIN A   1      22.007   0.521  11.225  0.00  0.00     0.210 HD
ENDBRANCH   5   6
BRANCH   5   8
ATOM      8  C24 ZIN A   1      20.093   0.143  13.843  0.00  0.00     0.159 C 
ATOM      9  O35 ZIN A   1      19.614   1.285  14.554  0.00  0.00    -0.343 OA
ATOM     10  C34 ZIN A   1      19.118   1.093  15.805  0.00  0.00     0.075 A 
ATOM     11  C28 ZIN A   1      18.746  -0.161  16.257  0.00  0.00    -0.022 A 
ATOM     12  C33 ZIN A   1      18.981   2.196  16.641  0.00  0.00     0.040 A 
ATOM     13  C27 ZIN A   1      18.884  -1.384  15.385  0.00  0.00     0.044 C 
ATOM     14  C29 ZIN A   1      18.236  -0.309  17.536  0.00  0.00     0.052 A 
ATOM     15  C26 ZIN A   1      19.030  -0.959  13.922  0.00  0.00     0.040 C 
ATOM     16  C30 ZIN A   1      18.099   0.790  18.364  0.00  0.00     0.117 A 
ATOM     17  F31 ZIN A   1      17.600   0.639  19.610  0.00  0.00    -0.206 F 
ATOM     18  C32 ZIN A   1      18.474   2.044  17.915  0.00  0.00     0.045 A 
ENDBRANCH   5   8
ENDBRANCH   4   5
ENDBRANCH   1   4
BRANCH   1  19
ATOM     19  C8  ZIN A   1      17.639   1.710  10.801  0.00  0.00     0.266 C 
BRANCH  19  20
ATOM     20  C9  ZIN A   1      17.246   0.253  11.056  0.00  0.00     0.173 C 
BRANCH  20  21
ATOM     21  O11 ZIN A   1      15.887   0.196  11.493  0.00  0.00    -0.391 OA
ATOM     22  H41 ZIN A   1      15.364  -0.498  11.067  0.00  0.00     0.210 HD
ENDBRANCH  20  21
BRANCH  20  23
ATOM     23  C12 ZIN A   1      17.398  -0.550   9.762  0.00  0.00     0.159 C 
ATOM     24  O23 ZIN A   1      17.842   0.311   8.711  0.00  0.00    -0.343 OA
ATOM     25  C22 ZIN A   1      18.254  -0.264   7.551  0.00  0.00     0.075 A 
ATOM     26  C16 ZIN A   1      18.585  -1.605   7.479  0.00  0.00    -0.022 A 
ATOM     27  C21 ZIN A   1      18.347   0.532   6.414  0.00  0.00     0.040 A 
ATOM     28  C15 ZIN A   1      18.492  -2.503   8.687  0.00  0.00     0.044 C 
ATOM     29  C17 ZIN A   1      19.012  -2.146   6.279  0.00  0.00     0.052 A 
ATOM     30  C14 ZIN A   1      18.445  -1.654   9.958  0.00  0.00     0.040 C 
ATOM     31  C18 ZIN A   1      19.105  -1.353   5.148  0.00  0.00     0.117 A 
ATOM     32  F19 ZIN A   1      19.522  -1.887   3.980  0.00  0.00    -0.206 F 
ATOM     33  C20 ZIN A   1      18.770  -0.012   5.218  0.00  0.00     0.045 A 
ENDBRANCH  20  23
ENDBRANCH  19  20
ENDBRANCH   1  19
TORSDOF 8
ENDMDL
MODEL 5
REMARK VINA RESULT:      -8.8      4.614      8.347
REMARK  8 active torsions:
REMARK  status: ('A' for Active; 'I' for Inactive)
REMARK    1  A    between atoms: O1_1  and  C2_2 
REMARK    2  A    between atoms: C2_2  and  C4_3 
REMARK    3  A    between atoms: C2_2  and  C24_21 
REMARK    4  A    between atoms: C4_3  and  N5_4 
REMARK    5  A    between atoms: N5_4  and  C8_7 
REMARK    6  A    between atoms: C8_7  and  C9_8 
REMARK    7  A    between atoms: C9_8  and  O11_9 
REMARK    8  A    between atoms: C9_8  and  C12_10 
ROOT
ATOM      1  N5  ZIN A   1      18.127   2.228  16.181  0.00  0.00    -0.070 N 
ATOM      2  H6  ZIN A   1      17.297   2.328  16.746  0.00  0.00     0.277 HD
ATOM      3  H7  ZIN A   1      17.864   2.111  15.214  0.00  0.00     0.277 HD
ENDROOT
BRANCH   1   4
ATOM      4  C4  ZIN A   1      18.962   3.427  16.320  0.00  0.00     0.266 C 
BRANCH   4   5
ATOM      5  C2  ZIN A   1      18.184   4.650  15.829  0.00  0.00     0.173 C 
BRANCH   5   6
ATOM      6  O1  ZIN A   1      18.736   5.832  16.413  0.00  0.00    -0.391 OA
ATOM      7  H36 ZIN A   1      18.074   6.447  16.757  0.00  0.00     0.210 HD
ENDBRANCH   5   6
BRANCH   5   8
ATOM      8  C24 ZIN A   1      18.285   4.741  14.305  0.00  0.00     0.159 C 
ATOM      9  O35 ZIN A   1      18.877   3.547  13.790  0.00  0.00    -0.343 OA
ATOM     10  C34 ZIN A   1      18.836   3.346  12.446  0.00  0.00     0.075 A 
ATOM     11  C28 ZIN A   1      17.967   4.049  11.630  0.00  0.00    -0.022 A 
ATOM     12  C33 ZIN A   1      19.694   2.403  11.891  0.00  0.00     0.040 A 
ATOM     13  C27 ZIN A   1      17.026   5.085  12.191  0.00  0.00     0.044 C 
ATOM     14  C29 ZIN A   1      17.953   3.805  10.267  0.00  0.00     0.052 A 
ATOM     15  C26 ZIN A   1      16.883   4.886  13.701  0.00  0.00     0.040 C 
ATOM     16  C30 ZIN A   1      18.805   2.864   9.717  0.00  0.00     0.117 A 
ATOM     17  F31 ZIN A   1      18.786   2.630   8.387  0.00  0.00    -0.206 F 
ATOM     18  C32 ZIN A   1      19.678   2.164  10.532  0.00  0.00     0.045 A 
ENDBRANCH   5   8
ENDBRANCH   4   5
ENDBRANCH   1   4
BRANCH   1  19
ATOM     19  C8  ZIN A   1      18.883   1.050  16.628  0.00  0.00     0.266 C 
BRANCH  19  20
ATOM     20  C9  ZIN A   1      17.962  -0.173  16.639  0.00  0.00     0.173 C 
BRANCH  20  21
ATOM     21  O11 ZIN A   1      16.626   0.240  16.928  0.00  0.00    -0.391 OA
ATOM     22  H41 ZIN A   1      15.990   0.036  16.228  0.00  0.00     0.210 HD
ENDBRANCH  20  21
BRANCH  20  23
ATOM     23  C12 ZIN A   1      18.000  -0.851  15.267  0.00  0.00     0.159 C 
ATOM     24  O23 ZIN A   1      17.379  -0.006  14.296  0.00  0.00    -0.343 OA
ATOM     25  C22 ZIN A   1      17.523  -0.335  12.985  0.00  0.00     0.075 A 
ATOM     26  C16 ZIN A   1      18.503  -1.211  12.556  0.00  0.00    -0.022 A 
ATOM     27  C21 ZIN A   1      16.657   0.240  12.060  0.00  0.00     0.040 A 
ATOM     28  C15 ZIN A   1      19.458  -1.859  13.527  0.00  0.00     0.044 C 
ATOM     29  C17 ZIN A   1      18.621  -1.508  11.209  0.00  0.00     0.052 A 
ATOM     30  C14 ZIN A   1      19.456  -1.083  14.846  0.00  0.00     0.040 C 
ATOM     31  C18 ZIN A   1      17.760  -0.935  10.290  0.00  0.00     0.117 A 
ATOM     32  F19 ZIN A   1      17.880  -1.228   8.977  0.00  0.00    -0.206 F 
ATOM     33  C20 ZIN A   1      16.776  -0.061  10.718  0.00  0.00     0.045 A 
ENDBRANCH  20  23
ENDBRANCH  19  20
ENDBRANCH   1  19
TORSDOF 8
ENDMDL
MODEL 6
REMARK VINA RESULT:      -8.7      4.165      6.625
REMARK  8 active torsions:
REMARK  status: ('A' for Active; 'I' for Inactive)
REMARK    1  A    between atoms: O1_1  and  C2_2 
REMARK    2  A    between atoms: C2_2  and  C4_3 
REMARK    3  A    between atoms: C2_2  and  C24_21 
REMARK    4  A    between atoms: C4_3  and  N5_4 
REMARK    5  A    between atoms: N5_4  and  C8_7 
REMARK    6  A    between atoms: C8_7  and  C9_8 
REMARK    7  A    between atoms: C9_8  and  O11_9 
REMARK    8  A    between atoms: C9_8  and  C12_10 
ROOT
ATOM      1  N5  ZIN A   1      17.746   3.641  14.781  0.00  0.00    -0.070 N 
ATOM      2  H6  ZIN A   1      17.561   2.696  14.479  0.00  0.00     0.277 HD
ATOM      3  H7  ZIN A   1      16.907   4.039  15.174  0.00  0.00     0.277 HD
ENDROOT
BRANCH   1   4
ATOM      4  C4  ZIN A   1      18.806   3.632  15.798  0.00  0.00     0.266 C 
BRANCH   4   5
ATOM      5  C2  ZIN A   1      18.887   2.244  16.438  0.00  0.00     0.173 C 
BRANCH   5   6
ATOM      6  O1  ZIN A   1      17.887   2.129  17.452  0.00  0.00    -0.391 OA
ATOM      7  H36 ZIN A   1      16.990   2.312  17.143  0.00  0.00     0.210 HD
ENDBRANCH   5   6
BRANCH   5   8
ATOM      8  C24 ZIN A   1      18.654   1.174  15.369  0.00  0.00     0.159 C 
ATOM      9  O35 ZIN A   1      19.656   1.279  14.357  0.00  0.00    -0.343 OA
ATOM     10  C34 ZIN A   1      19.752   0.272  13.449  0.00  0.00     0.075 A 
ATOM     11  C28 ZIN A   1      19.176  -0.967  13.672  0.00  0.00    -0.022 A 
ATOM     12  C33 ZIN A   1      20.453   0.505  12.271  0.00  0.00     0.040 A 
ATOM     13  C27 ZIN A   1      18.402  -1.258  14.933  0.00  0.00     0.044 C 
ATOM     14  C29 ZIN A   1      19.306  -1.968  12.724  0.00  0.00     0.052 A 
ATOM     15  C26 ZIN A   1      18.748  -0.219  16.002  0.00  0.00     0.040 C 
ATOM     16  C30 ZIN A   1      20.006  -1.734  11.555  0.00  0.00     0.117 A 
ATOM     17  F31 ZIN A   1      20.130  -2.715  10.634  0.00  0.00    -0.206 F 
ATOM     18  C32 ZIN A   1      20.579  -0.495  11.328  0.00  0.00     0.045 A 
ENDBRANCH   5   8
ENDBRANCH   4   5
ENDBRANCH   1   4
BRANCH   1  19
ATOM     19  C8  ZIN A   1      18.178   4.447  13.631  0.00  0.00     0.266 C 
BRANCH  19  20
ATOM     20  C9  ZIN A   1      17.258   4.169  12.440  0.00  0.00     0.173 C 
BRANCH  20  21
ATOM     21  O11 ZIN A   1      16.998   5.389  11.745  0.00  0.00    -0.391 OA
ATOM     22  H41 ZIN A   1      17.626   5.580  11.033  0.00  0.00     0.210 HD
ENDBRANCH  20  21
BRANCH  20  23
ATOM     23  C12 ZIN A   1      17.937   3.178  11.492  0.00  0.00     0.159 C 
ATOM     24  O23 ZIN A   1      17.126   2.009  11.357  0.00  0.00    -0.343 OA
ATOM     25  C22 ZIN A   1      17.451   1.121  10.380  0.00  0.00     0.075 A 
ATOM     26  C16 ZIN A   1      18.280   1.465   9.328  0.00  0.00    -0.022 A 
ATOM     27  C21 ZIN A   1      16.921  -0.163  10.451  0.00  0.00     0.040 A 
ATOM     28  C15 ZIN A   1      18.879   2.845   9.218  0.00  0.00     0.044 C 
ATOM     29  C17 ZIN A   1      18.575   0.532   8.349  0.00  0.00     0.052 A 
ATOM     30  C14 ZIN A   1      18.101   3.816  10.107  0.00  0.00     0.040 C 
ATOM     31  C18 ZIN A   1      18.047  -0.745   8.420  0.00  0.00     0.117 A 
ATOM     32  F19 ZIN A   1      18.337  -1.652   7.462  0.00  0.00    -0.206 F 
ATOM     33  C20 ZIN A   1      17.219  -1.092   9.474  0.00  0.00     0.045 A 
ENDBRANCH  20  23
ENDBRANCH  19  20
ENDBRANCH   1  19
TORSDOF 8
ENDMDL
MODEL 7
REMARK VINA RESULT:      -8.6      3.523      7.830
REMARK  8 active torsions:
REMARK  status: ('A' for Active; 'I' for Inactive)
REMARK    1  A    between atoms: O1_1  and  C2_2 
REMARK    2  A    between atoms: C2_2  and  C4_3 
REMARK    3  A    between atoms: C2_2  and  C24_21 
REMARK    4  A    between atoms: C4_3  and  N5_4 
REMARK    5  A    between atoms: N5_4  and  C8_7 
REMARK    6  A    between atoms: C8_7  and  C9_8 
REMARK    7  A    between atoms: C9_8  and  O11_9 
REMARK    8  A    between atoms: C9_8  and  C12_10 
ROOT
ATOM      1  N5  ZIN A   1      17.699  -1.021  11.867  0.00  0.00    -0.070 N 
ATOM      2  H6  ZIN A   1      17.294  -1.717  11.260  0.00  0.00     0.277 HD
ATOM      3  H7  ZIN A   1      18.577  -0.708  11.480  0.00  0.00     0.277 HD
ENDROOT
BRANCH   1   4
ATOM      4  C4  ZIN A   1      16.782   0.120  11.986  0.00  0.00     0.266 C 
BRANCH   4   5
ATOM      5  C2  ZIN A   1      17.484   1.391  11.502  0.00  0.00     0.173 C 
BRANCH   5   6
ATOM      6  O1  ZIN A   1      18.424   1.821  12.488  0.00  0.00    -0.391 OA
ATOM      7  H36 ZIN A   1      19.104   1.165  12.695  0.00  0.00     0.210 HD
ENDBRANCH   5   6
BRANCH   5   8
ATOM      8  C24 ZIN A   1      18.217   1.101  10.190  0.00  0.00     0.159 C 
ATOM      9  O35 ZIN A   1      17.313   0.513   9.254  0.00  0.00    -0.343 OA
ATOM     10  C34 ZIN A   1      17.720   0.400   7.962  0.00  0.00     0.075 A 
ATOM     11  C28 ZIN A   1      18.790   1.126   7.469  0.00  0.00    -0.022 A 
ATOM     12  C33 ZIN A   1      17.031  -0.470   7.123  0.00  0.00     0.040 A 
ATOM     13  C27 ZIN A   1      19.567   2.074   8.346  0.00  0.00     0.044 C 
ATOM     14  C29 ZIN A   1      19.164   0.987   6.143  0.00  0.00     0.052 A 
ATOM     15  C26 ZIN A   1      18.747   2.411   9.594  0.00  0.00     0.040 C 
ATOM     16  C30 ZIN A   1      18.476   0.123   5.310  0.00  0.00     0.117 A 
ATOM     17  F31 ZIN A   1      18.846  -0.008   4.018  0.00  0.00    -0.206 F 
ATOM     18  C32 ZIN A   1      17.409  -0.607   5.803  0.00  0.00     0.045 A 
ENDBRANCH   5   8
ENDBRANCH   4   5
ENDBRANCH   1   4
BRANCH   1  19
ATOM     19  C8  ZIN A   1      17.931  -1.604  13.195  0.00  0.00     0.266 C 
BRANCH  19  20
ATOM     20  C9  ZIN A   1      19.421  -1.526  13.533  0.00  0.00     0.173 C 
BRANCH  20  21
ATOM     21  O11 ZIN A   1      20.096  -0.758  12.536  0.00  0.00    -0.391 OA
ATOM     22  H41 ZIN A   1      20.539  -1.291  11.860  0.00  0.00     0.210 HD
ENDBRANCH  20  21
BRANCH  20  23
ATOM     23  C12 ZIN A   1      19.600  -0.857  14.898  0.00  0.00     0.159 C 
ATOM     24  O23 ZIN A   1      19.314   0.539  14.791  0.00  0.00    -0.343 OA
ATOM     25  C22 ZIN A   1      19.194   1.253  15.941  0.00  0.00     0.075 A 
ATOM     26  C16 ZIN A   1      18.990   0.638  17.163  0.00  0.00    -0.022 A 
ATOM     27  C21 ZIN A   1      19.274   2.640  15.871  0.00  0.00     0.040 A 
ATOM     28  C15 ZIN A   1      18.902  -0.863  17.282  0.00  0.00     0.044 C 
ATOM     29  C17 ZIN A   1      18.861   1.405  18.308  0.00  0.00     0.052 A 
ATOM     30  C14 ZIN A   1      18.623  -1.474  15.907  0.00  0.00     0.040 C 
ATOM     31  C18 ZIN A   1      18.940   2.785  18.237  0.00  0.00     0.117 A 
ATOM     32  F19 ZIN A   1      18.813   3.528  19.357  0.00  0.00    -0.206 F 
ATOM     33  C20 ZIN A   1      19.148   3.402  17.015  0.00  0.00     0.045 A 
ENDBRANCH  20  23
ENDBRANCH  19  20
ENDBRANCH   1  19
TORSDOF 8
ENDMDL
MODEL 8
REMARK VINA RESULT:      -8.5      1.670      4.636
REMARK  8 active torsions:
REMARK  status: ('A' for Active; 'I' for Inactive)
REMARK    1  A    between atoms: O1_1  and  C2_2 
REMARK    2  A    between atoms: C2_2  and  C4_3 
REMARK    3  A    between atoms: C2_2  and  C24_21 
REMARK    4  A    between atoms: C4_3  and  N5_4 
REMARK    5  A    between atoms: N5_4  and  C8_7 
REMARK    6  A    between atoms: C8_7  and  C9_8 
REMARK    7  A    between atoms: C9_8  and  O11_9 
REMARK    8  A    between atoms: C9_8  and  C12_10 
ROOT
ATOM      1  N5  ZIN A   1      18.154  -2.748   6.915  0.00  0.00    -0.070 N 
ATOM      2  H6  ZIN A   1      17.854  -2.357   7.796  0.00  0.00     0.277 HD
ATOM      3  H7  ZIN A   1      17.346  -3.020   6.376  0.00  0.00     0.277 HD
ENDROOT
BRANCH   1   4
ATOM      4  C4  ZIN A   1      18.924  -1.744   6.171  0.00  0.00     0.266 C 
BRANCH   4   5
ATOM      5  C2  ZIN A   1      18.002  -0.593   5.762  0.00  0.00     0.173 C 
BRANCH   5   6
ATOM      6  O1  ZIN A   1      16.705  -1.109   5.454  0.00  0.00    -0.391 OA
ATOM      7  H36 ZIN A   1      16.716  -1.998   5.073  0.00  0.00     0.210 HD
ENDBRANCH   5   6
BRANCH   5   8
ATOM      8  C24 ZIN A   1      17.891   0.407   6.915  0.00  0.00     0.159 C 
ATOM      9  O35 ZIN A   1      17.425  -0.262   8.088  0.00  0.00    -0.343 OA
ATOM     10  C34 ZIN A   1      17.485   0.410   9.268  0.00  0.00     0.075 A 
ATOM     11  C28 ZIN A   1      18.276   1.534   9.428  0.00  0.00    -0.022 A 
ATOM     12  C33 ZIN A   1      16.728  -0.059  10.337  0.00  0.00     0.040 A 
ATOM     13  C27 ZIN A   1      19.106   2.079   8.293  0.00  0.00     0.044 C 
ATOM     14  C29 ZIN A   1      18.314   2.181  10.652  0.00  0.00     0.052 A 
ATOM     15  C26 ZIN A   1      19.271   1.006   7.215  0.00  0.00     0.040 C 
ATOM     16  C30 ZIN A   1      17.563   1.711  11.714  0.00  0.00     0.117 A 
ATOM     17  F31 ZIN A   1      17.605   2.346  12.905  0.00  0.00    -0.206 F 
ATOM     18  C32 ZIN A   1      16.768   0.590  11.554  0.00  0.00     0.045 A 
ENDBRANCH   5   8
ENDBRANCH   4   5
ENDBRANCH   1   4
BRANCH   1  19
ATOM     19  C8  ZIN A   1      18.996  -3.926   7.163  0.00  0.00     0.266 C 
BRANCH  19  20
ATOM     20  C9  ZIN A   1      18.294  -4.854   8.157  0.00  0.00     0.173 C 
BRANCH  20  21
ATOM     21  O11 ZIN A   1      18.765  -6.190   7.974  0.00  0.00    -0.391 OA
ATOM     22  H41 ZIN A   1      19.322  -6.514   8.697  0.00  0.00     0.210 HD
ENDBRANCH  20  21
BRANCH  20  23
ATOM     23  C12 ZIN A   1      18.599  -4.397   9.585  0.00  0.00     0.159 C 
ATOM     24  O23 ZIN A   1      19.181  -3.093   9.558  0.00  0.00    -0.343 OA
ATOM     25  C22 ZIN A   1      19.306  -2.429  10.738  0.00  0.00     0.075 A 
ATOM     26  C16 ZIN A   1      18.594  -2.802  11.864  0.00  0.00    -0.022 A 
ATOM     27  C21 ZIN A   1      20.172  -1.342  10.797  0.00  0.00     0.040 A 
ATOM     28  C15 ZIN A   1      17.649  -3.978  11.841  0.00  0.00     0.044 C 
ATOM     29  C17 ZIN A   1      18.743  -2.090  13.041  0.00  0.00     0.052 A 
ATOM     30  C14 ZIN A   1      17.298  -4.330  10.395  0.00  0.00     0.040 C 
ATOM     31  C18 ZIN A   1      19.604  -1.008  13.099  0.00  0.00     0.117 A 
ATOM     32  F19 ZIN A   1      19.745  -0.317  14.251  0.00  0.00    -0.206 F 
ATOM     33  C20 ZIN A   1      20.320  -0.636  11.974  0.00  0.00     0.045 A 
ENDBRANCH  20  23
ENDBRANCH  19  20
ENDBRANCH   1  19
TORSDOF 8
ENDMDL
MODEL 9
REMARK VINA RESULT:      -8.4      3.479      6.981
REMARK  8 active torsions:
REMARK  status: ('A' for Active; 'I' for Inactive)
REMARK    1  A    between atoms: O1_1  and  C2_2 
REMARK    2  A    between atoms: C2_2  and  C4_3 
REMARK    3  A    between atoms: C2_2  and  C24_21 
REMARK    4  A    between atoms: C4_3  and  N5_4 
REMARK    5  A    between atoms: N5_4  and  C8_7 
REMARK    6  A    between atoms: C8_7  and  C9_8 
REMARK    7  A    between atoms: C9_8  and  O11_9 
REMARK    8  A    between atoms: C9_8  and  C12_10 
ROOT
ATOM      1  N5  ZIN A   1      19.090   2.293  10.842  0.00  0.00    -0.070 N 
ATOM      2  H6  ZIN A   1      19.854   2.392  10.191  0.00  0.00     0.277 HD
ATOM      3  H7  ZIN A   1      18.525   3.129  10.826  0.00  0.00     0.277 HD
ENDROOT
BRANCH   1   4
ATOM      4  C4  ZIN A   1      18.267   1.139  10.460  0.00  0.00     0.266 C 
BRANCH   4   5
ATOM      5  C2  ZIN A   1      18.719   0.620   9.094  0.00  0.00     0.173 C 
BRANCH   5   6
ATOM      6  O1  ZIN A   1      19.996   1.174   8.772  0.00  0.00    -0.391 OA
ATOM      7  H36 ZIN A   1      20.632   1.144   9.500  0.00  0.00     0.210 HD
ENDBRANCH   5   6
BRANCH   5   8
ATOM      8  C24 ZIN A   1      18.822  -0.906   9.136  0.00  0.00     0.159 C 
ATOM      9  O35 ZIN A   1      18.042  -1.410  10.221  0.00  0.00    -0.343 OA
ATOM     10  C34 ZIN A   1      17.824  -2.751  10.278  0.00  0.00     0.075 A 
ATOM     11  C28 ZIN A   1      18.019  -3.568   9.179  0.00  0.00    -0.022 A 
ATOM     12  C33 ZIN A   1      17.390  -3.302  11.479  0.00  0.00     0.040 A 
ATOM     13  C27 ZIN A   1      18.495  -3.012   7.861  0.00  0.00     0.044 C 
ATOM     14  C29 ZIN A   1      17.775  -4.928   9.279  0.00  0.00     0.052 A 
ATOM     15  C26 ZIN A   1      18.276  -1.498   7.831  0.00  0.00     0.040 C 
ATOM     16  C30 ZIN A   1      17.341  -5.473  10.474  0.00  0.00     0.117 A 
ATOM     17  F31 ZIN A   1      17.104  -6.800  10.565  0.00  0.00    -0.206 F 
ATOM     18  C32 ZIN A   1      17.150  -4.658  11.576  0.00  0.00     0.045 A 
ENDBRANCH   5   8
ENDBRANCH   4   5
ENDBRANCH   1   4
BRANCH   1  19
ATOM     19  C8  ZIN A   1      19.623   2.089  12.196  0.00  0.00     0.266 C 
BRANCH  19  20
ATOM     20  C9  ZIN A   1      20.132   0.652  12.331  0.00  0.00     0.173 C 
BRANCH  20  21
ATOM     21  O11 ZIN A   1      21.531   0.614  12.048  0.00  0.00    -0.391 OA
ATOM     22  H41 ZIN A   1      21.764   0.073  11.279  0.00  0.00     0.210 HD
ENDBRANCH  20  21
BRANCH  20  23
ATOM     23  C12 ZIN A   1      19.888   0.157  13.759  0.00  0.00     0.159 C 
ATOM     24  O23 ZIN A   1      19.630   1.271  14.616  0.00  0.00    -0.343 OA
ATOM     25  C22 ZIN A   1      19.165   1.015  15.867  0.00  0.00     0.075 A 
ATOM     26  C16 ZIN A   1      18.614  -0.208  16.204  0.00  0.00    -0.022 A 
ATOM     27  C21 ZIN A   1      19.245   2.023  16.822  0.00  0.00     0.040 A 
ATOM     28  C15 ZIN A   1      18.515  -1.329  15.199  0.00  0.00     0.044 C 
ATOM     29  C17 ZIN A   1      18.142  -0.422  17.487  0.00  0.00     0.052 A 
ATOM     30  C14 ZIN A   1      18.664  -0.766  13.784  0.00  0.00     0.040 C 
ATOM     31  C18 ZIN A   1      18.221   0.582  18.437  0.00  0.00     0.117 A 
ATOM     32  F19 ZIN A   1      17.757   0.368  19.687  0.00  0.00    -0.206 F 
ATOM     33  C20 ZIN A   1      18.775   1.806  18.102  0.00  0.00     0.045 A 
ENDBRANCH  20  23
ENDBRANCH  19  20
ENDBRANCH   1  19
TORSDOF 8
ENDMDL
