MODEL 1
REMARK VINA RESULT:      -8.5      0.000      0.000
REMARK  8 active torsions:
REMARK  status: ('A' for Active; 'I' for Inactive)
REMARK    1  A    between atoms: C2_2  and  C4_4 
REMARK    2  A    between atoms: C4_4  and  C5_5 
REMARK    3  A    between atoms: C5_5  and  C6_6 
REMARK    4  A    between atoms: C6_6  and  N7_7 
REMARK    5  A    between atoms: C11_11  and  O12_12 
REMARK    6  A    between atoms: O12_12  and  C13_13 
REMARK    7  A    between atoms: C13_13  and  C15_14 
REMARK    8  A    between atoms: C13_13  and  C22_21 
ROOT
ATOM      1  O12 <0> d   1      17.081   0.224  11.126  0.00  0.00    -0.370 OA
ENDROOT
BRANCH   1   2
ATOM      2  C11 <0> d   1      17.278  -0.449  12.371  0.00  0.00     0.126 C 
ATOM      3  C10 <0> d   1      17.289   0.574  13.510  0.00  0.00     0.059 C 
ATOM      4  C9  <0> d   1      17.579  -0.144  14.830  0.00  0.00     0.237 C 
ATOM      5  N7  <0> d   1      18.887  -0.807  14.753  0.00  0.00    -0.071 N 
ATOM      6  H8  <0> d   1      19.596  -0.125  14.531  0.00  0.00     0.279 HD
ATOM      7  C29 <0> d   1      18.859  -1.839  13.710  0.00  0.00     0.237 C 
ATOM      8  C28 <0> d   1      18.620  -1.187  12.347  0.00  0.00     0.059 C 
BRANCH   5   9
ATOM      9  C6  <0> d   1      19.195  -1.429  16.048  0.00  0.00     0.235 C 
BRANCH   9  10
ATOM     10  C5  <0> d   1      18.349  -0.772  17.142  0.00  0.00     0.038 C 
BRANCH  10  11
ATOM     11  C4  <0> d   1      19.268  -0.206  18.226  0.00  0.00     0.115 C 
BRANCH  11  12
ATOM     12  C2  <0> d   1      18.905   1.233  18.491  0.00  0.00     0.172 C 
ATOM     13  O1  <0> d   1      19.783   2.058  18.683  0.00  0.00    -0.648 OA
ATOM     14  O3  <0> d   1      17.734   1.573  18.509  0.00  0.00    -0.648 OA
ENDBRANCH  11  12
ENDBRANCH  10  11
ENDBRANCH   9  10
ENDBRANCH   5   9
ENDBRANCH   1   2
BRANCH   1  15
ATOM     15  C13 <0> d   1      18.264   0.823  10.594  0.00  0.00     0.206 C 
BRANCH  15  16
ATOM     16  C15 <0> d   1      18.276   0.665   9.095  0.00  0.00    -0.023 A 
ATOM     17  C21 <0> d   1      17.352  -0.157   8.479  0.00  0.00     0.012 A 
ATOM     18  C20 <0> d   1      17.359  -0.297   7.103  0.00  0.00     0.024 A 
ATOM     19  C18 <0> d   1      18.300   0.376   6.345  0.00  0.00     0.034 A 
ATOM     20  C17 <0> d   1      19.230   1.194   6.963  0.00  0.00     0.024 A 
ATOM     21 Cl19 <0> d   1      18.315   0.194   4.619  0.00  0.00    -0.084 Cl
ATOM     22  C16 <0> d   1      19.217   1.338   8.337  0.00  0.00     0.012 A 
ENDBRANCH  15  16
BRANCH  15  23
ATOM     23  C22 <0> d   1      18.290   2.287  10.946  0.00  0.00     0.067 A 
ATOM     24  N27 <0> d   1      17.241   3.040  10.680  0.00  0.00    -0.263 NA
ATOM     25  C26 <0> d   1      17.218   4.325  10.975  0.00  0.00     0.117 A 
ATOM     26  C25 <0> d   1      18.306   4.934  11.571  0.00  0.00     0.019 A 
ATOM     27  C24 <0> d   1      19.429   4.175  11.862  0.00  0.00     0.003 A 
ATOM     28  C23 <0> d   1      19.415   2.826  11.540  0.00  0.00     0.030 A 
ENDBRANCH  15  23
ENDBRANCH   1  15
TORSDOF 8
ENDMDL
MODEL 2
REMARK VINA RESULT:      -8.2      3.789      8.714
REMARK  8 active torsions:
REMARK  status: ('A' for Active; 'I' for Inactive)
REMARK    1  A    between atoms: C2_2  and  C4_4 
REMARK    2  A    between atoms: C4_4  and  C5_5 
REMARK    3  A    between atoms: C5_5  and  C6_6 
REMARK    4  A    between atoms: C6_6  and  N7_7 
REMARK    5  A    between atoms: C11_11  and  O12_12 
REMARK    6  A    between atoms: O12_12  and  C13_13 
REMARK    7  A    between atoms: C13_13  and  C15_14 
REMARK    8  A    between atoms: C13_13  and  C22_21 
ROOT
ATOM      1  O12 <0> d   1      17.243  -0.239  11.960  0.00  0.00    -0.370 OA
ENDROOT
BRANCH   1   2
ATOM      2  C11 <0> d   1      17.381   0.457  10.720  0.00  0.00     0.126 C 
ATOM      3  C10 <0> d   1      17.236  -0.532   9.560  0.00  0.00     0.059 C 
ATOM      4  C9  <0> d   1      17.463   0.204   8.238  0.00  0.00     0.237 C 
ATOM      5  N7  <0> d   1      18.812   0.784   8.222  0.00  0.00    -0.071 N 
ATOM      6  H8  <0> d   1      19.492   0.054   8.369  0.00  0.00     0.279 HD
ATOM      7  C29 <0> d   1      18.933   1.786   9.288  0.00  0.00     0.237 C 
ATOM      8  C28 <0> d   1      18.764   1.110  10.650  0.00  0.00     0.059 C 
BRANCH   5   9
ATOM      9  C6  <0> d   1      19.052   1.423   6.921  0.00  0.00     0.235 C 
BRANCH   9  10
ATOM     10  C5  <0> d   1      18.229   0.711   5.845  0.00  0.00     0.038 C 
BRANCH  10  11
ATOM     11  C4  <0> d   1      19.169   0.100   4.805  0.00  0.00     0.115 C 
BRANCH  11  12
ATOM     12  C2  <0> d   1      19.301  -1.381   5.056  0.00  0.00     0.172 C 
ATOM     13  O1  <0> d   1      19.642  -2.124   4.151  0.00  0.00    -0.648 OA
ATOM     14  O3  <0> d   1      19.070  -1.835   6.164  0.00  0.00    -0.648 OA
ENDBRANCH  11  12
ENDBRANCH  10  11
ENDBRANCH   9  10
ENDBRANCH   5   9
ENDBRANCH   1   2
BRANCH   1  15
ATOM     15  C13 <0> d   1      18.476  -0.726  12.495  0.00  0.00     0.206 C 
BRANCH  15  16
ATOM     16  C15 <0> d   1      18.457  -0.599  13.996  0.00  0.00    -0.023 A 
ATOM     17  C21 <0> d   1      17.605   0.305  14.603  0.00  0.00     0.012 A 
ATOM     18  C20 <0> d   1      17.584   0.418  15.981  0.00  0.00     0.024 A 
ATOM     19  C18 <0> d   1      18.425  -0.366  16.752  0.00  0.00     0.034 A 
ATOM     20  C17 <0> d   1      19.281  -1.266  16.144  0.00  0.00     0.024 A 
ATOM     21 Cl19 <0> d   1      18.404  -0.219  18.481  0.00  0.00    -0.084 Cl
ATOM     22  C16 <0> d   1      19.297  -1.382  14.767  0.00  0.00     0.012 A 
ENDBRANCH  15  16
BRANCH  15  23
ATOM     23  C22 <0> d   1      18.652  -2.173  12.115  0.00  0.00     0.067 A 
ATOM     24  N27 <0> d   1      17.616  -2.987  12.146  0.00  0.00    -0.263 NA
ATOM     25  C26 <0> d   1      17.723  -4.259  11.816  0.00  0.00     0.117 A 
ATOM     26  C25 <0> d   1      18.940  -4.790  11.433  0.00  0.00     0.019 A 
ATOM     27  C24 <0> d   1      20.054  -3.967  11.393  0.00  0.00     0.003 A 
ATOM     28  C23 <0> d   1      19.901  -2.633  11.742  0.00  0.00     0.030 A 
ENDBRANCH  15  23
ENDBRANCH   1  15
TORSDOF 8
ENDMDL
MODEL 3
REMARK VINA RESULT:      -7.9      2.361      4.394
REMARK  8 active torsions:
REMARK  status: ('A' for Active; 'I' for Inactive)
REMARK    1  A    between atoms: C2_2  and  C4_4 
REMARK    2  A    between atoms: C4_4  and  C5_5 
REMARK    3  A    between atoms: C5_5  and  C6_6 
REMARK    4  A    between atoms: C6_6  and  N7_7 
REMARK    5  A    between atoms: C11_11  and  O12_12 
REMARK    6  A    between atoms: O12_12  and  C13_13 
REMARK    7  A    between atoms: C13_13  and  C15_14 
REMARK    8  A    between atoms: C13_13  and  C22_21 
ROOT
ATOM      1  O12 <0> d   1      19.389   1.889  10.124  0.00  0.00    -0.370 OA
ENDROOT
BRANCH   1   2
ATOM      2  C11 <0> d   1      19.018   3.109  10.770  0.00  0.00     0.126 C 
ATOM      3  C10 <0> d   1      20.040   3.442  11.860  0.00  0.00     0.059 C 
ATOM      4  C9  <0> d   1      19.594   4.706  12.599  0.00  0.00     0.237 C 
ATOM      5  N7  <0> d   1      18.279   4.481  13.212  0.00  0.00    -0.071 N 
ATOM      6  H8  <0> d   1      18.328   3.682  13.826  0.00  0.00     0.279 HD
ATOM      7  C29 <0> d   1      17.281   4.232  12.165  0.00  0.00     0.237 C 
ATOM      8  C28 <0> d   1      17.637   2.949  11.410  0.00  0.00     0.059 C 
BRANCH   5   9
ATOM      9  C6  <0> d   1      17.892   5.669  13.984  0.00  0.00     0.235 C 
BRANCH   9  10
ATOM     10  C5  <0> d   1      18.689   5.709  15.290  0.00  0.00     0.038 C 
BRANCH  10  11
ATOM     11  C4  <0> d   1      18.188   4.608  16.227  0.00  0.00     0.115 C 
BRANCH  11  12
ATOM     12  C2  <0> d   1      19.200   3.491  16.274  0.00  0.00     0.172 C 
ATOM     13  O1  <0> d   1      20.025   3.454  17.171  0.00  0.00    -0.648 OA
ATOM     14  O3  <0> d   1      19.189   2.622  15.419  0.00  0.00    -0.648 OA
ENDBRANCH  11  12
ENDBRANCH  10  11
ENDBRANCH   9  10
ENDBRANCH   5   9
ENDBRANCH   1   2
BRANCH   1  15
ATOM     15  C13 <0> d   1      18.289   1.021   9.844  0.00  0.00     0.206 C 
BRANCH  15  16
ATOM     16  C15 <0> d   1      18.248   0.722   8.368  0.00  0.00    -0.023 A 
ATOM     17  C21 <0> d   1      17.293  -0.140   7.863  0.00  0.00     0.012 A 
ATOM     18  C20 <0> d   1      17.252  -0.410   6.508  0.00  0.00     0.024 A 
ATOM     19  C18 <0> d   1      18.175   0.174   5.658  0.00  0.00     0.034 A 
ATOM     20  C17 <0> d   1      19.135   1.032   6.165  0.00  0.00     0.024 A 
ATOM     21 Cl19 <0> d   1      18.129  -0.171   3.957  0.00  0.00    -0.084 Cl
ATOM     22  C16 <0> d   1      19.171   1.305   7.519  0.00  0.00     0.012 A 
ENDBRANCH  15  16
BRANCH  15  23
ATOM     23  C22 <0> d   1      18.455  -0.264  10.613  0.00  0.00     0.067 A 
ATOM     24  N27 <0> d   1      19.599  -0.917  10.555  0.00  0.00    -0.263 NA
ATOM     25  C26 <0> d   1      19.789  -2.042  11.215  0.00  0.00     0.117 A 
ATOM     26  C25 <0> d   1      18.783  -2.587  11.990  0.00  0.00     0.019 A 
ATOM     27  C24 <0> d   1      17.564  -1.932  12.072  0.00  0.00     0.003 A 
ATOM     28  C23 <0> d   1      17.403  -0.748  11.367  0.00  0.00     0.030 A 
ENDBRANCH  15  23
ENDBRANCH   1  15
TORSDOF 8
ENDMDL
MODEL 4
REMARK VINA RESULT:      -7.9      4.511      7.688
REMARK  8 active torsions:
REMARK  status: ('A' for Active; 'I' for Inactive)
REMARK    1  A    between atoms: C2_2  and  C4_4 
REMARK    2  A    between atoms: C4_4  and  C5_5 
REMARK    3  A    between atoms: C5_5  and  C6_6 
REMARK    4  A    between atoms: C6_6  and  N7_7 
REMARK    5  A    between atoms: C11_11  and  O12_12 
REMARK    6  A    between atoms: O12_12  and  C13_13 
REMARK    7  A    between atoms: C13_13  and  C15_14 
REMARK    8  A    between atoms: C13_13  and  C22_21 
ROOT
ATOM      1  O12 <0> d   1      19.767  -1.130  11.979  0.00  0.00    -0.370 OA
ENDROOT
BRANCH   1   2
ATOM      2  C11 <0> d   1      19.515  -2.189  11.054  0.00  0.00     0.126 C 
ATOM      3  C10 <0> d   1      18.023  -2.226  10.712  0.00  0.00     0.059 C 
ATOM      4  C9  <0> d   1      17.748  -3.411   9.783  0.00  0.00     0.237 C 
ATOM      5  N7  <0> d   1      18.129  -4.661  10.453  0.00  0.00    -0.071 N 
ATOM      6  H8  <0> d   1      17.628  -4.741  11.325  0.00  0.00     0.279 HD
ATOM      7  C29 <0> d   1      19.573  -4.661  10.718  0.00  0.00     0.237 C 
ATOM      8  C28 <0> d   1      19.918  -3.525  11.684  0.00  0.00     0.059 C 
BRANCH   5   9
ATOM      9  C6  <0> d   1      17.792  -5.800   9.588  0.00  0.00     0.235 C 
BRANCH   9  10
ATOM     10  C5  <0> d   1      19.057  -6.298   8.885  0.00  0.00     0.038 C 
BRANCH  10  11
ATOM     11  C4  <0> d   1      19.062  -5.805   7.437  0.00  0.00     0.115 C 
BRANCH  11  12
ATOM     12  C2  <0> d   1      20.386  -5.152   7.133  0.00  0.00     0.172 C 
ATOM     13  O1  <0> d   1      20.418  -4.075   6.564  0.00  0.00    -0.648 OA
ATOM     14  O3  <0> d   1      21.425  -5.700   7.461  0.00  0.00    -0.648 OA
ENDBRANCH  11  12
ENDBRANCH  10  11
ENDBRANCH   9  10
ENDBRANCH   5   9
ENDBRANCH   1   2
BRANCH   1  15
ATOM     15  C13 <0> d   1      18.597  -0.408  12.370  0.00  0.00     0.206 C 
BRANCH  15  16
ATOM     16  C15 <0> d   1      18.514  -0.362  13.874  0.00  0.00    -0.023 A 
ATOM     17  C21 <0> d   1      19.252  -1.250  14.635  0.00  0.00     0.012 A 
ATOM     18  C20 <0> d   1      19.180  -1.206  16.014  0.00  0.00     0.024 A 
ATOM     19  C18 <0> d   1      18.360  -0.279  16.634  0.00  0.00     0.034 A 
ATOM     20  C17 <0> d   1      17.617   0.605  15.872  0.00  0.00     0.024 A 
ATOM     21 Cl19 <0> d   1      18.263  -0.227  18.366  0.00  0.00    -0.084 Cl
ATOM     22  C16 <0> d   1      17.695   0.563  14.494  0.00  0.00     0.012 A 
ENDBRANCH  15  16
BRANCH  15  23
ATOM     23  C22 <0> d   1      18.667   0.996  11.828  0.00  0.00     0.067 A 
ATOM     24  N27 <0> d   1      19.732   1.735  12.067  0.00  0.00    -0.263 NA
ATOM     25  C26 <0> d   1      19.839   2.967  11.608  0.00  0.00     0.117 A 
ATOM     26  C25 <0> d   1      18.823   3.533  10.861  0.00  0.00     0.019 A 
ATOM     27  C24 <0> d   1      17.686   2.788  10.592  0.00  0.00     0.003 A 
ATOM     28  C23 <0> d   1      17.612   1.495  11.088  0.00  0.00     0.030 A 
ENDBRANCH  15  23
ENDBRANCH   1  15
TORSDOF 8
ENDMDL
MODEL 5
REMARK VINA RESULT:      -7.9      4.167      8.163
REMARK  8 active torsions:
REMARK  status: ('A' for Active; 'I' for Inactive)
REMARK    1  A    between atoms: C2_2  and  C4_4 
REMARK    2  A    between atoms: C4_4  and  C5_5 
REMARK    3  A    between atoms: C5_5  and  C6_6 
REMARK    4  A    between atoms: C6_6  and  N7_7 
REMARK    5  A    between atoms: C11_11  and  O12_12 
REMARK    6  A    between atoms: O12_12  and  C13_13 
REMARK    7  A    between atoms: C13_13  and  C15_14 
REMARK    8  A    between atoms: C13_13  and  C22_21 
ROOT
ATOM      1  O12 <0> d   1      19.239  -1.019  11.978  0.00  0.00    -0.370 OA
ENDROOT
BRANCH   1   2
ATOM      2  C11 <0> d   1      18.790  -1.816  10.880  0.00  0.00     0.126 C 
ATOM      3  C10 <0> d   1      19.302  -3.250  11.045  0.00  0.00     0.059 C 
ATOM      4  C9  <0> d   1      18.884  -4.077   9.828  0.00  0.00     0.237 C 
ATOM      5  N7  <0> d   1      19.457  -3.488   8.611  0.00  0.00    -0.071 N 
ATOM      6  H8  <0> d   1      20.460  -3.435   8.704  0.00  0.00     0.279 HD
ATOM      7  C29 <0> d   1      18.913  -2.140   8.409  0.00  0.00     0.237 C 
ATOM      8  C28 <0> d   1      19.333  -1.238   9.571  0.00  0.00     0.059 C 
BRANCH   5   9
ATOM      9  C6  <0> d   1      19.118  -4.330   7.456  0.00  0.00     0.235 C 
BRANCH   9  10
ATOM     10  C5  <0> d   1      19.767  -3.751   6.196  0.00  0.00     0.038 C 
BRANCH  10  11
ATOM     11  C4  <0> d   1      18.711  -3.611   5.097  0.00  0.00     0.115 C 
BRANCH  11  12
ATOM     12  C2  <0> d   1      18.721  -2.199   4.570  0.00  0.00     0.172 C 
ATOM     13  O1  <0> d   1      19.774  -1.594   4.466  0.00  0.00    -0.648 OA
ATOM     14  O3  <0> d   1      17.675  -1.663   4.244  0.00  0.00    -0.648 OA
ENDBRANCH  11  12
ENDBRANCH  10  11
ENDBRANCH   9  10
ENDBRANCH   5   9
ENDBRANCH   1   2
BRANCH   1  15
ATOM     15  C13 <0> d   1      18.226  -0.188  12.548  0.00  0.00     0.206 C 
BRANCH  15  16
ATOM     16  C15 <0> d   1      18.337  -0.221  14.050  0.00  0.00    -0.023 A 
ATOM     17  C21 <0> d   1      17.747   0.773  14.809  0.00  0.00     0.012 A 
ATOM     18  C20 <0> d   1      17.844   0.741  16.187  0.00  0.00     0.024 A 
ATOM     19  C18 <0> d   1      18.542  -0.280  16.807  0.00  0.00     0.034 A 
ATOM     20  C17 <0> d   1      19.137  -1.271  16.048  0.00  0.00     0.024 A 
ATOM     21 Cl19 <0> d   1      18.671  -0.317  18.538  0.00  0.00    -0.084 Cl
ATOM     22  C16 <0> d   1      19.034  -1.241  14.670  0.00  0.00     0.012 A 
ENDBRANCH  15  16
BRANCH  15  23
ATOM     23  C22 <0> d   1      18.401   1.226  12.061  0.00  0.00     0.067 A 
ATOM     24  N27 <0> d   1      17.354   1.901  11.627  0.00  0.00    -0.263 NA
ATOM     25  C26 <0> d   1      17.460   3.143  11.196  0.00  0.00     0.117 A 
ATOM     26  C25 <0> d   1      18.685   3.782  11.175  0.00  0.00     0.019 A 
ATOM     27  C24 <0> d   1      19.809   3.104  11.619  0.00  0.00     0.003 A 
ATOM     28  C23 <0> d   1      19.658   1.800  12.069  0.00  0.00     0.030 A 
ENDBRANCH  15  23
ENDBRANCH   1  15
TORSDOF 8
ENDMDL
MODEL 6
REMARK VINA RESULT:      -7.8      4.474      7.683
REMARK  8 active torsions:
REMARK  status: ('A' for Active; 'I' for Inactive)
REMARK    1  A    between atoms: C2_2  and  C4_4 
REMARK    2  A    between atoms: C4_4  and  C5_5 
REMARK    3  A    between atoms: C5_5  and  C6_6 
REMARK    4  A    between atoms: C6_6  and  N7_7 
REMARK    5  A    between atoms: C11_11  and  O12_12 
REMARK    6  A    between atoms: O12_12  and  C13_13 
REMARK    7  A    between atoms: C13_13  and  C15_14 
REMARK    8  A    between atoms: C13_13  and  C22_21 
ROOT
ATOM      1  O12 <0> d   1      19.437  -1.407  12.164  0.00  0.00    -0.370 OA
ENDROOT
BRANCH   1   2
ATOM      2  C11 <0> d   1      19.012  -2.472  11.312  0.00  0.00     0.126 C 
ATOM      3  C10 <0> d   1      19.936  -3.678  11.501  0.00  0.00     0.059 C 
ATOM      4  C9  <0> d   1      19.523  -4.786  10.530  0.00  0.00     0.237 C 
ATOM      5  N7  <0> d   1      19.631  -4.297   9.150  0.00  0.00    -0.071 N 
ATOM      6  H8  <0> d   1      20.573  -3.978   8.980  0.00  0.00     0.279 HD
ATOM      7  C29 <0> d   1      18.694  -3.186   8.943  0.00  0.00     0.237 C 
ATOM      8  C28 <0> d   1      19.076  -2.016   9.852  0.00  0.00     0.059 C 
BRANCH   5   9
ATOM      9  C6  <0> d   1      19.309  -5.387   8.219  0.00  0.00     0.235 C 
BRANCH   9  10
ATOM     10  C5  <0> d   1      18.330  -6.355   8.889  0.00  0.00     0.038 C 
BRANCH  10  11
ATOM     11  C4  <0> d   1      17.027  -6.395   8.089  0.00  0.00     0.115 C 
BRANCH  11  12
ATOM     12  C2  <0> d   1      15.919  -5.775   8.902  0.00  0.00     0.172 C 
ATOM     13  O1  <0> d   1      14.787  -5.724   8.451  0.00  0.00    -0.648 OA
ATOM     14  O3  <0> d   1      16.154  -5.328  10.012  0.00  0.00    -0.648 OA
ENDBRANCH  11  12
ENDBRANCH  10  11
ENDBRANCH   9  10
ENDBRANCH   5   9
ENDBRANCH   1   2
BRANCH   1  15
ATOM     15  C13 <0> d   1      18.378  -0.553  12.602  0.00  0.00     0.206 C 
BRANCH  15  16
ATOM     16  C15 <0> d   1      18.406  -0.448  14.105  0.00  0.00    -0.023 A 
ATOM     17  C21 <0> d   1      19.184  -1.319  14.845  0.00  0.00     0.012 A 
ATOM     18  C20 <0> d   1      19.214  -1.219  16.223  0.00  0.00     0.024 A 
ATOM     19  C18 <0> d   1      18.455  -0.255  16.863  0.00  0.00     0.034 A 
ATOM     20  C17 <0> d   1      17.672   0.612  16.123  0.00  0.00     0.024 A 
ATOM     21 Cl19 <0> d   1      18.487  -0.135  18.595  0.00  0.00    -0.084 Cl
ATOM     22  C16 <0> d   1      17.648   0.515  14.745  0.00  0.00     0.012 A 
ENDBRANCH  15  16
BRANCH  15  23
ATOM     23  C22 <0> d   1      18.554   0.817  11.999  0.00  0.00     0.067 A 
ATOM     24  N27 <0> d   1      19.673   1.482  12.205  0.00  0.00    -0.263 NA
ATOM     25  C26 <0> d   1      19.872   2.680  11.692  0.00  0.00     0.117 A 
ATOM     26  C25 <0> d   1      18.900   3.290  10.923  0.00  0.00     0.019 A 
ATOM     27  C24 <0> d   1      17.707   2.624  10.688  0.00  0.00     0.003 A 
ATOM     28  C23 <0> d   1      17.536   1.363  11.240  0.00  0.00     0.030 A 
ENDBRANCH  15  23
ENDBRANCH   1  15
TORSDOF 8
ENDMDL
MODEL 7
REMARK VINA RESULT:      -7.8      3.666      7.911
REMARK  8 active torsions:
REMARK  status: ('A' for Active; 'I' for Inactive)
REMARK    1  A    between atoms: C2_2  and  C4_4 
REMARK    2  A    between atoms: C4_4  and  C5_5 
REMARK    3  A    between atoms: C5_5  and  C6_6 
REMARK    4  A    between atoms: C6_6  and  N7_7 
REMARK    5  A    between atoms: C11_11  and  O12_12 
REMARK    6  A    between atoms: O12_12  and  C13_13 
REMARK    7  A    between atoms: C13_13  and  C15_14 
REMARK    8  A    between atoms: C13_13  and  C22_21 
ROOT
ATOM      1  O12 <0> d   1      19.650   0.659  10.798  0.00  0.00    -0.370 OA
ENDROOT
BRANCH   1   2
ATOM      2  C11 <0> d   1      19.440   0.147   9.481  0.00  0.00     0.126 C 
ATOM      3  C10 <0> d   1      19.406   1.306   8.481  0.00  0.00     0.059 C 
ATOM      4  C9  <0> d   1      19.102   0.758   7.085  0.00  0.00     0.237 C 
ATOM      5  N7  <0> d   1      17.801   0.079   7.094  0.00  0.00    -0.071 N 
ATOM      6  H8  <0> d   1      17.090   0.722   7.410  0.00  0.00     0.279 HD
ATOM      7  C29 <0> d   1      17.851  -1.076   7.997  0.00  0.00     0.237 C 
ATOM      8  C28 <0> d   1      18.105  -0.599   9.429  0.00  0.00     0.059 C 
BRANCH   5   9
ATOM      9  C6  <0> d   1      17.479  -0.376   5.735  0.00  0.00     0.235 C 
BRANCH   9  10
ATOM     10  C5  <0> d   1      18.771  -0.756   5.006  0.00  0.00     0.038 C 
BRANCH  10  11
ATOM     11  C4  <0> d   1      18.609  -2.138   4.370  0.00  0.00     0.115 C 
BRANCH  11  12
ATOM     12  C2  <0> d   1      18.958  -3.200   5.382  0.00  0.00     0.172 C 
ATOM     13  O1  <0> d   1      20.038  -3.171   5.947  0.00  0.00    -0.648 OA
ATOM     14  O3  <0> d   1      18.160  -4.085   5.638  0.00  0.00    -0.648 OA
ENDBRANCH  11  12
ENDBRANCH  10  11
ENDBRANCH   9  10
ENDBRANCH   5   9
ENDBRANCH   1   2
BRANCH   1  15
ATOM     15  C13 <0> d   1      18.445   0.945  11.511  0.00  0.00     0.206 C 
BRANCH  15  16
ATOM     16  C15 <0> d   1      18.508   0.314  12.878  0.00  0.00    -0.023 A 
ATOM     17  C21 <0> d   1      17.598   0.681  13.852  0.00  0.00     0.012 A 
ATOM     18  C20 <0> d   1      17.652   0.098  15.104  0.00  0.00     0.024 A 
ATOM     19  C18 <0> d   1      18.626  -0.843  15.387  0.00  0.00     0.034 A 
ATOM     20  C17 <0> d   1      19.541  -1.205  14.414  0.00  0.00     0.024 A 
ATOM     21 Cl19 <0> d   1      18.700  -1.569  16.962  0.00  0.00    -0.084 Cl
ATOM     22  C16 <0> d   1      19.481  -0.626  13.161  0.00  0.00     0.012 A 
ENDBRANCH  15  16
BRANCH  15  23
ATOM     23  C22 <0> d   1      18.285   2.436  11.652  0.00  0.00     0.067 A 
ATOM     24  N27 <0> d   1      17.171   3.014  11.249  0.00  0.00    -0.263 NA
ATOM     25  C26 <0> d   1      16.985   4.315  11.357  0.00  0.00     0.117 A 
ATOM     26  C25 <0> d   1      17.966   5.127  11.893  0.00  0.00     0.019 A 
ATOM     27  C24 <0> d   1      19.154   4.557  12.324  0.00  0.00     0.003 A 
ATOM     28  C23 <0> d   1      19.311   3.184  12.198  0.00  0.00     0.030 A 
ENDBRANCH  15  23
ENDBRANCH   1  15
TORSDOF 8
ENDMDL
MODEL 8
REMARK VINA RESULT:      -7.8      2.410      3.971
REMARK  8 active torsions:
REMARK  status: ('A' for Active; 'I' for Inactive)
REMARK    1  A    between atoms: C2_2  and  C4_4 
REMARK    2  A    between atoms: C4_4  and  C5_5 
REMARK    3  A    between atoms: C5_5  and  C6_6 
REMARK    4  A    between atoms: C6_6  and  N7_7 
REMARK    5  A    between atoms: C11_11  and  O12_12 
REMARK    6  A    between atoms: O12_12  and  C13_13 
REMARK    7  A    between atoms: C13_13  and  C15_14 
REMARK    8  A    between atoms: C13_13  and  C22_21 
ROOT
ATOM      1  O12 <0> d   1      18.706  -0.414  12.106  0.00  0.00    -0.370 OA
ENDROOT
BRANCH   1   2
ATOM      2  C11 <0> d   1      18.289  -0.611  13.458  0.00  0.00     0.126 C 
ATOM      3  C10 <0> d   1      17.841   0.726  14.055  0.00  0.00     0.059 C 
ATOM      4  C9  <0> d   1      17.472   0.522  15.526  0.00  0.00     0.237 C 
ATOM      5  N7  <0> d   1      18.640   0.023  16.263  0.00  0.00    -0.071 N 
ATOM      6  H8  <0> d   1      19.408   0.668  16.152  0.00  0.00     0.279 HD
ATOM      7  C29 <0> d   1      19.029  -1.293  15.741  0.00  0.00     0.237 C 
ATOM      8  C28 <0> d   1      19.460  -1.159  14.279  0.00  0.00     0.059 C 
BRANCH   5   9
ATOM      9  C6  <0> d   1      18.303  -0.097  17.688  0.00  0.00     0.235 C 
BRANCH   9  10
ATOM     10  C5  <0> d   1      19.111   0.927  18.490  0.00  0.00     0.038 C 
BRANCH  10  11
ATOM     11  C4  <0> d   1      18.311   2.226  18.609  0.00  0.00     0.115 C 
BRANCH  11  12
ATOM     12  C2  <0> d   1      18.909   3.268  17.698  0.00  0.00     0.172 C 
ATOM     13  O1  <0> d   1      19.870   2.989  17.001  0.00  0.00    -0.648 OA
ATOM     14  O3  <0> d   1      18.429   4.388  17.656  0.00  0.00    -0.648 OA
ENDBRANCH  11  12
ENDBRANCH  10  11
ENDBRANCH   9  10
ENDBRANCH   5   9
ENDBRANCH   1   2
BRANCH   1  15
ATOM     15  C13 <0> d   1      17.842  -1.013  11.137  0.00  0.00     0.206 C 
BRANCH  15  16
ATOM     16  C15 <0> d   1      18.176  -0.480   9.768  0.00  0.00    -0.023 A 
ATOM     17  C21 <0> d   1      17.480  -0.929   8.662  0.00  0.00     0.012 A 
ATOM     18  C20 <0> d   1      17.783  -0.436   7.406  0.00  0.00     0.024 A 
ATOM     19  C18 <0> d   1      18.792   0.498   7.256  0.00  0.00     0.034 A 
ATOM     20  C17 <0> d   1      19.494   0.942   8.362  0.00  0.00     0.024 A 
ATOM     21 Cl19 <0> d   1      19.179   1.111   5.678  0.00  0.00    -0.084 Cl
ATOM     22  C16 <0> d   1      19.185   0.454   9.617  0.00  0.00     0.012 A 
ENDBRANCH  15  16
BRANCH  15  23
ATOM     23  C22 <0> d   1      18.025  -2.508  11.154  0.00  0.00     0.067 A 
ATOM     24  N27 <0> d   1      16.985  -3.290  11.360  0.00  0.00    -0.263 NA
ATOM     25  C26 <0> d   1      17.098  -4.604  11.378  0.00  0.00     0.117 A 
ATOM     26  C25 <0> d   1      18.325  -5.211  11.190  0.00  0.00     0.019 A 
ATOM     27  C24 <0> d   1      19.444  -4.420  10.975  0.00  0.00     0.003 A 
ATOM     28  C23 <0> d   1      19.284  -3.042  10.958  0.00  0.00     0.030 A 
ENDBRANCH  15  23
ENDBRANCH   1  15
TORSDOF 8
ENDMDL
MODEL 9
REMARK VINA RESULT:      -7.8      3.061      5.184
REMARK  8 active torsions:
REMARK  status: ('A' for Active; 'I' for Inactive)
REMARK    1  A    between atoms: C2_2  and  C4_4 
REMARK    2  A    between atoms: C4_4  and  C5_5 
REMARK    3  A    between atoms: C5_5  and  C6_6 
REMARK    4  A    between atoms: C6_6  and  N7_7 
REMARK    5  A    between atoms: C11_11  and  O12_12 
REMARK    6  A    between atoms: O12_12  and  C13_13 
REMARK    7  A    between atoms: C13_13  and  C15_14 
REMARK    8  A    between atoms: C13_13  and  C22_21 
ROOT
ATOM      1  O12 <0> d   1      19.352   1.907  10.348  0.00  0.00    -0.370 OA
ENDROOT
BRANCH   1   2
ATOM      2  C11 <0> d   1      18.939   3.175  10.863  0.00  0.00     0.126 C 
ATOM      3  C10 <0> d   1      19.168   3.211  12.376  0.00  0.00     0.059 C 
ATOM      4  C9  <0> d   1      18.651   4.540  12.932  0.00  0.00     0.237 C 
ATOM      5  N7  <0> d   1      17.215   4.667  12.650  0.00  0.00    -0.071 N 
ATOM      6  H8  <0> d   1      16.725   3.877  13.042  0.00  0.00     0.279 HD
ATOM      7  C29 <0> d   1      16.997   4.705  11.199  0.00  0.00     0.237 C 
ATOM      8  C28 <0> d   1      17.449   3.382  10.577  0.00  0.00     0.059 C 
BRANCH   5   9
ATOM      9  C6  <0> d   1      16.708   5.907  13.253  0.00  0.00     0.235 C 
BRANCH   9  10
ATOM     10  C5  <0> d   1      16.930   5.864  14.767  0.00  0.00     0.038 C 
BRANCH  10  11
ATOM     11  C4  <0> d   1      16.726   7.264  15.351  0.00  0.00     0.115 C 
BRANCH  11  12
ATOM     12  C2  <0> d   1      18.018   7.747  15.960  0.00  0.00     0.172 C 
ATOM     13  O1  <0> d   1      18.964   6.985  16.066  0.00  0.00    -0.648 OA
ATOM     14  O3  <0> d   1      18.118   8.900  16.342  0.00  0.00    -0.648 OA
ENDBRANCH  11  12
ENDBRANCH  10  11
ENDBRANCH   9  10
ENDBRANCH   5   9
ENDBRANCH   1   2
BRANCH   1  15
ATOM     15  C13 <0> d   1      18.271   1.033  10.015  0.00  0.00     0.206 C 
BRANCH  15  16
ATOM     16  C15 <0> d   1      18.291   0.751   8.535  0.00  0.00    -0.023 A 
ATOM     17  C21 <0> d   1      19.224   1.371   7.725  0.00  0.00     0.012 A 
ATOM     18  C20 <0> d   1      19.246   1.108   6.368  0.00  0.00     0.024 A 
ATOM     19  C18 <0> d   1      18.325   0.233   5.819  0.00  0.00     0.034 A 
ATOM     20  C17 <0> d   1      17.387  -0.382   6.629  0.00  0.00     0.024 A 
ATOM     21 Cl19 <0> d   1      18.347  -0.091   4.114  0.00  0.00    -0.084 Cl
ATOM     22  C16 <0> d   1      17.371  -0.123   7.986  0.00  0.00     0.012 A 
ENDBRANCH  15  16
BRANCH  15  23
ATOM     23  C22 <0> d   1      18.416  -0.259  10.776  0.00  0.00     0.067 A 
ATOM     24  N27 <0> d   1      19.537  -0.947  10.684  0.00  0.00    -0.263 NA
ATOM     25  C26 <0> d   1      19.710  -2.081  11.336  0.00  0.00     0.117 A 
ATOM     26  C25 <0> d   1      18.709  -2.595  12.137  0.00  0.00     0.019 A 
ATOM     27  C24 <0> d   1      17.514  -1.902  12.255  0.00  0.00     0.003 A 
ATOM     28  C23 <0> d   1      17.371  -0.711  11.558  0.00  0.00     0.030 A 
ENDBRANCH  15  23
ENDBRANCH   1  15
TORSDOF 8
ENDMDL
