MODEL 1
REMARK VINA RESULT:      -7.7      0.000      0.000
REMARK  23 active torsions:
REMARK  status: ('A' for Active; 'I' for Inactive)
REMARK    1  A    between atoms: C2_2  and  C4_4 
REMARK    2  A    between atoms: C4_4  and  N5_5 
REMARK    3  A    between atoms: N5_5  and  C6_6 
REMARK    4  A    between atoms: N5_5  and  C49_48 
REMARK    5  A    between atoms: C6_6  and  C7_7 
REMARK    6  A    between atoms: C7_7  and  N8_8 
REMARK    7  A    between atoms: N8_8  and  C9_9 
REMARK    8  A    between atoms: N8_8  and  C13_13 
REMARK    9  A    between atoms: C9_9  and  C10_10 
REMARK   10  A    between atoms: C13_13  and  C14_14 
REMARK   11  A    between atoms: C14_14  and  C16_15 
REMARK   12  A    between atoms: C14_14  and  N40_39 
REMARK   13  A    between atoms: C16_15  and  O17_16 
REMARK   14  A    between atoms: O17_16  and  P18_17 
REMARK   15  A    between atoms: P18_17  and  O21_20 
REMARK   16  A    between atoms: O21_20  and  C22_21 
REMARK   17  A    between atoms: C25_24  and  C26_25 
REMARK   18  A    between atoms: C25_24  and  C32_31 
REMARK   19  A    between atoms: N40_39  and  C41_40 
REMARK   20  A    between atoms: N40_39  and  C45_44 
REMARK   21  A    between atoms: C41_40  and  C42_41 
REMARK   22  A    between atoms: C45_44  and  C46_45 
REMARK   23  A    between atoms: C49_48  and  C50_49 
ROOT
ATOM      1  C14 ZIN A   1      18.893  -2.389   7.839  0.00  0.00     0.276 C 
ENDROOT
BRANCH   1   2
ATOM      2  C13 ZIN A   1      18.040  -3.337   6.991  0.00  0.00     0.311 C 
BRANCH   2   3
ATOM      3  N8  ZIN A   1      18.345  -4.727   7.354  0.00  0.00     0.102 N 
BRANCH   3   4
ATOM      4  C7  ZIN A   1      17.254  -5.627   6.956  0.00  0.00     0.303 C 
BRANCH   4   5
ATOM      5  C6  ZIN A   1      17.564  -6.228   5.584  0.00  0.00     0.304 C 
BRANCH   5   6
ATOM      6  N5  ZIN A   1      16.510  -5.848   4.634  0.00  0.00     0.110 N 
BRANCH   6   7
ATOM      7  C4  ZIN A   1      15.589  -6.966   4.394  0.00  0.00     0.385 C 
BRANCH   7   8
ATOM      8  C2  ZIN A   1      14.180  -6.534   4.712  0.00  0.00     0.202 C 
ATOM      9  O1  ZIN A   1      13.652  -5.649   4.061  0.00  0.00    -0.647 OA
ATOM     10  O3  ZIN A   1      13.567  -7.074   5.618  0.00  0.00    -0.647 OA
ENDBRANCH   7   8
ENDBRANCH   6   7
BRANCH   6  11
ATOM     11  C49 ZIN A   1      17.087  -5.362   3.373  0.00  0.00     0.385 C 
BRANCH  11  12
ATOM     12  C50 ZIN A   1      16.393  -4.090   2.958  0.00  0.00     0.202 C 
ATOM     13  O51 ZIN A   1      16.052  -3.280   3.802  0.00  0.00    -0.647 OA
ATOM     14  O52 ZIN A   1      16.172  -3.872   1.779  0.00  0.00    -0.647 OA
ENDBRANCH  11  12
ENDBRANCH   6  11
ENDBRANCH   5   6
ENDBRANCH   4   5
ENDBRANCH   3   4
BRANCH   3  15
ATOM     15  C9  ZIN A   1      19.622  -5.157   6.769  0.00  0.00     0.385 C 
BRANCH  15  16
ATOM     16  C10 ZIN A   1      20.507  -5.716   7.853  0.00  0.00     0.202 C 
ATOM     17  O11 ZIN A   1      21.719  -5.719   7.711  0.00  0.00    -0.647 OA
ATOM     18  O12 ZIN A   1      20.012  -6.167   8.872  0.00  0.00    -0.647 OA
ENDBRANCH  15  16
ENDBRANCH   3  15
ENDBRANCH   2   3
ENDBRANCH   1   2
BRANCH   1  19
ATOM     19  C16 ZIN A   1      18.386  -2.400   9.281  0.00  0.00     0.219 C 
BRANCH  19  20
ATOM     20  O17 ZIN A   1      19.436  -2.829  10.151  0.00  0.00    -0.288 OA
BRANCH  20  21
ATOM     21  P18 ZIN A   1      19.174  -3.715  11.471  0.00  0.00     0.408 P 
ATOM     22  O19 ZIN A   1      20.384  -4.644  11.715  0.00  0.00    -0.624 OA
ATOM     23  O20 ZIN A   1      17.901  -4.566  11.275  0.00  0.00    -0.624 OA
BRANCH  21  24
ATOM     24  O21 ZIN A   1      18.980  -2.742  12.739  0.00  0.00    -0.284 OA
BRANCH  24  25
ATOM     25  C22 ZIN A   1      18.928  -1.319  12.627  0.00  0.00     0.134 C 
ATOM     26  C39 ZIN A   1      20.013  -0.697  13.508  0.00  0.00     0.034 C 
ATOM     27  C38 ZIN A   1      19.958   0.827  13.388  0.00  0.00     0.022 C 
ATOM     28  C25 ZIN A   1      18.585   1.325  13.842  0.00  0.00     0.014 C 
ATOM     29  C24 ZIN A   1      17.499   0.704  12.961  0.00  0.00     0.022 C 
ATOM     30  C23 ZIN A   1      17.555  -0.821  13.082  0.00  0.00     0.034 C 
BRANCH  28  31
ATOM     31  C26 ZIN A   1      18.530   2.826  13.724  0.00  0.00    -0.045 A 
ATOM     32  C31 ZIN A   1      17.731   3.558  14.584  0.00  0.00     0.008 A 
ATOM     33  C30 ZIN A   1      17.684   4.936  14.477  0.00  0.00     0.001 A 
ATOM     34  C29 ZIN A   1      18.429   5.581  13.507  0.00  0.00     0.000 A 
ATOM     35  C28 ZIN A   1      19.222   4.848  12.644  0.00  0.00     0.001 A 
ATOM     36  C27 ZIN A   1      19.273   3.471  12.754  0.00  0.00     0.008 A 
ENDBRANCH  28  31
BRANCH  28  37
ATOM     37  C32 ZIN A   1      18.355   0.925  15.278  0.00  0.00    -0.045 A 
ATOM     38  C37 ZIN A   1      17.234   0.196  15.622  0.00  0.00     0.008 A 
ATOM     39  C36 ZIN A   1      17.026  -0.174  16.937  0.00  0.00     0.001 A 
ATOM     40  C35 ZIN A   1      17.936   0.195  17.911  0.00  0.00     0.000 A 
ATOM     41  C34 ZIN A   1      19.055   0.930  17.567  0.00  0.00     0.001 A 
ATOM     42  C33 ZIN A   1      19.266   1.296  16.252  0.00  0.00     0.008 A 
ENDBRANCH  28  37
ENDBRANCH  24  25
ENDBRANCH  21  24
ENDBRANCH  20  21
ENDBRANCH  19  20
ENDBRANCH   1  19
BRANCH   1  43
ATOM     43  N40 ZIN A   1      18.797  -1.028   7.295  0.00  0.00     0.117 N 
BRANCH  43  44
ATOM     44  C41 ZIN A   1      18.220  -1.039   5.945  0.00  0.00     0.386 C 
BRANCH  44  45
ATOM     45  C42 ZIN A   1      19.277  -0.645   4.944  0.00  0.00     0.202 C 
ATOM     46  O43 ZIN A   1      19.816  -1.498   4.259  0.00  0.00    -0.647 OA
ATOM     47  O44 ZIN A   1      19.593   0.526   4.820  0.00  0.00    -0.647 OA
ENDBRANCH  44  45
ENDBRANCH  43  44
BRANCH  43  48
ATOM     48  C45 ZIN A   1      18.024  -0.157   8.190  0.00  0.00     0.386 C 
BRANCH  48  49
ATOM     49  C46 ZIN A   1      18.913   0.944   8.712  0.00  0.00     0.202 C 
ATOM     50  O47 ZIN A   1      19.371   0.874   9.839  0.00  0.00    -0.647 OA
ATOM     51  O48 ZIN A   1      19.172   1.903   8.006  0.00  0.00    -0.647 OA
ENDBRANCH  48  49
ENDBRANCH  43  48
ENDBRANCH   1  43
TORSDOF 23
ENDMDL
MODEL 2
REMARK VINA RESULT:      -7.3      1.336      2.134
REMARK  23 active torsions:
REMARK  status: ('A' for Active; 'I' for Inactive)
REMARK    1  A    between atoms: C2_2  and  C4_4 
REMARK    2  A    between atoms: C4_4  and  N5_5 
REMARK    3  A    between atoms: N5_5  and  C6_6 
REMARK    4  A    between atoms: N5_5  and  C49_48 
REMARK    5  A    between atoms: C6_6  and  C7_7 
REMARK    6  A    between atoms: C7_7  and  N8_8 
REMARK    7  A    between atoms: N8_8  and  C9_9 
REMARK    8  A    between atoms: N8_8  and  C13_13 
REMARK    9  A    between atoms: C9_9  and  C10_10 
REMARK   10  A    between atoms: C13_13  and  C14_14 
REMARK   11  A    between atoms: C14_14  and  C16_15 
REMARK   12  A    between atoms: C14_14  and  N40_39 
REMARK   13  A    between atoms: C16_15  and  O17_16 
REMARK   14  A    between atoms: O17_16  and  P18_17 
REMARK   15  A    between atoms: P18_17  and  O21_20 
REMARK   16  A    between atoms: O21_20  and  C22_21 
REMARK   17  A    between atoms: C25_24  and  C26_25 
REMARK   18  A    between atoms: C25_24  and  C32_31 
REMARK   19  A    between atoms: N40_39  and  C41_40 
REMARK   20  A    between atoms: N40_39  and  C45_44 
REMARK   21  A    between atoms: C41_40  and  C42_41 
REMARK   22  A    between atoms: C45_44  and  C46_45 
REMARK   23  A    between atoms: C49_48  and  C50_49 
ROOT
ATOM      1  C14 ZIN A   1      19.054  -2.543   7.794  0.00  0.00     0.276 C 
ENDROOT
BRANCH   1   2
ATOM      2  C13 ZIN A   1      17.941  -3.581   7.633  0.00  0.00     0.311 C 
BRANCH   2   3
ATOM      3  N8  ZIN A   1      18.519  -4.853   7.180  0.00  0.00     0.102 N 
BRANCH   3   4
ATOM      4  C7  ZIN A   1      17.832  -5.347   5.979  0.00  0.00     0.303 C 
BRANCH   4   5
ATOM      5  C6  ZIN A   1      17.676  -6.865   6.067  0.00  0.00     0.304 C 
BRANCH   5   6
ATOM      6  N5  ZIN A   1      16.267  -7.226   5.864  0.00  0.00     0.110 N 
BRANCH   6   7
ATOM      7  C4  ZIN A   1      16.002  -7.542   4.454  0.00  0.00     0.385 C 
BRANCH   7   8
ATOM      8  C2  ZIN A   1      14.738  -8.355   4.350  0.00  0.00     0.202 C 
ATOM      9  O1  ZIN A   1      14.658  -9.433   4.915  0.00  0.00    -0.647 OA
ATOM     10  O3  ZIN A   1      13.792  -7.933   3.706  0.00  0.00    -0.647 OA
ENDBRANCH   7   8
ENDBRANCH   6   7
BRANCH   6  11
ATOM     11  C49 ZIN A   1      15.376  -6.159   6.340  0.00  0.00     0.385 C 
BRANCH  11  12
ATOM     12  C50 ZIN A   1      14.711  -6.593   7.620  0.00  0.00     0.202 C 
ATOM     13  O51 ZIN A   1      14.370  -7.754   7.766  0.00  0.00    -0.647 OA
ATOM     14  O52 ZIN A   1      14.513  -5.783   8.510  0.00  0.00    -0.647 OA
ENDBRANCH  11  12
ENDBRANCH   6  11
ENDBRANCH   5   6
ENDBRANCH   4   5
ENDBRANCH   3   4
BRANCH   3  15
ATOM     15  C9  ZIN A   1      19.963  -4.720   6.943  0.00  0.00     0.385 C 
BRANCH  15  16
ATOM     16  C10 ZIN A   1      20.710  -5.652   7.862  0.00  0.00     0.202 C 
ATOM     17  O11 ZIN A   1      21.909  -5.820   7.718  0.00  0.00    -0.647 OA
ATOM     18  O12 ZIN A   1      20.114  -6.241   8.748  0.00  0.00    -0.647 OA
ENDBRANCH  15  16
ENDBRANCH   3  15
ENDBRANCH   2   3
ENDBRANCH   1   2
BRANCH   1  19
ATOM     19  C16 ZIN A   1      19.251  -2.233   9.278  0.00  0.00     0.219 C 
BRANCH  19  20
ATOM     20  O17 ZIN A   1      18.399  -3.075  10.058  0.00  0.00    -0.288 OA
BRANCH  20  21
ATOM     21  P18 ZIN A   1      18.889  -3.814  11.403  0.00  0.00     0.408 P 
ATOM     22  O19 ZIN A   1      20.393  -4.147  11.288  0.00  0.00    -0.624 OA
ATOM     23  O20 ZIN A   1      18.085  -5.118  11.595  0.00  0.00    -0.624 OA
BRANCH  21  24
ATOM     24  O21 ZIN A   1      18.648  -2.843  12.665  0.00  0.00    -0.284 OA
BRANCH  24  25
ATOM     25  C22 ZIN A   1      18.698  -1.418  12.571  0.00  0.00     0.134 C 
ATOM     26  C39 ZIN A   1      19.841  -0.889  13.440  0.00  0.00     0.034 C 
ATOM     27  C38 ZIN A   1      19.894   0.636  13.339  0.00  0.00     0.022 C 
ATOM     28  C25 ZIN A   1      18.569   1.226  13.825  0.00  0.00     0.014 C 
ATOM     29  C24 ZIN A   1      17.425   0.697  12.957  0.00  0.00     0.022 C 
ATOM     30  C23 ZIN A   1      17.373  -0.829  13.058  0.00  0.00     0.034 C 
BRANCH  28  31
ATOM     31  C26 ZIN A   1      18.620   2.728  13.727  0.00  0.00    -0.045 A 
ATOM     32  C31 ZIN A   1      19.260   3.329  12.658  0.00  0.00     0.008 A 
ATOM     33  C30 ZIN A   1      19.303   4.708  12.566  0.00  0.00     0.001 A 
ATOM     34  C29 ZIN A   1      18.715   5.486  13.545  0.00  0.00     0.000 A 
ATOM     35  C28 ZIN A   1      18.081   4.885  14.617  0.00  0.00     0.001 A 
ATOM     36  C27 ZIN A   1      18.034   3.506  14.707  0.00  0.00     0.008 A 
ENDBRANCH  28  31
BRANCH  28  37
ATOM     37  C32 ZIN A   1      18.336   0.825  15.260  0.00  0.00    -0.045 A 
ATOM     38  C37 ZIN A   1      19.305   1.073  16.213  0.00  0.00     0.008 A 
ATOM     39  C36 ZIN A   1      19.090   0.709  17.529  0.00  0.00     0.001 A 
ATOM     40  C35 ZIN A   1      17.909   0.086  17.889  0.00  0.00     0.000 A 
ATOM     41  C34 ZIN A   1      16.942  -0.168  16.935  0.00  0.00     0.001 A 
ATOM     42  C33 ZIN A   1      17.155   0.201  15.620  0.00  0.00     0.008 A 
ENDBRANCH  28  37
ENDBRANCH  24  25
ENDBRANCH  21  24
ENDBRANCH  20  21
ENDBRANCH  19  20
ENDBRANCH   1  19
BRANCH   1  43
ATOM     43  N40 ZIN A   1      18.684  -1.314   7.081  0.00  0.00     0.117 N 
BRANCH  43  44
ATOM     44  C41 ZIN A   1      18.133  -1.620   5.754  0.00  0.00     0.386 C 
BRANCH  44  45
ATOM     45  C42 ZIN A   1      18.867  -0.819   4.708  0.00  0.00     0.202 C 
ATOM     46  O43 ZIN A   1      18.254  -0.050   3.988  0.00  0.00    -0.647 OA
ATOM     47  O44 ZIN A   1      20.074  -0.942   4.583  0.00  0.00    -0.647 OA
ENDBRANCH  44  45
ENDBRANCH  43  44
BRANCH  43  48
ATOM     48  C45 ZIN A   1      17.740  -0.512   7.870  0.00  0.00     0.386 C 
BRANCH  48  49
ATOM     49  C46 ZIN A   1      18.351   0.834   8.169  0.00  0.00     0.202 C 
ATOM     50  O47 ZIN A   1      19.087   1.363   7.354  0.00  0.00    -0.647 OA
ATOM     51  O48 ZIN A   1      18.110   1.391   9.226  0.00  0.00    -0.647 OA
ENDBRANCH  48  49
ENDBRANCH  43  48
ENDBRANCH   1  43
TORSDOF 23
ENDMDL
MODEL 3
REMARK VINA RESULT:      -7.3      4.459     10.646
REMARK  23 active torsions:
REMARK  status: ('A' for Active; 'I' for Inactive)
REMARK    1  A    between atoms: C2_2  and  C4_4 
REMARK    2  A    between atoms: C4_4  and  N5_5 
REMARK    3  A    between atoms: N5_5  and  C6_6 
REMARK    4  A    between atoms: N5_5  and  C49_48 
REMARK    5  A    between atoms: C6_6  and  C7_7 
REMARK    6  A    between atoms: C7_7  and  N8_8 
REMARK    7  A    between atoms: N8_8  and  C9_9 
REMARK    8  A    between atoms: N8_8  and  C13_13 
REMARK    9  A    between atoms: C9_9  and  C10_10 
REMARK   10  A    between atoms: C13_13  and  C14_14 
REMARK   11  A    between atoms: C14_14  and  C16_15 
REMARK   12  A    between atoms: C14_14  and  N40_39 
REMARK   13  A    between atoms: C16_15  and  O17_16 
REMARK   14  A    between atoms: O17_16  and  P18_17 
REMARK   15  A    between atoms: P18_17  and  O21_20 
REMARK   16  A    between atoms: O21_20  and  C22_21 
REMARK   17  A    between atoms: C25_24  and  C26_25 
REMARK   18  A    between atoms: C25_24  and  C32_31 
REMARK   19  A    between atoms: N40_39  and  C41_40 
REMARK   20  A    between atoms: N40_39  and  C45_44 
REMARK   21  A    between atoms: C41_40  and  C42_41 
REMARK   22  A    between atoms: C45_44  and  C46_45 
REMARK   23  A    between atoms: C49_48  and  C50_49 
ROOT
ATOM      1  C14 ZIN A   1      17.158   4.496  14.372  0.00  0.00     0.276 C 
ENDROOT
BRANCH   1   2
ATOM      2  C13 ZIN A   1      18.604   4.245  14.809  0.00  0.00     0.311 C 
BRANCH   2   3
ATOM      3  N8  ZIN A   1      18.648   3.088  15.711  0.00  0.00     0.102 N 
BRANCH   3   4
ATOM      4  C7  ZIN A   1      19.257   1.926  15.049  0.00  0.00     0.303 C 
BRANCH   4   5
ATOM      5  C6  ZIN A   1      18.182   1.157  14.278  0.00  0.00     0.304 C 
BRANCH   5   6
ATOM      6  N5  ZIN A   1      18.452  -0.284  14.369  0.00  0.00     0.110 N 
BRANCH   6   7
ATOM      7  C4  ZIN A   1      18.908  -0.651  15.716  0.00  0.00     0.385 C 
BRANCH   7   8
ATOM      8  C2  ZIN A   1      17.750  -1.204  16.506  0.00  0.00     0.202 C 
ATOM      9  O1  ZIN A   1      17.555  -2.406  16.541  0.00  0.00    -0.647 OA
ATOM     10  O3  ZIN A   1      17.012  -0.448  17.116  0.00  0.00    -0.647 OA
ENDBRANCH   7   8
ENDBRANCH   6   7
BRANCH   6  11
ATOM     11  C49 ZIN A   1      19.424  -0.704  13.351  0.00  0.00     0.385 C 
BRANCH  11  12
ATOM     12  C50 ZIN A   1      18.959  -1.984  12.708  0.00  0.00     0.202 C 
ATOM     13  O51 ZIN A   1      17.787  -2.119  12.397  0.00  0.00    -0.647 OA
ATOM     14  O52 ZIN A   1      19.753  -2.886  12.498  0.00  0.00    -0.647 OA
ENDBRANCH  11  12
ENDBRANCH   6  11
ENDBRANCH   5   6
ENDBRANCH   4   5
ENDBRANCH   3   4
BRANCH   3  15
ATOM     15  C9  ZIN A   1      19.359   3.416  16.955  0.00  0.00     0.385 C 
BRANCH  15  16
ATOM     16  C10 ZIN A   1      18.959   2.443  18.033  0.00  0.00     0.202 C 
ATOM     17  O11 ZIN A   1      17.817   2.441  18.462  0.00  0.00    -0.647 OA
ATOM     18  O12 ZIN A   1      19.779   1.657  18.478  0.00  0.00    -0.647 OA
ENDBRANCH  15  16
ENDBRANCH   3  15
ENDBRANCH   2   3
ENDBRANCH   1   2
BRANCH   1  19
ATOM     19  C16 ZIN A   1      17.116   4.741  12.863  0.00  0.00     0.219 C 
BRANCH  19  20
ATOM     20  O17 ZIN A   1      17.287   3.501  12.175  0.00  0.00    -0.288 OA
BRANCH  20  21
ATOM     21  P18 ZIN A   1      18.278   3.324  10.917  0.00  0.00     0.408 P 
ATOM     22  O19 ZIN A   1      19.656   2.832  11.413  0.00  0.00    -0.624 OA
ATOM     23  O20 ZIN A   1      18.443   4.681  10.199  0.00  0.00    -0.624 OA
BRANCH  21  24
ATOM     24  O21 ZIN A   1      17.658   2.246   9.894  0.00  0.00    -0.284 OA
BRANCH  24  25
ATOM     25  C22 ZIN A   1      18.088   0.884   9.845  0.00  0.00     0.134 C 
ATOM     26  C39 ZIN A   1      19.413   0.794   9.086  0.00  0.00     0.034 C 
ATOM     27  C38 ZIN A   1      19.873  -0.664   9.033  0.00  0.00     0.022 C 
ATOM     28  C25 ZIN A   1      18.816  -1.506   8.316  0.00  0.00     0.014 C 
ATOM     29  C24 ZIN A   1      17.491  -1.417   9.074  0.00  0.00     0.022 C 
ATOM     30  C23 ZIN A   1      17.031   0.042   9.127  0.00  0.00     0.034 C 
BRANCH  28  31
ATOM     31  C26 ZIN A   1      19.269  -2.942   8.263  0.00  0.00    -0.045 A 
ATOM     32  C31 ZIN A   1      19.148  -3.746   9.382  0.00  0.00     0.008 A 
ATOM     33  C30 ZIN A   1      19.559  -5.065   9.332  0.00  0.00     0.001 A 
ATOM     34  C29 ZIN A   1      20.099  -5.578   8.167  0.00  0.00     0.000 A 
ATOM     35  C28 ZIN A   1      20.225  -4.773   7.051  0.00  0.00     0.001 A 
ATOM     36  C27 ZIN A   1      19.809  -3.455   7.100  0.00  0.00     0.008 A 
ENDBRANCH  28  31
BRANCH  28  37
ATOM     37  C32 ZIN A   1      18.628  -0.988   6.913  0.00  0.00    -0.045 A 
ATOM     38  C37 ZIN A   1      19.470  -0.011   6.417  0.00  0.00     0.008 A 
ATOM     39  C36 ZIN A   1      19.300   0.461   5.130  0.00  0.00     0.001 A 
ATOM     40  C35 ZIN A   1      18.279  -0.037   4.341  0.00  0.00     0.000 A 
ATOM     41  C34 ZIN A   1      17.433  -1.010   4.838  0.00  0.00     0.001 A 
ATOM     42  C33 ZIN A   1      17.606  -1.485   6.124  0.00  0.00     0.008 A 
ENDBRANCH  28  37
ENDBRANCH  24  25
ENDBRANCH  21  24
ENDBRANCH  20  21
ENDBRANCH  19  20
ENDBRANCH   1  19
BRANCH   1  43
ATOM     43  N40 ZIN A   1      16.633   5.675  15.075  0.00  0.00     0.117 N 
BRANCH  43  44
ATOM     44  C41 ZIN A   1      17.718   6.590  15.453  0.00  0.00     0.386 C 
BRANCH  44  45
ATOM     45  C42 ZIN A   1      17.591   6.944  16.913  0.00  0.00     0.202 C 
ATOM     46  O43 ZIN A   1      17.038   6.174  17.681  0.00  0.00    -0.647 OA
ATOM     47  O44 ZIN A   1      18.040   8.000  17.325  0.00  0.00    -0.647 OA
ENDBRANCH  44  45
ENDBRANCH  43  44
BRANCH  43  48
ATOM     48  C45 ZIN A   1      15.622   6.364  14.263  0.00  0.00     0.386 C 
BRANCH  48  49
ATOM     49  C46 ZIN A   1      14.313   6.396  15.011  0.00  0.00     0.202 C 
ATOM     50  O47 ZIN A   1      14.207   7.067  16.024  0.00  0.00    -0.647 OA
ATOM     51  O48 ZIN A   1      13.362   5.753  14.603  0.00  0.00    -0.647 OA
ENDBRANCH  48  49
ENDBRANCH  43  48
ENDBRANCH   1  43
TORSDOF 23
ENDMDL
MODEL 4
REMARK VINA RESULT:      -7.2      5.375     11.891
REMARK  23 active torsions:
REMARK  status: ('A' for Active; 'I' for Inactive)
REMARK    1  A    between atoms: C2_2  and  C4_4 
REMARK    2  A    between atoms: C4_4  and  N5_5 
REMARK    3  A    between atoms: N5_5  and  C6_6 
REMARK    4  A    between atoms: N5_5  and  C49_48 
REMARK    5  A    between atoms: C6_6  and  C7_7 
REMARK    6  A    between atoms: C7_7  and  N8_8 
REMARK    7  A    between atoms: N8_8  and  C9_9 
REMARK    8  A    between atoms: N8_8  and  C13_13 
REMARK    9  A    between atoms: C9_9  and  C10_10 
REMARK   10  A    between atoms: C13_13  and  C14_14 
REMARK   11  A    between atoms: C14_14  and  C16_15 
REMARK   12  A    between atoms: C14_14  and  N40_39 
REMARK   13  A    between atoms: C16_15  and  O17_16 
REMARK   14  A    between atoms: O17_16  and  P18_17 
REMARK   15  A    between atoms: P18_17  and  O21_20 
REMARK   16  A    between atoms: O21_20  and  C22_21 
REMARK   17  A    between atoms: C25_24  and  C26_25 
REMARK   18  A    between atoms: C25_24  and  C32_31 
REMARK   19  A    between atoms: N40_39  and  C41_40 
REMARK   20  A    between atoms: N40_39  and  C45_44 
REMARK   21  A    between atoms: C41_40  and  C42_41 
REMARK   22  A    between atoms: C45_44  and  C46_45 
REMARK   23  A    between atoms: C49_48  and  C50_49 
ROOT
ATOM      1  C14 ZIN A   1      18.812   2.675  15.489  0.00  0.00     0.276 C 
ENDROOT
BRANCH   1   2
ATOM      2  C13 ZIN A   1      18.133   3.856  16.189  0.00  0.00     0.311 C 
BRANCH   2   3
ATOM      3  N8  ZIN A   1      18.379   5.085  15.425  0.00  0.00     0.102 N 
BRANCH   3   4
ATOM      4  C7  ZIN A   1      17.147   5.873  15.282  0.00  0.00     0.303 C 
BRANCH   4   5
ATOM      5  C6  ZIN A   1      16.876   6.637  16.578  0.00  0.00     0.304 C 
BRANCH   5   6
ATOM      6  N5  ZIN A   1      15.447   6.554  16.906  0.00  0.00     0.110 N 
BRANCH   6   7
ATOM      7  C4  ZIN A   1      14.650   7.401  16.010  0.00  0.00     0.385 C 
BRANCH   7   8
ATOM      8  C2  ZIN A   1      13.443   6.634  15.535  0.00  0.00     0.202 C 
ATOM      9  O1  ZIN A   1      13.573   5.733  14.725  0.00  0.00    -0.647 OA
ATOM     10  O3  ZIN A   1      12.336   6.912  15.966  0.00  0.00    -0.647 OA
ENDBRANCH   7   8
ENDBRANCH   6   7
BRANCH   6  11
ATOM     11  C49 ZIN A   1      15.208   6.905  18.313  0.00  0.00     0.385 C 
BRANCH  11  12
ATOM     12  C50 ZIN A   1      14.576   5.735  19.023  0.00  0.00     0.202 C 
ATOM     13  O51 ZIN A   1      15.259   4.779  19.349  0.00  0.00    -0.647 OA
ATOM     14  O52 ZIN A   1      13.383   5.745  19.272  0.00  0.00    -0.647 OA
ENDBRANCH  11  12
ENDBRANCH   6  11
ENDBRANCH   5   6
ENDBRANCH   4   5
ENDBRANCH   3   4
BRANCH   3  15
ATOM     15  C9  ZIN A   1      19.446   5.885  16.044  0.00  0.00     0.385 C 
BRANCH  15  16
ATOM     16  C10 ZIN A   1      20.610   5.990  15.092  0.00  0.00     0.202 C 
ATOM     17  O11 ZIN A   1      20.442   5.803  13.899  0.00  0.00    -0.647 OA
ATOM     18  O12 ZIN A   1      21.721   6.259  15.517  0.00  0.00    -0.647 OA
ENDBRANCH  15  16
ENDBRANCH   3  15
ENDBRANCH   2   3
ENDBRANCH   1   2
BRANCH   1  19
ATOM     19  C16 ZIN A   1      18.169   2.457  14.118  0.00  0.00     0.219 C 
BRANCH  19  20
ATOM     20  O17 ZIN A   1      19.192   2.319  13.130  0.00  0.00    -0.288 OA
BRANCH  20  21
ATOM     21  P18 ZIN A   1      19.231   3.196  11.779  0.00  0.00     0.408 P 
ATOM     22  O19 ZIN A   1      20.673   3.690  11.528  0.00  0.00    -0.624 OA
ATOM     23  O20 ZIN A   1      18.288   4.410  11.927  0.00  0.00    -0.624 OA
BRANCH  21  24
ATOM     24  O21 ZIN A   1      18.750   2.290  10.538  0.00  0.00    -0.284 OA
BRANCH  24  25
ATOM     25  C22 ZIN A   1      18.709   0.863  10.587  0.00  0.00     0.134 C 
ATOM     26  C39 ZIN A   1      19.865   0.290   9.764  0.00  0.00     0.034 C 
ATOM     27  C38 ZIN A   1      19.821  -1.238   9.816  0.00  0.00     0.022 C 
ATOM     28  C25 ZIN A   1      18.492  -1.730   9.240  0.00  0.00     0.014 C 
ATOM     29  C24 ZIN A   1      17.335  -1.158  10.062  0.00  0.00     0.022 C 
ATOM     30  C23 ZIN A   1      17.380   0.371  10.010  0.00  0.00     0.034 C 
BRANCH  28  31
ATOM     31  C26 ZIN A   1      18.448  -3.235   9.291  0.00  0.00    -0.045 A 
ATOM     32  C31 ZIN A   1      19.519  -3.941   9.808  0.00  0.00     0.008 A 
ATOM     33  C30 ZIN A   1      19.476  -5.322   9.858  0.00  0.00     0.001 A 
ATOM     34  C29 ZIN A   1      18.367  -5.997   9.385  0.00  0.00     0.000 A 
ATOM     35  C28 ZIN A   1      17.299  -5.292   8.864  0.00  0.00     0.001 A 
ATOM     36  C27 ZIN A   1      17.340  -3.911   8.817  0.00  0.00     0.008 A 
ENDBRANCH  28  31
BRANCH  28  37
ATOM     37  C32 ZIN A   1      18.364  -1.272   7.809  0.00  0.00    -0.045 A 
ATOM     38  C37 ZIN A   1      17.269  -0.526   7.416  0.00  0.00     0.008 A 
ATOM     39  C36 ZIN A   1      17.155  -0.103   6.106  0.00  0.00     0.001 A 
ATOM     40  C35 ZIN A   1      18.132  -0.434   5.185  0.00  0.00     0.000 A 
ATOM     41  C34 ZIN A   1      19.224  -1.186   5.576  0.00  0.00     0.001 A 
ATOM     42  C33 ZIN A   1      19.341  -1.605   6.887  0.00  0.00     0.008 A 
ENDBRANCH  28  37
ENDBRANCH  24  25
ENDBRANCH  21  24
ENDBRANCH  20  21
ENDBRANCH  19  20
ENDBRANCH   1  19
BRANCH   1  43
ATOM     43  N40 ZIN A   1      18.650   1.465  16.304  0.00  0.00     0.117 N 
BRANCH  43  44
ATOM     44  C41 ZIN A   1      19.353   0.325  15.702  0.00  0.00     0.386 C 
BRANCH  44  45
ATOM     45  C42 ZIN A   1      18.395  -0.828  15.539  0.00  0.00     0.202 C 
ATOM     46  O43 ZIN A   1      17.585  -0.823  14.627  0.00  0.00    -0.647 OA
ATOM     47  O44 ZIN A   1      18.430  -1.765  16.319  0.00  0.00    -0.647 OA
ENDBRANCH  44  45
ENDBRANCH  43  44
BRANCH  43  48
ATOM     48  C45 ZIN A   1      19.103   1.694  17.682  0.00  0.00     0.386 C 
BRANCH  48  49
ATOM     49  C46 ZIN A   1      18.083   1.141  18.646  0.00  0.00     0.202 C 
ATOM     50  O47 ZIN A   1      17.109   1.808  18.949  0.00  0.00    -0.647 OA
ATOM     51  O48 ZIN A   1      18.234   0.029  19.121  0.00  0.00    -0.647 OA
ENDBRANCH  48  49
ENDBRANCH  43  48
ENDBRANCH   1  43
TORSDOF 23
ENDMDL
MODEL 5
REMARK VINA RESULT:      -7.0      0.994      2.014
REMARK  23 active torsions:
REMARK  status: ('A' for Active; 'I' for Inactive)
REMARK    1  A    between atoms: C2_2  and  C4_4 
REMARK    2  A    between atoms: C4_4  and  N5_5 
REMARK    3  A    between atoms: N5_5  and  C6_6 
REMARK    4  A    between atoms: N5_5  and  C49_48 
REMARK    5  A    between atoms: C6_6  and  C7_7 
REMARK    6  A    between atoms: C7_7  and  N8_8 
REMARK    7  A    between atoms: N8_8  and  C9_9 
REMARK    8  A    between atoms: N8_8  and  C13_13 
REMARK    9  A    between atoms: C9_9  and  C10_10 
REMARK   10  A    between atoms: C13_13  and  C14_14 
REMARK   11  A    between atoms: C14_14  and  C16_15 
REMARK   12  A    between atoms: C14_14  and  N40_39 
REMARK   13  A    between atoms: C16_15  and  O17_16 
REMARK   14  A    between atoms: O17_16  and  P18_17 
REMARK   15  A    between atoms: P18_17  and  O21_20 
REMARK   16  A    between atoms: O21_20  and  C22_21 
REMARK   17  A    between atoms: C25_24  and  C26_25 
REMARK   18  A    between atoms: C25_24  and  C32_31 
REMARK   19  A    between atoms: N40_39  and  C41_40 
REMARK   20  A    between atoms: N40_39  and  C45_44 
REMARK   21  A    between atoms: C41_40  and  C42_41 
REMARK   22  A    between atoms: C45_44  and  C46_45 
REMARK   23  A    between atoms: C49_48  and  C50_49 
ROOT
ATOM      1  C14 ZIN A   1      18.981  -2.910   7.891  0.00  0.00     0.276 C 
ENDROOT
BRANCH   1   2
ATOM      2  C13 ZIN A   1      17.843  -3.926   7.755  0.00  0.00     0.311 C 
BRANCH   2   3
ATOM      3  N8  ZIN A   1      18.395  -5.230   7.368  0.00  0.00     0.102 N 
BRANCH   3   4
ATOM      4  C7  ZIN A   1      17.567  -5.868   6.336  0.00  0.00     0.303 C 
BRANCH   4   5
ATOM      5  C6  ZIN A   1      17.979  -5.349   4.958  0.00  0.00     0.304 C 
BRANCH   5   6
ATOM      6  N5  ZIN A   1      16.962  -5.728   3.968  0.00  0.00     0.110 N 
BRANCH   6   7
ATOM      7  C4  ZIN A   1      15.962  -6.627   4.557  0.00  0.00     0.385 C 
BRANCH   7   8
ATOM      8  C2  ZIN A   1      14.582  -6.076   4.306  0.00  0.00     0.202 C 
ATOM      9  O1  ZIN A   1      14.446  -5.019   3.714  0.00  0.00    -0.647 OA
ATOM     10  O3  ZIN A   1      13.600  -6.692   4.689  0.00  0.00    -0.647 OA
ENDBRANCH   7   8
ENDBRANCH   6   7
BRANCH   6  11
ATOM     11  C49 ZIN A   1      17.582  -6.336   2.783  0.00  0.00     0.385 C 
BRANCH  11  12
ATOM     12  C50 ZIN A   1      17.764  -5.287   1.716  0.00  0.00     0.202 C 
ATOM     13  O51 ZIN A   1      18.882  -5.018   1.310  0.00  0.00    -0.647 OA
ATOM     14  O52 ZIN A   1      16.794  -4.708   1.258  0.00  0.00    -0.647 OA
ENDBRANCH  11  12
ENDBRANCH   6  11
ENDBRANCH   5   6
ENDBRANCH   4   5
ENDBRANCH   3   4
BRANCH   3  15
ATOM     15  C9  ZIN A   1      19.788  -5.101   6.920  0.00  0.00     0.385 C 
BRANCH  15  16
ATOM     16  C10 ZIN A   1      20.693  -5.829   7.879  0.00  0.00     0.202 C 
ATOM     17  O11 ZIN A   1      21.899  -5.841   7.693  0.00  0.00    -0.647 OA
ATOM     18  O12 ZIN A   1      20.220  -6.410   8.842  0.00  0.00    -0.647 OA
ENDBRANCH  15  16
ENDBRANCH   3  15
ENDBRANCH   2   3
ENDBRANCH   1   2
BRANCH   1  19
ATOM     19  C16 ZIN A   1      19.055  -2.419   9.338  0.00  0.00     0.219 C 
BRANCH  19  20
ATOM     20  O17 ZIN A   1      18.266  -3.271  10.171  0.00  0.00    -0.288 OA
BRANCH  20  21
ATOM     21  P18 ZIN A   1      18.831  -3.945  11.520  0.00  0.00     0.408 P 
ATOM     22  O19 ZIN A   1      20.336  -4.252  11.352  0.00  0.00    -0.624 OA
ATOM     23  O20 ZIN A   1      18.066  -5.257  11.799  0.00  0.00    -0.624 OA
BRANCH  21  24
ATOM     24  O21 ZIN A   1      18.624  -2.930  12.753  0.00  0.00    -0.284 OA
BRANCH  24  25
ATOM     25  C22 ZIN A   1      18.711  -1.511  12.615  0.00  0.00     0.134 C 
ATOM     26  C39 ZIN A   1      19.822  -0.976  13.520  0.00  0.00     0.034 C 
ATOM     27  C38 ZIN A   1      19.914   0.544  13.371  0.00  0.00     0.022 C 
ATOM     28  C25 ZIN A   1      18.581   1.177  13.773  0.00  0.00     0.014 C 
ATOM     29  C24 ZIN A   1      17.469   0.642  12.868  0.00  0.00     0.022 C 
ATOM     30  C23 ZIN A   1      17.377  -0.878  13.016  0.00  0.00     0.034 C 
BRANCH  28  31
ATOM     31  C26 ZIN A   1      18.671   2.673  13.627  0.00  0.00    -0.045 A 
ATOM     32  C31 ZIN A   1      19.340   3.224  12.549  0.00  0.00     0.008 A 
ATOM     33  C30 ZIN A   1      19.419   4.598  12.414  0.00  0.00     0.001 A 
ATOM     34  C29 ZIN A   1      18.835   5.421  13.359  0.00  0.00     0.000 A 
ATOM     35  C28 ZIN A   1      18.171   4.871  14.438  0.00  0.00     0.001 A 
ATOM     36  C27 ZIN A   1      18.088   3.497  14.572  0.00  0.00     0.008 A 
ENDBRANCH  28  31
BRANCH  28  37
ATOM     37  C32 ZIN A   1      18.271   0.830  15.206  0.00  0.00    -0.045 A 
ATOM     38  C37 ZIN A   1      17.052   0.265  15.534  0.00  0.00     0.008 A 
ATOM     39  C36 ZIN A   1      16.771  -0.057  16.848  0.00  0.00     0.001 A 
ATOM     40  C35 ZIN A   1      17.704   0.195  17.836  0.00  0.00     0.000 A 
ATOM     41  C34 ZIN A   1      18.920   0.765  17.510  0.00  0.00     0.001 A 
ATOM     42  C33 ZIN A   1      19.204   1.083  16.196  0.00  0.00     0.008 A 
ENDBRANCH  28  37
ENDBRANCH  24  25
ENDBRANCH  21  24
ENDBRANCH  20  21
ENDBRANCH  19  20
ENDBRANCH   1  19
BRANCH   1  43
ATOM     43  N40 ZIN A   1      18.729  -1.771   6.999  0.00  0.00     0.117 N 
BRANCH  43  44
ATOM     44  C41 ZIN A   1      19.114  -0.506   7.638  0.00  0.00     0.386 C 
BRANCH  44  45
ATOM     45  C42 ZIN A   1      17.874   0.271   8.002  0.00  0.00     0.202 C 
ATOM     46  O43 ZIN A   1      16.813   0.016   7.458  0.00  0.00    -0.647 OA
ATOM     47  O44 ZIN A   1      17.933   1.155   8.841  0.00  0.00    -0.647 OA
ENDBRANCH  44  45
ENDBRANCH  43  44
BRANCH  43  48
ATOM     48  C45 ZIN A   1      19.421  -1.945   5.716  0.00  0.00     0.386 C 
BRANCH  48  49
ATOM     49  C46 ZIN A   1      18.758  -1.087   4.667  0.00  0.00     0.202 C 
ATOM     50  O47 ZIN A   1      17.646  -1.375   4.259  0.00  0.00    -0.647 OA
ATOM     51  O48 ZIN A   1      19.335  -0.108   4.227  0.00  0.00    -0.647 OA
ENDBRANCH  48  49
ENDBRANCH  43  48
ENDBRANCH   1  43
TORSDOF 23
ENDMDL
MODEL 6
REMARK VINA RESULT:      -7.0      4.671     11.459
REMARK  23 active torsions:
REMARK  status: ('A' for Active; 'I' for Inactive)
REMARK    1  A    between atoms: C2_2  and  C4_4 
REMARK    2  A    between atoms: C4_4  and  N5_5 
REMARK    3  A    between atoms: N5_5  and  C6_6 
REMARK    4  A    between atoms: N5_5  and  C49_48 
REMARK    5  A    between atoms: C6_6  and  C7_7 
REMARK    6  A    between atoms: C7_7  and  N8_8 
REMARK    7  A    between atoms: N8_8  and  C9_9 
REMARK    8  A    between atoms: N8_8  and  C13_13 
REMARK    9  A    between atoms: C9_9  and  C10_10 
REMARK   10  A    between atoms: C13_13  and  C14_14 
REMARK   11  A    between atoms: C14_14  and  C16_15 
REMARK   12  A    between atoms: C14_14  and  N40_39 
REMARK   13  A    between atoms: C16_15  and  O17_16 
REMARK   14  A    between atoms: O17_16  and  P18_17 
REMARK   15  A    between atoms: P18_17  and  O21_20 
REMARK   16  A    between atoms: O21_20  and  C22_21 
REMARK   17  A    between atoms: C25_24  and  C26_25 
REMARK   18  A    between atoms: C25_24  and  C32_31 
REMARK   19  A    between atoms: N40_39  and  C41_40 
REMARK   20  A    between atoms: N40_39  and  C45_44 
REMARK   21  A    between atoms: C41_40  and  C42_41 
REMARK   22  A    between atoms: C45_44  and  C46_45 
REMARK   23  A    between atoms: C49_48  and  C50_49 
ROOT
ATOM      1  C14 ZIN A   1      19.459   1.639  14.675  0.00  0.00     0.276 C 
ENDROOT
BRANCH   1   2
ATOM      2  C13 ZIN A   1      18.321   2.413  15.346  0.00  0.00     0.311 C 
BRANCH   2   3
ATOM      3  N8  ZIN A   1      18.883   3.422  16.253  0.00  0.00     0.102 N 
BRANCH   3   4
ATOM      4  C7  ZIN A   1      18.805   4.765  15.661  0.00  0.00     0.303 C 
BRANCH   4   5
ATOM      5  C6  ZIN A   1      17.428   4.963  15.026  0.00  0.00     0.304 C 
BRANCH   5   6
ATOM      6  N5  ZIN A   1      16.836   6.213  15.521  0.00  0.00     0.110 N 
BRANCH   6   7
ATOM      7  C4  ZIN A   1      17.837   7.030  16.217  0.00  0.00     0.385 C 
BRANCH   7   8
ATOM      8  C2  ZIN A   1      17.685   8.472  15.804  0.00  0.00     0.202 C 
ATOM      9  O1  ZIN A   1      18.290   8.894  14.833  0.00  0.00    -0.647 OA
ATOM     10  O3  ZIN A   1      16.953   9.214  16.437  0.00  0.00    -0.647 OA
ENDBRANCH   7   8
ENDBRANCH   6   7
BRANCH   6  11
ATOM     11  C49 ZIN A   1      15.682   5.942  16.389  0.00  0.00     0.385 C 
BRANCH  11  12
ATOM     12  C50 ZIN A   1      14.422   6.423  15.716  0.00  0.00     0.202 C 
ATOM     13  O51 ZIN A   1      14.069   5.927  14.659  0.00  0.00    -0.647 OA
ATOM     14  O52 ZIN A   1      13.757   7.307  16.227  0.00  0.00    -0.647 OA
ENDBRANCH  11  12
ENDBRANCH   6  11
ENDBRANCH   5   6
ENDBRANCH   4   5
ENDBRANCH   3   4
BRANCH   3  15
ATOM     15  C9  ZIN A   1      18.217   3.383  17.561  0.00  0.00     0.385 C 
BRANCH  15  16
ATOM     16  C10 ZIN A   1      18.617   2.127  18.291  0.00  0.00     0.202 C 
ATOM     17  O11 ZIN A   1      17.763   1.403  18.775  0.00  0.00    -0.647 OA
ATOM     18  O12 ZIN A   1      19.796   1.835  18.400  0.00  0.00    -0.647 OA
ENDBRANCH  15  16
ENDBRANCH   3  15
ENDBRANCH   2   3
ENDBRANCH   1   2
BRANCH   1  19
ATOM     19  C16 ZIN A   1      19.538   2.028  13.198  0.00  0.00     0.219 C 
BRANCH  19  20
ATOM     20  O17 ZIN A   1      18.268   2.520  12.766  0.00  0.00    -0.288 OA
BRANCH  20  21
ATOM     21  P18 ZIN A   1      18.070   3.368  11.411  0.00  0.00     0.408 P 
ATOM     22  O19 ZIN A   1      19.029   4.580  11.418  0.00  0.00    -0.624 OA
ATOM     23  O20 ZIN A   1      16.611   3.866  11.324  0.00  0.00    -0.624 OA
BRANCH  21  24
ATOM     24  O21 ZIN A   1      18.396   2.433  10.141  0.00  0.00    -0.284 OA
BRANCH  24  25
ATOM     25  C22 ZIN A   1      18.440   1.007  10.216  0.00  0.00     0.134 C 
ATOM     26  C39 ZIN A   1      19.682   0.495   9.484  0.00  0.00     0.034 C 
ATOM     27  C38 ZIN A   1      19.730  -1.031   9.565  0.00  0.00     0.022 C 
ATOM     28  C25 ZIN A   1      18.475  -1.615   8.911  0.00  0.00     0.014 C 
ATOM     29  C24 ZIN A   1      17.233  -1.104   9.642  0.00  0.00     0.022 C 
ATOM     30  C23 ZIN A   1      17.186   0.423   9.562  0.00  0.00     0.034 C 
BRANCH  28  31
ATOM     31  C26 ZIN A   1      18.521  -3.119   8.990  0.00  0.00    -0.045 A 
ATOM     32  C31 ZIN A   1      19.442  -3.740   9.814  0.00  0.00     0.008 A 
ATOM     33  C30 ZIN A   1      19.480  -5.121   9.889  0.00  0.00     0.001 A 
ATOM     34  C29 ZIN A   1      18.605  -5.879   9.135  0.00  0.00     0.000 A 
ATOM     35  C28 ZIN A   1      17.689  -5.258   8.307  0.00  0.00     0.001 A 
ATOM     36  C27 ZIN A   1      17.647  -3.878   8.235  0.00  0.00     0.008 A 
ENDBRANCH  28  31
BRANCH  28  37
ATOM     37  C32 ZIN A   1      18.418  -1.190   7.466  0.00  0.00    -0.045 A 
ATOM     38  C37 ZIN A   1      17.330  -0.476   6.998  0.00  0.00     0.008 A 
ATOM     39  C36 ZIN A   1      17.280  -0.082   5.674  0.00  0.00     0.001 A 
ATOM     40  C35 ZIN A   1      18.313  -0.411   4.816  0.00  0.00     0.000 A 
ATOM     41  C34 ZIN A   1      19.398  -1.130   5.282  0.00  0.00     0.001 A 
ATOM     42  C33 ZIN A   1      19.451  -1.519   6.607  0.00  0.00     0.008 A 
ENDBRANCH  28  37
ENDBRANCH  24  25
ENDBRANCH  21  24
ENDBRANCH  20  21
ENDBRANCH  19  20
ENDBRANCH   1  19
BRANCH   1  43
ATOM     43  N40 ZIN A   1      19.204   0.197  14.789  0.00  0.00     0.117 N 
BRANCH  43  44
ATOM     44  C41 ZIN A   1      17.820  -0.061  15.207  0.00  0.00     0.386 C 
BRANCH  44  45
ATOM     45  C42 ZIN A   1      17.814  -1.066  16.331  0.00  0.00     0.202 C 
ATOM     46  O43 ZIN A   1      16.791  -1.269  16.963  0.00  0.00    -0.647 OA
ATOM     47  O44 ZIN A   1      18.833  -1.677  16.609  0.00  0.00    -0.647 OA
ENDBRANCH  44  45
ENDBRANCH  43  44
BRANCH  43  48
ATOM     48  C45 ZIN A   1      19.511  -0.493  13.531  0.00  0.00     0.386 C 
BRANCH  48  49
ATOM     49  C46 ZIN A   1      18.330  -1.336  13.118  0.00  0.00     0.202 C 
ATOM     50  O47 ZIN A   1      17.260  -0.806  12.873  0.00  0.00    -0.647 OA
ATOM     51  O48 ZIN A   1      18.446  -2.546  13.029  0.00  0.00    -0.647 OA
ENDBRANCH  48  49
ENDBRANCH  43  48
ENDBRANCH   1  43
TORSDOF 23
ENDMDL
MODEL 7
REMARK VINA RESULT:      -7.0      1.355      3.578
REMARK  23 active torsions:
REMARK  status: ('A' for Active; 'I' for Inactive)
REMARK    1  A    between atoms: C2_2  and  C4_4 
REMARK    2  A    between atoms: C4_4  and  N5_5 
REMARK    3  A    between atoms: N5_5  and  C6_6 
REMARK    4  A    between atoms: N5_5  and  C49_48 
REMARK    5  A    between atoms: C6_6  and  C7_7 
REMARK    6  A    between atoms: C7_7  and  N8_8 
REMARK    7  A    between atoms: N8_8  and  C9_9 
REMARK    8  A    between atoms: N8_8  and  C13_13 
REMARK    9  A    between atoms: C9_9  and  C10_10 
REMARK   10  A    between atoms: C13_13  and  C14_14 
REMARK   11  A    between atoms: C14_14  and  C16_15 
REMARK   12  A    between atoms: C14_14  and  N40_39 
REMARK   13  A    between atoms: C16_15  and  O17_16 
REMARK   14  A    between atoms: O17_16  and  P18_17 
REMARK   15  A    between atoms: P18_17  and  O21_20 
REMARK   16  A    between atoms: O21_20  and  C22_21 
REMARK   17  A    between atoms: C25_24  and  C26_25 
REMARK   18  A    between atoms: C25_24  and  C32_31 
REMARK   19  A    between atoms: N40_39  and  C41_40 
REMARK   20  A    between atoms: N40_39  and  C45_44 
REMARK   21  A    between atoms: C41_40  and  C42_41 
REMARK   22  A    between atoms: C45_44  and  C46_45 
REMARK   23  A    between atoms: C49_48  and  C50_49 
ROOT
ATOM      1  C14 ZIN A   1      19.136  -2.440   7.975  0.00  0.00     0.276 C 
ENDROOT
BRANCH   1   2
ATOM      2  C13 ZIN A   1      19.665  -3.364   6.875  0.00  0.00     0.311 C 
BRANCH   2   3
ATOM      3  N8  ZIN A   1      18.761  -4.511   6.723  0.00  0.00     0.102 N 
BRANCH   3   4
ATOM      4  C7  ZIN A   1      17.888  -4.343   5.553  0.00  0.00     0.303 C 
BRANCH   4   5
ATOM      5  C6  ZIN A   1      17.483  -5.716   5.017  0.00  0.00     0.304 C 
BRANCH   5   6
ATOM      6  N5  ZIN A   1      16.208  -5.604   4.295  0.00  0.00     0.110 N 
BRANCH   6   7
ATOM      7  C4  ZIN A   1      16.046  -4.263   3.719  0.00  0.00     0.385 C 
BRANCH   7   8
ATOM      8  C2  ZIN A   1      15.519  -4.381   2.312  0.00  0.00     0.202 C 
ATOM      9  O1  ZIN A   1      14.335  -4.602   2.121  0.00  0.00    -0.647 OA
ATOM     10  O3  ZIN A   1      16.275  -4.249   1.364  0.00  0.00    -0.647 OA
ENDBRANCH   7   8
ENDBRANCH   6   7
BRANCH   6  11
ATOM     11  C49 ZIN A   1      15.076  -5.941   5.170  0.00  0.00     0.385 C 
BRANCH  11  12
ATOM     12  C50 ZIN A   1      14.582  -7.326   4.840  0.00  0.00     0.202 C 
ATOM     13  O51 ZIN A   1      14.438  -7.661   3.677  0.00  0.00    -0.647 OA
ATOM     14  O52 ZIN A   1      14.325  -8.112   5.737  0.00  0.00    -0.647 OA
ENDBRANCH  11  12
ENDBRANCH   6  11
ENDBRANCH   5   6
ENDBRANCH   4   5
ENDBRANCH   3   4
BRANCH   3  15
ATOM     15  C9  ZIN A   1      19.516  -5.769   6.640  0.00  0.00     0.385 C 
BRANCH  15  16
ATOM     16  C10 ZIN A   1      20.434  -5.882   7.829  0.00  0.00     0.202 C 
ATOM     17  O11 ZIN A   1      21.639  -5.762   7.684  0.00  0.00    -0.647 OA
ATOM     18  O12 ZIN A   1      19.972  -6.096   8.937  0.00  0.00    -0.647 OA
ENDBRANCH  15  16
ENDBRANCH   3  15
ENDBRANCH   2   3
ENDBRANCH   1   2
BRANCH   1  19
ATOM     19  C16 ZIN A   1      17.788  -2.961   8.475  0.00  0.00     0.219 C 
BRANCH  19  20
ATOM     20  O17 ZIN A   1      18.003  -3.936   9.497  0.00  0.00    -0.288 OA
BRANCH  20  21
ATOM     21  P18 ZIN A   1      17.874  -3.604  11.068  0.00  0.00     0.408 P 
ATOM     22  O19 ZIN A   1      19.059  -4.241  11.828  0.00  0.00    -0.624 OA
ATOM     23  O20 ZIN A   1      16.546  -4.179  11.607  0.00  0.00    -0.624 OA
BRANCH  21  24
ATOM     24  O21 ZIN A   1      17.895  -2.008  11.281  0.00  0.00    -0.284 OA
BRANCH  24  25
ATOM     25  C22 ZIN A   1      18.137  -1.397  12.550  0.00  0.00     0.134 C 
ATOM     26  C39 ZIN A   1      17.051  -0.357  12.831  0.00  0.00     0.034 C 
ATOM     27  C38 ZIN A   1      17.310   0.298  14.189  0.00  0.00     0.022 C 
ATOM     28  C25 ZIN A   1      18.679   0.982  14.173  0.00  0.00     0.014 C 
ATOM     29  C24 ZIN A   1      19.766  -0.058  13.891  0.00  0.00     0.022 C 
ATOM     30  C23 ZIN A   1      19.505  -0.713  12.533  0.00  0.00     0.034 C 
BRANCH  28  31
ATOM     31  C26 ZIN A   1      18.935   1.626  15.510  0.00  0.00    -0.045 A 
ATOM     32  C31 ZIN A   1      19.159   2.989  15.588  0.00  0.00     0.008 A 
ATOM     33  C30 ZIN A   1      19.390   3.581  16.816  0.00  0.00     0.001 A 
ATOM     34  C29 ZIN A   1      19.404   2.810  17.964  0.00  0.00     0.000 A 
ATOM     35  C28 ZIN A   1      19.186   1.448  17.885  0.00  0.00     0.001 A 
ATOM     36  C27 ZIN A   1      18.951   0.857  16.657  0.00  0.00     0.008 A 
ENDBRANCH  28  31
BRANCH  28  37
ATOM     37  C32 ZIN A   1      18.701   2.035  13.094  0.00  0.00    -0.045 A 
ATOM     38  C37 ZIN A   1      19.850   2.246  12.357  0.00  0.00     0.008 A 
ATOM     39  C36 ZIN A   1      19.869   3.208  11.365  0.00  0.00     0.001 A 
ATOM     40  C35 ZIN A   1      18.740   3.968  11.118  0.00  0.00     0.000 A 
ATOM     41  C34 ZIN A   1      17.592   3.761  11.860  0.00  0.00     0.001 A 
ATOM     42  C33 ZIN A   1      17.572   2.796  12.848  0.00  0.00     0.008 A 
ENDBRANCH  28  37
ENDBRANCH  24  25
ENDBRANCH  21  24
ENDBRANCH  20  21
ENDBRANCH  19  20
ENDBRANCH   1  19
BRANCH   1  43
ATOM     43  N40 ZIN A   1      18.969  -1.084   7.436  0.00  0.00     0.117 N 
BRANCH  43  44
ATOM     44  C41 ZIN A   1      19.652  -0.094   8.279  0.00  0.00     0.386 C 
BRANCH  44  45
ATOM     45  C42 ZIN A   1      18.709   1.043   8.583  0.00  0.00     0.202 C 
ATOM     46  O43 ZIN A   1      18.901   2.142   8.092  0.00  0.00    -0.647 OA
ATOM     47  O44 ZIN A   1      17.754   0.863   9.320  0.00  0.00    -0.647 OA
ENDBRANCH  44  45
ENDBRANCH  43  44
BRANCH  43  48
ATOM     48  C45 ZIN A   1      19.442  -1.008   6.048  0.00  0.00     0.386 C 
BRANCH  48  49
ATOM     49  C46 ZIN A   1      18.321  -0.527   5.161  0.00  0.00     0.202 C 
ATOM     50  O47 ZIN A   1      18.572   0.133   4.167  0.00  0.00    -0.647 OA
ATOM     51  O48 ZIN A   1      17.165  -0.799   5.437  0.00  0.00    -0.647 OA
ENDBRANCH  48  49
ENDBRANCH  43  48
ENDBRANCH   1  43
TORSDOF 23
ENDMDL
MODEL 8
REMARK VINA RESULT:      -7.0      2.287      5.333
REMARK  23 active torsions:
REMARK  status: ('A' for Active; 'I' for Inactive)
REMARK    1  A    between atoms: C2_2  and  C4_4 
REMARK    2  A    between atoms: C4_4  and  N5_5 
REMARK    3  A    between atoms: N5_5  and  C6_6 
REMARK    4  A    between atoms: N5_5  and  C49_48 
REMARK    5  A    between atoms: C6_6  and  C7_7 
REMARK    6  A    between atoms: C7_7  and  N8_8 
REMARK    7  A    between atoms: N8_8  and  C9_9 
REMARK    8  A    between atoms: N8_8  and  C13_13 
REMARK    9  A    between atoms: C9_9  and  C10_10 
REMARK   10  A    between atoms: C13_13  and  C14_14 
REMARK   11  A    between atoms: C14_14  and  C16_15 
REMARK   12  A    between atoms: C14_14  and  N40_39 
REMARK   13  A    between atoms: C16_15  and  O17_16 
REMARK   14  A    between atoms: O17_16  and  P18_17 
REMARK   15  A    between atoms: P18_17  and  O21_20 
REMARK   16  A    between atoms: O21_20  and  C22_21 
REMARK   17  A    between atoms: C25_24  and  C26_25 
REMARK   18  A    between atoms: C25_24  and  C32_31 
REMARK   19  A    between atoms: N40_39  and  C41_40 
REMARK   20  A    between atoms: N40_39  and  C45_44 
REMARK   21  A    between atoms: C41_40  and  C42_41 
REMARK   22  A    between atoms: C45_44  and  C46_45 
REMARK   23  A    between atoms: C49_48  and  C50_49 
ROOT
ATOM      1  C14 ZIN A   1      17.998  -4.886   6.831  0.00  0.00     0.276 C 
ENDROOT
BRANCH   1   2
ATOM      2  C13 ZIN A   1      18.362  -6.172   6.084  0.00  0.00     0.311 C 
BRANCH   2   3
ATOM      3  N8  ZIN A   1      17.139  -6.932   5.794  0.00  0.00     0.102 N 
BRANCH   3   4
ATOM      4  C7  ZIN A   1      16.760  -6.803   4.381  0.00  0.00     0.303 C 
BRANCH   4   5
ATOM      5  C6  ZIN A   1      15.428  -6.059   4.276  0.00  0.00     0.304 C 
BRANCH   5   6
ATOM      6  N5  ZIN A   1      14.323  -7.001   4.501  0.00  0.00     0.110 N 
BRANCH   6   7
ATOM      7  C4  ZIN A   1      13.568  -7.233   3.263  0.00  0.00     0.385 C 
BRANCH   7   8
ATOM      8  C2  ZIN A   1      13.782  -6.077   2.320  0.00  0.00     0.202 C 
ATOM      9  O1  ZIN A   1      14.532  -6.199   1.367  0.00  0.00    -0.647 OA
ATOM     10  O3  ZIN A   1      13.202  -5.020   2.508  0.00  0.00    -0.647 OA
ENDBRANCH   7   8
ENDBRANCH   6   7
BRANCH   6  11
ATOM     11  C49 ZIN A   1      13.440  -6.529   5.576  0.00  0.00     0.385 C 
BRANCH  11  12
ATOM     12  C50 ZIN A   1      13.058  -7.690   6.459  0.00  0.00     0.202 C 
ATOM     13  O51 ZIN A   1      13.045  -8.821   6.006  0.00  0.00    -0.647 OA
ATOM     14  O52 ZIN A   1      12.762  -7.497   7.626  0.00  0.00    -0.647 OA
ENDBRANCH  11  12
ENDBRANCH   6  11
ENDBRANCH   5   6
ENDBRANCH   4   5
ENDBRANCH   3   4
BRANCH   3  15
ATOM     15  C9  ZIN A   1      17.296  -8.344   6.170  0.00  0.00     0.385 C 
BRANCH  15  16
ATOM     16  C10 ZIN A   1      16.578  -8.600   7.470  0.00  0.00     0.202 C 
ATOM     17  O11 ZIN A   1      16.529  -9.729   7.929  0.00  0.00    -0.647 OA
ATOM     18  O12 ZIN A   1      16.043  -7.677   8.062  0.00  0.00    -0.647 OA
ENDBRANCH  15  16
ENDBRANCH   3  15
ENDBRANCH   2   3
ENDBRANCH   1   2
BRANCH   1  19
ATOM     19  C16 ZIN A   1      18.827  -3.725   6.280  0.00  0.00     0.219 C 
BRANCH  19  20
ATOM     20  O17 ZIN A   1      18.112  -2.501   6.463  0.00  0.00    -0.288 OA
BRANCH  20  21
ATOM     21  P18 ZIN A   1      18.650  -1.081   5.925  0.00  0.00     0.408 P 
ATOM     22  O19 ZIN A   1      17.488  -0.307   5.264  0.00  0.00    -0.624 OA
ATOM     23  O20 ZIN A   1      19.769  -1.316   4.887  0.00  0.00    -0.624 OA
BRANCH  21  24
ATOM     24  O21 ZIN A   1      19.233  -0.226   7.159  0.00  0.00    -0.284 OA
BRANCH  24  25
ATOM     25  C22 ZIN A   1      19.092  -0.632   8.521  0.00  0.00     0.134 C 
ATOM     26  C39 ZIN A   1      17.761  -0.117   9.073  0.00  0.00     0.034 C 
ATOM     27  C38 ZIN A   1      17.610  -0.551  10.532  0.00  0.00     0.022 C 
ATOM     28  C25 ZIN A   1      18.762   0.026  11.357  0.00  0.00     0.014 C 
ATOM     29  C24 ZIN A   1      20.093  -0.489  10.806  0.00  0.00     0.022 C 
ATOM     30  C23 ZIN A   1      20.243  -0.054   9.347  0.00  0.00     0.034 C 
BRANCH  28  31
ATOM     31  C26 ZIN A   1      18.614  -0.401  12.794  0.00  0.00    -0.045 A 
ATOM     32  C31 ZIN A   1      19.459  -1.361  13.320  0.00  0.00     0.008 A 
ATOM     33  C30 ZIN A   1      19.326  -1.750  14.640  0.00  0.00     0.001 A 
ATOM     34  C29 ZIN A   1      18.344  -1.185  15.432  0.00  0.00     0.000 A 
ATOM     35  C28 ZIN A   1      17.496  -0.230  14.905  0.00  0.00     0.001 A 
ATOM     36  C27 ZIN A   1      17.632   0.162  13.585  0.00  0.00     0.008 A 
ENDBRANCH  28  31
BRANCH  28  37
ATOM     37  C32 ZIN A   1      18.734   1.531  11.275  0.00  0.00    -0.045 A 
ATOM     38  C37 ZIN A   1      19.820   2.268  11.708  0.00  0.00     0.008 A 
ATOM     39  C36 ZIN A   1      19.796   3.647  11.628  0.00  0.00     0.001 A 
ATOM     40  C35 ZIN A   1      18.680   4.291  11.125  0.00  0.00     0.000 A 
ATOM     41  C34 ZIN A   1      17.591   3.555  10.698  0.00  0.00     0.001 A 
ATOM     42  C33 ZIN A   1      17.617   2.175  10.773  0.00  0.00     0.008 A 
ENDBRANCH  28  37
ENDBRANCH  24  25
ENDBRANCH  21  24
ENDBRANCH  20  21
ENDBRANCH  19  20
ENDBRANCH   1  19
BRANCH   1  43
ATOM     43  N40 ZIN A   1      18.282  -5.055   8.262  0.00  0.00     0.117 N 
BRANCH  43  44
ATOM     44  C41 ZIN A   1      19.647  -4.621   8.584  0.00  0.00     0.386 C 
BRANCH  44  45
ATOM     45  C42 ZIN A   1      20.592  -5.787   8.443  0.00  0.00     0.202 C 
ATOM     46  O43 ZIN A   1      20.450  -6.776   9.142  0.00  0.00    -0.647 OA
ATOM     47  O44 ZIN A   1      21.500  -5.741   7.629  0.00  0.00    -0.647 OA
ENDBRANCH  44  45
ENDBRANCH  43  44
BRANCH  43  48
ATOM     48  C45 ZIN A   1      17.295  -4.342   9.082  0.00  0.00     0.386 C 
BRANCH  48  49
ATOM     49  C46 ZIN A   1      17.237  -4.964  10.454  0.00  0.00     0.202 C 
ATOM     50  O47 ZIN A   1      17.039  -4.263  11.432  0.00  0.00    -0.647 OA
ATOM     51  O48 ZIN A   1      17.387  -6.166  10.585  0.00  0.00    -0.647 OA
ENDBRANCH  48  49
ENDBRANCH  43  48
ENDBRANCH   1  43
TORSDOF 23
ENDMDL
MODEL 9
REMARK VINA RESULT:      -6.8      1.870      4.205
REMARK  23 active torsions:
REMARK  status: ('A' for Active; 'I' for Inactive)
REMARK    1  A    between atoms: C2_2  and  C4_4 
REMARK    2  A    between atoms: C4_4  and  N5_5 
REMARK    3  A    between atoms: N5_5  and  C6_6 
REMARK    4  A    between atoms: N5_5  and  C49_48 
REMARK    5  A    between atoms: C6_6  and  C7_7 
REMARK    6  A    between atoms: C7_7  and  N8_8 
REMARK    7  A    between atoms: N8_8  and  C9_9 
REMARK    8  A    between atoms: N8_8  and  C13_13 
REMARK    9  A    between atoms: C9_9  and  C10_10 
REMARK   10  A    between atoms: C13_13  and  C14_14 
REMARK   11  A    between atoms: C14_14  and  C16_15 
REMARK   12  A    between atoms: C14_14  and  N40_39 
REMARK   13  A    between atoms: C16_15  and  O17_16 
REMARK   14  A    between atoms: O17_16  and  P18_17 
REMARK   15  A    between atoms: P18_17  and  O21_20 
REMARK   16  A    between atoms: O21_20  and  C22_21 
REMARK   17  A    between atoms: C25_24  and  C26_25 
REMARK   18  A    between atoms: C25_24  and  C32_31 
REMARK   19  A    between atoms: N40_39  and  C41_40 
REMARK   20  A    between atoms: N40_39  and  C45_44 
REMARK   21  A    between atoms: C41_40  and  C42_41 
REMARK   22  A    between atoms: C45_44  and  C46_45 
REMARK   23  A    between atoms: C49_48  and  C50_49 
ROOT
ATOM      1  C14 ZIN A   1      18.815  -3.853   6.759  0.00  0.00     0.276 C 
ENDROOT
BRANCH   1   2
ATOM      2  C13 ZIN A   1      17.443  -4.527   6.676  0.00  0.00     0.311 C 
BRANCH   2   3
ATOM      3  N8  ZIN A   1      17.418  -5.450   5.535  0.00  0.00     0.102 N 
BRANCH   3   4
ATOM      4  C7  ZIN A   1      17.079  -6.813   5.966  0.00  0.00     0.303 C 
BRANCH   4   5
ATOM      5  C6  ZIN A   1      16.066  -6.749   7.110  0.00  0.00     0.304 C 
BRANCH   5   6
ATOM      6  N5  ZIN A   1      14.855  -7.491   6.735  0.00  0.00     0.110 N 
BRANCH   6   7
ATOM      7  C4  ZIN A   1      15.095  -8.326   5.552  0.00  0.00     0.385 C 
BRANCH   7   8
ATOM      8  C2  ZIN A   1      14.769  -9.762   5.876  0.00  0.00     0.202 C 
ATOM      9  O1  ZIN A   1      15.663 -10.587   5.953  0.00  0.00    -0.647 OA
ATOM     10  O3  ZIN A   1      13.612 -10.096   6.066  0.00  0.00    -0.647 OA
ENDBRANCH   7   8
ENDBRANCH   6   7
BRANCH   6  11
ATOM     11  C49 ZIN A   1      13.726  -6.577   6.513  0.00  0.00     0.385 C 
BRANCH  11  12
ATOM     12  C50 ZIN A   1      12.767  -6.672   7.672  0.00  0.00     0.202 C 
ATOM     13  O51 ZIN A   1      12.144  -5.687   8.030  0.00  0.00    -0.647 OA
ATOM     14  O52 ZIN A   1      12.614  -7.734   8.252  0.00  0.00    -0.647 OA
ENDBRANCH  11  12
ENDBRANCH   6  11
ENDBRANCH   5   6
ENDBRANCH   4   5
ENDBRANCH   3   4
BRANCH   3  15
ATOM     15  C9  ZIN A   1      16.490  -4.980   4.497  0.00  0.00     0.385 C 
BRANCH  15  16
ATOM     16  C10 ZIN A   1      17.138  -5.119   3.144  0.00  0.00     0.202 C 
ATOM     17  O11 ZIN A   1      16.655  -5.866   2.309  0.00  0.00    -0.647 OA
ATOM     18  O12 ZIN A   1      18.148  -4.486   2.884  0.00  0.00    -0.647 OA
ENDBRANCH  15  16
ENDBRANCH   3  15
ENDBRANCH   2   3
ENDBRANCH   1   2
BRANCH   1  19
ATOM     19  C16 ZIN A   1      19.420  -4.095   8.142  0.00  0.00     0.219 C 
BRANCH  19  20
ATOM     20  O17 ZIN A   1      18.405  -4.573   9.028  0.00  0.00    -0.288 OA
BRANCH  20  21
ATOM     21  P18 ZIN A   1      18.364  -4.203  10.595  0.00  0.00     0.408 P 
ATOM     22  O19 ZIN A   1      19.666  -4.688  11.273  0.00  0.00    -0.624 OA
ATOM     23  O20 ZIN A   1      17.151  -4.895  11.255  0.00  0.00    -0.624 OA
BRANCH  21  24
ATOM     24  O21 ZIN A   1      18.231  -2.608  10.767  0.00  0.00    -0.284 OA
BRANCH  24  25
ATOM     25  C22 ZIN A   1      18.378  -1.946  12.025  0.00  0.00     0.134 C 
ATOM     26  C39 ZIN A   1      17.215  -0.974  12.229  0.00  0.00     0.034 C 
ATOM     27  C38 ZIN A   1      17.372  -0.266  13.576  0.00  0.00     0.022 C 
ATOM     28  C25 ZIN A   1      18.692   0.507  13.595  0.00  0.00     0.014 C 
ATOM     29  C24 ZIN A   1      19.856  -0.465  13.390  0.00  0.00     0.022 C 
ATOM     30  C23 ZIN A   1      19.698  -1.173  12.043  0.00  0.00     0.034 C 
BRANCH  28  31
ATOM     31  C26 ZIN A   1      18.847   1.205  14.921  0.00  0.00    -0.045 A 
ATOM     32  C31 ZIN A   1      18.954   0.464  16.083  0.00  0.00     0.008 A 
ATOM     33  C30 ZIN A   1      19.101   1.105  17.300  0.00  0.00     0.001 A 
ATOM     34  C29 ZIN A   1      19.133   2.486  17.355  0.00  0.00     0.000 A 
ATOM     35  C28 ZIN A   1      19.021   3.226  16.193  0.00  0.00     0.001 A 
ATOM     36  C27 ZIN A   1      18.878   2.585  14.976  0.00  0.00     0.008 A 
ENDBRANCH  28  31
BRANCH  28  37
ATOM     37  C32 ZIN A   1      18.692   1.529  12.486  0.00  0.00    -0.045 A 
ATOM     38  C37 ZIN A   1      17.495   1.992  11.972  0.00  0.00     0.008 A 
ATOM     39  C36 ZIN A   1      17.495   2.932  10.960  0.00  0.00     0.001 A 
ATOM     40  C35 ZIN A   1      18.693   3.402  10.453  0.00  0.00     0.000 A 
ATOM     41  C34 ZIN A   1      19.890   2.935  10.963  0.00  0.00     0.001 A 
ATOM     42  C33 ZIN A   1      19.890   1.999  11.979  0.00  0.00     0.008 A 
ENDBRANCH  28  37
ENDBRANCH  24  25
ENDBRANCH  21  24
ENDBRANCH  20  21
ENDBRANCH  19  20
ENDBRANCH   1  19
BRANCH   1  43
ATOM     43  N40 ZIN A   1      18.665  -2.410   6.534  0.00  0.00     0.117 N 
BRANCH  43  44
ATOM     44  C41 ZIN A   1      19.319  -1.639   7.600  0.00  0.00     0.386 C 
BRANCH  44  45
ATOM     45  C42 ZIN A   1      18.373  -0.581   8.108  0.00  0.00     0.202 C 
ATOM     46  O43 ZIN A   1      18.790   0.322   8.813  0.00  0.00    -0.647 OA
ATOM     47  O44 ZIN A   1      17.190  -0.629   7.814  0.00  0.00    -0.647 OA
ENDBRANCH  44  45
ENDBRANCH  43  44
BRANCH  43  48
ATOM     48  C45 ZIN A   1      19.183  -2.026   5.215  0.00  0.00     0.386 C 
BRANCH  48  49
ATOM     49  C46 ZIN A   1      18.169  -1.162   4.508  0.00  0.00     0.202 C 
ATOM     50  O47 ZIN A   1      17.015  -1.541   4.403  0.00  0.00    -0.647 OA
ATOM     51  O48 ZIN A   1      18.503  -0.087   4.041  0.00  0.00    -0.647 OA
ENDBRANCH  48  49
ENDBRANCH  43  48
ENDBRANCH   1  43
TORSDOF 23
ENDMDL
