MODEL 1
REMARK VINA RESULT:      -6.0      0.000      0.000
REMARK  7 active torsions:
REMARK  status: ('A' for Active; 'I' for Inactive)
REMARK    1  A    between atoms: C2_2  and  N4_4 
REMARK    2  A    between atoms: N4_4  and  C7_7 
REMARK    3  A    between atoms: C7_7  and  C8_8 
REMARK    4  A    between atoms: C8_8  and  O10_9 
REMARK    5  A    between atoms: C8_8  and  C11_10 
REMARK    6  A    between atoms: C14_13  and  O15_14 
REMARK    7  A    between atoms: C16_15  and  O17_16 
ROOT
ATOM      1  C11 <0> d   1      19.692  -0.187   9.634  0.00  0.00    -0.025 A 
ATOM      2  C12 <0> d   1      19.627   1.110   9.163  0.00  0.00     0.012 A 
ATOM      3  C13 <0> d   1      19.031   1.379   7.944  0.00  0.00     0.040 A 
ATOM      4  C14 <0> d   1      18.498   0.347   7.191  0.00  0.00     0.098 A 
ATOM      5  C16 <0> d   1      18.564  -0.961   7.664  0.00  0.00     0.099 A 
ATOM      6  C18 <0> d   1      19.166  -1.224   8.884  0.00  0.00     0.049 A 
ENDROOT
BRANCH   1   7
ATOM      7  C8  <0> d   1      20.342  -0.474  10.962  0.00  0.00     0.177 C 
BRANCH   7   8
ATOM      8  C7  <0> d   1      20.085   0.693  11.918  0.00  0.00     0.269 C 
BRANCH   8   9
ATOM      9  N4  <0> d   1      20.697   0.402  13.222  0.00  0.00    -0.069 N 
ATOM     10  H5  <0> d   1      21.309   1.161  13.482  0.00  0.00     0.277 HD
ATOM     11  H6  <0> d   1      21.228  -0.453  13.160  0.00  0.00     0.277 HD
BRANCH   9  12
ATOM     12  C2  <0> d   1      19.643   0.253  14.234  0.00  0.00     0.178 C 
ATOM     13  C1  <0> d   1      18.352   0.896  13.723  0.00  0.00     0.039 C 
ATOM     14  C3  <0> d   1      19.401  -1.233  14.504  0.00  0.00     0.039 C 
ENDBRANCH   9  12
ENDBRANCH   8   9
ENDBRANCH   7   8
BRANCH   7  15
ATOM     15  O10 <0> d   1      21.749  -0.638  10.778  0.00  0.00    -0.389 OA
ATOM     16  H28 <0> d   1      22.143  -1.322  11.337  0.00  0.00     0.210 HD
ENDBRANCH   7  15
ENDBRANCH   1   7
BRANCH   5  17
ATOM     17  O17 <0> d   1      18.042  -1.979   6.929  0.00  0.00    -0.358 OA
ATOM     18  H32 <0> d   1      17.928  -1.770   5.992  0.00  0.00     0.217 HD
ENDBRANCH   5  17
BRANCH   4  19
ATOM     19  O15 <0> d   1      17.912   0.609   5.992  0.00  0.00    -0.358 OA
ATOM     20  H31 <0> d   1      17.090   1.113   6.058  0.00  0.00     0.217 HD
ENDBRANCH   4  19
TORSDOF 7
ENDMDL
MODEL 2
REMARK VINA RESULT:      -5.9      2.245      3.905
REMARK  7 active torsions:
REMARK  status: ('A' for Active; 'I' for Inactive)
REMARK    1  A    between atoms: C2_2  and  N4_4 
REMARK    2  A    between atoms: N4_4  and  C7_7 
REMARK    3  A    between atoms: C7_7  and  C8_8 
REMARK    4  A    between atoms: C8_8  and  O10_9 
REMARK    5  A    between atoms: C8_8  and  C11_10 
REMARK    6  A    between atoms: C14_13  and  O15_14 
REMARK    7  A    between atoms: C16_15  and  O17_16 
ROOT
ATOM      1  C11 <0> d   1      19.520  -0.566  11.947  0.00  0.00    -0.025 A 
ATOM      2  C12 <0> d   1      18.404  -1.074  12.583  0.00  0.00     0.012 A 
ATOM      3  C13 <0> d   1      17.683  -2.104  12.005  0.00  0.00     0.040 A 
ATOM      4  C14 <0> d   1      18.079  -2.627  10.785  0.00  0.00     0.098 A 
ATOM      5  C16 <0> d   1      19.202  -2.114  10.144  0.00  0.00     0.099 A 
ATOM      6  C18 <0> d   1      19.917  -1.080  10.726  0.00  0.00     0.049 A 
ENDROOT
BRANCH   1   7
ATOM      7  C8  <0> d   1      20.302   0.556  12.581  0.00  0.00     0.177 C 
BRANCH   7   8
ATOM      8  C7  <0> d   1      19.619   1.890  12.271  0.00  0.00     0.269 C 
BRANCH   8   9
ATOM      9  N4  <0> d   1      20.167   2.443  11.025  0.00  0.00    -0.069 N 
ATOM     10  H5  <0> d   1      20.753   1.752  10.580  0.00  0.00     0.277 HD
ATOM     11  H6  <0> d   1      20.715   3.264  11.234  0.00  0.00     0.277 HD
BRANCH   9  12
ATOM     12  C2  <0> d   1      19.065   2.805  10.124  0.00  0.00     0.178 C 
ATOM     13  C1  <0> d   1      19.196   2.019   8.818  0.00  0.00     0.039 C 
ATOM     14  C3  <0> d   1      17.729   2.469  10.791  0.00  0.00     0.039 C 
ENDBRANCH   9  12
ENDBRANCH   8   9
ENDBRANCH   7   8
BRANCH   7  15
ATOM     15  O10 <0> d   1      21.630   0.567  12.054  0.00  0.00    -0.389 OA
ATOM     16  H28 <0> d   1      22.085  -0.285  12.115  0.00  0.00     0.210 HD
ENDBRANCH   7  15
ENDBRANCH   1   7
BRANCH   5  17
ATOM     17  O17 <0> d   1      19.595  -2.624   8.946  0.00  0.00    -0.358 OA
ATOM     18  H32 <0> d   1      19.611  -1.977   8.228  0.00  0.00     0.217 HD
ENDBRANCH   5  17
BRANCH   4  19
ATOM     19  O15 <0> d   1      17.371  -3.639  10.216  0.00  0.00    -0.358 OA
ATOM     20  H31 <0> d   1      16.962  -3.405   9.371  0.00  0.00     0.217 HD
ENDBRANCH   4  19
TORSDOF 7
ENDMDL
MODEL 3
REMARK VINA RESULT:      -5.9      3.029      4.061
REMARK  7 active torsions:
REMARK  status: ('A' for Active; 'I' for Inactive)
REMARK    1  A    between atoms: C2_2  and  N4_4 
REMARK    2  A    between atoms: N4_4  and  C7_7 
REMARK    3  A    between atoms: C7_7  and  C8_8 
REMARK    4  A    between atoms: C8_8  and  O10_9 
REMARK    5  A    between atoms: C8_8  and  C11_10 
REMARK    6  A    between atoms: C14_13  and  O15_14 
REMARK    7  A    between atoms: C16_15  and  O17_16 
ROOT
ATOM      1  C11 <0> d   1      19.604   1.672  11.550  0.00  0.00    -0.025 A 
ATOM      2  C12 <0> d   1      19.262   1.619  10.212  0.00  0.00     0.012 A 
ATOM      3  C13 <0> d   1      18.607   2.682   9.619  0.00  0.00     0.040 A 
ATOM      4  C14 <0> d   1      18.291   3.805  10.366  0.00  0.00     0.098 A 
ATOM      5  C16 <0> d   1      18.634   3.859  11.714  0.00  0.00     0.099 A 
ATOM      6  C18 <0> d   1      19.286   2.787  12.303  0.00  0.00     0.049 A 
ENDROOT
BRANCH   1   7
ATOM      7  C8  <0> d   1      20.318   0.510  12.192  0.00  0.00     0.177 C 
BRANCH   7   8
ATOM      8  C7  <0> d   1      19.920   0.420  13.667  0.00  0.00     0.269 C 
BRANCH   8   9
ATOM      9  N4  <0> d   1      19.844  -0.992  14.068  0.00  0.00    -0.069 N 
ATOM     10  H5  <0> d   1      20.650  -1.226  14.628  0.00  0.00     0.277 HD
ATOM     11  H6  <0> d   1      19.826  -1.575  13.245  0.00  0.00     0.277 HD
BRANCH   9  12
ATOM     12  C2  <0> d   1      18.622  -1.213  14.852  0.00  0.00     0.178 C 
ATOM     13  C1  <0> d   1      18.995  -1.492  16.309  0.00  0.00     0.039 C 
ATOM     14  C3  <0> d   1      17.737   0.034  14.780  0.00  0.00     0.039 C 
ENDBRANCH   9  12
ENDBRANCH   8   9
ENDBRANCH   7   8
BRANCH   7  15
ATOM     15  O10 <0> d   1      21.729   0.704  12.089  0.00  0.00    -0.389 OA
ATOM     16  H28 <0> d   1      22.026   1.584  12.358  0.00  0.00     0.210 HD
ENDBRANCH   7  15
ENDBRANCH   1   7
BRANCH   5  17
ATOM     17  O17 <0> d   1      18.325   4.958  12.452  0.00  0.00    -0.358 OA
ATOM     18  H32 <0> d   1      18.261   4.789  13.403  0.00  0.00     0.217 HD
ENDBRANCH   5  17
BRANCH   4  19
ATOM     19  O15 <0> d   1      17.646   4.851   9.785  0.00  0.00    -0.358 OA
ATOM     20  H31 <0> d   1      18.130   5.687   9.833  0.00  0.00     0.217 HD
ENDBRANCH   4  19
TORSDOF 7
ENDMDL
MODEL 4
REMARK VINA RESULT:      -5.9      3.060      6.065
REMARK  7 active torsions:
REMARK  status: ('A' for Active; 'I' for Inactive)
REMARK    1  A    between atoms: C2_2  and  N4_4 
REMARK    2  A    between atoms: N4_4  and  C7_7 
REMARK    3  A    between atoms: C7_7  and  C8_8 
REMARK    4  A    between atoms: C8_8  and  O10_9 
REMARK    5  A    between atoms: C8_8  and  C11_10 
REMARK    6  A    between atoms: C14_13  and  O15_14 
REMARK    7  A    between atoms: C16_15  and  O17_16 
ROOT
ATOM      1  C11 <0> d   1      19.590   0.249  13.079  0.00  0.00    -0.025 A 
ATOM      2  C12 <0> d   1      19.360  -1.061  13.454  0.00  0.00     0.012 A 
ATOM      3  C13 <0> d   1      18.576  -1.341  14.558  0.00  0.00     0.040 A 
ATOM      4  C14 <0> d   1      18.020  -0.308  15.292  0.00  0.00     0.098 A 
ATOM      5  C16 <0> d   1      18.251   1.012  14.917  0.00  0.00     0.099 A 
ATOM      6  C18 <0> d   1      19.042   1.286  13.812  0.00  0.00     0.049 A 
ENDROOT
BRANCH   1   7
ATOM      7  C8  <0> d   1      20.445   0.550  11.875  0.00  0.00     0.177 C 
BRANCH   7   8
ATOM      8  C7  <0> d   1      20.282  -0.569  10.844  0.00  0.00     0.269 C 
BRANCH   8   9
ATOM      9  N4  <0> d   1      20.208   0.014   9.497  0.00  0.00    -0.069 N 
ATOM     10  H5  <0> d   1      20.069  -0.721   8.819  0.00  0.00     0.277 HD
ATOM     11  H6  <0> d   1      21.068   0.501   9.294  0.00  0.00     0.277 HD
BRANCH   9  12
ATOM     12  C2  <0> d   1      19.084   0.958   9.433  0.00  0.00     0.178 C 
ATOM     13  C1  <0> d   1      19.222   1.831   8.184  0.00  0.00     0.039 C 
ATOM     14  C3  <0> d   1      17.768   0.180   9.370  0.00  0.00     0.039 C 
ENDBRANCH   9  12
ENDBRANCH   8   9
ENDBRANCH   7   8
BRANCH   7  15
ATOM     15  O10 <0> d   1      21.815   0.635  12.273  0.00  0.00    -0.389 OA
ATOM     16  H28 <0> d   1      22.433   0.243  11.642  0.00  0.00     0.210 HD
ENDBRANCH   7  15
ENDBRANCH   1   7
BRANCH   5  17
ATOM     17  O17 <0> d   1      17.707   2.031  15.635  0.00  0.00    -0.358 OA
ATOM     18  H32 <0> d   1      18.067   2.902  15.417  0.00  0.00     0.217 HD
ENDBRANCH   5  17
BRANCH   4  19
ATOM     19  O15 <0> d   1      17.249  -0.582  16.379  0.00  0.00    -0.358 OA
ATOM     20  H31 <0> d   1      17.160  -1.525  16.570  0.00  0.00     0.217 HD
ENDBRANCH   4  19
TORSDOF 7
ENDMDL
MODEL 5
REMARK VINA RESULT:      -5.9      2.885      3.356
REMARK  7 active torsions:
REMARK  status: ('A' for Active; 'I' for Inactive)
REMARK    1  A    between atoms: C2_2  and  N4_4 
REMARK    2  A    between atoms: N4_4  and  C7_7 
REMARK    3  A    between atoms: C7_7  and  C8_8 
REMARK    4  A    between atoms: C8_8  and  O10_9 
REMARK    5  A    between atoms: C8_8  and  C11_10 
REMARK    6  A    between atoms: C14_13  and  O15_14 
REMARK    7  A    between atoms: C16_15  and  O17_16 
ROOT
ATOM      1  C11 <0> d   1      18.834   0.140   7.770  0.00  0.00    -0.025 A 
ATOM      2  C12 <0> d   1      18.742   0.908   6.625  0.00  0.00     0.012 A 
ATOM      3  C13 <0> d   1      19.011   0.349   5.389  0.00  0.00     0.040 A 
ATOM      4  C14 <0> d   1      19.374  -0.984   5.296  0.00  0.00     0.098 A 
ATOM      5  C16 <0> d   1      19.468  -1.758   6.449  0.00  0.00     0.099 A 
ATOM      6  C18 <0> d   1      19.202  -1.190   7.685  0.00  0.00     0.049 A 
ENDROOT
BRANCH   1   7
ATOM      7  C8  <0> d   1      18.540   0.755   9.114  0.00  0.00     0.177 C 
BRANCH   7   8
ATOM      8  C7  <0> d   1      18.983   2.220   9.111  0.00  0.00     0.269 C 
BRANCH   8   9
ATOM      9  N4  <0> d   1      19.662   2.528  10.378  0.00  0.00    -0.069 N 
ATOM     10  H5  <0> d   1      20.499   3.059  10.189  0.00  0.00     0.277 HD
ATOM     11  H6  <0> d   1      19.908   1.668  10.845  0.00  0.00     0.277 HD
BRANCH   9  12
ATOM     12  C2  <0> d   1      18.765   3.314  11.235  0.00  0.00     0.178 C 
ATOM     13  C1  <0> d   1      19.597   4.185  12.179  0.00  0.00     0.039 C 
ATOM     14  C3  <0> d   1      17.879   4.206  10.364  0.00  0.00     0.039 C 
ENDBRANCH   9  12
ENDBRANCH   8   9
ENDBRANCH   7   8
BRANCH   7  15
ATOM     15  O10 <0> d   1      19.252   0.044  10.128  0.00  0.00    -0.389 OA
ATOM     16  H28 <0> d   1      19.580  -0.821   9.845  0.00  0.00     0.210 HD
ENDBRANCH   7  15
ENDBRANCH   1   7
BRANCH   5  17
ATOM     17  O17 <0> d   1      19.824  -3.068   6.364  0.00  0.00    -0.358 OA
ATOM     18  H32 <0> d   1      20.502  -3.249   5.698  0.00  0.00     0.217 HD
ENDBRANCH   5  17
BRANCH   4  19
ATOM     19  O15 <0> d   1      19.640  -1.536   4.081  0.00  0.00    -0.358 OA
ATOM     20  H31 <0> d   1      19.078  -2.291   3.862  0.00  0.00     0.217 HD
ENDBRANCH   4  19
TORSDOF 7
ENDMDL
MODEL 6
REMARK VINA RESULT:      -5.8      2.975      5.984
REMARK  7 active torsions:
REMARK  status: ('A' for Active; 'I' for Inactive)
REMARK    1  A    between atoms: C2_2  and  N4_4 
REMARK    2  A    between atoms: N4_4  and  C7_7 
REMARK    3  A    between atoms: C7_7  and  C8_8 
REMARK    4  A    between atoms: C8_8  and  O10_9 
REMARK    5  A    between atoms: C8_8  and  C11_10 
REMARK    6  A    between atoms: C14_13  and  O15_14 
REMARK    7  A    between atoms: C16_15  and  O17_16 
ROOT
ATOM      1  C11 <0> d   1      19.532   0.585  13.099  0.00  0.00    -0.025 A 
ATOM      2  C12 <0> d   1      18.588   1.569  13.317  0.00  0.00     0.012 A 
ATOM      3  C13 <0> d   1      17.781   1.523  14.439  0.00  0.00     0.040 A 
ATOM      4  C14 <0> d   1      17.917   0.488  15.348  0.00  0.00     0.098 A 
ATOM      5  C16 <0> d   1      18.868  -0.505  15.129  0.00  0.00     0.099 A 
ATOM      6  C18 <0> d   1      19.670  -0.455  14.000  0.00  0.00     0.049 A 
ENDROOT
BRANCH   1   7
ATOM      7  C8  <0> d   1      20.409   0.640  11.875  0.00  0.00     0.177 C 
BRANCH   7   8
ATOM      8  C7  <0> d   1      20.104  -0.560  10.976  0.00  0.00     0.269 C 
BRANCH   8   9
ATOM      9  N4  <0> d   1      20.647  -0.316   9.632  0.00  0.00    -0.069 N 
ATOM     10  H5  <0> d   1      21.179  -1.120   9.333  0.00  0.00     0.277 HD
ATOM     11  H6  <0> d   1      21.247   0.495   9.655  0.00  0.00     0.277 HD
BRANCH   9  12
ATOM     12  C2  <0> d   1      19.542  -0.083   8.693  0.00  0.00     0.178 C 
ATOM     13  C1  <0> d   1      18.240  -0.614   9.297  0.00  0.00     0.039 C 
ATOM     14  C3  <0> d   1      19.406   1.418   8.427  0.00  0.00     0.039 C 
ENDBRANCH   9  12
ENDBRANCH   8   9
ENDBRANCH   7   8
BRANCH   7  15
ATOM     15  O10 <0> d   1      21.782   0.603  12.270  0.00  0.00    -0.389 OA
ATOM     16  H28 <0> d   1      22.402   0.818  11.560  0.00  0.00     0.210 HD
ENDBRANCH   7  15
ENDBRANCH   1   7
BRANCH   5  17
ATOM     17  O17 <0> d   1      19.006  -1.524  16.018  0.00  0.00    -0.358 OA
ATOM     18  H32 <0> d   1      19.179  -2.384  15.609  0.00  0.00     0.217 HD
ENDBRANCH   5  17
BRANCH   4  19
ATOM     19  O15 <0> d   1      17.124   0.440  16.452  0.00  0.00    -0.358 OA
ATOM     20  H31 <0> d   1      16.184   0.565  16.266  0.00  0.00     0.217 HD
ENDBRANCH   4  19
TORSDOF 7
ENDMDL
MODEL 7
REMARK VINA RESULT:      -5.7      3.113      4.296
REMARK  7 active torsions:
REMARK  status: ('A' for Active; 'I' for Inactive)
REMARK    1  A    between atoms: C2_2  and  N4_4 
REMARK    2  A    between atoms: N4_4  and  C7_7 
REMARK    3  A    between atoms: C7_7  and  C8_8 
REMARK    4  A    between atoms: C8_8  and  O10_9 
REMARK    5  A    between atoms: C8_8  and  C11_10 
REMARK    6  A    between atoms: C14_13  and  O15_14 
REMARK    7  A    between atoms: C16_15  and  O17_16 
ROOT
ATOM      1  C11 <0> d   1      19.715   1.011  10.409  0.00  0.00    -0.025 A 
ATOM      2  C12 <0> d   1      19.053   1.767   9.461  0.00  0.00     0.012 A 
ATOM      3  C13 <0> d   1      18.541   3.008   9.795  0.00  0.00     0.040 A 
ATOM      4  C14 <0> d   1      18.691   3.496  11.082  0.00  0.00     0.098 A 
ATOM      5  C16 <0> d   1      19.358   2.735  12.038  0.00  0.00     0.099 A 
ATOM      6  C18 <0> d   1      19.864   1.490  11.698  0.00  0.00     0.049 A 
ENDROOT
BRANCH   1   7
ATOM      7  C8  <0> d   1      20.271  -0.340  10.040  0.00  0.00     0.177 C 
BRANCH   7   8
ATOM      8  C7  <0> d   1      19.250  -1.424  10.394  0.00  0.00     0.269 C 
BRANCH   8   9
ATOM      9  N4  <0> d   1      19.945  -2.704  10.595  0.00  0.00    -0.069 N 
ATOM     10  H5  <0> d   1      20.938  -2.539  10.668  0.00  0.00     0.277 HD
ATOM     11  H6  <0> d   1      19.761  -3.312   9.812  0.00  0.00     0.277 HD
BRANCH   9  12
ATOM     12  C2  <0> d   1      19.461  -3.334  11.830  0.00  0.00     0.178 C 
ATOM     13  C1  <0> d   1      18.521  -2.371  12.559  0.00  0.00     0.039 C 
ATOM     14  C3  <0> d   1      18.706  -4.620  11.485  0.00  0.00     0.039 C 
ENDBRANCH   9  12
ENDBRANCH   8   9
ENDBRANCH   7   8
BRANCH   7  15
ATOM     15  O10 <0> d   1      21.481  -0.571  10.765  0.00  0.00    -0.389 OA
ATOM     16  H28 <0> d   1      21.368  -1.114  11.557  0.00  0.00     0.210 HD
ENDBRANCH   7  15
ENDBRANCH   1   7
BRANCH   5  17
ATOM     17  O17 <0> d   1      19.509   3.209  13.303  0.00  0.00    -0.358 OA
ATOM     18  H32 <0> d   1      19.767   2.536  13.948  0.00  0.00     0.217 HD
ENDBRANCH   5  17
BRANCH   4  19
ATOM     19  O15 <0> d   1      18.188   4.715  11.412  0.00  0.00    -0.358 OA
ATOM     20  H31 <0> d   1      17.427   4.679  12.006  0.00  0.00     0.217 HD
ENDBRANCH   4  19
TORSDOF 7
ENDMDL
MODEL 8
REMARK VINA RESULT:      -5.6      2.001      3.682
REMARK  7 active torsions:
REMARK  status: ('A' for Active; 'I' for Inactive)
REMARK    1  A    between atoms: C2_2  and  N4_4 
REMARK    2  A    between atoms: N4_4  and  C7_7 
REMARK    3  A    between atoms: C7_7  and  C8_8 
REMARK    4  A    between atoms: C8_8  and  O10_9 
REMARK    5  A    between atoms: C8_8  and  C11_10 
REMARK    6  A    between atoms: C14_13  and  O15_14 
REMARK    7  A    between atoms: C16_15  and  O17_16 
ROOT
ATOM      1  C11 <0> d   1      19.339  -1.764  10.675  0.00  0.00    -0.025 A 
ATOM      2  C12 <0> d   1      18.929  -2.943  11.267  0.00  0.00     0.012 A 
ATOM      3  C13 <0> d   1      18.126  -3.828  10.570  0.00  0.00     0.040 A 
ATOM      4  C14 <0> d   1      17.730  -3.533   9.277  0.00  0.00     0.098 A 
ATOM      5  C16 <0> d   1      18.143  -2.345   8.680  0.00  0.00     0.099 A 
ATOM      6  C18 <0> d   1      18.943  -1.461   9.385  0.00  0.00     0.049 A 
ENDROOT
BRANCH   1   7
ATOM      7  C8  <0> d   1      20.214  -0.803  11.438  0.00  0.00     0.177 C 
BRANCH   7   8
ATOM      8  C7  <0> d   1      19.473   0.523  11.623  0.00  0.00     0.269 C 
BRANCH   8   9
ATOM      9  N4  <0> d   1      20.144   1.571  10.843  0.00  0.00    -0.069 N 
ATOM     10  H5  <0> d   1      20.797   1.146  10.201  0.00  0.00     0.277 HD
ATOM     11  H6  <0> d   1      20.641   2.189  11.467  0.00  0.00     0.277 HD
BRANCH   9  12
ATOM     12  C2  <0> d   1      19.143   2.336  10.088  0.00  0.00     0.178 C 
ATOM     13  C1  <0> d   1      19.275   2.017   8.597  0.00  0.00     0.039 C 
ATOM     14  C3  <0> d   1      17.741   1.956  10.569  0.00  0.00     0.039 C 
ENDBRANCH   9  12
ENDBRANCH   8   9
ENDBRANCH   7   8
BRANCH   7  15
ATOM     15  O10 <0> d   1      21.422  -0.577  10.709  0.00  0.00    -0.389 OA
ATOM     16  H28 <0> d   1      21.715  -1.337  10.187  0.00  0.00     0.210 HD
ENDBRANCH   7  15
ENDBRANCH   1   7
BRANCH   5  17
ATOM     17  O17 <0> d   1      17.757  -2.051   7.410  0.00  0.00    -0.358 OA
ATOM     18  H32 <0> d   1      17.056  -1.387   7.355  0.00  0.00     0.217 HD
ENDBRANCH   5  17
BRANCH   4  19
ATOM     19  O15 <0> d   1      16.940  -4.402   8.590  0.00  0.00    -0.358 OA
ATOM     20  H31 <0> d   1      16.637  -4.066   7.736  0.00  0.00     0.217 HD
ENDBRANCH   4  19
TORSDOF 7
ENDMDL
MODEL 9
REMARK VINA RESULT:      -5.6      2.187      2.369
REMARK  7 active torsions:
REMARK  status: ('A' for Active; 'I' for Inactive)
REMARK    1  A    between atoms: C2_2  and  N4_4 
REMARK    2  A    between atoms: N4_4  and  C7_7 
REMARK    3  A    between atoms: C7_7  and  C8_8 
REMARK    4  A    between atoms: C8_8  and  O10_9 
REMARK    5  A    between atoms: C8_8  and  C11_10 
REMARK    6  A    between atoms: C14_13  and  O15_14 
REMARK    7  A    between atoms: C16_15  and  O17_16 
ROOT
ATOM      1  C11 <0> d   1      17.821   0.876   9.812  0.00  0.00    -0.025 A 
ATOM      2  C12 <0> d   1      18.751   1.811   9.401  0.00  0.00     0.012 A 
ATOM      3  C13 <0> d   1      19.198   1.818   8.092  0.00  0.00     0.040 A 
ATOM      4  C14 <0> d   1      18.712   0.887   7.189  0.00  0.00     0.098 A 
ATOM      5  C16 <0> d   1      17.776  -0.056   7.603  0.00  0.00     0.099 A 
ATOM      6  C18 <0> d   1      17.337  -0.061   8.918  0.00  0.00     0.049 A 
ENDROOT
BRANCH   1   7
ATOM      7  C8  <0> d   1      17.339   0.872  11.240  0.00  0.00     0.177 C 
BRANCH   7   8
ATOM      8  C7  <0> d   1      18.431   0.297  12.145  0.00  0.00     0.269 C 
BRANCH   8   9
ATOM      9  N4  <0> d   1      17.884   0.075  13.491  0.00  0.00    -0.069 N 
ATOM     10  H5  <0> d   1      16.878   0.141  13.460  0.00  0.00     0.277 HD
ATOM     11  H6  <0> d   1      18.248   0.774  14.121  0.00  0.00     0.277 HD
BRANCH   9  12
ATOM     12  C2  <0> d   1      18.273  -1.260  13.963  0.00  0.00     0.178 C 
ATOM     13  C1  <0> d   1      19.193  -1.917  12.931  0.00  0.00     0.039 C 
ATOM     14  C3  <0> d   1      19.010  -1.136  15.298  0.00  0.00     0.039 C 
ENDBRANCH   9  12
ENDBRANCH   8   9
ENDBRANCH   7   8
BRANCH   7  15
ATOM     15  O10 <0> d   1      16.162   0.067  11.342  0.00  0.00    -0.389 OA
ATOM     16  H28 <0> d   1      16.037  -0.337  12.212  0.00  0.00     0.210 HD
ENDBRANCH   7  15
ENDBRANCH   1   7
BRANCH   5  17
ATOM     17  O17 <0> d   1      17.296  -0.973   6.722  0.00  0.00    -0.358 OA
ATOM     18  H32 <0> d   1      16.884  -1.743   7.138  0.00  0.00     0.217 HD
ENDBRANCH   5  17
BRANCH   4  19
ATOM     19  O15 <0> d   1      19.150   0.892   5.902  0.00  0.00    -0.358 OA
ATOM     20  H31 <0> d   1      20.072   0.618   5.799  0.00  0.00     0.217 HD
ENDBRANCH   4  19
TORSDOF 7
ENDMDL
