MODEL 1
REMARK VINA RESULT:      -6.5      0.000      0.000
REMARK  4 active torsions:
REMARK  status: ('A' for Active; 'I' for Inactive)
REMARK    1  A    between atoms: C2_2  and  C3_3 
REMARK    2  A    between atoms: C6_6  and  N7_7 
REMARK    3  A    between atoms: C9_9  and  N10_10 
REMARK    4  A    between atoms: C11_11  and  C12_12 
ROOT
ATOM      1  C3  ZIN A   1      18.355   2.010  11.535  0.00  0.00     0.041 A 
ATOM      2  N4  ZIN A   1      18.600   2.182  12.824  0.00  0.00    -0.193 N 
ATOM      3  H5  ZIN A   1      18.128   2.875  13.312  0.00  0.00     0.184 HD
ATOM      4  C6  ZIN A   1      19.480   1.420  13.459  0.00  0.00     0.700 A 
ATOM      5  N8  ZIN A   1      20.151   0.460  12.842  0.00  0.00    -0.047 NA
ATOM      6  C9  ZIN A   1      19.963   0.224  11.548  0.00  0.00     0.153 A 
ATOM      7  C11 ZIN A   1      19.032   1.008  10.843  0.00  0.00     0.043 A 
ENDROOT
BRANCH   7   8
ATOM      8  C12 ZIN A   1      18.787   0.784   9.398  0.00  0.00    -0.020 A 
ATOM      9  C18 ZIN A   1      17.851  -0.165   8.986  0.00  0.00     0.014 A 
ATOM     10  C17 ZIN A   1      17.623  -0.368   7.641  0.00  0.00     0.024 A 
ATOM     11  C15 ZIN A   1      18.329   0.363   6.699  0.00  0.00     0.034 A 
ATOM     12  C14 ZIN A   1      19.263   1.302   7.102  0.00  0.00     0.024 A 
ATOM     13 Cl16 ZIN A   1      18.043   0.098   5.008  0.00  0.00    -0.084 Cl
ATOM     14  C13 ZIN A   1      19.494   1.516   8.445  0.00  0.00     0.014 A 
ENDBRANCH   7   8
BRANCH   1  15
ATOM     15  C2  ZIN A   1      17.351   2.883  10.827  0.00  0.00     0.054 C 
ATOM     16  C1  ZIN A   1      17.948   4.274  10.608  0.00  0.00     0.011 C 
ENDBRANCH   1  15
BRANCH   6  17
ATOM     17  N10 ZIN A   1      20.665  -0.780  10.907  0.00  0.00    -0.383 N 
ATOM     18  H26 ZIN A   1      21.577  -0.980  11.172  0.00  0.00     0.157 HD
ATOM     19  H27 ZIN A   1      20.247  -1.284  10.191  0.00  0.00     0.157 HD
ENDBRANCH   6  17
BRANCH   4  20
ATOM     20  N7  ZIN A   1      19.703   1.635  14.807  0.00  0.00    -0.233 N 
ATOM     21  H24 ZIN A   1      19.328   1.028  15.464  0.00  0.00     0.174 HD
ATOM     22  H25 ZIN A   1      20.234   2.394  15.097  0.00  0.00     0.174 HD
ENDBRANCH   4  20
TORSDOF 4
ENDMDL
MODEL 2
REMARK VINA RESULT:      -6.5      1.204      2.893
REMARK  4 active torsions:
REMARK  status: ('A' for Active; 'I' for Inactive)
REMARK    1  A    between atoms: C2_2  and  C3_3 
REMARK    2  A    between atoms: C6_6  and  N7_7 
REMARK    3  A    between atoms: C9_9  and  N10_10 
REMARK    4  A    between atoms: C11_11  and  C12_12 
ROOT
ATOM      1  C3  ZIN A   1      19.565   1.075  11.887  0.00  0.00     0.041 A 
ATOM      2  N4  ZIN A   1      19.734   1.536  13.116  0.00  0.00    -0.193 N 
ATOM      3  H5  ZIN A   1      20.297   1.048  13.736  0.00  0.00     0.184 HD
ATOM      4  C6  ZIN A   1      19.146   2.656  13.512  0.00  0.00     0.700 A 
ATOM      5  N8  ZIN A   1      18.368   3.363  12.706  0.00  0.00    -0.047 NA
ATOM      6  C9  ZIN A   1      18.147   2.967  11.458  0.00  0.00     0.153 A 
ATOM      7  C11 ZIN A   1      18.759   1.786  11.000  0.00  0.00     0.043 A 
ENDROOT
BRANCH   7   8
ATOM      8  C12 ZIN A   1      18.543   1.304   9.615  0.00  0.00    -0.020 A 
ATOM      9  C18 ZIN A   1      19.337   1.785   8.575  0.00  0.00     0.014 A 
ATOM     10  C17 ZIN A   1      19.136   1.329   7.288  0.00  0.00     0.024 A 
ATOM     11  C15 ZIN A   1      18.139   0.403   7.028  0.00  0.00     0.034 A 
ATOM     12  C14 ZIN A   1      17.344  -0.073   8.055  0.00  0.00     0.024 A 
ATOM     13 Cl16 ZIN A   1      17.886  -0.160   5.406  0.00  0.00    -0.084 Cl
ATOM     14  C13 ZIN A   1      17.541   0.372   9.346  0.00  0.00     0.014 A 
ENDBRANCH   7   8
BRANCH   1  15
ATOM     15  C2  ZIN A   1      20.241  -0.199  11.450  0.00  0.00     0.054 C 
ATOM     16  C1  ZIN A   1      19.509  -1.399  12.056  0.00  0.00     0.011 C 
ENDBRANCH   1  15
BRANCH   6  17
ATOM     17  N10 ZIN A   1      17.333   3.707  10.619  0.00  0.00    -0.383 N 
ATOM     18  H26 ZIN A   1      16.960   4.549  10.925  0.00  0.00     0.157 HD
ATOM     19  H27 ZIN A   1      17.135   3.385   9.726  0.00  0.00     0.157 HD
ENDBRANCH   6  17
BRANCH   4  20
ATOM     20  N7  ZIN A   1      19.353   3.101  14.806  0.00  0.00    -0.233 N 
ATOM     21  H24 ZIN A   1      19.143   4.018  15.042  0.00  0.00     0.174 HD
ATOM     22  H25 ZIN A   1      19.710   2.497  15.476  0.00  0.00     0.174 HD
ENDBRANCH   4  20
TORSDOF 4
ENDMDL
MODEL 3
REMARK VINA RESULT:      -6.3      4.052      6.431
REMARK  4 active torsions:
REMARK  status: ('A' for Active; 'I' for Inactive)
REMARK    1  A    between atoms: C2_2  and  C3_3 
REMARK    2  A    between atoms: C6_6  and  N7_7 
REMARK    3  A    between atoms: C9_9  and  N10_10 
REMARK    4  A    between atoms: C11_11  and  C12_12 
ROOT
ATOM      1  C3  ZIN A   1      18.311  -2.031  10.905  0.00  0.00     0.041 A 
ATOM      2  N4  ZIN A   1      18.580  -2.199   9.621  0.00  0.00    -0.193 N 
ATOM      3  H5  ZIN A   1      18.145  -2.915   9.132  0.00  0.00     0.184 HD
ATOM      4  C6  ZIN A   1      19.435  -1.405   8.993  0.00  0.00     0.700 A 
ATOM      5  N8  ZIN A   1      20.056  -0.413   9.612  0.00  0.00    -0.047 NA
ATOM      6  C9  ZIN A   1      19.841  -0.178  10.902  0.00  0.00     0.153 A 
ATOM      7  C11 ZIN A   1      18.935  -0.997  11.600  0.00  0.00     0.043 A 
ENDROOT
BRANCH   7   8
ATOM      8  C12 ZIN A   1      18.662  -0.775  13.040  0.00  0.00    -0.020 A 
ATOM      9  C18 ZIN A   1      17.689   0.144  13.434  0.00  0.00     0.014 A 
ATOM     10  C17 ZIN A   1      17.435   0.344  14.775  0.00  0.00     0.024 A 
ATOM     11  C15 ZIN A   1      18.151  -0.358  15.730  0.00  0.00     0.034 A 
ATOM     12  C14 ZIN A   1      19.122  -1.267  15.345  0.00  0.00     0.024 A 
ATOM     13 Cl16 ZIN A   1      17.831  -0.096  17.416  0.00  0.00    -0.084 Cl
ATOM     14  C13 ZIN A   1      19.379  -1.478  14.006  0.00  0.00     0.014 A 
ENDBRANCH   7   8
BRANCH   1  15
ATOM     15  C2  ZIN A   1      17.336  -2.942  11.606  0.00  0.00     0.054 C 
ATOM     16  C1  ZIN A   1      17.964  -4.326  11.778  0.00  0.00     0.011 C 
ENDBRANCH   1  15
BRANCH   6  17
ATOM     17  N10 ZIN A   1      20.491   0.859  11.546  0.00  0.00    -0.383 N 
ATOM     18  H26 ZIN A   1      20.984   0.689  12.364  0.00  0.00     0.157 HD
ATOM     19  H27 ZIN A   1      20.454   1.757  11.180  0.00  0.00     0.157 HD
ENDBRANCH   6  17
BRANCH   4  20
ATOM     20  N7  ZIN A   1      19.685  -1.618   7.648  0.00  0.00    -0.233 N 
ATOM     21  H24 ZIN A   1      19.430  -2.457   7.235  0.00  0.00     0.174 HD
ATOM     22  H25 ZIN A   1      20.117  -0.928   7.120  0.00  0.00     0.174 HD
ENDBRANCH   4  20
TORSDOF 4
ENDMDL
MODEL 4
REMARK VINA RESULT:      -6.3      3.467      4.468
REMARK  4 active torsions:
REMARK  status: ('A' for Active; 'I' for Inactive)
REMARK    1  A    between atoms: C2_2  and  C3_3 
REMARK    2  A    between atoms: C6_6  and  N7_7 
REMARK    3  A    between atoms: C9_9  and  N10_10 
REMARK    4  A    between atoms: C11_11  and  C12_12 
ROOT
ATOM      1  C3  ZIN A   1      19.401  -0.030  10.374  0.00  0.00     0.041 A 
ATOM      2  N4  ZIN A   1      19.845   1.205  10.543  0.00  0.00    -0.193 N 
ATOM      3  H5  ZIN A   1      19.875   1.809   9.785  0.00  0.00     0.184 HD
ATOM      4  C6  ZIN A   1      20.248   1.628  11.732  0.00  0.00     0.700 A 
ATOM      5  N8  ZIN A   1      20.226   0.845  12.800  0.00  0.00    -0.047 NA
ATOM      6  C9  ZIN A   1      19.795  -0.408  12.714  0.00  0.00     0.153 A 
ATOM      7  C11 ZIN A   1      19.354  -0.891  11.468  0.00  0.00     0.043 A 
ENDROOT
BRANCH   7   8
ATOM      8  C12 ZIN A   1      18.864  -2.282  11.321  0.00  0.00    -0.020 A 
ATOM      9  C18 ZIN A   1      17.502  -2.560  11.436  0.00  0.00     0.014 A 
ATOM     10  C17 ZIN A   1      17.050  -3.856  11.294  0.00  0.00     0.024 A 
ATOM     11  C15 ZIN A   1      17.948  -4.882  11.047  0.00  0.00     0.034 A 
ATOM     12  C14 ZIN A   1      19.301  -4.613  10.939  0.00  0.00     0.024 A 
ATOM     13 Cl16 ZIN A   1      17.373  -6.511  10.877  0.00  0.00    -0.084 Cl
ATOM     14  C13 ZIN A   1      19.762  -3.319  11.074  0.00  0.00     0.014 A 
ENDBRANCH   7   8
BRANCH   1  15
ATOM     15  C2  ZIN A   1      18.944  -0.498   9.015  0.00  0.00     0.054 C 
ATOM     16  C1  ZIN A   1      17.561   0.083   8.714  0.00  0.00     0.011 C 
ENDBRANCH   1  15
BRANCH   6  17
ATOM     17  N10 ZIN A   1      19.774  -1.223  13.831  0.00  0.00    -0.383 N 
ATOM     18  H26 ZIN A   1      20.157  -0.911  14.667  0.00  0.00     0.157 HD
ATOM     19  H27 ZIN A   1      19.379  -2.107  13.779  0.00  0.00     0.157 HD
ENDBRANCH   6  17
BRANCH   4  20
ATOM     20  N7  ZIN A   1      20.703   2.928  11.863  0.00  0.00    -0.233 N 
ATOM     21  H24 ZIN A   1      20.598   3.555  11.130  0.00  0.00     0.174 HD
ATOM     22  H25 ZIN A   1      21.129   3.213  12.687  0.00  0.00     0.174 HD
ENDBRANCH   4  20
TORSDOF 4
ENDMDL
MODEL 5
REMARK VINA RESULT:      -6.2      3.430      5.916
REMARK  4 active torsions:
REMARK  status: ('A' for Active; 'I' for Inactive)
REMARK    1  A    between atoms: C2_2  and  C3_3 
REMARK    2  A    between atoms: C6_6  and  N7_7 
REMARK    3  A    between atoms: C9_9  and  N10_10 
REMARK    4  A    between atoms: C11_11  and  C12_12 
ROOT
ATOM      1  C3  ZIN A   1      18.166  -1.602   6.379  0.00  0.00     0.041 A 
ATOM      2  N4  ZIN A   1      18.261  -2.770   5.765  0.00  0.00    -0.193 N 
ATOM      3  H5  ZIN A   1      17.978  -2.848   4.841  0.00  0.00     0.184 HD
ATOM      4  C6  ZIN A   1      18.739  -3.835   6.393  0.00  0.00     0.700 A 
ATOM      5  N8  ZIN A   1      19.141  -3.784   7.654  0.00  0.00    -0.047 NA
ATOM      6  C9  ZIN A   1      19.078  -2.649   8.341  0.00  0.00     0.153 A 
ATOM      7  C11 ZIN A   1      18.581  -1.496   7.705  0.00  0.00     0.043 A 
ENDROOT
BRANCH   7   8
ATOM      8  C12 ZIN A   1      18.490  -0.206   8.429  0.00  0.00    -0.020 A 
ATOM      9  C18 ZIN A   1      19.433   0.795   8.197  0.00  0.00     0.014 A 
ATOM     10  C17 ZIN A   1      19.341   1.996   8.870  0.00  0.00     0.024 A 
ATOM     11  C15 ZIN A   1      18.321   2.204   9.783  0.00  0.00     0.034 A 
ATOM     12  C14 ZIN A   1      17.385   1.212  10.023  0.00  0.00     0.024 A 
ATOM     13 Cl16 ZIN A   1      18.216   3.714  10.633  0.00  0.00    -0.084 Cl
ATOM     14  C13 ZIN A   1      17.465   0.010   9.350  0.00  0.00     0.014 A 
ENDBRANCH   7   8
BRANCH   1  15
ATOM     15  C2  ZIN A   1      17.621  -0.400   5.651  0.00  0.00     0.054 C 
ATOM     16  C1  ZIN A   1      18.561  -0.029   4.503  0.00  0.00     0.011 C 
ENDBRANCH   1  15
BRANCH   6  17
ATOM     17  N10 ZIN A   1      19.498  -2.599   9.657  0.00  0.00    -0.383 N 
ATOM     18  H26 ZIN A   1      19.941  -3.366  10.055  0.00  0.00     0.157 HD
ATOM     19  H27 ZIN A   1      19.350  -1.798  10.184  0.00  0.00     0.157 HD
ENDBRANCH   6  17
BRANCH   4  20
ATOM     20  N7  ZIN A   1      18.822  -5.035   5.710  0.00  0.00    -0.233 N 
ATOM     21  H24 ZIN A   1      18.599  -5.865   6.159  0.00  0.00     0.174 HD
ATOM     22  H25 ZIN A   1      19.106  -5.048   4.782  0.00  0.00     0.174 HD
ENDBRANCH   4  20
TORSDOF 4
ENDMDL
MODEL 6
REMARK VINA RESULT:      -6.1      3.626      5.503
REMARK  4 active torsions:
REMARK  status: ('A' for Active; 'I' for Inactive)
REMARK    1  A    between atoms: C2_2  and  C3_3 
REMARK    2  A    between atoms: C6_6  and  N7_7 
REMARK    3  A    between atoms: C9_9  and  N10_10 
REMARK    4  A    between atoms: C11_11  and  C12_12 
ROOT
ATOM      1  C3  ZIN A   1      18.836   0.602  16.683  0.00  0.00     0.041 A 
ATOM      2  N4  ZIN A   1      18.911   1.192  17.866  0.00  0.00    -0.193 N 
ATOM      3  H5  ZIN A   1      18.832   0.657  18.671  0.00  0.00     0.184 HD
ATOM      4  C6  ZIN A   1      19.093   2.500  17.966  0.00  0.00     0.700 A 
ATOM      5  N8  ZIN A   1      19.207   3.277  16.899  0.00  0.00    -0.047 NA
ATOM      6  C9  ZIN A   1      19.143   2.763  15.676  0.00  0.00     0.153 A 
ATOM      7  C11 ZIN A   1      18.957   1.376  15.531  0.00  0.00     0.043 A 
ENDROOT
BRANCH   7   8
ATOM      8  C12 ZIN A   1      18.877   0.755  14.187  0.00  0.00    -0.020 A 
ATOM      9  C18 ZIN A   1      20.041   0.348  13.534  0.00  0.00     0.014 A 
ATOM     10  C17 ZIN A   1      19.963  -0.233  12.286  0.00  0.00     0.024 A 
ATOM     11  C15 ZIN A   1      18.731  -0.404  11.676  0.00  0.00     0.034 A 
ATOM     12  C14 ZIN A   1      17.573   0.003  12.315  0.00  0.00     0.024 A 
ATOM     13 Cl16 ZIN A   1      18.640  -1.129  10.101  0.00  0.00    -0.084 Cl
ATOM     14  C13 ZIN A   1      17.641   0.581  13.567  0.00  0.00     0.014 A 
ENDBRANCH   7   8
BRANCH   1  15
ATOM     15  C2  ZIN A   1      18.630  -0.888  16.585  0.00  0.00     0.054 C 
ATOM     16  C1  ZIN A   1      17.161  -1.219  16.857  0.00  0.00     0.011 C 
ENDBRANCH   1  15
BRANCH   6  17
ATOM     17  N10 ZIN A   1      19.263   3.576  14.564  0.00  0.00    -0.383 N 
ATOM     18  H26 ZIN A   1      20.112   4.002  14.364  0.00  0.00     0.157 HD
ATOM     19  H27 ZIN A   1      18.499   3.722  13.985  0.00  0.00     0.157 HD
ENDBRANCH   6  17
BRANCH   4  20
ATOM     20  N7  ZIN A   1      19.166   3.073  19.223  0.00  0.00    -0.233 N 
ATOM     21  H24 ZIN A   1      18.600   2.746  19.939  0.00  0.00     0.174 HD
ATOM     22  H25 ZIN A   1      19.783   3.804  19.389  0.00  0.00     0.174 HD
ENDBRANCH   4  20
TORSDOF 4
ENDMDL
MODEL 7
REMARK VINA RESULT:      -6.1      4.451      6.103
REMARK  4 active torsions:
REMARK  status: ('A' for Active; 'I' for Inactive)
REMARK    1  A    between atoms: C2_2  and  C3_3 
REMARK    2  A    between atoms: C6_6  and  N7_7 
REMARK    3  A    between atoms: C9_9  and  N10_10 
REMARK    4  A    between atoms: C11_11  and  C12_12 
ROOT
ATOM      1  C3  ZIN A   1      18.628  -0.637   7.516  0.00  0.00     0.041 A 
ATOM      2  N4  ZIN A   1      18.731  -0.706   6.199  0.00  0.00    -0.193 N 
ATOM      3  H5  ZIN A   1      18.490   0.064   5.661  0.00  0.00     0.184 HD
ATOM      4  C6  ZIN A   1      19.158  -1.810   5.604  0.00  0.00     0.700 A 
ATOM      5  N8  ZIN A   1      19.499  -2.890   6.291  0.00  0.00    -0.047 NA
ATOM      6  C9  ZIN A   1      19.424  -2.903   7.617  0.00  0.00     0.153 A 
ATOM      7  C11 ZIN A   1      18.981  -1.746   8.283  0.00  0.00     0.043 A 
ENDROOT
BRANCH   7   8
ATOM      8  C12 ZIN A   1      18.879  -1.711   9.762  0.00  0.00    -0.020 A 
ATOM      9  C18 ZIN A   1      19.912  -1.162  10.521  0.00  0.00     0.014 A 
ATOM     10  C17 ZIN A   1      19.812  -1.128  11.897  0.00  0.00     0.024 A 
ATOM     11  C15 ZIN A   1      18.691  -1.646  12.524  0.00  0.00     0.034 A 
ATOM     12  C14 ZIN A   1      17.665  -2.198  11.776  0.00  0.00     0.024 A 
ATOM     13 Cl16 ZIN A   1      18.574  -1.607  14.256  0.00  0.00    -0.084 Cl
ATOM     14  C13 ZIN A   1      17.754  -2.232  10.400  0.00  0.00     0.014 A 
ENDBRANCH   7   8
BRANCH   1  15
ATOM     15  C2  ZIN A   1      18.142   0.626   8.180  0.00  0.00     0.054 C 
ATOM     16  C1  ZIN A   1      19.245   1.685   8.132  0.00  0.00     0.011 C 
ENDBRANCH   1  15
BRANCH   6  17
ATOM     17  N10 ZIN A   1      19.782  -4.032   8.330  0.00  0.00    -0.383 N 
ATOM     18  H26 ZIN A   1      20.368  -4.693   7.930  0.00  0.00     0.157 HD
ATOM     19  H27 ZIN A   1      19.446  -4.163   9.231  0.00  0.00     0.157 HD
ENDBRANCH   6  17
BRANCH   4  20
ATOM     20  N7  ZIN A   1      19.251  -1.835   4.224  0.00  0.00    -0.233 N 
ATOM     21  H24 ZIN A   1      20.118  -1.768   3.795  0.00  0.00     0.174 HD
ATOM     22  H25 ZIN A   1      18.448  -1.919   3.685  0.00  0.00     0.174 HD
ENDBRANCH   4  20
TORSDOF 4
ENDMDL
MODEL 8
REMARK VINA RESULT:      -6.1      3.704      4.710
REMARK  4 active torsions:
REMARK  status: ('A' for Active; 'I' for Inactive)
REMARK    1  A    between atoms: C2_2  and  C3_3 
REMARK    2  A    between atoms: C6_6  and  N7_7 
REMARK    3  A    between atoms: C9_9  and  N10_10 
REMARK    4  A    between atoms: C11_11  and  C12_12 
ROOT
ATOM      1  C3  ZIN A   1      17.999   0.370  14.692  0.00  0.00     0.041 A 
ATOM      2  N4  ZIN A   1      17.866   1.561  15.252  0.00  0.00    -0.193 N 
ATOM      3  H5  ZIN A   1      17.722   1.626  16.209  0.00  0.00     0.184 HD
ATOM      4  C6  ZIN A   1      17.926   2.667  14.525  0.00  0.00     0.700 A 
ATOM      5  N8  ZIN A   1      18.120   2.637  13.215  0.00  0.00    -0.047 NA
ATOM      6  C9  ZIN A   1      18.263   1.480  12.577  0.00  0.00     0.153 A 
ATOM      7  C11 ZIN A   1      18.211   0.285  13.318  0.00  0.00     0.043 A 
ENDROOT
BRANCH   7   8
ATOM      8  C12 ZIN A   1      18.365  -1.030  12.651  0.00  0.00    -0.020 A 
ATOM      9  C18 ZIN A   1      17.293  -1.594  11.961  0.00  0.00     0.014 A 
ATOM     10  C17 ZIN A   1      17.441  -2.816  11.338  0.00  0.00     0.024 A 
ATOM     11  C15 ZIN A   1      18.651  -3.488  11.407  0.00  0.00     0.034 A 
ATOM     12  C14 ZIN A   1      19.717  -2.936  12.096  0.00  0.00     0.024 A 
ATOM     13 Cl16 ZIN A   1      18.829  -5.028  10.628  0.00  0.00    -0.084 Cl
ATOM     14  C13 ZIN A   1      19.580  -1.711  12.717  0.00  0.00     0.014 A 
ENDBRANCH   7   8
BRANCH   1  15
ATOM     15  C2  ZIN A   1      17.930  -0.880  15.532  0.00  0.00     0.054 C 
ATOM     16  C1  ZIN A   1      17.111  -0.602  16.794  0.00  0.00     0.011 C 
ENDBRANCH   1  15
BRANCH   6  17
ATOM     17  N10 ZIN A   1      18.466   1.452  11.210  0.00  0.00    -0.383 N 
ATOM     18  H26 ZIN A   1      19.136   2.027  10.806  0.00  0.00     0.157 HD
ATOM     19  H27 ZIN A   1      17.938   0.858  10.653  0.00  0.00     0.157 HD
ENDBRANCH   6  17
BRANCH   4  20
ATOM     20  N7  ZIN A   1      17.782   3.892  15.153  0.00  0.00    -0.233 N 
ATOM     21  H24 ZIN A   1      17.017   4.454  14.952  0.00  0.00     0.174 HD
ATOM     22  H25 ZIN A   1      18.447   4.190  15.794  0.00  0.00     0.174 HD
ENDBRANCH   4  20
TORSDOF 4
ENDMDL
MODEL 9
REMARK VINA RESULT:      -6.0      3.574      5.377
REMARK  4 active torsions:
REMARK  status: ('A' for Active; 'I' for Inactive)
REMARK    1  A    between atoms: C2_2  and  C3_3 
REMARK    2  A    between atoms: C6_6  and  N7_7 
REMARK    3  A    between atoms: C9_9  and  N10_10 
REMARK    4  A    between atoms: C11_11  and  C12_12 
ROOT
ATOM      1  C3  ZIN A   1      18.640   1.638   9.858  0.00  0.00     0.041 A 
ATOM      2  N4  ZIN A   1      18.669   1.880   8.558  0.00  0.00    -0.193 N 
ATOM      3  H5  ZIN A   1      18.410   2.754   8.229  0.00  0.00     0.184 HD
ATOM      4  C6  ZIN A   1      19.049   0.945   7.698  0.00  0.00     0.700 A 
ATOM      5  N8  ZIN A   1      19.415  -0.265   8.093  0.00  0.00    -0.047 NA
ATOM      6  C9  ZIN A   1      19.412  -0.587   9.382  0.00  0.00     0.153 A 
ATOM      7  C11 ZIN A   1      19.020   0.381  10.324  0.00  0.00     0.043 A 
ENDROOT
BRANCH   7   8
ATOM      8  C12 ZIN A   1      19.000   0.069  11.773  0.00  0.00    -0.020 A 
ATOM      9  C18 ZIN A   1      20.108   0.365  12.568  0.00  0.00     0.014 A 
ATOM     10  C17 ZIN A   1      20.083   0.077  13.917  0.00  0.00     0.024 A 
ATOM     11  C15 ZIN A   1      18.964  -0.514  14.480  0.00  0.00     0.034 A 
ATOM     12  C14 ZIN A   1      17.864  -0.814  13.696  0.00  0.00     0.024 A 
ATOM     13 Cl16 ZIN A   1      18.943  -0.880  16.177  0.00  0.00    -0.084 Cl
ATOM     14  C13 ZIN A   1      17.877  -0.525  12.347  0.00  0.00     0.014 A 
ENDBRANCH   7   8
BRANCH   1  15
ATOM     15  C2  ZIN A   1      18.206   2.711  10.824  0.00  0.00     0.054 C 
ATOM     16  C1  ZIN A   1      17.962   4.015  10.062  0.00  0.00     0.011 C 
ENDBRANCH   1  15
BRANCH   6  17
ATOM     17  N10 ZIN A   1      19.794  -1.852   9.791  0.00  0.00    -0.383 N 
ATOM     18  H26 ZIN A   1      20.275  -2.434   9.182  0.00  0.00     0.157 HD
ATOM     19  H27 ZIN A   1      19.580  -2.157  10.686  0.00  0.00     0.157 HD
ENDBRANCH   6  17
BRANCH   4  20
ATOM     20  N7  ZIN A   1      19.066   1.243   6.347  0.00  0.00    -0.233 N 
ATOM     21  H24 ZIN A   1      19.390   2.106   6.045  0.00  0.00     0.174 HD
ATOM     22  H25 ZIN A   1      18.752   0.590   5.702  0.00  0.00     0.174 HD
ENDBRANCH   4  20
TORSDOF 4
ENDMDL
