MODEL 1
REMARK VINA RESULT:      -6.8      0.000      0.000
REMARK  8 active torsions:
REMARK  status: ('A' for Active; 'I' for Inactive)
REMARK    1  A    between atoms: C2_2  and  N3_3 
REMARK    2  A    between atoms: N3_3  and  C5_5 
REMARK    3  A    between atoms: N3_3  and  C7_7 
REMARK    4  A    between atoms: C7_7  and  C8_8 
REMARK    5  A    between atoms: C8_8  and  C9_9 
REMARK    6  A    between atoms: C9_9  and  C10_10 
REMARK    7  A    between atoms: C10_10  and  N13_12 
REMARK    8  A    between atoms: N13_12  and  C14_13 
ROOT
ATOM      1  N13 <0> d   1      19.797   2.443  10.505  0.00  0.00    -0.385 N 
ATOM      2  H45 <0> d   1      20.516   2.997  10.164  0.00  0.00     0.160 HD
ENDROOT
BRANCH   1   3
ATOM      3  C10 <0> d   1      18.779   3.022  11.385  0.00  0.00     0.077 C 
ATOM      4  C12 <0> d   1      17.716   3.728  10.541  0.00  0.00     0.032 C 
BRANCH   3   5
ATOM      5  C9  <0> d   1      19.435   4.032  12.328  0.00  0.00     0.026 C 
BRANCH   5   6
ATOM      6  C8  <0> d   1      18.553   4.223  13.564  0.00  0.00     0.030 C 
BRANCH   6   7
ATOM      7  C7  <0> d   1      18.152   2.855  14.120  0.00  0.00     0.235 C 
BRANCH   7   8
ATOM      8  N3  <0> d   1      19.279   2.282  14.870  0.00  0.00    -0.072 N 
ATOM      9  H4  <0> d   1      20.136   2.445  14.365  0.00  0.00     0.279 HD
BRANCH   8  10
ATOM     10  C2  <0> d   1      19.361   2.917  16.192  0.00  0.00     0.230 C 
ATOM     11  C1  <0> d   1      19.178   1.856  17.279  0.00  0.00     0.034 C 
ENDBRANCH   8  10
BRANCH   8  12
ATOM     12  C5  <0> d   1      19.074   0.836  15.033  0.00  0.00     0.230 C 
ATOM     13  C6  <0> d   1      17.902   0.386  14.158  0.00  0.00     0.034 C 
ENDBRANCH   8  12
ENDBRANCH   7   8
ENDBRANCH   6   7
ENDBRANCH   5   6
ENDBRANCH   3   5
ENDBRANCH   1   3
BRANCH   1  14
ATOM     14  C14 <0> d   1      19.730   1.102  10.157  0.00  0.00     0.042 A 
ATOM     15  C25 <0> d   1      19.951   0.108  11.097  0.00  0.00     0.047 A 
ATOM     16  C24 <0> d   1      19.874  -1.226  10.719  0.00  0.00     0.090 A 
ATOM     17  N22 <0> d   1      19.604  -1.580   9.484  0.00  0.00    -0.365 N 
ATOM     18  C21 <0> d   1      19.386  -0.675   8.524  0.00  0.00     0.046 A 
ATOM     19  H23 <0> d   1      19.563  -2.524   9.262  0.00  0.00     0.165 HD
ATOM     20  C15 <0> d   1      19.443   0.706   8.829  0.00  0.00     0.017 A 
ATOM     21  C20 <0> d   1      19.100  -1.071   7.207  0.00  0.00     0.054 A 
ATOM     22  C16 <0> d   1      19.213   1.651   7.820  0.00  0.00     0.018 A 
ATOM     23  C17 <0> d   1      18.939   1.231   6.553  0.00  0.00     0.025 A 
ATOM     24  C18 <0> d   1      18.883  -0.128   6.248  0.00  0.00     0.036 A 
ATOM     25 Cl19 <0> d   1      18.530  -0.626   4.624  0.00  0.00    -0.084 Cl
ENDBRANCH   1  14
TORSDOF 8
ENDMDL
MODEL 2
REMARK VINA RESULT:      -6.8      2.517      6.006
REMARK  8 active torsions:
REMARK  status: ('A' for Active; 'I' for Inactive)
REMARK    1  A    between atoms: C2_2  and  N3_3 
REMARK    2  A    between atoms: N3_3  and  C5_5 
REMARK    3  A    between atoms: N3_3  and  C7_7 
REMARK    4  A    between atoms: C7_7  and  C8_8 
REMARK    5  A    between atoms: C8_8  and  C9_9 
REMARK    6  A    between atoms: C9_9  and  C10_10 
REMARK    7  A    between atoms: C10_10  and  N13_12 
REMARK    8  A    between atoms: N13_12  and  C14_13 
ROOT
ATOM      1  N13 <0> d   1      20.056  -0.723  12.169  0.00  0.00    -0.385 N 
ATOM      2  H45 <0> d   1      20.923  -1.147  12.073  0.00  0.00     0.160 HD
ENDROOT
BRANCH   1   3
ATOM      3  C10 <0> d   1      19.026  -1.342  13.008  0.00  0.00     0.077 C 
ATOM      4  C12 <0> d   1      19.551  -1.485  14.438  0.00  0.00     0.032 C 
BRANCH   3   5
ATOM      5  C9  <0> d   1      18.678  -2.725  12.452  0.00  0.00     0.026 C 
BRANCH   5   6
ATOM      6  C8  <0> d   1      19.904  -3.315  11.751  0.00  0.00     0.030 C 
BRANCH   6   7
ATOM      7  C7  <0> d   1      19.500  -4.588  11.004  0.00  0.00     0.235 C 
BRANCH   7   8
ATOM      8  N3  <0> d   1      19.611  -4.362   9.556  0.00  0.00    -0.072 N 
ATOM      9  H4  <0> d   1      20.212  -3.571   9.385  0.00  0.00     0.279 HD
BRANCH   8  10
ATOM     10  C2  <0> d   1      20.179  -5.556   8.916  0.00  0.00     0.230 C 
ATOM     11  C1  <0> d   1      20.362  -5.293   7.420  0.00  0.00     0.034 C 
ENDBRANCH   8  10
BRANCH   8  12
ATOM     12  C5  <0> d   1      18.278  -4.094   8.999  0.00  0.00     0.230 C 
ATOM     13  C6  <0> d   1      17.251  -5.010   9.670  0.00  0.00     0.034 C 
ENDBRANCH   8  12
ENDBRANCH   7   8
ENDBRANCH   6   7
ENDBRANCH   5   6
ENDBRANCH   3   5
ENDBRANCH   1   3
BRANCH   1  14
ATOM     14  C14 <0> d   1      19.790   0.470  11.514  0.00  0.00     0.042 A 
ATOM     15  C25 <0> d   1      19.757   1.672  12.203  0.00  0.00     0.047 A 
ATOM     16  C24 <0> d   1      19.492   2.850  11.518  0.00  0.00     0.090 A 
ATOM     17  N22 <0> d   1      19.261   2.863  10.226  0.00  0.00    -0.365 N 
ATOM     18  C21 <0> d   1      19.272   1.740   9.499  0.00  0.00     0.046 A 
ATOM     19  H23 <0> d   1      19.078   3.708   9.787  0.00  0.00     0.165 HD
ATOM     20  C15 <0> d   1      19.538   0.497  10.122  0.00  0.00     0.017 A 
ATOM     21  C20 <0> d   1      19.022   1.770   8.116  0.00  0.00     0.054 A 
ATOM     22  C16 <0> d   1      19.548  -0.677   9.356  0.00  0.00     0.018 A 
ATOM     23  C17 <0> d   1      19.300  -0.610   8.017  0.00  0.00     0.025 A 
ATOM     24  C18 <0> d   1      19.038   0.612   7.400  0.00  0.00     0.036 A 
ATOM     25 Cl19 <0> d   1      18.727   0.658   5.693  0.00  0.00    -0.084 Cl
ENDBRANCH   1  14
TORSDOF 8
ENDMDL
MODEL 3
REMARK VINA RESULT:      -6.6      3.501      7.647
REMARK  8 active torsions:
REMARK  status: ('A' for Active; 'I' for Inactive)
REMARK    1  A    between atoms: C2_2  and  N3_3 
REMARK    2  A    between atoms: N3_3  and  C5_5 
REMARK    3  A    between atoms: N3_3  and  C7_7 
REMARK    4  A    between atoms: C7_7  and  C8_8 
REMARK    5  A    between atoms: C8_8  and  C9_9 
REMARK    6  A    between atoms: C9_9  and  C10_10 
REMARK    7  A    between atoms: C10_10  and  N13_12 
REMARK    8  A    between atoms: N13_12  and  C14_13 
ROOT
ATOM      1  N13 <0> d   1      19.284  -1.886  12.215  0.00  0.00    -0.385 N 
ATOM      2  H45 <0> d   1      19.841  -2.597  12.568  0.00  0.00     0.160 HD
ENDROOT
BRANCH   1   3
ATOM      3  C10 <0> d   1      18.388  -2.148  11.086  0.00  0.00     0.077 C 
ATOM      4  C12 <0> d   1      17.383  -3.234  11.475  0.00  0.00     0.032 C 
BRANCH   3   5
ATOM      5  C9  <0> d   1      19.208  -2.618   9.883  0.00  0.00     0.026 C 
BRANCH   5   6
ATOM      6  C8  <0> d   1      19.292  -1.490   8.852  0.00  0.00     0.030 C 
BRANCH   6   7
ATOM      7  C7  <0> d   1      17.887  -1.157   8.346  0.00  0.00     0.235 C 
BRANCH   7   8
ATOM      8  N3  <0> d   1      17.862   0.225   7.847  0.00  0.00    -0.072 N 
ATOM      9  H4  <0> d   1      17.157   0.749   8.342  0.00  0.00     0.279 HD
BRANCH   8  10
ATOM     10  C2  <0> d   1      19.176   0.848   8.061  0.00  0.00     0.230 C 
ATOM     11  C1  <0> d   1      18.992   2.203   8.746  0.00  0.00     0.034 C 
ENDBRANCH   8  10
BRANCH   8  12
ATOM     12  C5  <0> d   1      17.551   0.221   6.411  0.00  0.00     0.230 C 
ATOM     13  C6  <0> d   1      18.852   0.228   5.606  0.00  0.00     0.034 C 
ENDBRANCH   8  12
ENDBRANCH   7   8
ENDBRANCH   6   7
ENDBRANCH   5   6
ENDBRANCH   3   5
ENDBRANCH   1   3
BRANCH   1  14
ATOM     14  C14 <0> d   1      19.336  -0.620  12.779  0.00  0.00     0.042 A 
ATOM     15  C25 <0> d   1      19.568   0.501  12.000  0.00  0.00     0.047 A 
ATOM     16  C24 <0> d   1      19.610   1.756  12.595  0.00  0.00     0.090 A 
ATOM     17  N22 <0> d   1      19.443   1.915  13.886  0.00  0.00    -0.365 N 
ATOM     18  C21 <0> d   1      19.221   0.877  14.701  0.00  0.00     0.046 A 
ATOM     19  H23 <0> d   1      19.483   2.809  14.261  0.00  0.00     0.165 HD
ATOM     20  C15 <0> d   1      19.159  -0.435  14.172  0.00  0.00     0.017 A 
ATOM     21  C20 <0> d   1      19.045   1.065  16.082  0.00  0.00     0.054 A 
ATOM     22  C16 <0> d   1      18.926  -1.519  15.028  0.00  0.00     0.018 A 
ATOM     23  C17 <0> d   1      18.761  -1.300  16.363  0.00  0.00     0.025 A 
ATOM     24  C18 <0> d   1      18.821  -0.010  16.888  0.00  0.00     0.036 A 
ATOM     25 Cl19 <0> d   1      18.606   0.229  18.593  0.00  0.00    -0.084 Cl
ENDBRANCH   1  14
TORSDOF 8
ENDMDL
MODEL 4
REMARK VINA RESULT:      -6.5      3.354      6.780
REMARK  8 active torsions:
REMARK  status: ('A' for Active; 'I' for Inactive)
REMARK    1  A    between atoms: C2_2  and  N3_3 
REMARK    2  A    between atoms: N3_3  and  C5_5 
REMARK    3  A    between atoms: N3_3  and  C7_7 
REMARK    4  A    between atoms: C7_7  and  C8_8 
REMARK    5  A    between atoms: C8_8  and  C9_9 
REMARK    6  A    between atoms: C9_9  and  C10_10 
REMARK    7  A    between atoms: C10_10  and  N13_12 
REMARK    8  A    between atoms: N13_12  and  C14_13 
ROOT
ATOM      1  N13 <0> d   1      17.701   0.624   9.485  0.00  0.00    -0.385 N 
ATOM      2  H45 <0> d   1      16.754   0.453   9.608  0.00  0.00     0.160 HD
ENDROOT
BRANCH   1   3
ATOM      3  C10 <0> d   1      18.355   0.258   8.226  0.00  0.00     0.077 C 
ATOM      4  C12 <0> d   1      17.293  -0.123   7.192  0.00  0.00     0.032 C 
BRANCH   3   5
ATOM      5  C9  <0> d   1      19.287  -0.932   8.462  0.00  0.00     0.026 C 
BRANCH   5   6
ATOM      6  C8  <0> d   1      18.606  -2.216   7.983  0.00  0.00     0.030 C 
BRANCH   6   7
ATOM      7  C7  <0> d   1      18.498  -3.201   9.149  0.00  0.00     0.235 C 
BRANCH   7   8
ATOM      8  N3  <0> d   1      19.694  -4.053   9.182  0.00  0.00    -0.072 N 
ATOM      9  H4  <0> d   1      20.515  -3.486   9.036  0.00  0.00     0.279 HD
BRANCH   8  10
ATOM     10  C2  <0> d   1      19.785  -4.719  10.489  0.00  0.00     0.230 C 
ATOM     11  C1  <0> d   1      20.180  -3.696  11.555  0.00  0.00     0.034 C 
ENDBRANCH   8  10
BRANCH   8  12
ATOM     12  C5  <0> d   1      19.603  -5.066   8.122  0.00  0.00     0.230 C 
ATOM     13  C6  <0> d   1      18.720  -6.223   8.596  0.00  0.00     0.034 C 
ENDBRANCH   8  12
ENDBRANCH   7   8
ENDBRANCH   6   7
ENDBRANCH   5   6
ENDBRANCH   3   5
ENDBRANCH   1   3
BRANCH   1  14
ATOM     14  C14 <0> d   1      18.435   1.216  10.501  0.00  0.00     0.042 A 
ATOM     15  C25 <0> d   1      19.060   2.438  10.313  0.00  0.00     0.047 A 
ATOM     16  C24 <0> d   1      19.787   3.006  11.351  0.00  0.00     0.090 A 
ATOM     17  N22 <0> d   1      19.909   2.414  12.516  0.00  0.00    -0.365 N 
ATOM     18  C21 <0> d   1      19.337   1.230  12.766  0.00  0.00     0.046 A 
ATOM     19  H23 <0> d   1      20.427   2.845  13.213  0.00  0.00     0.165 HD
ATOM     20  C15 <0> d   1      18.576   0.586  11.761  0.00  0.00     0.017 A 
ATOM     21  C20 <0> d   1      19.478   0.609  14.019  0.00  0.00     0.054 A 
ATOM     22  C16 <0> d   1      17.980  -0.654  12.028  0.00  0.00     0.018 A 
ATOM     23  C17 <0> d   1      18.138  -1.227  13.254  0.00  0.00     0.025 A 
ATOM     24  C18 <0> d   1      18.886  -0.597  14.246  0.00  0.00     0.036 A 
ATOM     25 Cl19 <0> d   1      19.065  -1.358  15.795  0.00  0.00    -0.084 Cl
ENDBRANCH   1  14
TORSDOF 8
ENDMDL
MODEL 5
REMARK VINA RESULT:      -6.5      2.861      6.908
REMARK  8 active torsions:
REMARK  status: ('A' for Active; 'I' for Inactive)
REMARK    1  A    between atoms: C2_2  and  N3_3 
REMARK    2  A    between atoms: N3_3  and  C5_5 
REMARK    3  A    between atoms: N3_3  and  C7_7 
REMARK    4  A    between atoms: C7_7  and  C8_8 
REMARK    5  A    between atoms: C8_8  and  C9_9 
REMARK    6  A    between atoms: C9_9  and  C10_10 
REMARK    7  A    between atoms: C10_10  and  N13_12 
REMARK    8  A    between atoms: N13_12  and  C14_13 
ROOT
ATOM      1  N13 <0> d   1      17.623   3.711  12.627  0.00  0.00    -0.385 N 
ATOM      2  H45 <0> d   1      16.696   3.462  12.486  0.00  0.00     0.160 HD
ENDROOT
BRANCH   1   3
ATOM      3  C10 <0> d   1      18.409   4.266  11.522  0.00  0.00     0.077 C 
ATOM      4  C12 <0> d   1      17.466   4.860  10.473  0.00  0.00     0.032 C 
BRANCH   3   5
ATOM      5  C9  <0> d   1      19.246   3.155  10.884  0.00  0.00     0.026 C 
BRANCH   5   6
ATOM      6  C8  <0> d   1      18.565   2.677   9.599  0.00  0.00     0.030 C 
BRANCH   6   7
ATOM      7  C7  <0> d   1      18.140   1.216   9.761  0.00  0.00     0.235 C 
BRANCH   7   8
ATOM      8  N3  <0> d   1      18.772   0.404   8.713  0.00  0.00    -0.072 N 
ATOM      9  H4  <0> d   1      18.114  -0.282   8.377  0.00  0.00     0.279 HD
BRANCH   8  10
ATOM     10  C2  <0> d   1      19.185   1.273   7.602  0.00  0.00     0.230 C 
ATOM     11  C1  <0> d   1      18.512   0.803   6.311  0.00  0.00     0.034 C 
ENDBRANCH   8  10
BRANCH   8  12
ATOM     12  C5  <0> d   1      19.951  -0.277   9.265  0.00  0.00     0.230 C 
ATOM     13  C6  <0> d   1      19.644  -0.756  10.686  0.00  0.00     0.034 C 
ENDBRANCH   8  12
ENDBRANCH   7   8
ENDBRANCH   6   7
ENDBRANCH   5   6
ENDBRANCH   3   5
ENDBRANCH   1   3
BRANCH   1  14
ATOM     14  C14 <0> d   1      18.204   3.544  13.875  0.00  0.00     0.042 A 
ATOM     15  C25 <0> d   1      18.722   4.622  14.573  0.00  0.00     0.047 A 
ATOM     16  C24 <0> d   1      19.295   4.423  15.822  0.00  0.00     0.090 A 
ATOM     17  N22 <0> d   1      19.369   3.231  16.366  0.00  0.00    -0.365 N 
ATOM     18  C21 <0> d   1      18.895   2.144  15.748  0.00  0.00     0.046 A 
ATOM     19  H23 <0> d   1      19.780   3.135  17.240  0.00  0.00     0.165 HD
ATOM     20  C15 <0> d   1      18.292   2.264  14.472  0.00  0.00     0.017 A 
ATOM     21  C20 <0> d   1      18.983   0.875  16.344  0.00  0.00     0.054 A 
ATOM     22  C16 <0> d   1      17.796   1.122  13.828  0.00  0.00     0.018 A 
ATOM     23  C17 <0> d   1      17.899  -0.093  14.435  0.00  0.00     0.025 A 
ATOM     24  C18 <0> d   1      18.492  -0.215  15.691  0.00  0.00     0.036 A 
ATOM     25 Cl19 <0> d   1      18.605  -1.780  16.434  0.00  0.00    -0.084 Cl
ENDBRANCH   1  14
TORSDOF 8
ENDMDL
MODEL 6
REMARK VINA RESULT:      -6.5      2.679      4.524
REMARK  8 active torsions:
REMARK  status: ('A' for Active; 'I' for Inactive)
REMARK    1  A    between atoms: C2_2  and  N3_3 
REMARK    2  A    between atoms: N3_3  and  C5_5 
REMARK    3  A    between atoms: N3_3  and  C7_7 
REMARK    4  A    between atoms: C7_7  and  C8_8 
REMARK    5  A    between atoms: C8_8  and  C9_9 
REMARK    6  A    between atoms: C9_9  and  C10_10 
REMARK    7  A    between atoms: C10_10  and  N13_12 
REMARK    8  A    between atoms: N13_12  and  C14_13 
ROOT
ATOM      1  N13 <0> d   1      17.654  -1.646  10.927  0.00  0.00    -0.385 N 
ATOM      2  H45 <0> d   1      16.855  -1.418  11.428  0.00  0.00     0.160 HD
ENDROOT
BRANCH   1   3
ATOM      3  C10 <0> d   1      18.356  -2.903  11.198  0.00  0.00     0.077 C 
ATOM      4  C12 <0> d   1      17.334  -4.020  11.420  0.00  0.00     0.032 C 
BRANCH   3   5
ATOM      5  C9  <0> d   1      19.219  -2.745  12.452  0.00  0.00     0.026 C 
BRANCH   5   6
ATOM      6  C8  <0> d   1      18.604  -1.682  13.364  0.00  0.00     0.030 C 
BRANCH   6   7
ATOM      7  C7  <0> d   1      19.622  -1.275  14.431  0.00  0.00     0.235 C 
BRANCH   7   8
ATOM      8  N3  <0> d   1      19.091  -0.148  15.209  0.00  0.00    -0.072 N 
ATOM      9  H4  <0> d   1      19.524  -0.135  16.120  0.00  0.00     0.279 HD
BRANCH   8  10
ATOM     10  C2  <0> d   1      19.384   1.111  14.510  0.00  0.00     0.230 C 
ATOM     11  C1  <0> d   1      18.972   2.291  15.392  0.00  0.00     0.034 C 
ENDBRANCH   8  10
BRANCH   8  12
ATOM     12  C5  <0> d   1      17.637  -0.298  15.359  0.00  0.00     0.230 C 
ATOM     13  C6  <0> d   1      17.326  -0.913  16.725  0.00  0.00     0.034 C 
ENDBRANCH   8  12
ENDBRANCH   7   8
ENDBRANCH   6   7
ENDBRANCH   5   6
ENDBRANCH   3   5
ENDBRANCH   1   3
BRANCH   1  14
ATOM     14  C14 <0> d   1      18.132  -0.782   9.954  0.00  0.00     0.042 A 
ATOM     15  C25 <0> d   1      18.704  -1.264   8.788  0.00  0.00     0.047 A 
ATOM     16  C24 <0> d   1      19.170  -0.373   7.830  0.00  0.00     0.090 A 
ATOM     17  N22 <0> d   1      19.093   0.926   7.998  0.00  0.00    -0.365 N 
ATOM     18  C21 <0> d   1      18.558   1.462   9.101  0.00  0.00     0.046 A 
ATOM     19  H23 <0> d   1      19.433   1.513   7.305  0.00  0.00     0.165 HD
ATOM     20  C15 <0> d   1      18.056   0.621  10.123  0.00  0.00     0.017 A 
ATOM     21  C20 <0> d   1      18.483   2.856   9.266  0.00  0.00     0.054 A 
ATOM     22  C16 <0> d   1      17.497   1.188  11.277  0.00  0.00     0.018 A 
ATOM     23  C17 <0> d   1      17.441   2.543  11.403  0.00  0.00     0.025 A 
ATOM     24  C18 <0> d   1      17.935   3.374  10.399  0.00  0.00     0.036 A 
ATOM     25 Cl19 <0> d   1      17.846   5.096  10.596  0.00  0.00    -0.084 Cl
ENDBRANCH   1  14
TORSDOF 8
ENDMDL
MODEL 7
REMARK VINA RESULT:      -6.4      1.744      3.513
REMARK  8 active torsions:
REMARK  status: ('A' for Active; 'I' for Inactive)
REMARK    1  A    between atoms: C2_2  and  N3_3 
REMARK    2  A    between atoms: N3_3  and  C5_5 
REMARK    3  A    between atoms: N3_3  and  C7_7 
REMARK    4  A    between atoms: C7_7  and  C8_8 
REMARK    5  A    between atoms: C8_8  and  C9_9 
REMARK    6  A    between atoms: C9_9  and  C10_10 
REMARK    7  A    between atoms: C10_10  and  N13_12 
REMARK    8  A    between atoms: N13_12  and  C14_13 
ROOT
ATOM      1  N13 <0> d   1      17.667  -0.888  10.947  0.00  0.00    -0.385 N 
ATOM      2  H45 <0> d   1      16.767  -0.798  11.297  0.00  0.00     0.160 HD
ENDROOT
BRANCH   1   3
ATOM      3  C10 <0> d   1      18.417  -2.128  11.161  0.00  0.00     0.077 C 
ATOM      4  C12 <0> d   1      17.440  -3.296  11.309  0.00  0.00     0.032 C 
BRANCH   3   5
ATOM      5  C9  <0> d   1      19.259  -2.002  12.432  0.00  0.00     0.026 C 
BRANCH   5   6
ATOM      6  C8  <0> d   1      18.412  -1.379  13.545  0.00  0.00     0.030 C 
BRANCH   6   7
ATOM      7  C7  <0> d   1      19.256  -1.246  14.814  0.00  0.00     0.235 C 
BRANCH   7   8
ATOM      8  N3  <0> d   1      18.946   0.028  15.477  0.00  0.00    -0.072 N 
ATOM      9  H4  <0> d   1      19.451   0.085  16.347  0.00  0.00     0.279 HD
BRANCH   8  10
ATOM     10  C2  <0> d   1      19.343   1.143  14.606  0.00  0.00     0.230 C 
ATOM     11  C1  <0> d   1      18.256   2.219  14.628  0.00  0.00     0.034 C 
ENDBRANCH   8  10
BRANCH   8  12
ATOM     12  C5  <0> d   1      17.503   0.103  15.742  0.00  0.00     0.230 C 
ATOM     13  C6  <0> d   1      17.144  -0.845  16.888  0.00  0.00     0.034 C 
ENDBRANCH   8  12
ENDBRANCH   7   8
ENDBRANCH   6   7
ENDBRANCH   5   6
ENDBRANCH   3   5
ENDBRANCH   1   3
BRANCH   1  14
ATOM     14  C14 <0> d   1      18.244   0.158  10.243  0.00  0.00     0.042 A 
ATOM     15  C25 <0> d   1      18.743   1.272  10.897  0.00  0.00     0.047 A 
ATOM     16  C24 <0> d   1      19.318   2.302  10.164  0.00  0.00     0.090 A 
ATOM     17  N22 <0> d   1      19.398   2.258   8.855  0.00  0.00    -0.365 N 
ATOM     18  C21 <0> d   1      18.933   1.216   8.156  0.00  0.00     0.046 A 
ATOM     19  H23 <0> d   1      19.806   3.000   8.381  0.00  0.00     0.165 HD
ATOM     20  C15 <0> d   1      18.335   0.124   8.830  0.00  0.00     0.017 A 
ATOM     21  C20 <0> d   1      19.026   1.185   6.755  0.00  0.00     0.054 A 
ATOM     22  C16 <0> d   1      17.849  -0.965   8.094  0.00  0.00     0.018 A 
ATOM     23  C17 <0> d   1      17.956  -0.962   6.736  0.00  0.00     0.025 A 
ATOM     24  C18 <0> d   1      18.543   0.112   6.069  0.00  0.00     0.036 A 
ATOM     25 Cl19 <0> d   1      18.661   0.081   4.337  0.00  0.00    -0.084 Cl
ENDBRANCH   1  14
TORSDOF 8
ENDMDL
MODEL 8
REMARK VINA RESULT:      -6.3      1.985      3.821
REMARK  8 active torsions:
REMARK  status: ('A' for Active; 'I' for Inactive)
REMARK    1  A    between atoms: C2_2  and  N3_3 
REMARK    2  A    between atoms: N3_3  and  C5_5 
REMARK    3  A    between atoms: N3_3  and  C7_7 
REMARK    4  A    between atoms: C7_7  and  C8_8 
REMARK    5  A    between atoms: C8_8  and  C9_9 
REMARK    6  A    between atoms: C9_9  and  C10_10 
REMARK    7  A    between atoms: C10_10  and  N13_12 
REMARK    8  A    between atoms: N13_12  and  C14_13 
ROOT
ATOM      1  N13 <0> d   1      18.346  -1.040  13.319  0.00  0.00    -0.385 N 
ATOM      2  H45 <0> d   1      17.424  -0.751  13.411  0.00  0.00     0.160 HD
ENDROOT
BRANCH   1   3
ATOM      3  C10 <0> d   1      19.323  -0.719  14.361  0.00  0.00     0.077 C 
ATOM      4  C12 <0> d   1      18.829  -1.255  15.707  0.00  0.00     0.032 C 
BRANCH   3   5
ATOM      5  C9  <0> d   1      19.497   0.799  14.449  0.00  0.00     0.026 C 
BRANCH   5   6
ATOM      6  C8  <0> d   1      18.137   1.478  14.271  0.00  0.00     0.030 C 
BRANCH   6   7
ATOM      7  C7  <0> d   1      18.316   2.997  14.315  0.00  0.00     0.235 C 
BRANCH   7   8
ATOM      8  N3  <0> d   1      19.175   3.420  13.200  0.00  0.00    -0.072 N 
ATOM      9  H4  <0> d   1      20.020   2.870  13.199  0.00  0.00     0.279 HD
BRANCH   8  10
ATOM     10  C2  <0> d   1      18.462   3.225  11.930  0.00  0.00     0.230 C 
ATOM     11  C1  <0> d   1      19.469   2.909  10.824  0.00  0.00     0.034 C 
ENDBRANCH   8  10
BRANCH   8  12
ATOM     12  C5  <0> d   1      19.515   4.841  13.357  0.00  0.00     0.230 C 
ATOM     13  C6  <0> d   1      19.627   5.177  14.845  0.00  0.00     0.034 C 
ENDBRANCH   8  12
ENDBRANCH   7   8
ENDBRANCH   6   7
ENDBRANCH   5   6
ENDBRANCH   3   5
ENDBRANCH   1   3
BRANCH   1  14
ATOM     14  C14 <0> d   1      18.737  -1.758  12.199  0.00  0.00     0.042 A 
ATOM     15  C25 <0> d   1      19.517  -2.897  12.317  0.00  0.00     0.047 A 
ATOM     16  C24 <0> d   1      19.890  -3.597  11.177  0.00  0.00     0.090 A 
ATOM     17  N22 <0> d   1      19.531  -3.206   9.977  0.00  0.00    -0.365 N 
ATOM     18  C21 <0> d   1      18.782  -2.114   9.787  0.00  0.00     0.046 A 
ATOM     19  H23 <0> d   1      19.815  -3.723   9.206  0.00  0.00     0.165 HD
ATOM     20  C15 <0> d   1      18.357  -1.347  10.899  0.00  0.00     0.017 A 
ATOM     21  C20 <0> d   1      18.406  -1.709   8.495  0.00  0.00     0.054 A 
ATOM     22  C16 <0> d   1      17.573  -0.203  10.696  0.00  0.00     0.018 A 
ATOM     23  C17 <0> d   1      17.228   0.161   9.429  0.00  0.00     0.025 A 
ATOM     24  C18 <0> d   1      17.644  -0.592   8.332  0.00  0.00     0.036 A 
ATOM     25 Cl19 <0> d   1      17.184  -0.097   6.733  0.00  0.00    -0.084 Cl
ENDBRANCH   1  14
TORSDOF 8
ENDMDL
MODEL 9
REMARK VINA RESULT:      -6.3      3.063      6.146
REMARK  8 active torsions:
REMARK  status: ('A' for Active; 'I' for Inactive)
REMARK    1  A    between atoms: C2_2  and  N3_3 
REMARK    2  A    between atoms: N3_3  and  C5_5 
REMARK    3  A    between atoms: N3_3  and  C7_7 
REMARK    4  A    between atoms: C7_7  and  C8_8 
REMARK    5  A    between atoms: C8_8  and  C9_9 
REMARK    6  A    between atoms: C9_9  and  C10_10 
REMARK    7  A    between atoms: C10_10  and  N13_12 
REMARK    8  A    between atoms: N13_12  and  C14_13 
ROOT
ATOM      1  N13 <0> d   1      19.195   2.103   8.833  0.00  0.00    -0.385 N 
ATOM      2  H45 <0> d   1      19.337   2.934   8.352  0.00  0.00     0.160 HD
ENDROOT
BRANCH   1   3
ATOM      3  C10 <0> d   1      18.937   0.864   8.096  0.00  0.00     0.077 C 
ATOM      4  C12 <0> d   1      18.890   1.163   6.596  0.00  0.00     0.032 C 
BRANCH   3   5
ATOM      5  C9  <0> d   1      17.597   0.275   8.541  0.00  0.00     0.026 C 
BRANCH   5   6
ATOM      6  C8  <0> d   1      17.711  -1.249   8.617  0.00  0.00     0.030 C 
BRANCH   6   7
ATOM      7  C7  <0> d   1      19.184  -1.644   8.746  0.00  0.00     0.235 C 
BRANCH   7   8
ATOM      8  N3  <0> d   1      19.308  -2.773   9.678  0.00  0.00    -0.072 N 
ATOM      9  H4  <0> d   1      20.231  -2.774  10.083  0.00  0.00     0.279 HD
BRANCH   8  10
ATOM     10  C2  <0> d   1      18.306  -2.640  10.745  0.00  0.00     0.230 C 
ATOM     11  C1  <0> d   1      19.013  -2.417  12.083  0.00  0.00     0.034 C 
ENDBRANCH   8  10
BRANCH   8  12
ATOM     12  C5  <0> d   1      19.088  -4.033   8.955  0.00  0.00     0.230 C 
ATOM     13  C6  <0> d   1      17.916  -4.787   9.587  0.00  0.00     0.034 C 
ENDBRANCH   8  12
ENDBRANCH   7   8
ENDBRANCH   6   7
ENDBRANCH   5   6
ENDBRANCH   3   5
ENDBRANCH   1   3
BRANCH   1  14
ATOM     14  C14 <0> d   1      19.238   2.089  10.219  0.00  0.00     0.042 A 
ATOM     15  C25 <0> d   1      20.010   1.163  10.901  0.00  0.00     0.047 A 
ATOM     16  C24 <0> d   1      20.034   1.176  12.290  0.00  0.00     0.090 A 
ATOM     17  N22 <0> d   1      19.336   2.042  12.985  0.00  0.00    -0.365 N 
ATOM     18  C21 <0> d   1      18.564   2.961  12.394  0.00  0.00     0.046 A 
ATOM     19  H23 <0> d   1      19.379   2.015  13.954  0.00  0.00     0.165 HD
ATOM     20  C15 <0> d   1      18.488   3.016  10.981  0.00  0.00     0.017 A 
ATOM     21  C20 <0> d   1      17.822   3.881  13.154  0.00  0.00     0.054 A 
ATOM     22  C16 <0> d   1      17.679   3.981  10.366  0.00  0.00     0.018 A 
ATOM     23  C17 <0> d   1      16.972   4.857  11.134  0.00  0.00     0.025 A 
ATOM     24  C18 <0> d   1      17.044   4.806  12.525  0.00  0.00     0.036 A 
ATOM     25 Cl19 <0> d   1      16.130   5.938  13.470  0.00  0.00    -0.084 Cl
ENDBRANCH   1  14
TORSDOF 8
ENDMDL
