MODEL 1
REMARK VINA RESULT:      -6.2      0.000      0.000
REMARK  2 active torsions:
REMARK  status: ('A' for Active; 'I' for Inactive)
REMARK    1  A    between atoms: C3_3  and  N4_4 
REMARK    2  A    between atoms: N4_4  and  C5_5 
ROOT
ATOM      1 Cl1  ZIN A   1      19.309   2.154   9.065  0.00  0.00    -0.082 Cl
ATOM      2  C2  ZIN A   1      18.745   3.200  10.330  0.00  0.00     0.063 A 
ATOM      3  C3  ZIN A   1      19.293   3.097  11.573  0.00  0.00     0.102 A 
ATOM      4  C10 ZIN A   1      18.839   3.950  12.618  0.00  0.00     0.125 A 
ATOM      5  N11 ZIN A   1      19.206   4.041  13.885  0.00  0.00    -0.189 NA
ATOM      6  S12 ZIN A   1      18.374   5.153  14.586  0.00  0.00     0.117 SA
ATOM      7  N13 ZIN A   1      17.486   5.622  13.399  0.00  0.00    -0.191 NA
ATOM      8  C14 ZIN A   1      17.786   4.917  12.320  0.00  0.00     0.098 A 
ATOM      9  C15 ZIN A   1      17.263   4.966  11.003  0.00  0.00     0.036 A 
ATOM     10  C16 ZIN A   1      17.744   4.130  10.050  0.00  0.00     0.029 A 
ENDROOT
BRANCH   3  11
ATOM     11  N4  ZIN A   1      20.299   2.160  11.820  0.00  0.00    -0.186 N 
ATOM     12  H17 ZIN A   1      21.212   2.346  11.552  0.00  0.00     0.184 HD
BRANCH  11  13
ATOM     13  C5  ZIN A   1      19.993   0.973  12.447  0.00  0.00     0.696 A 
ATOM     14  N9  ZIN A   1      20.066   0.809  13.803  0.00  0.00    -0.223 N 
ATOM     15  C8  ZIN A   1      19.669  -0.571  14.126  0.00  0.00     0.160 A 
ATOM     16  H22 ZIN A   1      20.330   1.489  14.443  0.00  0.00     0.177 HD
ATOM     17  C7  ZIN A   1      19.363  -1.184  12.744  0.00  0.00     0.189 A 
ATOM     18  N6  ZIN A   1      19.616  -0.084  11.804  0.00  0.00    -0.106 NA
ENDBRANCH  11  13
ENDBRANCH   3  11
TORSDOF 2
ENDMDL
MODEL 2
REMARK VINA RESULT:      -6.1      2.035      2.724
REMARK  2 active torsions:
REMARK  status: ('A' for Active; 'I' for Inactive)
REMARK    1  A    between atoms: C3_3  and  N4_4 
REMARK    2  A    between atoms: N4_4  and  C5_5 
ROOT
ATOM      1 Cl1  ZIN A   1      19.271   1.781   8.167  0.00  0.00    -0.082 Cl
ATOM      2  C2  ZIN A   1      18.907   2.037   9.845  0.00  0.00     0.063 A 
ATOM      3  C3  ZIN A   1      19.487   1.236  10.782  0.00  0.00     0.102 A 
ATOM      4  C10 ZIN A   1      19.196   1.438  12.160  0.00  0.00     0.125 A 
ATOM      5  N11 ZIN A   1      19.625   0.804  13.239  0.00  0.00    -0.189 NA
ATOM      6  S12 ZIN A   1      18.981   1.441  14.503  0.00  0.00     0.117 SA
ATOM      7  N13 ZIN A   1      18.117   2.552  13.842  0.00  0.00    -0.191 NA
ATOM      8  C14 ZIN A   1      18.273   2.507  12.529  0.00  0.00     0.098 A 
ATOM      9  C15 ZIN A   1      17.707   3.300  11.498  0.00  0.00     0.036 A 
ATOM     10  C16 ZIN A   1      18.030   3.060  10.203  0.00  0.00     0.029 A 
ENDROOT
BRANCH   3  11
ATOM     11  N4  ZIN A   1      20.367   0.224  10.392  0.00  0.00    -0.186 N 
ATOM     12  H17 ZIN A   1      21.237   0.449  10.029  0.00  0.00     0.184 HD
BRANCH  11  13
ATOM     13  C5  ZIN A   1      19.996  -1.096  10.522  0.00  0.00     0.696 A 
ATOM     14  N9  ZIN A   1      20.557  -1.936  11.445  0.00  0.00    -0.223 N 
ATOM     15  C8  ZIN A   1      19.927  -3.260  11.311  0.00  0.00     0.160 A 
ATOM     16  H22 ZIN A   1      21.249  -1.699  12.082  0.00  0.00     0.177 HD
ATOM     17  C7  ZIN A   1      18.920  -3.058  10.160  0.00  0.00     0.189 A 
ATOM     18  N6  ZIN A   1      19.092  -1.648   9.781  0.00  0.00    -0.106 NA
ENDBRANCH  11  13
ENDBRANCH   3  11
TORSDOF 2
ENDMDL
MODEL 3
REMARK VINA RESULT:      -6.0      5.496      6.822
REMARK  2 active torsions:
REMARK  status: ('A' for Active; 'I' for Inactive)
REMARK    1  A    between atoms: C3_3  and  N4_4 
REMARK    2  A    between atoms: N4_4  and  C5_5 
ROOT
ATOM      1 Cl1  ZIN A   1      19.221   1.902   8.710  0.00  0.00    -0.082 Cl
ATOM      2  C2  ZIN A   1      18.992   0.612   7.571  0.00  0.00     0.063 A 
ATOM      3  C3  ZIN A   1      19.386  -0.648   7.904  0.00  0.00     0.102 A 
ATOM      4  C10 ZIN A   1      19.203  -1.714   6.978  0.00  0.00     0.125 A 
ATOM      5  N11 ZIN A   1      19.498  -3.000   7.066  0.00  0.00    -0.189 NA
ATOM      6  S12 ZIN A   1      19.079  -3.717   5.751  0.00  0.00     0.117 SA
ATOM      7  N13 ZIN A   1      18.499  -2.515   4.954  0.00  0.00    -0.191 NA
ATOM      8  C14 ZIN A   1      18.592  -1.416   5.686  0.00  0.00     0.098 A 
ATOM      9  C15 ZIN A   1      18.208  -0.079   5.409  0.00  0.00     0.036 A 
ATOM     10  C16 ZIN A   1      18.404   0.889   6.337  0.00  0.00     0.029 A 
ENDROOT
BRANCH   3  11
ATOM     11  N4  ZIN A   1      19.966  -0.895   9.151  0.00  0.00    -0.186 N 
ATOM     12  H17 ZIN A   1      20.852  -0.557   9.350  0.00  0.00     0.184 HD
BRANCH  11  13
ATOM     13  C5  ZIN A   1      19.278  -1.621  10.097  0.00  0.00     0.696 A 
ATOM     14  N9  ZIN A   1      19.586  -2.917  10.407  0.00  0.00    -0.223 N 
ATOM     15  C8  ZIN A   1      18.659  -3.378  11.454  0.00  0.00     0.160 A 
ATOM     16  H22 ZIN A   1      20.299  -3.442  10.009  0.00  0.00     0.177 HD
ATOM     17  C7  ZIN A   1      17.759  -2.149  11.695  0.00  0.00     0.189 A 
ATOM     18  N6  ZIN A   1      18.282  -1.138  10.765  0.00  0.00    -0.106 NA
ENDBRANCH  11  13
ENDBRANCH   3  11
TORSDOF 2
ENDMDL
MODEL 4
REMARK VINA RESULT:      -6.0      3.032      5.211
REMARK  2 active torsions:
REMARK  status: ('A' for Active; 'I' for Inactive)
REMARK    1  A    between atoms: C3_3  and  N4_4 
REMARK    2  A    between atoms: N4_4  and  C5_5 
ROOT
ATOM      1 Cl1  ZIN A   1      18.829  -1.559  13.571  0.00  0.00    -0.082 Cl
ATOM      2  C2  ZIN A   1      18.651  -0.657  15.043  0.00  0.00     0.063 A 
ATOM      3  C3  ZIN A   1      19.126   0.618  15.104  0.00  0.00     0.102 A 
ATOM      4  C10 ZIN A   1      18.985   1.368  16.306  0.00  0.00     0.125 A 
ATOM      5  N11 ZIN A   1      19.357   2.600  16.608  0.00  0.00    -0.189 NA
ATOM      6  S12 ZIN A   1      18.952   2.917  18.076  0.00  0.00     0.117 SA
ATOM      7  N13 ZIN A   1      18.286   1.569  18.475  0.00  0.00    -0.191 NA
ATOM      8  C14 ZIN A   1      18.330   0.736  17.448  0.00  0.00     0.098 A 
ATOM      9  C15 ZIN A   1      17.862  -0.595  17.310  0.00  0.00     0.036 A 
ATOM     10  C16 ZIN A   1      18.021  -1.253  16.135  0.00  0.00     0.029 A 
ENDROOT
BRANCH   3  11
ATOM     11  N4  ZIN A   1      19.746   1.190  13.990  0.00  0.00    -0.186 N 
ATOM     12  H17 ZIN A   1      20.632   0.899  13.725  0.00  0.00     0.184 HD
BRANCH  11  13
ATOM     13  C5  ZIN A   1      19.098   2.168  13.269  0.00  0.00     0.696 A 
ATOM     14  N9  ZIN A   1      19.368   3.501  13.418  0.00  0.00    -0.223 N 
ATOM     15  C8  ZIN A   1      18.502   4.255  12.496  0.00  0.00     0.160 A 
ATOM     16  H22 ZIN A   1      20.022   3.883  14.024  0.00  0.00     0.177 HD
ATOM     17  C7  ZIN A   1      17.683   3.152  11.798  0.00  0.00     0.189 A 
ATOM     18  N6  ZIN A   1      18.180   1.906  12.397  0.00  0.00    -0.106 NA
ENDBRANCH  11  13
ENDBRANCH   3  11
TORSDOF 2
ENDMDL
MODEL 5
REMARK VINA RESULT:      -5.9      2.053      2.525
REMARK  2 active torsions:
REMARK  status: ('A' for Active; 'I' for Inactive)
REMARK    1  A    between atoms: C3_3  and  N4_4 
REMARK    2  A    between atoms: N4_4  and  C5_5 
ROOT
ATOM      1 Cl1  ZIN A   1      20.739   0.336  11.707  0.00  0.00    -0.082 Cl
ATOM      2  C2  ZIN A   1      19.563   1.588  11.456  0.00  0.00     0.063 A 
ATOM      3  C3  ZIN A   1      19.106   2.296  12.526  0.00  0.00     0.102 A 
ATOM      4  C10 ZIN A   1      18.142   3.325  12.332  0.00  0.00     0.125 A 
ATOM      5  N11 ZIN A   1      17.555   4.137  13.195  0.00  0.00    -0.189 NA
ATOM      6  S12 ZIN A   1      16.575   5.077  12.435  0.00  0.00     0.117 SA
ATOM      7  N13 ZIN A   1      16.781   4.571  10.980  0.00  0.00    -0.191 NA
ATOM      8  C14 ZIN A   1      17.669   3.590  10.976  0.00  0.00     0.098 A 
ATOM      9  C15 ZIN A   1      18.190   2.812   9.912  0.00  0.00     0.036 A 
ATOM     10  C16 ZIN A   1      19.112   1.849  10.163  0.00  0.00     0.029 A 
ENDROOT
BRANCH   3  11
ATOM     11  N4  ZIN A   1      19.582   2.015  13.809  0.00  0.00    -0.186 N 
ATOM     12  H17 ZIN A   1      20.386   2.449  14.134  0.00  0.00     0.184 HD
BRANCH  11  13
ATOM     13  C5  ZIN A   1      18.910   1.120  14.611  0.00  0.00     0.696 A 
ATOM     14  N9  ZIN A   1      17.790   1.457  15.321  0.00  0.00    -0.223 N 
ATOM     15  C8  ZIN A   1      17.333   0.267  16.059  0.00  0.00     0.160 A 
ATOM     16  H22 ZIN A   1      17.366   2.329  15.332  0.00  0.00     0.177 HD
ATOM     17  C7  ZIN A   1      18.368  -0.808  15.672  0.00  0.00     0.189 A 
ATOM     18  N6  ZIN A   1      19.285  -0.108  14.761  0.00  0.00    -0.106 NA
ENDBRANCH  11  13
ENDBRANCH   3  11
TORSDOF 2
ENDMDL
MODEL 6
REMARK VINA RESULT:      -5.7      4.999      5.996
REMARK  2 active torsions:
REMARK  status: ('A' for Active; 'I' for Inactive)
REMARK    1  A    between atoms: C3_3  and  N4_4 
REMARK    2  A    between atoms: N4_4  and  C5_5 
ROOT
ATOM      1 Cl1  ZIN A   1      19.187  -2.770   4.988  0.00  0.00    -0.082 Cl
ATOM      2  C2  ZIN A   1      19.097  -1.407   6.060  0.00  0.00     0.063 A 
ATOM      3  C3  ZIN A   1      19.378  -1.580   7.382  0.00  0.00     0.102 A 
ATOM      4  C10 ZIN A   1      19.309  -0.470   8.270  0.00  0.00     0.125 A 
ATOM      5  N11 ZIN A   1      19.531  -0.384   9.570  0.00  0.00    -0.189 NA
ATOM      6  S12 ZIN A   1      19.308   1.083  10.038  0.00  0.00     0.117 SA
ATOM      7  N13 ZIN A   1      18.917   1.745   8.686  0.00  0.00    -0.191 NA
ATOM      8  C14 ZIN A   1      18.933   0.833   7.728  0.00  0.00     0.098 A 
ATOM      9  C15 ZIN A   1      18.654   0.936   6.341  0.00  0.00     0.036 A 
ATOM     10  C16 ZIN A   1      18.744  -0.159   5.548  0.00  0.00     0.029 A 
ENDROOT
BRANCH   3  11
ATOM     11  N4  ZIN A   1      19.735  -2.842   7.864  0.00  0.00    -0.186 N 
ATOM     12  H17 ZIN A   1      20.498  -3.307   7.487  0.00  0.00     0.184 HD
BRANCH  11  13
ATOM     13  C5  ZIN A   1      19.003  -3.424   8.874  0.00  0.00     0.696 A 
ATOM     14  N9  ZIN A   1      19.518  -3.666  10.119  0.00  0.00    -0.223 N 
ATOM     15  C8  ZIN A   1      18.468  -4.287  10.943  0.00  0.00     0.160 A 
ATOM     16  H22 ZIN A   1      20.420  -3.458  10.410  0.00  0.00     0.177 HD
ATOM     17  C7  ZIN A   1      17.268  -4.376   9.978  0.00  0.00     0.189 A 
ATOM     18  N6  ZIN A   1      17.773  -3.792   8.727  0.00  0.00    -0.106 NA
ENDBRANCH  11  13
ENDBRANCH   3  11
TORSDOF 2
ENDMDL
MODEL 7
REMARK VINA RESULT:      -5.7      2.714      4.244
REMARK  2 active torsions:
REMARK  status: ('A' for Active; 'I' for Inactive)
REMARK    1  A    between atoms: C3_3  and  N4_4 
REMARK    2  A    between atoms: N4_4  and  C5_5 
ROOT
ATOM      1 Cl1  ZIN A   1      19.547  -2.398  12.079  0.00  0.00    -0.082 Cl
ATOM      2  C2  ZIN A   1      19.230  -0.759  12.553  0.00  0.00     0.063 A 
ATOM      3  C3  ZIN A   1      19.743   0.261  11.809  0.00  0.00     0.102 A 
ATOM      4  C10 ZIN A   1      19.489   1.609  12.188  0.00  0.00     0.125 A 
ATOM      5  N11 ZIN A   1      19.869   2.751  11.640  0.00  0.00    -0.189 NA
ATOM      6  S12 ZIN A   1      19.306   3.937  12.473  0.00  0.00     0.117 SA
ATOM      7  N13 ZIN A   1      18.546   3.158  13.583  0.00  0.00    -0.191 NA
ATOM      8  C14 ZIN A   1      18.679   1.857  13.378  0.00  0.00     0.098 A 
ATOM      9  C15 ZIN A   1      18.180   0.746  14.103  0.00  0.00     0.036 A 
ATOM     10  C16 ZIN A   1      18.453  -0.515  13.685  0.00  0.00     0.029 A 
ENDROOT
BRANCH   3  11
ATOM     11  N4  ZIN A   1      20.512  -0.016  10.676  0.00  0.00    -0.186 N 
ATOM     12  H17 ZIN A   1      21.446  -0.260  10.771  0.00  0.00     0.184 HD
BRANCH  11  13
ATOM     13  C5  ZIN A   1      19.944   0.060   9.425  0.00  0.00     0.696 A 
ATOM     14  N9  ZIN A   1      19.781   1.242   8.754  0.00  0.00    -0.223 N 
ATOM     15  C8  ZIN A   1      19.151   0.955   7.455  0.00  0.00     0.160 A 
ATOM     16  H22 ZIN A   1      20.041   2.119   9.078  0.00  0.00     0.177 HD
ATOM     17  C7  ZIN A   1      18.967  -0.576   7.481  0.00  0.00     0.189 A 
ATOM     18  N6  ZIN A   1      19.515  -0.978   8.784  0.00  0.00    -0.106 NA
ENDBRANCH  11  13
ENDBRANCH   3  11
TORSDOF 2
ENDMDL
MODEL 8
REMARK VINA RESULT:      -5.7      5.471      6.914
REMARK  2 active torsions:
REMARK  status: ('A' for Active; 'I' for Inactive)
REMARK    1  A    between atoms: C3_3  and  N4_4 
REMARK    2  A    between atoms: N4_4  and  C5_5 
ROOT
ATOM      1 Cl1  ZIN A   1      18.822   0.901   6.920  0.00  0.00    -0.082 Cl
ATOM      2  C2  ZIN A   1      18.358   0.008   8.334  0.00  0.00     0.063 A 
ATOM      3  C3  ZIN A   1      18.816  -1.265   8.498  0.00  0.00     0.102 A 
ATOM      4  C10 ZIN A   1      18.442  -2.006   9.654  0.00  0.00     0.125 A 
ATOM      5  N11 ZIN A   1      18.750  -3.235  10.034  0.00  0.00    -0.189 NA
ATOM      6  S12 ZIN A   1      18.063  -3.543  11.395  0.00  0.00     0.117 SA
ATOM      7  N13 ZIN A   1      17.324  -2.197  11.641  0.00  0.00    -0.191 NA
ATOM      8  C14 ZIN A   1      17.570  -1.370  10.638  0.00  0.00     0.098 A 
ATOM      9  C15 ZIN A   1      17.133  -0.042  10.399  0.00  0.00     0.036 A 
ATOM     10  C16 ZIN A   1      17.530   0.612   9.280  0.00  0.00     0.029 A 
ENDROOT
BRANCH   3  11
ATOM     11  N4  ZIN A   1      19.650  -1.840   7.536  0.00  0.00    -0.186 N 
ATOM     12  H17 ZIN A   1      20.611  -1.733   7.601  0.00  0.00     0.184 HD
BRANCH  11  13
ATOM     13  C5  ZIN A   1      19.105  -2.559   6.496  0.00  0.00     0.696 A 
ATOM     14  N9  ZIN A   1      18.079  -3.448   6.666  0.00  0.00    -0.223 N 
ATOM     15  C8  ZIN A   1      17.746  -4.029   5.354  0.00  0.00     0.160 A 
ATOM     16  H22 ZIN A   1      17.643  -3.657   7.507  0.00  0.00     0.177 HD
ATOM     17  C7  ZIN A   1      18.745  -3.343   4.400  0.00  0.00     0.189 A 
ATOM     18  N6  ZIN A   1      19.521  -2.455   5.276  0.00  0.00    -0.106 NA
ENDBRANCH  11  13
ENDBRANCH   3  11
TORSDOF 2
ENDMDL
MODEL 9
REMARK VINA RESULT:      -5.6      4.214      5.459
REMARK  2 active torsions:
REMARK  status: ('A' for Active; 'I' for Inactive)
REMARK    1  A    between atoms: C3_3  and  N4_4 
REMARK    2  A    between atoms: N4_4  and  C5_5 
ROOT
ATOM      1 Cl1  ZIN A   1      18.841  -3.350  10.524  0.00  0.00    -0.082 Cl
ATOM      2  C2  ZIN A   1      18.345  -1.708  10.789  0.00  0.00     0.063 A 
ATOM      3  C3  ZIN A   1      18.891  -0.717  10.030  0.00  0.00     0.102 A 
ATOM      4  C10 ZIN A   1      18.491   0.633  10.238  0.00  0.00     0.125 A 
ATOM      5  N11 ZIN A   1      18.869   1.752   9.642  0.00  0.00    -0.189 NA
ATOM      6  S12 ZIN A   1      18.107   2.954  10.269  0.00  0.00     0.117 SA
ATOM      7  N13 ZIN A   1      17.245   2.212  11.329  0.00  0.00    -0.191 NA
ATOM      8  C14 ZIN A   1      17.498   0.914  11.271  0.00  0.00     0.098 A 
ATOM      9  C15 ZIN A   1      16.974  -0.169  12.021  0.00  0.00     0.036 A 
ATOM     10  C16 ZIN A   1      17.392  -1.434  11.769  0.00  0.00     0.029 A 
ENDROOT
BRANCH   3  11
ATOM     11  N4  ZIN A   1      19.839  -1.024   9.051  0.00  0.00    -0.186 N 
ATOM     12  H17 ZIN A   1      20.778  -1.081   9.285  0.00  0.00     0.184 HD
BRANCH  11  13
ATOM     13  C5  ZIN A   1      19.438  -1.245   7.753  0.00  0.00     0.696 A 
ATOM     14  N9  ZIN A   1      19.032  -0.239   6.919  0.00  0.00    -0.223 N 
ATOM     15  C8  ZIN A   1      18.682  -0.827   5.616  0.00  0.00     0.160 A 
ATOM     16  H22 ZIN A   1      18.989   0.704   7.147  0.00  0.00     0.177 HD
ATOM     17  C7  ZIN A   1      18.938  -2.333   5.828  0.00  0.00     0.189 A 
ATOM     18  N6  ZIN A   1      19.407  -2.422   7.218  0.00  0.00    -0.106 NA
ENDBRANCH  11  13
ENDBRANCH   3  11
TORSDOF 2
ENDMDL
