MODEL 1
REMARK VINA RESULT:      -7.8      0.000      0.000
REMARK  23 active torsions:
REMARK  status: ('A' for Active; 'I' for Inactive)
REMARK    1  A    between atoms: C2_2  and  C4_4 
REMARK    2  A    between atoms: C4_4  and  N5_5 
REMARK    3  A    between atoms: N5_5  and  C6_6 
REMARK    4  A    between atoms: N5_5  and  C50_49 
REMARK    5  A    between atoms: C6_6  and  C7_7 
REMARK    6  A    between atoms: C7_7  and  N8_8 
REMARK    7  A    between atoms: N8_8  and  C10_10 
REMARK    8  A    between atoms: N8_8  and  C14_14 
REMARK    9  A    between atoms: C10_10  and  C11_11 
REMARK   10  A    between atoms: C14_14  and  C15_15 
REMARK   11  A    between atoms: C15_15  and  C17_16 
REMARK   12  A    between atoms: C15_15  and  N41_40 
REMARK   13  A    between atoms: C17_16  and  O18_17 
REMARK   14  A    between atoms: O18_17  and  P19_18 
REMARK   15  A    between atoms: P19_18  and  O22_21 
REMARK   16  A    between atoms: O22_21  and  C23_22 
REMARK   17  A    between atoms: C26_25  and  C27_26 
REMARK   18  A    between atoms: C26_25  and  C33_32 
REMARK   19  A    between atoms: N41_40  and  C42_41 
REMARK   20  A    between atoms: N41_40  and  C46_45 
REMARK   21  A    between atoms: C42_41  and  C43_42 
REMARK   22  A    between atoms: C46_45  and  C47_46 
REMARK   23  A    between atoms: C50_49  and  C51_50 
ROOT
ATOM      1  C15 ZIN A   1      19.105   2.517  15.217  0.00  0.00     0.274 C 
ENDROOT
BRANCH   1   2
ATOM      2  C14 ZIN A   1      18.086   3.601  15.575  0.00  0.00     0.273 C 
BRANCH   2   3
ATOM      3  N8  ZIN A   1      18.740   4.916  15.542  0.00  0.00    -0.058 N 
ATOM      4  H9  ZIN A   1      18.680   5.299  14.610  0.00  0.00     0.280 HD
BRANCH   3   5
ATOM      5  C7  ZIN A   1      18.071   5.820  16.487  0.00  0.00     0.265 C 
BRANCH   5   6
ATOM      6  C6  ZIN A   1      16.606   5.989  16.081  0.00  0.00     0.301 C 
BRANCH   6   7
ATOM      7  N5  ZIN A   1      15.746   5.787  17.255  0.00  0.00     0.110 N 
BRANCH   7   8
ATOM      8  C4  ZIN A   1      14.575   6.672  17.208  0.00  0.00     0.385 C 
BRANCH   8   9
ATOM      9  C2  ZIN A   1      14.085   6.781  15.787  0.00  0.00     0.202 C 
ATOM     10  O1  ZIN A   1      14.218   7.828  15.175  0.00  0.00    -0.647 OA
ATOM     11  O3  ZIN A   1      13.561   5.821  15.247  0.00  0.00    -0.647 OA
ENDBRANCH   8   9
ENDBRANCH   7   8
BRANCH   7  12
ATOM     12  C50 ZIN A   1      16.501   5.977  18.500  0.00  0.00     0.385 C 
BRANCH  12  13
ATOM     13  C51 ZIN A   1      16.557   4.675  19.258  0.00  0.00     0.202 C 
ATOM     14  O52 ZIN A   1      17.613   4.288  19.730  0.00  0.00    -0.647 OA
ATOM     15  O53 ZIN A   1      15.547   4.008  19.399  0.00  0.00    -0.647 OA
ENDBRANCH  12  13
ENDBRANCH   7  12
ENDBRANCH   6   7
ENDBRANCH   5   6
ENDBRANCH   3   5
BRANCH   3  16
ATOM     16  C10 ZIN A   1      20.152   4.771  15.920  0.00  0.00     0.347 C 
BRANCH  16  17
ATOM     17  C11 ZIN A   1      20.956   5.885  15.302  0.00  0.00     0.199 C 
ATOM     18  O12 ZIN A   1      20.416   6.686  14.559  0.00  0.00    -0.647 OA
ATOM     19  O13 ZIN A   1      22.146   5.986  15.544  0.00  0.00    -0.647 OA
ENDBRANCH  16  17
ENDBRANCH   3  16
ENDBRANCH   2   3
ENDBRANCH   1   2
BRANCH   1  20
ATOM     20  C17 ZIN A   1      18.926   2.114  13.752  0.00  0.00     0.219 C 
BRANCH  20  21
ATOM     21  O18 ZIN A   1      18.269   3.167  13.044  0.00  0.00    -0.288 OA
BRANCH  21  22
ATOM     22  P19 ZIN A   1      18.895   3.867  11.735  0.00  0.00     0.408 P 
ATOM     23  O20 ZIN A   1      20.299   4.421  12.069  0.00  0.00    -0.624 OA
ATOM     24  O21 ZIN A   1      17.978   5.027  11.284  0.00  0.00    -0.624 OA
BRANCH  22  25
ATOM     25  O22 ZIN A   1      19.013   2.784  10.551  0.00  0.00    -0.284 OA
BRANCH  25  26
ATOM     26  C23 ZIN A   1      18.813   1.384  10.753  0.00  0.00     0.134 C 
ATOM     27  C40 ZIN A   1      19.889   0.600  10.001  0.00  0.00     0.034 C 
ATOM     28  C39 ZIN A   1      19.674  -0.899  10.218  0.00  0.00     0.022 C 
ATOM     29  C26 ZIN A   1      18.293  -1.298   9.694  0.00  0.00     0.014 C 
ATOM     30  C25 ZIN A   1      17.216  -0.514  10.448  0.00  0.00     0.022 C 
ATOM     31  C24 ZIN A   1      17.431   0.985  10.231  0.00  0.00     0.034 C 
BRANCH  29  32
ATOM     32  C27 ZIN A   1      18.082  -2.775   9.909  0.00  0.00    -0.045 A 
ATOM     33  C32 ZIN A   1      17.399  -3.221  11.025  0.00  0.00     0.008 A 
ATOM     34  C31 ZIN A   1      17.202  -4.576  11.219  0.00  0.00     0.001 A 
ATOM     35  C30 ZIN A   1      17.696  -5.484  10.302  0.00  0.00     0.000 A 
ATOM     36  C29 ZIN A   1      18.384  -5.038   9.189  0.00  0.00     0.001 A 
ATOM     37  C28 ZIN A   1      18.577  -3.684   8.992  0.00  0.00     0.008 A 
ENDBRANCH  29  32
BRANCH  29  38
ATOM     38  C33 ZIN A   1      18.205  -0.987   8.223  0.00  0.00    -0.045 A 
ATOM     39  C38 ZIN A   1      19.271  -1.274   7.391  0.00  0.00     0.008 A 
ATOM     40  C37 ZIN A   1      19.189  -0.992   6.040  0.00  0.00     0.001 A 
ATOM     41  C36 ZIN A   1      18.044  -0.417   5.522  0.00  0.00     0.000 A 
ATOM     42  C35 ZIN A   1      16.979  -0.127   6.354  0.00  0.00     0.001 A 
ATOM     43  C34 ZIN A   1      17.059  -0.411   7.705  0.00  0.00     0.008 A 
ENDBRANCH  29  38
ENDBRANCH  25  26
ENDBRANCH  22  25
ENDBRANCH  21  22
ENDBRANCH  20  21
ENDBRANCH   1  20
BRANCH   1  44
ATOM     44  N41 ZIN A   1      18.896   1.345  16.076  0.00  0.00     0.117 N 
BRANCH  44  45
ATOM     45  C42 ZIN A   1      18.112   1.698  17.267  0.00  0.00     0.386 C 
BRANCH  45  46
ATOM     46  C43 ZIN A   1      18.823   1.205  18.501  0.00  0.00     0.202 C 
ATOM     47  O44 ZIN A   1      19.838   1.762  18.883  0.00  0.00    -0.647 OA
ATOM     48  O45 ZIN A   1      18.382   0.250  19.119  0.00  0.00    -0.647 OA
ENDBRANCH  45  46
ENDBRANCH  44  45
BRANCH  44  49
ATOM     49  C46 ZIN A   1      18.258   0.252  15.331  0.00  0.00     0.386 C 
BRANCH  49  50
ATOM     50  C47 ZIN A   1      19.104  -0.990  15.437  0.00  0.00     0.202 C 
ATOM     51  O48 ZIN A   1      19.715  -1.397  14.464  0.00  0.00    -0.647 OA
ATOM     52  O49 ZIN A   1      19.177  -1.590  16.497  0.00  0.00    -0.647 OA
ENDBRANCH  49  50
ENDBRANCH  44  49
ENDBRANCH   1  44
TORSDOF 23
ENDMDL
MODEL 2
REMARK VINA RESULT:      -7.7      1.167      2.326
REMARK  23 active torsions:
REMARK  status: ('A' for Active; 'I' for Inactive)
REMARK    1  A    between atoms: C2_2  and  C4_4 
REMARK    2  A    between atoms: C4_4  and  N5_5 
REMARK    3  A    between atoms: N5_5  and  C6_6 
REMARK    4  A    between atoms: N5_5  and  C50_49 
REMARK    5  A    between atoms: C6_6  and  C7_7 
REMARK    6  A    between atoms: C7_7  and  N8_8 
REMARK    7  A    between atoms: N8_8  and  C10_10 
REMARK    8  A    between atoms: N8_8  and  C14_14 
REMARK    9  A    between atoms: C10_10  and  C11_11 
REMARK   10  A    between atoms: C14_14  and  C15_15 
REMARK   11  A    between atoms: C15_15  and  C17_16 
REMARK   12  A    between atoms: C15_15  and  N41_40 
REMARK   13  A    between atoms: C17_16  and  O18_17 
REMARK   14  A    between atoms: O18_17  and  P19_18 
REMARK   15  A    between atoms: P19_18  and  O22_21 
REMARK   16  A    between atoms: O22_21  and  C23_22 
REMARK   17  A    between atoms: C26_25  and  C27_26 
REMARK   18  A    between atoms: C26_25  and  C33_32 
REMARK   19  A    between atoms: N41_40  and  C42_41 
REMARK   20  A    between atoms: N41_40  and  C46_45 
REMARK   21  A    between atoms: C42_41  and  C43_42 
REMARK   22  A    between atoms: C46_45  and  C47_46 
REMARK   23  A    between atoms: C50_49  and  C51_50 
ROOT
ATOM      1  C15 ZIN A   1      18.971   2.267  14.977  0.00  0.00     0.274 C 
ENDROOT
BRANCH   1   2
ATOM      2  C14 ZIN A   1      17.956   3.358  15.323  0.00  0.00     0.273 C 
BRANCH   2   3
ATOM      3  N8  ZIN A   1      18.572   4.678  15.127  0.00  0.00    -0.058 N 
ATOM      4  H9  ZIN A   1      18.598   4.895  14.141  0.00  0.00     0.280 HD
BRANCH   3   5
ATOM      5  C7  ZIN A   1      17.785   5.697  15.832  0.00  0.00     0.265 C 
BRANCH   5   6
ATOM      6  C6  ZIN A   1      17.363   5.160  17.201  0.00  0.00     0.301 C 
BRANCH   6   7
ATOM      7  N5  ZIN A   1      16.434   6.106  17.834  0.00  0.00     0.110 N 
BRANCH   7   8
ATOM      8  C4  ZIN A   1      15.499   5.409  18.726  0.00  0.00     0.385 C 
BRANCH   8   9
ATOM      9  C2  ZIN A   1      16.270   4.506  19.655  0.00  0.00     0.202 C 
ATOM     10  O1  ZIN A   1      16.150   3.296  19.566  0.00  0.00    -0.647 OA
ATOM     11  O3  ZIN A   1      17.018   4.986  20.490  0.00  0.00    -0.647 OA
ENDBRANCH   8   9
ENDBRANCH   7   8
BRANCH   7  12
ATOM     12  C50 ZIN A   1      15.714   6.892  16.824  0.00  0.00     0.385 C 
BRANCH  12  13
ATOM     13  C51 ZIN A   1      15.773   8.354  17.188  0.00  0.00     0.202 C 
ATOM     14  O52 ZIN A   1      16.205   9.165  16.387  0.00  0.00    -0.647 OA
ATOM     15  O53 ZIN A   1      15.390   8.725  18.284  0.00  0.00    -0.647 OA
ENDBRANCH  12  13
ENDBRANCH   7  12
ENDBRANCH   6   7
ENDBRANCH   5   6
ENDBRANCH   3   5
BRANCH   3  16
ATOM     16  C10 ZIN A   1      19.942   4.662  15.658  0.00  0.00     0.347 C 
BRANCH  16  17
ATOM     17  C11 ZIN A   1      20.641   5.944  15.285  0.00  0.00     0.199 C 
ATOM     18  O12 ZIN A   1      20.575   6.363  14.143  0.00  0.00    -0.647 OA
ATOM     19  O13 ZIN A   1      21.272   6.561  16.125  0.00  0.00    -0.647 OA
ENDBRANCH  16  17
ENDBRANCH   3  16
ENDBRANCH   2   3
ENDBRANCH   1   2
BRANCH   1  20
ATOM     20  C17 ZIN A   1      18.717   1.769  13.552  0.00  0.00     0.219 C 
BRANCH  20  21
ATOM     21  O18 ZIN A   1      17.724   2.586  12.931  0.00  0.00    -0.288 OA
BRANCH  21  22
ATOM     22  P19 ZIN A   1      18.023   3.504  11.642  0.00  0.00     0.408 P 
ATOM     23  O20 ZIN A   1      19.121   4.536  11.989  0.00  0.00    -0.624 OA
ATOM     24  O21 ZIN A   1      16.733   4.246  11.227  0.00  0.00    -0.624 OA
BRANCH  22  25
ATOM     25  O22 ZIN A   1      18.524   2.576  10.426  0.00  0.00    -0.284 OA
BRANCH  25  26
ATOM     26  C23 ZIN A   1      18.604   1.152  10.515  0.00  0.00     0.134 C 
ATOM     27  C40 ZIN A   1      19.784   0.654   9.680  0.00  0.00     0.034 C 
ATOM     28  C39 ZIN A   1      19.869  -0.870   9.775  0.00  0.00     0.022 C 
ATOM     29  C26 ZIN A   1      18.572  -1.488   9.246  0.00  0.00     0.014 C 
ATOM     30  C25 ZIN A   1      17.392  -0.989  10.082  0.00  0.00     0.022 C 
ATOM     31  C24 ZIN A   1      17.307   0.535   9.987  0.00  0.00     0.034 C 
BRANCH  29  32
ATOM     32  C27 ZIN A   1      18.656  -2.990   9.340  0.00  0.00    -0.045 A 
ATOM     33  C32 ZIN A   1      17.948  -3.779   8.454  0.00  0.00     0.008 A 
ATOM     34  C31 ZIN A   1      18.029  -5.157   8.537  0.00  0.00     0.001 A 
ATOM     35  C30 ZIN A   1      18.810  -5.745   9.515  0.00  0.00     0.000 A 
ATOM     36  C29 ZIN A   1      19.514  -4.955  10.405  0.00  0.00     0.001 A 
ATOM     37  C28 ZIN A   1      19.437  -3.578  10.318  0.00  0.00     0.008 A 
ENDBRANCH  29  32
BRANCH  29  38
ATOM     38  C33 ZIN A   1      18.375  -1.085   7.807  0.00  0.00    -0.045 A 
ATOM     39  C38 ZIN A   1      17.256  -0.363   7.439  0.00  0.00     0.008 A 
ATOM     40  C37 ZIN A   1      17.077   0.011   6.120  0.00  0.00     0.001 A 
ATOM     41  C36 ZIN A   1      18.014  -0.346   5.168  0.00  0.00     0.000 A 
ATOM     42  C35 ZIN A   1      19.131  -1.071   5.536  0.00  0.00     0.001 A 
ATOM     43  C34 ZIN A   1      19.312  -1.442   6.855  0.00  0.00     0.008 A 
ENDBRANCH  29  38
ENDBRANCH  25  26
ENDBRANCH  22  25
ENDBRANCH  21  22
ENDBRANCH  20  21
ENDBRANCH   1  20
BRANCH   1  44
ATOM     44  N41 ZIN A   1      18.828   1.149  15.918  0.00  0.00     0.117 N 
BRANCH  44  45
ATOM     45  C42 ZIN A   1      18.244   1.601  17.188  0.00  0.00     0.386 C 
BRANCH  45  46
ATOM     46  C43 ZIN A   1      19.315   1.638  18.248  0.00  0.00     0.202 C 
ATOM     47  O44 ZIN A   1      19.970   0.638  18.488  0.00  0.00    -0.647 OA
ATOM     48  O45 ZIN A   1      19.527   2.668  18.866  0.00  0.00    -0.647 OA
ENDBRANCH  45  46
ENDBRANCH  44  45
BRANCH  44  49
ATOM     49  C46 ZIN A   1      18.031   0.064  15.331  0.00  0.00     0.386 C 
BRANCH  49  50
ATOM     50  C47 ZIN A   1      18.751  -1.247  15.520  0.00  0.00     0.202 C 
ATOM     51  O48 ZIN A   1      18.505  -1.944  16.490  0.00  0.00    -0.647 OA
ATOM     52  O49 ZIN A   1      19.580  -1.612  14.704  0.00  0.00    -0.647 OA
ENDBRANCH  49  50
ENDBRANCH  44  49
ENDBRANCH   1  44
TORSDOF 23
ENDMDL
MODEL 3
REMARK VINA RESULT:      -7.5      1.780      4.546
REMARK  23 active torsions:
REMARK  status: ('A' for Active; 'I' for Inactive)
REMARK    1  A    between atoms: C2_2  and  C4_4 
REMARK    2  A    between atoms: C4_4  and  N5_5 
REMARK    3  A    between atoms: N5_5  and  C6_6 
REMARK    4  A    between atoms: N5_5  and  C50_49 
REMARK    5  A    between atoms: C6_6  and  C7_7 
REMARK    6  A    between atoms: C7_7  and  N8_8 
REMARK    7  A    between atoms: N8_8  and  C10_10 
REMARK    8  A    between atoms: N8_8  and  C14_14 
REMARK    9  A    between atoms: C10_10  and  C11_11 
REMARK   10  A    between atoms: C14_14  and  C15_15 
REMARK   11  A    between atoms: C15_15  and  C17_16 
REMARK   12  A    between atoms: C15_15  and  N41_40 
REMARK   13  A    between atoms: C17_16  and  O18_17 
REMARK   14  A    between atoms: O18_17  and  P19_18 
REMARK   15  A    between atoms: P19_18  and  O22_21 
REMARK   16  A    between atoms: O22_21  and  C23_22 
REMARK   17  A    between atoms: C26_25  and  C27_26 
REMARK   18  A    between atoms: C26_25  and  C33_32 
REMARK   19  A    between atoms: N41_40  and  C42_41 
REMARK   20  A    between atoms: N41_40  and  C46_45 
REMARK   21  A    between atoms: C42_41  and  C43_42 
REMARK   22  A    between atoms: C46_45  and  C47_46 
REMARK   23  A    between atoms: C50_49  and  C51_50 
ROOT
ATOM      1  C15 ZIN A   1      19.040   2.864  15.596  0.00  0.00     0.274 C 
ENDROOT
BRANCH   1   2
ATOM      2  C14 ZIN A   1      19.040   4.170  14.798  0.00  0.00     0.273 C 
BRANCH   2   3
ATOM      3  N8  ZIN A   1      18.175   4.021  13.619  0.00  0.00    -0.058 N 
ATOM      4  H9  ZIN A   1      17.558   3.233  13.751  0.00  0.00     0.280 HD
BRANCH   3   5
ATOM      5  C7  ZIN A   1      17.378   5.242  13.438  0.00  0.00     0.265 C 
BRANCH   5   6
ATOM      6  C6  ZIN A   1      16.205   5.235  14.420  0.00  0.00     0.301 C 
BRANCH   6   7
ATOM      7  N5  ZIN A   1      16.097   6.551  15.063  0.00  0.00     0.110 N 
BRANCH   7   8
ATOM      8  C4  ZIN A   1      14.707   7.023  15.067  0.00  0.00     0.385 C 
BRANCH   8   9
ATOM      9  C2  ZIN A   1      14.299   7.370  16.476  0.00  0.00     0.202 C 
ATOM     10  O1  ZIN A   1      14.696   8.403  16.988  0.00  0.00    -0.647 OA
ATOM     11  O3  ZIN A   1      13.566   6.621  17.102  0.00  0.00    -0.647 OA
ENDBRANCH   8   9
ENDBRANCH   7   8
BRANCH   7  12
ATOM     12  C50 ZIN A   1      16.984   7.528  14.417  0.00  0.00     0.385 C 
BRANCH  12  13
ATOM     13  C51 ZIN A   1      18.155   7.818  15.321  0.00  0.00     0.202 C 
ATOM     14  O52 ZIN A   1      17.968   8.293  16.429  0.00  0.00    -0.647 OA
ATOM     15  O53 ZIN A   1      19.289   7.580  14.944  0.00  0.00    -0.647 OA
ENDBRANCH  12  13
ENDBRANCH   7  12
ENDBRANCH   6   7
ENDBRANCH   5   6
ENDBRANCH   3   5
BRANCH   3  16
ATOM     16  C10 ZIN A   1      19.006   3.798  12.428  0.00  0.00     0.347 C 
BRANCH  16  17
ATOM     17  C11 ZIN A   1      18.333   2.796  11.526  0.00  0.00     0.199 C 
ATOM     18  O12 ZIN A   1      17.137   2.881  11.307  0.00  0.00    -0.647 OA
ATOM     19  O13 ZIN A   1      18.983   1.902  11.015  0.00  0.00    -0.647 OA
ENDBRANCH  16  17
ENDBRANCH   3  16
ENDBRANCH   2   3
ENDBRANCH   1   2
BRANCH   1  20
ATOM     20  C17 ZIN A   1      18.115   1.852  14.918  0.00  0.00     0.219 C 
BRANCH  20  21
ATOM     21  O18 ZIN A   1      18.883   0.738  14.457  0.00  0.00    -0.288 OA
BRANCH  21  22
ATOM     22  P19 ZIN A   1      18.632  -0.770  14.964  0.00  0.00     0.408 P 
ATOM     23  O20 ZIN A   1      17.279  -0.845  15.708  0.00  0.00    -0.624 OA
ATOM     24  O21 ZIN A   1      19.770  -1.187  15.923  0.00  0.00    -0.624 OA
BRANCH  22  25
ATOM     25  O22 ZIN A   1      18.604  -1.764  13.699  0.00  0.00    -0.284 OA
BRANCH  25  26
ATOM     26  C23 ZIN A   1      18.569  -1.303  12.347  0.00  0.00     0.134 C 
ATOM     27  C40 ZIN A   1      17.252  -1.729  11.697  0.00  0.00     0.034 C 
ATOM     28  C39 ZIN A   1      17.214  -1.235  10.249  0.00  0.00     0.022 C 
ATOM     29  C26 ZIN A   1      18.386  -1.840   9.473  0.00  0.00     0.014 C 
ATOM     30  C25 ZIN A   1      19.703  -1.413  10.123  0.00  0.00     0.022 C 
ATOM     31  C24 ZIN A   1      19.741  -1.907  11.571  0.00  0.00     0.034 C 
BRANCH  29  32
ATOM     32  C27 ZIN A   1      18.348  -1.353   8.047  0.00  0.00    -0.045 A 
ATOM     33  C32 ZIN A   1      17.389  -0.438   7.654  0.00  0.00     0.008 A 
ATOM     34  C31 ZIN A   1      17.357   0.012   6.347  0.00  0.00     0.001 A 
ATOM     35  C30 ZIN A   1      18.278  -0.461   5.431  0.00  0.00     0.000 A 
ATOM     36  C29 ZIN A   1      19.233  -1.381   5.823  0.00  0.00     0.001 A 
ATOM     37  C28 ZIN A   1      19.268  -1.827   7.130  0.00  0.00     0.008 A 
ENDBRANCH  29  32
BRANCH  29  38
ATOM     38  C33 ZIN A   1      18.278  -3.343   9.493  0.00  0.00    -0.045 A 
ATOM     39  C38 ZIN A   1      17.038  -3.948   9.421  0.00  0.00     0.008 A 
ATOM     40  C37 ZIN A   1      16.939  -5.327   9.434  0.00  0.00     0.001 A 
ATOM     41  C36 ZIN A   1      18.081  -6.101   9.529  0.00  0.00     0.000 A 
ATOM     42  C35 ZIN A   1      19.321  -5.495   9.604  0.00  0.00     0.001 A 
ATOM     43  C34 ZIN A   1      19.420  -4.117   9.587  0.00  0.00     0.008 A 
ENDBRANCH  29  38
ENDBRANCH  25  26
ENDBRANCH  22  25
ENDBRANCH  21  22
ENDBRANCH  20  21
ENDBRANCH   1  20
BRANCH   1  44
ATOM     44  N41 ZIN A   1      18.565   3.125  16.961  0.00  0.00     0.117 N 
BRANCH  44  45
ATOM     45  C42 ZIN A   1      19.428   2.472  17.953  0.00  0.00     0.386 C 
BRANCH  45  46
ATOM     46  C43 ZIN A   1      18.759   1.218  18.455  0.00  0.00     0.202 C 
ATOM     47  O44 ZIN A   1      17.546   1.184  18.580  0.00  0.00    -0.647 OA
ATOM     48  O45 ZIN A   1      19.429   0.239  18.735  0.00  0.00    -0.647 OA
ENDBRANCH  45  46
ENDBRANCH  44  45
BRANCH  44  49
ATOM     49  C46 ZIN A   1      18.465   4.567  17.217  0.00  0.00     0.386 C 
BRANCH  49  50
ATOM     50  C47 ZIN A   1      17.471   4.814  18.323  0.00  0.00     0.202 C 
ATOM     51  O48 ZIN A   1      16.355   5.229  18.059  0.00  0.00    -0.647 OA
ATOM     52  O49 ZIN A   1      17.781   4.599  19.482  0.00  0.00    -0.647 OA
ENDBRANCH  49  50
ENDBRANCH  44  49
ENDBRANCH   1  44
TORSDOF 23
ENDMDL
MODEL 4
REMARK VINA RESULT:      -7.5      1.466      2.899
REMARK  23 active torsions:
REMARK  status: ('A' for Active; 'I' for Inactive)
REMARK    1  A    between atoms: C2_2  and  C4_4 
REMARK    2  A    between atoms: C4_4  and  N5_5 
REMARK    3  A    between atoms: N5_5  and  C6_6 
REMARK    4  A    between atoms: N5_5  and  C50_49 
REMARK    5  A    between atoms: C6_6  and  C7_7 
REMARK    6  A    between atoms: C7_7  and  N8_8 
REMARK    7  A    between atoms: N8_8  and  C10_10 
REMARK    8  A    between atoms: N8_8  and  C14_14 
REMARK    9  A    between atoms: C10_10  and  C11_11 
REMARK   10  A    between atoms: C14_14  and  C15_15 
REMARK   11  A    between atoms: C15_15  and  C17_16 
REMARK   12  A    between atoms: C15_15  and  N41_40 
REMARK   13  A    between atoms: C17_16  and  O18_17 
REMARK   14  A    between atoms: O18_17  and  P19_18 
REMARK   15  A    between atoms: P19_18  and  O22_21 
REMARK   16  A    between atoms: O22_21  and  C23_22 
REMARK   17  A    between atoms: C26_25  and  C27_26 
REMARK   18  A    between atoms: C26_25  and  C33_32 
REMARK   19  A    between atoms: N41_40  and  C42_41 
REMARK   20  A    between atoms: N41_40  and  C46_45 
REMARK   21  A    between atoms: C42_41  and  C43_42 
REMARK   22  A    between atoms: C46_45  and  C47_46 
REMARK   23  A    between atoms: C50_49  and  C51_50 
ROOT
ATOM      1  C15 ZIN A   1      18.566   2.250  15.481  0.00  0.00     0.274 C 
ENDROOT
BRANCH   1   2
ATOM      2  C14 ZIN A   1      17.620   2.808  16.546  0.00  0.00     0.273 C 
BRANCH   2   3
ATOM      3  N8  ZIN A   1      18.279   3.914  17.254  0.00  0.00    -0.058 N 
ATOM      4  H9  ZIN A   1      19.175   4.099  16.829  0.00  0.00     0.280 HD
BRANCH   3   5
ATOM      5  C7  ZIN A   1      17.441   5.117  17.172  0.00  0.00     0.265 C 
BRANCH   5   6
ATOM      6  C6  ZIN A   1      17.357   5.584  15.719  0.00  0.00     0.301 C 
BRANCH   6   7
ATOM      7  N5  ZIN A   1      18.377   6.612  15.475  0.00  0.00     0.110 N 
BRANCH   7   8
ATOM      8  C4  ZIN A   1      17.771   7.839  14.943  0.00  0.00     0.385 C 
BRANCH   8   9
ATOM      9  C2  ZIN A   1      17.372   8.738  16.085  0.00  0.00     0.202 C 
ATOM     10  O1  ZIN A   1      18.026   8.742  17.114  0.00  0.00    -0.647 OA
ATOM     11  O3  ZIN A   1      16.399   9.466  15.978  0.00  0.00    -0.647 OA
ENDBRANCH   8   9
ENDBRANCH   7   8
BRANCH   7  12
ATOM     12  C50 ZIN A   1      19.427   6.111  14.577  0.00  0.00     0.385 C 
BRANCH  12  13
ATOM     13  C51 ZIN A   1      20.676   5.830  15.373  0.00  0.00     0.202 C 
ATOM     14  O52 ZIN A   1      20.709   4.886  16.144  0.00  0.00    -0.647 OA
ATOM     15  O53 ZIN A   1      21.653   6.547  15.246  0.00  0.00    -0.647 OA
ENDBRANCH  12  13
ENDBRANCH   7  12
ENDBRANCH   6   7
ENDBRANCH   5   6
ENDBRANCH   3   5
BRANCH   3  16
ATOM     16  C10 ZIN A   1      18.472   3.546  18.663  0.00  0.00     0.347 C 
BRANCH  16  17
ATOM     17  C11 ZIN A   1      17.253   3.936  19.458  0.00  0.00     0.199 C 
ATOM     18  O12 ZIN A   1      17.272   4.939  20.150  0.00  0.00    -0.647 OA
ATOM     19  O13 ZIN A   1      16.247   3.250  19.407  0.00  0.00    -0.647 OA
ENDBRANCH  16  17
ENDBRANCH   3  16
ENDBRANCH   2   3
ENDBRANCH   1   2
BRANCH   1  20
ATOM     20  C17 ZIN A   1      18.057   2.639  14.092  0.00  0.00     0.219 C 
BRANCH  20  21
ATOM     21  O18 ZIN A   1      19.164   2.768  13.197  0.00  0.00    -0.288 OA
BRANCH  21  22
ATOM     22  P19 ZIN A   1      19.093   3.615  11.830  0.00  0.00     0.408 P 
ATOM     23  O20 ZIN A   1      20.365   4.482  11.694  0.00  0.00    -0.624 OA
ATOM     24  O21 ZIN A   1      17.847   4.530  11.854  0.00  0.00    -0.624 OA
BRANCH  22  25
ATOM     25  O22 ZIN A   1      18.995   2.607  10.578  0.00  0.00    -0.284 OA
BRANCH  25  26
ATOM     26  C23 ZIN A   1      18.884   1.190  10.726  0.00  0.00     0.134 C 
ATOM     27  C40 ZIN A   1      19.978   0.505   9.906  0.00  0.00     0.034 C 
ATOM     28  C39 ZIN A   1      19.860  -1.012  10.065  0.00  0.00     0.022 C 
ATOM     29  C26 ZIN A   1      18.488  -1.472   9.569  0.00  0.00     0.014 C 
ATOM     30  C25 ZIN A   1      17.394  -0.786  10.390  0.00  0.00     0.022 C 
ATOM     31  C24 ZIN A   1      17.511   0.731  10.232  0.00  0.00     0.034 C 
BRANCH  29  32
ATOM     32  C27 ZIN A   1      18.372  -2.966   9.726  0.00  0.00    -0.045 A 
ATOM     33  C32 ZIN A   1      19.387  -3.678  10.337  0.00  0.00     0.008 A 
ATOM     34  C31 ZIN A   1      19.280  -5.049  10.484  0.00  0.00     0.001 A 
ATOM     35  C30 ZIN A   1      18.160  -5.708  10.012  0.00  0.00     0.000 A 
ATOM     36  C29 ZIN A   1      17.148  -4.997   9.396  0.00  0.00     0.001 A 
ATOM     37  C28 ZIN A   1      17.253  -3.627   9.253  0.00  0.00     0.008 A 
ENDBRANCH  29  32
BRANCH  29  38
ATOM     38  C33 ZIN A   1      18.330  -1.106   8.116  0.00  0.00    -0.045 A 
ATOM     39  C38 ZIN A   1      19.277  -1.512   7.195  0.00  0.00     0.008 A 
ATOM     40  C37 ZIN A   1      19.131  -1.180   5.861  0.00  0.00     0.001 A 
ATOM     41  C36 ZIN A   1      18.041  -0.435   5.449  0.00  0.00     0.000 A 
ATOM     42  C35 ZIN A   1      17.096  -0.027   6.371  0.00  0.00     0.001 A 
ATOM     43  C34 ZIN A   1      17.240  -0.361   7.705  0.00  0.00     0.008 A 
ENDBRANCH  29  38
ENDBRANCH  25  26
ENDBRANCH  22  25
ENDBRANCH  21  22
ENDBRANCH  20  21
ENDBRANCH   1  20
BRANCH   1  44
ATOM     44  N41 ZIN A   1      18.618   0.786  15.591  0.00  0.00     0.117 N 
BRANCH  44  45
ATOM     45  C42 ZIN A   1      18.092   0.336  16.886  0.00  0.00     0.386 C 
BRANCH  45  46
ATOM     46  C43 ZIN A   1      19.194  -0.325  17.674  0.00  0.00     0.202 C 
ATOM     47  O44 ZIN A   1      19.747   0.282  18.575  0.00  0.00    -0.647 OA
ATOM     48  O45 ZIN A   1      19.532  -1.467  17.411  0.00  0.00    -0.647 OA
ENDBRANCH  45  46
ENDBRANCH  44  45
BRANCH  44  49
ATOM     49  C46 ZIN A   1      17.898   0.149  14.480  0.00  0.00     0.386 C 
BRANCH  49  50
ATOM     50  C47 ZIN A   1      18.803  -0.844  13.799  0.00  0.00     0.202 C 
ATOM     51  O48 ZIN A   1      19.969  -0.560  13.582  0.00  0.00    -0.647 OA
ATOM     52  O49 ZIN A   1      18.370  -1.934  13.462  0.00  0.00    -0.647 OA
ENDBRANCH  49  50
ENDBRANCH  44  49
ENDBRANCH   1  44
TORSDOF 23
ENDMDL
MODEL 5
REMARK VINA RESULT:      -7.3      4.905      8.874
REMARK  23 active torsions:
REMARK  status: ('A' for Active; 'I' for Inactive)
REMARK    1  A    between atoms: C2_2  and  C4_4 
REMARK    2  A    between atoms: C4_4  and  N5_5 
REMARK    3  A    between atoms: N5_5  and  C6_6 
REMARK    4  A    between atoms: N5_5  and  C50_49 
REMARK    5  A    between atoms: C6_6  and  C7_7 
REMARK    6  A    between atoms: C7_7  and  N8_8 
REMARK    7  A    between atoms: N8_8  and  C10_10 
REMARK    8  A    between atoms: N8_8  and  C14_14 
REMARK    9  A    between atoms: C10_10  and  C11_11 
REMARK   10  A    between atoms: C14_14  and  C15_15 
REMARK   11  A    between atoms: C15_15  and  C17_16 
REMARK   12  A    between atoms: C15_15  and  N41_40 
REMARK   13  A    between atoms: C17_16  and  O18_17 
REMARK   14  A    between atoms: O18_17  and  P19_18 
REMARK   15  A    between atoms: P19_18  and  O22_21 
REMARK   16  A    between atoms: O22_21  and  C23_22 
REMARK   17  A    between atoms: C26_25  and  C27_26 
REMARK   18  A    between atoms: C26_25  and  C33_32 
REMARK   19  A    between atoms: N41_40  and  C42_41 
REMARK   20  A    between atoms: N41_40  and  C46_45 
REMARK   21  A    between atoms: C42_41  and  C43_42 
REMARK   22  A    between atoms: C46_45  and  C47_46 
REMARK   23  A    between atoms: C50_49  and  C51_50 
ROOT
ATOM      1  C15 ZIN A   1      18.500  -1.737   9.206  0.00  0.00     0.274 C 
ENDROOT
BRANCH   1   2
ATOM      2  C14 ZIN A   1      19.498  -0.990  10.093  0.00  0.00     0.273 C 
BRANCH   2   3
ATOM      3  N8  ZIN A   1      18.765  -0.181  11.078  0.00  0.00    -0.058 N 
ATOM      4  H9  ZIN A   1      17.798  -0.106  10.799  0.00  0.00     0.280 HD
BRANCH   3   5
ATOM      5  C7  ZIN A   1      18.846  -0.823  12.397  0.00  0.00     0.265 C 
BRANCH   5   6
ATOM      6  C6  ZIN A   1      19.702   0.034  13.330  0.00  0.00     0.301 C 
BRANCH   6   7
ATOM      7  N5  ZIN A   1      18.998   0.226  14.604  0.00  0.00     0.110 N 
BRANCH   7   8
ATOM      8  C4  ZIN A   1      18.577  -1.062  15.172  0.00  0.00     0.385 C 
BRANCH   8   9
ATOM      9  C2  ZIN A   1      18.835  -1.063  16.657  0.00  0.00     0.202 C 
ATOM     10  O1  ZIN A   1      18.244  -0.277  17.379  0.00  0.00    -0.647 OA
ATOM     11  O3  ZIN A   1      19.629  -1.854  17.138  0.00  0.00    -0.647 OA
ENDBRANCH   8   9
ENDBRANCH   7   8
BRANCH   7  12
ATOM     12  C50 ZIN A   1      17.852   1.130  14.442  0.00  0.00     0.385 C 
BRANCH  12  13
ATOM     13  C51 ZIN A   1      18.277   2.542  14.753  0.00  0.00     0.202 C 
ATOM     14  O52 ZIN A   1      17.877   3.466  14.065  0.00  0.00    -0.647 OA
ATOM     15  O53 ZIN A   1      19.022   2.761  15.692  0.00  0.00    -0.647 OA
ENDBRANCH  12  13
ENDBRANCH   7  12
ENDBRANCH   6   7
ENDBRANCH   5   6
ENDBRANCH   3   5
BRANCH   3  16
ATOM     16  C10 ZIN A   1      19.360   1.160  11.148  0.00  0.00     0.347 C 
BRANCH  16  17
ATOM     17  C11 ZIN A   1      18.302   2.195  10.864  0.00  0.00     0.199 C 
ATOM     18  O12 ZIN A   1      17.127   1.931  11.051  0.00  0.00    -0.647 OA
ATOM     19  O13 ZIN A   1      18.620   3.295  10.447  0.00  0.00    -0.647 OA
ENDBRANCH  16  17
ENDBRANCH   3  16
ENDBRANCH   2   3
ENDBRANCH   1   2
BRANCH   1  20
ATOM     20  C17 ZIN A   1      18.689  -3.245   9.385  0.00  0.00     0.219 C 
BRANCH  20  21
ATOM     21  O18 ZIN A   1      17.422  -3.857   9.633  0.00  0.00    -0.288 OA
BRANCH  21  22
ATOM     22  P19 ZIN A   1      17.210  -5.026  10.721  0.00  0.00     0.408 P 
ATOM     23  O20 ZIN A   1      16.022  -4.664  11.641  0.00  0.00    -0.624 OA
ATOM     24  O21 ZIN A   1      18.492  -5.176  11.572  0.00  0.00    -0.624 OA
BRANCH  22  25
ATOM     25  O22 ZIN A   1      16.901  -6.413   9.966  0.00  0.00    -0.284 OA
BRANCH  25  26
ATOM     26  C23 ZIN A   1      16.571  -6.487   8.578  0.00  0.00     0.134 C 
ATOM     27  C40 ZIN A   1      15.125  -6.031   8.372  0.00  0.00     0.034 C 
ATOM     28  C39 ZIN A   1      14.772  -6.111   6.886  0.00  0.00     0.022 C 
ATOM     29  C26 ZIN A   1      14.926  -7.554   6.401  0.00  0.00     0.014 C 
ATOM     30  C25 ZIN A   1      16.372  -8.010   6.607  0.00  0.00     0.022 C 
ATOM     31  C24 ZIN A   1      16.725  -7.930   8.093  0.00  0.00     0.034 C 
BRANCH  29  32
ATOM     32  C27 ZIN A   1      14.578  -7.632   4.937  0.00  0.00    -0.045 A 
ATOM     33  C32 ZIN A   1      13.254  -7.681   4.542  0.00  0.00     0.008 A 
ATOM     34  C31 ZIN A   1      12.935  -7.748   3.199  0.00  0.00     0.001 A 
ATOM     35  C30 ZIN A   1      13.940  -7.775   2.250  0.00  0.00     0.000 A 
ATOM     36  C29 ZIN A   1      15.264  -7.732   2.645  0.00  0.00     0.001 A 
ATOM     37  C28 ZIN A   1      15.583  -7.660   3.988  0.00  0.00     0.008 A 
ENDBRANCH  29  32
BRANCH  29  38
ATOM     38  C33 ZIN A   1      14.000  -8.448   7.185  0.00  0.00    -0.045 A 
ATOM     39  C38 ZIN A   1      12.872  -7.919   7.784  0.00  0.00     0.008 A 
ATOM     40  C37 ZIN A   1      12.020  -8.740   8.499  0.00  0.00     0.001 A 
ATOM     41  C36 ZIN A   1      12.300 -10.088   8.623  0.00  0.00     0.000 A 
ATOM     42  C35 ZIN A   1      13.430 -10.616   8.027  0.00  0.00     0.001 A 
ATOM     43  C34 ZIN A   1      14.281  -9.796   7.308  0.00  0.00     0.008 A 
ENDBRANCH  29  38
ENDBRANCH  25  26
ENDBRANCH  22  25
ENDBRANCH  21  22
ENDBRANCH  20  21
ENDBRANCH   1  20
BRANCH   1  44
ATOM     44  N41 ZIN A   1      18.731  -1.379   7.800  0.00  0.00     0.117 N 
BRANCH  44  45
ATOM     45  C42 ZIN A   1      18.392  -2.496   6.909  0.00  0.00     0.386 C 
BRANCH  45  46
ATOM     46  C43 ZIN A   1      19.562  -2.790   6.005  0.00  0.00     0.202 C 
ATOM     47  O44 ZIN A   1      19.704  -2.163   4.969  0.00  0.00    -0.647 OA
ATOM     48  O45 ZIN A   1      20.366  -3.655   6.309  0.00  0.00    -0.647 OA
ENDBRANCH  45  46
ENDBRANCH  44  45
BRANCH  44  49
ATOM     49  C46 ZIN A   1      17.983  -0.169   7.436  0.00  0.00     0.386 C 
BRANCH  49  50
ATOM     50  C47 ZIN A   1      18.937   0.876   6.917  0.00  0.00     0.202 C 
ATOM     51  O48 ZIN A   1      19.463   1.659   7.690  0.00  0.00    -0.647 OA
ATOM     52  O49 ZIN A   1      19.184   0.940   5.725  0.00  0.00    -0.647 OA
ENDBRANCH  49  50
ENDBRANCH  44  49
ENDBRANCH   1  44
TORSDOF 23
ENDMDL
MODEL 6
REMARK VINA RESULT:      -7.3      5.765     11.369
REMARK  23 active torsions:
REMARK  status: ('A' for Active; 'I' for Inactive)
REMARK    1  A    between atoms: C2_2  and  C4_4 
REMARK    2  A    between atoms: C4_4  and  N5_5 
REMARK    3  A    between atoms: N5_5  and  C6_6 
REMARK    4  A    between atoms: N5_5  and  C50_49 
REMARK    5  A    between atoms: C6_6  and  C7_7 
REMARK    6  A    between atoms: C7_7  and  N8_8 
REMARK    7  A    between atoms: N8_8  and  C10_10 
REMARK    8  A    between atoms: N8_8  and  C14_14 
REMARK    9  A    between atoms: C10_10  and  C11_11 
REMARK   10  A    between atoms: C14_14  and  C15_15 
REMARK   11  A    between atoms: C15_15  and  C17_16 
REMARK   12  A    between atoms: C15_15  and  N41_40 
REMARK   13  A    between atoms: C17_16  and  O18_17 
REMARK   14  A    between atoms: O18_17  and  P19_18 
REMARK   15  A    between atoms: P19_18  and  O22_21 
REMARK   16  A    between atoms: O22_21  and  C23_22 
REMARK   17  A    between atoms: C26_25  and  C27_26 
REMARK   18  A    between atoms: C26_25  and  C33_32 
REMARK   19  A    between atoms: N41_40  and  C42_41 
REMARK   20  A    between atoms: N41_40  and  C46_45 
REMARK   21  A    between atoms: C42_41  and  C43_42 
REMARK   22  A    between atoms: C46_45  and  C47_46 
REMARK   23  A    between atoms: C50_49  and  C51_50 
ROOT
ATOM      1  C15 ZIN A   1      18.510  -3.827   7.311  0.00  0.00     0.274 C 
ENDROOT
BRANCH   1   2
ATOM      2  C14 ZIN A   1      18.120  -5.162   7.948  0.00  0.00     0.273 C 
BRANCH   2   3
ATOM      3  N8  ZIN A   1      17.316  -4.914   9.152  0.00  0.00    -0.058 N 
ATOM      4  H9  ZIN A   1      17.190  -3.919   9.274  0.00  0.00     0.280 HD
BRANCH   3   5
ATOM      5  C7  ZIN A   1      16.005  -5.560   9.009  0.00  0.00     0.265 C 
BRANCH   5   6
ATOM      6  C6  ZIN A   1      16.198  -7.047   8.711  0.00  0.00     0.301 C 
BRANCH   6   7
ATOM      7  N5  ZIN A   1      15.239  -7.469   7.682  0.00  0.00     0.110 N 
BRANCH   7   8
ATOM      8  C4  ZIN A   1      15.932  -8.015   6.508  0.00  0.00     0.385 C 
BRANCH   8   9
ATOM      9  C2  ZIN A   1      14.943  -8.743   5.634  0.00  0.00     0.202 C 
ATOM     10  O1  ZIN A   1      14.736  -8.356   4.496  0.00  0.00    -0.647 OA
ATOM     11  O3  ZIN A   1      14.354  -9.721   6.064  0.00  0.00    -0.647 OA
ENDBRANCH   8   9
ENDBRANCH   7   8
BRANCH   7  12
ATOM     12  C50 ZIN A   1      14.352  -6.362   7.303  0.00  0.00     0.385 C 
BRANCH  12  13
ATOM     13  C51 ZIN A   1      12.968  -6.619   7.843  0.00  0.00     0.202 C 
ATOM     14  O52 ZIN A   1      12.186  -5.694   7.981  0.00  0.00    -0.647 OA
ATOM     15  O53 ZIN A   1      12.631  -7.751   8.142  0.00  0.00    -0.647 OA
ENDBRANCH  12  13
ENDBRANCH   7  12
ENDBRANCH   6   7
ENDBRANCH   5   6
ENDBRANCH   3   5
BRANCH   3  16
ATOM     16  C10 ZIN A   1      18.009  -5.464  10.325  0.00  0.00     0.347 C 
BRANCH  16  17
ATOM     17  C11 ZIN A   1      18.670  -4.347  11.090  0.00  0.00     0.199 C 
ATOM     18  O12 ZIN A   1      19.857  -4.414  11.360  0.00  0.00    -0.647 OA
ATOM     19  O13 ZIN A   1      18.020  -3.377  11.437  0.00  0.00    -0.647 OA
ENDBRANCH  16  17
ENDBRANCH   3  16
ENDBRANCH   2   3
ENDBRANCH   1   2
BRANCH   1  20
ATOM     20  C17 ZIN A   1      17.730  -2.695   7.984  0.00  0.00     0.219 C 
BRANCH  20  21
ATOM     21  O18 ZIN A   1      18.552  -1.529   8.059  0.00  0.00    -0.288 OA
BRANCH  21  22
ATOM     22  P19 ZIN A   1      18.033  -0.061   7.646  0.00  0.00     0.408 P 
ATOM     23  O20 ZIN A   1      16.834  -0.192   6.679  0.00  0.00    -0.624 OA
ATOM     24  O21 ZIN A   1      19.175   0.712   6.949  0.00  0.00    -0.624 OA
BRANCH  22  25
ATOM     25  O22 ZIN A   1      17.572   0.736   8.967  0.00  0.00    -0.284 OA
BRANCH  25  26
ATOM     26  C23 ZIN A   1      17.782   0.240  10.290  0.00  0.00     0.134 C 
ATOM     27  C40 ZIN A   1      16.806   0.919  11.251  0.00  0.00     0.034 C 
ATOM     28  C39 ZIN A   1      17.031   0.387  12.667  0.00  0.00     0.022 C 
ATOM     29  C26 ZIN A   1      18.467   0.686  13.103  0.00  0.00     0.014 C 
ATOM     30  C25 ZIN A   1      19.444   0.006  12.141  0.00  0.00     0.022 C 
ATOM     31  C24 ZIN A   1      19.218   0.538  10.725  0.00  0.00     0.034 C 
BRANCH  29  32
ATOM     32  C27 ZIN A   1      18.688   0.161  14.498  0.00  0.00    -0.045 A 
ATOM     33  C32 ZIN A   1      18.472   0.983  15.588  0.00  0.00     0.008 A 
ATOM     34  C31 ZIN A   1      18.671   0.501  16.869  0.00  0.00     0.001 A 
ATOM     35  C30 ZIN A   1      19.095  -0.801  17.058  0.00  0.00     0.000 A 
ATOM     36  C29 ZIN A   1      19.316  -1.622  15.968  0.00  0.00     0.001 A 
ATOM     37  C28 ZIN A   1      19.113  -1.141  14.688  0.00  0.00     0.008 A 
ENDBRANCH  29  32
BRANCH  29  38
ATOM     38  C33 ZIN A   1      18.697   2.175  13.084  0.00  0.00    -0.045 A 
ATOM     39  C38 ZIN A   1      17.784   3.023  13.682  0.00  0.00     0.008 A 
ATOM     40  C37 ZIN A   1      17.997   4.389  13.669  0.00  0.00     0.001 A 
ATOM     41  C36 ZIN A   1      19.120   4.907  13.051  0.00  0.00     0.000 A 
ATOM     42  C35 ZIN A   1      20.031   4.059  12.450  0.00  0.00     0.001 A 
ATOM     43  C34 ZIN A   1      19.820   2.693  12.466  0.00  0.00     0.008 A 
ENDBRANCH  29  38
ENDBRANCH  25  26
ENDBRANCH  22  25
ENDBRANCH  21  22
ENDBRANCH  20  21
ENDBRANCH   1  20
BRANCH   1  44
ATOM     44  N41 ZIN A   1      18.191  -3.856   5.878  0.00  0.00     0.117 N 
BRANCH  44  45
ATOM     45  C42 ZIN A   1      19.305  -3.327   5.080  0.00  0.00     0.386 C 
BRANCH  45  46
ATOM     46  C43 ZIN A   1      18.918  -1.993   4.497  0.00  0.00     0.202 C 
ATOM     47  O44 ZIN A   1      17.759  -1.779   4.184  0.00  0.00    -0.647 OA
ATOM     48  O45 ZIN A   1      19.762  -1.127   4.339  0.00  0.00    -0.647 OA
ENDBRANCH  45  46
ENDBRANCH  44  45
BRANCH  44  49
ATOM     49  C46 ZIN A   1      17.832  -5.213   5.446  0.00  0.00     0.386 C 
BRANCH  49  50
ATOM     50  C47 ZIN A   1      16.831  -5.134   4.321  0.00  0.00     0.202 C 
ATOM     51  O48 ZIN A   1      15.849  -4.419   4.428  0.00  0.00    -0.647 OA
ATOM     52  O49 ZIN A   1      17.002  -5.786   3.305  0.00  0.00    -0.647 OA
ENDBRANCH  49  50
ENDBRANCH  44  49
ENDBRANCH   1  44
TORSDOF 23
ENDMDL
MODEL 7
REMARK VINA RESULT:      -7.1      1.907      3.993
REMARK  23 active torsions:
REMARK  status: ('A' for Active; 'I' for Inactive)
REMARK    1  A    between atoms: C2_2  and  C4_4 
REMARK    2  A    between atoms: C4_4  and  N5_5 
REMARK    3  A    between atoms: N5_5  and  C6_6 
REMARK    4  A    between atoms: N5_5  and  C50_49 
REMARK    5  A    between atoms: C6_6  and  C7_7 
REMARK    6  A    between atoms: C7_7  and  N8_8 
REMARK    7  A    between atoms: N8_8  and  C10_10 
REMARK    8  A    between atoms: N8_8  and  C14_14 
REMARK    9  A    between atoms: C10_10  and  C11_11 
REMARK   10  A    between atoms: C14_14  and  C15_15 
REMARK   11  A    between atoms: C15_15  and  C17_16 
REMARK   12  A    between atoms: C15_15  and  N41_40 
REMARK   13  A    between atoms: C17_16  and  O18_17 
REMARK   14  A    between atoms: O18_17  and  P19_18 
REMARK   15  A    between atoms: P19_18  and  O22_21 
REMARK   16  A    between atoms: O22_21  and  C23_22 
REMARK   17  A    between atoms: C26_25  and  C27_26 
REMARK   18  A    between atoms: C26_25  and  C33_32 
REMARK   19  A    between atoms: N41_40  and  C42_41 
REMARK   20  A    between atoms: N41_40  and  C46_45 
REMARK   21  A    between atoms: C42_41  and  C43_42 
REMARK   22  A    between atoms: C46_45  and  C47_46 
REMARK   23  A    between atoms: C50_49  and  C51_50 
ROOT
ATOM      1  C15 ZIN A   1      19.108   3.154  15.833  0.00  0.00     0.274 C 
ENDROOT
BRANCH   1   2
ATOM      2  C14 ZIN A   1      18.779   4.534  15.262  0.00  0.00     0.273 C 
BRANCH   2   3
ATOM      3  N8  ZIN A   1      18.014   4.379  14.018  0.00  0.00    -0.058 N 
ATOM      4  H9  ZIN A   1      17.794   3.403  13.877  0.00  0.00     0.280 HD
BRANCH   3   5
ATOM      5  C7  ZIN A   1      16.769   5.152  14.107  0.00  0.00     0.265 C 
BRANCH   5   6
ATOM      6  C6  ZIN A   1      17.099   6.625  14.355  0.00  0.00     0.301 C 
BRANCH   6   7
ATOM      7  N5  ZIN A   1      15.946   7.287  14.978  0.00  0.00     0.110 N 
BRANCH   7   8
ATOM      8  C4  ZIN A   1      16.375   8.416  15.814  0.00  0.00     0.385 C 
BRANCH   8   9
ATOM      9  C2  ZIN A   1      17.239   7.906  16.939  0.00  0.00     0.202 C 
ATOM     10  O1  ZIN A   1      16.735   7.609  18.008  0.00  0.00    -0.647 OA
ATOM     11  O3  ZIN A   1      18.442   7.786  16.776  0.00  0.00    -0.647 OA
ENDBRANCH   8   9
ENDBRANCH   7   8
BRANCH   7  12
ATOM     12  C50 ZIN A   1      15.144   6.332  15.753  0.00  0.00     0.385 C 
BRANCH  12  13
ATOM     13  C51 ZIN A   1      13.681   6.543  15.454  0.00  0.00     0.202 C 
ATOM     14  O52 ZIN A   1      13.096   7.506  15.921  0.00  0.00    -0.647 OA
ATOM     15  O53 ZIN A   1      13.083   5.752  14.746  0.00  0.00    -0.647 OA
ENDBRANCH  12  13
ENDBRANCH   7  12
ENDBRANCH   6   7
ENDBRANCH   5   6
ENDBRANCH   3   5
BRANCH   3  16
ATOM     16  C10 ZIN A   1      18.815   4.867  12.887  0.00  0.00     0.347 C 
BRANCH  16  17
ATOM     17  C11 ZIN A   1      18.296   4.267  11.606  0.00  0.00     0.199 C 
ATOM     18  O12 ZIN A   1      18.305   3.058  11.453  0.00  0.00    -0.647 OA
ATOM     19  O13 ZIN A   1      17.867   4.989  10.724  0.00  0.00    -0.647 OA
ENDBRANCH  16  17
ENDBRANCH   3  16
ENDBRANCH   2   3
ENDBRANCH   1   2
BRANCH   1  20
ATOM     20  C17 ZIN A   1      18.597   2.072  14.879  0.00  0.00     0.219 C 
BRANCH  20  21
ATOM     21  O18 ZIN A   1      19.504   0.969  14.879  0.00  0.00    -0.288 OA
BRANCH  21  22
ATOM     22  P19 ZIN A   1      19.038  -0.551  14.617  0.00  0.00     0.408 P 
ATOM     23  O20 ZIN A   1      17.498  -0.640  14.709  0.00  0.00    -0.624 OA
ATOM     24  O21 ZIN A   1      19.671  -1.474  15.682  0.00  0.00    -0.624 OA
BRANCH  22  25
ATOM     25  O22 ZIN A   1      19.516  -1.014  13.151  0.00  0.00    -0.284 OA
BRANCH  25  26
ATOM     26  C23 ZIN A   1      19.044  -2.204  12.518  0.00  0.00     0.134 C 
ATOM     27  C40 ZIN A   1      20.039  -2.638  11.441  0.00  0.00     0.034 C 
ATOM     28  C39 ZIN A   1      19.533  -3.913  10.763  0.00  0.00     0.022 C 
ATOM     29  C26 ZIN A   1      18.170  -3.643  10.121  0.00  0.00     0.014 C 
ATOM     30  C25 ZIN A   1      17.175  -3.210  11.199  0.00  0.00     0.022 C 
ATOM     31  C24 ZIN A   1      17.681  -1.935  11.876  0.00  0.00     0.034 C 
BRANCH  29  32
ATOM     32  C27 ZIN A   1      17.673  -4.900   9.453  0.00  0.00    -0.045 A 
ATOM     33  C32 ZIN A   1      18.566  -5.889   9.087  0.00  0.00     0.008 A 
ATOM     34  C31 ZIN A   1      18.109  -7.043   8.479  0.00  0.00     0.001 A 
ATOM     35  C30 ZIN A   1      16.759  -7.204   8.228  0.00  0.00     0.000 A 
ATOM     36  C29 ZIN A   1      15.866  -6.212   8.589  0.00  0.00     0.001 A 
ATOM     37  C28 ZIN A   1      16.323  -5.060   9.201  0.00  0.00     0.008 A 
ENDBRANCH  29  32
BRANCH  29  38
ATOM     38  C33 ZIN A   1      18.308  -2.550   9.093  0.00  0.00    -0.045 A 
ATOM     39  C38 ZIN A   1      17.509  -1.425   9.170  0.00  0.00     0.008 A 
ATOM     40  C37 ZIN A   1      17.638  -0.419   8.230  0.00  0.00     0.001 A 
ATOM     41  C36 ZIN A   1      18.561  -0.542   7.209  0.00  0.00     0.000 A 
ATOM     42  C35 ZIN A   1      19.357  -1.669   7.130  0.00  0.00     0.001 A 
ATOM     43  C34 ZIN A   1      19.231  -2.673   8.071  0.00  0.00     0.008 A 
ENDBRANCH  29  38
ENDBRANCH  25  26
ENDBRANCH  22  25
ENDBRANCH  21  22
ENDBRANCH  20  21
ENDBRANCH   1  20
BRANCH   1  44
ATOM     44  N41 ZIN A   1      18.460   2.997  17.142  0.00  0.00     0.117 N 
BRANCH  44  45
ATOM     45  C42 ZIN A   1      19.244   2.115  18.016  0.00  0.00     0.386 C 
BRANCH  45  46
ATOM     46  C43 ZIN A   1      18.444   0.877  18.328  0.00  0.00     0.202 C 
ATOM     47  O44 ZIN A   1      18.892   0.038  19.091  0.00  0.00    -0.647 OA
ATOM     48  O45 ZIN A   1      17.348   0.713  17.818  0.00  0.00    -0.647 OA
ENDBRANCH  45  46
ENDBRANCH  44  45
BRANCH  44  49
ATOM     49  C46 ZIN A   1      18.234   4.302  17.777  0.00  0.00     0.386 C 
BRANCH  49  50
ATOM     50  C47 ZIN A   1      17.384   4.122  19.008  0.00  0.00     0.202 C 
ATOM     51  O48 ZIN A   1      16.238   3.717  18.904  0.00  0.00    -0.647 OA
ATOM     52  O49 ZIN A   1      17.839   4.383  20.109  0.00  0.00    -0.647 OA
ENDBRANCH  49  50
ENDBRANCH  44  49
ENDBRANCH   1  44
TORSDOF 23
ENDMDL
MODEL 8
REMARK VINA RESULT:      -7.0      1.398      3.403
REMARK  23 active torsions:
REMARK  status: ('A' for Active; 'I' for Inactive)
REMARK    1  A    between atoms: C2_2  and  C4_4 
REMARK    2  A    between atoms: C4_4  and  N5_5 
REMARK    3  A    between atoms: N5_5  and  C6_6 
REMARK    4  A    between atoms: N5_5  and  C50_49 
REMARK    5  A    between atoms: C6_6  and  C7_7 
REMARK    6  A    between atoms: C7_7  and  N8_8 
REMARK    7  A    between atoms: N8_8  and  C10_10 
REMARK    8  A    between atoms: N8_8  and  C14_14 
REMARK    9  A    between atoms: C10_10  and  C11_11 
REMARK   10  A    between atoms: C14_14  and  C15_15 
REMARK   11  A    between atoms: C15_15  and  C17_16 
REMARK   12  A    between atoms: C15_15  and  N41_40 
REMARK   13  A    between atoms: C17_16  and  O18_17 
REMARK   14  A    between atoms: O18_17  and  P19_18 
REMARK   15  A    between atoms: P19_18  and  O22_21 
REMARK   16  A    between atoms: O22_21  and  C23_22 
REMARK   17  A    between atoms: C26_25  and  C27_26 
REMARK   18  A    between atoms: C26_25  and  C33_32 
REMARK   19  A    between atoms: N41_40  and  C42_41 
REMARK   20  A    between atoms: N41_40  and  C46_45 
REMARK   21  A    between atoms: C42_41  and  C43_42 
REMARK   22  A    between atoms: C46_45  and  C47_46 
REMARK   23  A    between atoms: C50_49  and  C51_50 
ROOT
ATOM      1  C15 ZIN A   1      18.616   2.184  15.401  0.00  0.00     0.274 C 
ENDROOT
BRANCH   1   2
ATOM      2  C14 ZIN A   1      17.685   2.928  16.361  0.00  0.00     0.273 C 
BRANCH   2   3
ATOM      3  N8  ZIN A   1      18.483   3.596  17.398  0.00  0.00    -0.058 N 
ATOM      4  H9  ZIN A   1      18.828   2.909  18.052  0.00  0.00     0.280 HD
BRANCH   3   5
ATOM      5  C7  ZIN A   1      19.617   4.289  16.773  0.00  0.00     0.265 C 
BRANCH   5   6
ATOM      6  C6  ZIN A   1      19.251   5.754  16.533  0.00  0.00     0.301 C 
BRANCH   6   7
ATOM      7  N5  ZIN A   1      18.874   5.941  15.126  0.00  0.00     0.110 N 
BRANCH   7   8
ATOM      8  C4  ZIN A   1      20.006   5.654  14.235  0.00  0.00     0.385 C 
BRANCH   8   9
ATOM      9  C2  ZIN A   1      21.147   6.585  14.557  0.00  0.00     0.202 C 
ATOM     10  O1  ZIN A   1      21.943   6.293  15.434  0.00  0.00    -0.647 OA
ATOM     11  O3  ZIN A   1      21.277   7.628  13.938  0.00  0.00    -0.647 OA
ENDBRANCH   8   9
ENDBRANCH   7   8
BRANCH   7  12
ATOM     12  C50 ZIN A   1      18.352   7.294  14.895  0.00  0.00     0.385 C 
BRANCH  12  13
ATOM     13  C51 ZIN A   1      16.850   7.240  14.777  0.00  0.00     0.202 C 
ATOM     14  O52 ZIN A   1      16.314   6.276  14.255  0.00  0.00    -0.647 OA
ATOM     15  O53 ZIN A   1      16.171   8.158  15.201  0.00  0.00    -0.647 OA
ENDBRANCH  12  13
ENDBRANCH   7  12
ENDBRANCH   6   7
ENDBRANCH   5   6
ENDBRANCH   3   5
BRANCH   3  16
ATOM     16  C10 ZIN A   1      17.644   4.570  18.109  0.00  0.00     0.347 C 
BRANCH  16  17
ATOM     17  C11 ZIN A   1      17.228   3.999  19.440  0.00  0.00     0.199 C 
ATOM     18  O12 ZIN A   1      17.413   4.637  20.461  0.00  0.00    -0.647 OA
ATOM     19  O13 ZIN A   1      16.706   2.899  19.495  0.00  0.00    -0.647 OA
ENDBRANCH  16  17
ENDBRANCH   3  16
ENDBRANCH   2   3
ENDBRANCH   1   2
BRANCH   1  20
ATOM     20  C17 ZIN A   1      18.122   2.369  13.965  0.00  0.00     0.219 C 
BRANCH  20  21
ATOM     21  O18 ZIN A   1      19.237   2.362  13.073  0.00  0.00    -0.288 OA
BRANCH  21  22
ATOM     22  P19 ZIN A   1      19.283   3.234  11.719  0.00  0.00     0.408 P 
ATOM     23  O20 ZIN A   1      20.723   3.743  11.482  0.00  0.00    -0.624 OA
ATOM     24  O21 ZIN A   1      18.325   4.439  11.850  0.00  0.00    -0.624 OA
BRANCH  22  25
ATOM     25  O22 ZIN A   1      18.827   2.318  10.476  0.00  0.00    -0.284 OA
BRANCH  25  26
ATOM     26  C23 ZIN A   1      18.762   0.892  10.541  0.00  0.00     0.134 C 
ATOM     27  C40 ZIN A   1      19.903   0.291   9.719  0.00  0.00     0.034 C 
ATOM     28  C39 ZIN A   1      19.834  -1.235   9.789  0.00  0.00     0.022 C 
ATOM     29  C26 ZIN A   1      18.493  -1.712   9.226  0.00  0.00     0.014 C 
ATOM     30  C25 ZIN A   1      17.352  -1.111  10.049  0.00  0.00     0.022 C 
ATOM     31  C24 ZIN A   1      17.422   0.416   9.979  0.00  0.00     0.034 C 
BRANCH  29  32
ATOM     32  C27 ZIN A   1      18.425  -3.216   9.296  0.00  0.00    -0.045 A 
ATOM     33  C32 ZIN A   1      19.381  -3.919  10.005  0.00  0.00     0.008 A 
ATOM     34  C31 ZIN A   1      19.316  -5.299  10.072  0.00  0.00     0.001 A 
ATOM     35  C30 ZIN A   1      18.301  -5.975   9.422  0.00  0.00     0.000 A 
ATOM     36  C29 ZIN A   1      17.348  -5.272   8.708  0.00  0.00     0.001 A 
ATOM     37  C28 ZIN A   1      17.410  -3.893   8.645  0.00  0.00     0.008 A 
ENDBRANCH  29  32
BRANCH  29  38
ATOM     38  C33 ZIN A   1      18.366  -1.270   7.791  0.00  0.00    -0.045 A 
ATOM     39  C38 ZIN A   1      17.267  -0.533   7.390  0.00  0.00     0.008 A 
ATOM     40  C37 ZIN A   1      17.152  -0.123   6.075  0.00  0.00     0.001 A 
ATOM     41  C36 ZIN A   1      18.133  -0.457   5.159  0.00  0.00     0.000 A 
ATOM     42  C35 ZIN A   1      19.229  -1.196   5.559  0.00  0.00     0.001 A 
ATOM     43  C34 ZIN A   1      19.346  -1.603   6.875  0.00  0.00     0.008 A 
ENDBRANCH  29  38
ENDBRANCH  25  26
ENDBRANCH  22  25
ENDBRANCH  21  22
ENDBRANCH  20  21
ENDBRANCH   1  20
BRANCH   1  44
ATOM     44  N41 ZIN A   1      18.624   0.754  15.736  0.00  0.00     0.117 N 
BRANCH  44  45
ATOM     45  C42 ZIN A   1      18.115   0.529  17.096  0.00  0.00     0.386 C 
BRANCH  45  46
ATOM     46  C43 ZIN A   1      19.268   0.246  18.023  0.00  0.00     0.202 C 
ATOM     47  O44 ZIN A   1      19.631  -0.903  18.212  0.00  0.00    -0.647 OA
ATOM     48  O45 ZIN A   1      19.839   1.165  18.585  0.00  0.00    -0.647 OA
ENDBRANCH  45  46
ENDBRANCH  44  45
BRANCH  44  49
ATOM     49  C46 ZIN A   1      17.858  -0.021  14.752  0.00  0.00     0.386 C 
BRANCH  49  50
ATOM     50  C47 ZIN A   1      18.706  -1.154  14.234  0.00  0.00     0.202 C 
ATOM     51  O48 ZIN A   1      19.746  -1.445  14.800  0.00  0.00    -0.647 OA
ATOM     52  O49 ZIN A   1      18.353  -1.780  13.248  0.00  0.00    -0.647 OA
ENDBRANCH  49  50
ENDBRANCH  44  49
ENDBRANCH   1  44
TORSDOF 23
ENDMDL
MODEL 9
REMARK VINA RESULT:      -6.8      1.301      2.737
REMARK  23 active torsions:
REMARK  status: ('A' for Active; 'I' for Inactive)
REMARK    1  A    between atoms: C2_2  and  C4_4 
REMARK    2  A    between atoms: C4_4  and  N5_5 
REMARK    3  A    between atoms: N5_5  and  C6_6 
REMARK    4  A    between atoms: N5_5  and  C50_49 
REMARK    5  A    between atoms: C6_6  and  C7_7 
REMARK    6  A    between atoms: C7_7  and  N8_8 
REMARK    7  A    between atoms: N8_8  and  C10_10 
REMARK    8  A    between atoms: N8_8  and  C14_14 
REMARK    9  A    between atoms: C10_10  and  C11_11 
REMARK   10  A    between atoms: C14_14  and  C15_15 
REMARK   11  A    between atoms: C15_15  and  C17_16 
REMARK   12  A    between atoms: C15_15  and  N41_40 
REMARK   13  A    between atoms: C17_16  and  O18_17 
REMARK   14  A    between atoms: O18_17  and  P19_18 
REMARK   15  A    between atoms: P19_18  and  O22_21 
REMARK   16  A    between atoms: O22_21  and  C23_22 
REMARK   17  A    between atoms: C26_25  and  C27_26 
REMARK   18  A    between atoms: C26_25  and  C33_32 
REMARK   19  A    between atoms: N41_40  and  C42_41 
REMARK   20  A    between atoms: N41_40  and  C46_45 
REMARK   21  A    between atoms: C42_41  and  C43_42 
REMARK   22  A    between atoms: C46_45  and  C47_46 
REMARK   23  A    between atoms: C50_49  and  C51_50 
ROOT
ATOM      1  C15 ZIN A   1      18.767   2.637  15.516  0.00  0.00     0.274 C 
ENDROOT
BRANCH   1   2
ATOM      2  C14 ZIN A   1      18.261   3.822  16.341  0.00  0.00     0.273 C 
BRANCH   2   3
ATOM      3  N8  ZIN A   1      18.418   5.060  15.567  0.00  0.00    -0.058 N 
ATOM      4  H9  ZIN A   1      18.732   4.836  14.633  0.00  0.00     0.280 HD
BRANCH   3   5
ATOM      5  C7  ZIN A   1      17.130   5.762  15.495  0.00  0.00     0.265 C 
BRANCH   5   6
ATOM      6  C6  ZIN A   1      17.099   6.880  16.537  0.00  0.00     0.301 C 
BRANCH   6   7
ATOM      7  N5  ZIN A   1      15.718   7.084  16.996  0.00  0.00     0.110 N 
BRANCH   7   8
ATOM      8  C4  ZIN A   1      15.427   6.258  18.175  0.00  0.00     0.385 C 
BRANCH   8   9
ATOM      9  C2  ZIN A   1      15.568   7.094  19.421  0.00  0.00     0.202 C 
ATOM     10  O1  ZIN A   1      15.105   8.221  19.454  0.00  0.00    -0.647 OA
ATOM     11  O3  ZIN A   1      16.141   6.640  20.398  0.00  0.00    -0.647 OA
ENDBRANCH   8   9
ENDBRANCH   7   8
BRANCH   7  12
ATOM     12  C50 ZIN A   1      14.759   6.818  15.916  0.00  0.00     0.385 C 
BRANCH  12  13
ATOM     13  C51 ZIN A   1      13.844   8.005  15.753  0.00  0.00     0.202 C 
ATOM     14  O52 ZIN A   1      12.833   7.907  15.077  0.00  0.00    -0.647 OA
ATOM     15  O53 ZIN A   1      14.113   9.061  16.297  0.00  0.00    -0.647 OA
ENDBRANCH  12  13
ENDBRANCH   7  12
ENDBRANCH   6   7
ENDBRANCH   5   6
ENDBRANCH   3   5
BRANCH   3  16
ATOM     16  C10 ZIN A   1      19.411   5.924  16.221  0.00  0.00     0.347 C 
BRANCH  16  17
ATOM     17  C11 ZIN A   1      20.628   6.048  15.341  0.00  0.00     0.199 C 
ATOM     18  O12 ZIN A   1      21.738   5.868  15.810  0.00  0.00    -0.647 OA
ATOM     19  O13 ZIN A   1      20.502   6.327  14.162  0.00  0.00    -0.647 OA
ENDBRANCH  16  17
ENDBRANCH   3  16
ENDBRANCH   2   3
ENDBRANCH   1   2
BRANCH   1  20
ATOM     20  C17 ZIN A   1      17.962   2.538  14.219  0.00  0.00     0.219 C 
BRANCH  20  21
ATOM     21  O18 ZIN A   1      18.733   3.064  13.137  0.00  0.00    -0.288 OA
BRANCH  21  22
ATOM     22  P19 ZIN A   1      18.083   3.894  11.919  0.00  0.00     0.408 P 
ATOM     23  O20 ZIN A   1      19.022   5.060  11.532  0.00  0.00    -0.624 OA
ATOM     24  O21 ZIN A   1      16.713   4.461  12.355  0.00  0.00    -0.624 OA
BRANCH  22  25
ATOM     25  O22 ZIN A   1      17.884   2.922  10.652  0.00  0.00    -0.284 OA
BRANCH  25  26
ATOM     26  C23 ZIN A   1      18.219   1.533  10.677  0.00  0.00     0.134 C 
ATOM     27  C40 ZIN A   1      19.465   1.294   9.824  0.00  0.00     0.034 C 
ATOM     28  C39 ZIN A   1      19.824  -0.193   9.850  0.00  0.00     0.022 C 
ATOM     29  C26 ZIN A   1      18.657  -1.009   9.289  0.00  0.00     0.014 C 
ATOM     30  C25 ZIN A   1      17.410  -0.770  10.143  0.00  0.00     0.022 C 
ATOM     31  C24 ZIN A   1      17.052   0.717  10.116  0.00  0.00     0.034 C 
BRANCH  29  32
ATOM     32  C27 ZIN A   1      19.011  -2.474   9.315  0.00  0.00    -0.045 A 
ATOM     33  C32 ZIN A   1      19.289  -3.097  10.517  0.00  0.00     0.008 A 
ATOM     34  C31 ZIN A   1      19.610  -4.442  10.542  0.00  0.00     0.001 A 
ATOM     35  C30 ZIN A   1      19.661  -5.161   9.362  0.00  0.00     0.000 A 
ATOM     36  C29 ZIN A   1      19.389  -4.537   8.159  0.00  0.00     0.001 A 
ATOM     37  C28 ZIN A   1      19.064  -3.194   8.136  0.00  0.00     0.008 A 
ENDBRANCH  29  32
BRANCH  29  38
ATOM     38  C33 ZIN A   1      18.384  -0.584   7.869  0.00  0.00    -0.045 A 
ATOM     39  C38 ZIN A   1      19.384   0.010   7.122  0.00  0.00     0.008 A 
ATOM     40  C37 ZIN A   1      19.135   0.396   5.818  0.00  0.00     0.001 A 
ATOM     41  C36 ZIN A   1      17.884   0.195   5.264  0.00  0.00     0.000 A 
ATOM     42  C35 ZIN A   1      16.884  -0.396   6.013  0.00  0.00     0.001 A 
ATOM     43  C34 ZIN A   1      17.133  -0.785   7.315  0.00  0.00     0.008 A 
ENDBRANCH  29  38
ENDBRANCH  25  26
ENDBRANCH  22  25
ENDBRANCH  21  22
ENDBRANCH  20  21
ENDBRANCH   1  20
BRANCH   1  44
ATOM     44  N41 ZIN A   1      18.607   1.398  16.288  0.00  0.00     0.117 N 
BRANCH  44  45
ATOM     45  C42 ZIN A   1      19.193   0.255  15.576  0.00  0.00     0.386 C 
BRANCH  45  46
ATOM     46  C43 ZIN A   1      18.506  -1.014  16.011  0.00  0.00     0.202 C 
ATOM     47  O44 ZIN A   1      17.290  -1.093  15.970  0.00  0.00    -0.647 OA
ATOM     48  O45 ZIN A   1      19.165  -1.961  16.404  0.00  0.00    -0.647 OA
ENDBRANCH  45  46
ENDBRANCH  44  45
BRANCH  44  49
ATOM     49  C46 ZIN A   1      19.186   1.536  17.630  0.00  0.00     0.386 C 
BRANCH  49  50
ATOM     50  C47 ZIN A   1      18.212   1.012  18.654  0.00  0.00     0.202 C 
ATOM     51  O48 ZIN A   1      18.427  -0.049  19.215  0.00  0.00    -0.647 OA
ATOM     52  O49 ZIN A   1      17.207   1.649  18.922  0.00  0.00    -0.647 OA
ENDBRANCH  49  50
ENDBRANCH  44  49
ENDBRANCH   1  44
TORSDOF 23
ENDMDL
