MODEL 1
REMARK VINA RESULT:      -5.4      0.000      0.000
REMARK  1 active torsions:
REMARK  status: ('A' for Active; 'I' for Inactive)
REMARK    1  A    between atoms: O1_1  and  C2_2 
ROOT
ATOM      1  C2  ZIN A   1      17.191   0.874  10.992  0.00  0.00     0.095 A 
ATOM      2  C3  ZIN A   1      17.682   0.821   9.670  0.00  0.00     0.099 A 
ATOM      3  N4  ZIN A   1      17.224  -0.085   8.801  0.00  0.00    -0.257 NA
ATOM      4  C5  ZIN A   1      17.676  -0.139   7.571  0.00  0.00     0.117 A 
ATOM      5  C6  ZIN A   1      18.652   0.742   7.110  0.00  0.00     0.020 A 
ATOM      6  C7  ZIN A   1      19.163   1.692   7.948  0.00  0.00     0.015 A 
ATOM      7  C8  ZIN A   1      18.675   1.746   9.267  0.00  0.00    -0.005 A 
ATOM      8  C9  ZIN A   1      19.153   2.696  10.184  0.00  0.00     0.014 A 
ATOM      9  C10 ZIN A   1      18.656   2.719  11.453  0.00  0.00     0.004 A 
ATOM     10  C11 ZIN A   1      17.676   1.816  11.854  0.00  0.00     0.039 A 
ENDROOT
BRANCH   1  11
ATOM     11  O1  ZIN A   1      16.239  -0.003  11.402  0.00  0.00    -0.358 OA
ATOM     12  H12 ZIN A   1      15.621  -0.268  10.706  0.00  0.00     0.217 HD
ENDBRANCH   1  11
TORSDOF 1
ENDMDL
MODEL 2
REMARK VINA RESULT:      -5.4      5.858      7.346
REMARK  1 active torsions:
REMARK  status: ('A' for Active; 'I' for Inactive)
REMARK    1  A    between atoms: O1_1  and  C2_2 
ROOT
ATOM      1  C2  ZIN A   1      19.286   1.122  17.913  0.00  0.00     0.095 A 
ATOM      2  C3  ZIN A   1      18.875   1.622  16.660  0.00  0.00     0.099 A 
ATOM      3  N4  ZIN A   1      18.835   2.936  16.421  0.00  0.00    -0.257 NA
ATOM      4  C5  ZIN A   1      18.454   3.406  15.258  0.00  0.00     0.117 A 
ATOM      5  C6  ZIN A   1      18.072   2.563  14.217  0.00  0.00     0.020 A 
ATOM      6  C7  ZIN A   1      18.089   1.209  14.395  0.00  0.00     0.015 A 
ATOM      7  C8  ZIN A   1      18.499   0.709  15.644  0.00  0.00    -0.005 A 
ATOM      8  C9  ZIN A   1      18.542  -0.671  15.900  0.00  0.00     0.014 A 
ATOM      9  C10 ZIN A   1      18.945  -1.119  17.122  0.00  0.00     0.004 A 
ATOM     10  C11 ZIN A   1      19.322  -0.227  18.123  0.00  0.00     0.039 A 
ENDROOT
BRANCH   1  11
ATOM     11  O1  ZIN A   1      19.652   1.977  18.903  0.00  0.00    -0.358 OA
ATOM     12  H12 ZIN A   1      18.919   2.491  19.270  0.00  0.00     0.217 HD
ENDBRANCH   1  11
TORSDOF 1
ENDMDL
MODEL 3
REMARK VINA RESULT:      -5.4      2.743      3.678
REMARK  1 active torsions:
REMARK  status: ('A' for Active; 'I' for Inactive)
REMARK    1  A    between atoms: O1_1  and  C2_2 
ROOT
ATOM      1  C2  ZIN A   1      19.465  -0.731   8.435  0.00  0.00     0.095 A 
ATOM      2  C3  ZIN A   1      19.236  -0.960   7.062  0.00  0.00     0.099 A 
ATOM      3  N4  ZIN A   1      19.270  -2.196   6.555  0.00  0.00    -0.257 NA
ATOM      4  C5  ZIN A   1      19.058  -2.415   5.279  0.00  0.00     0.117 A 
ATOM      5  C6  ZIN A   1      18.788  -1.375   4.392  0.00  0.00     0.020 A 
ATOM      6  C7  ZIN A   1      18.741  -0.088   4.846  0.00  0.00     0.015 A 
ATOM      7  C8  ZIN A   1      18.968   0.143   6.215  0.00  0.00    -0.005 A 
ATOM      8  C9  ZIN A   1      18.934   1.439   6.754  0.00  0.00     0.014 A 
ATOM      9  C10 ZIN A   1      19.158   1.624   8.085  0.00  0.00     0.004 A 
ATOM     10  C11 ZIN A   1      19.417   0.544   8.924  0.00  0.00     0.039 A 
ENDROOT
BRANCH   1  11
ATOM     11  O1  ZIN A   1      19.724  -1.773   9.267  0.00  0.00    -0.358 OA
ATOM     12  H12 ZIN A   1      19.266  -1.721  10.118  0.00  0.00     0.217 HD
ENDBRANCH   1  11
TORSDOF 1
ENDMDL
MODEL 4
REMARK VINA RESULT:      -5.4      2.330      4.201
REMARK  1 active torsions:
REMARK  status: ('A' for Active; 'I' for Inactive)
REMARK    1  A    between atoms: O1_1  and  C2_2 
ROOT
ATOM      1  C2  ZIN A   1      19.354  -1.444   7.474  0.00  0.00     0.095 A 
ATOM      2  C3  ZIN A   1      19.303  -0.287   8.281  0.00  0.00     0.099 A 
ATOM      3  N4  ZIN A   1      19.470  -0.363   9.604  0.00  0.00    -0.257 NA
ATOM      4  C5  ZIN A   1      19.425   0.708  10.359  0.00  0.00     0.117 A 
ATOM      5  C6  ZIN A   1      19.201   1.974   9.822  0.00  0.00     0.020 A 
ATOM      6  C7  ZIN A   1      19.022   2.121   8.476  0.00  0.00     0.015 A 
ATOM      7  C8  ZIN A   1      19.072   0.969   7.670  0.00  0.00    -0.005 A 
ATOM      8  C9  ZIN A   1      18.897   1.043   6.278  0.00  0.00     0.014 A 
ATOM      9  C10 ZIN A   1      18.952  -0.094   5.530  0.00  0.00     0.004 A 
ATOM     10  C11 ZIN A   1      19.185  -1.332   6.123  0.00  0.00     0.039 A 
ENDROOT
BRANCH   1  11
ATOM     11  O1  ZIN A   1      19.574  -2.660   8.036  0.00  0.00    -0.358 OA
ATOM     12  H12 ZIN A   1      18.767  -3.142   8.263  0.00  0.00     0.217 HD
ENDBRANCH   1  11
TORSDOF 1
ENDMDL
MODEL 5
REMARK VINA RESULT:      -5.4      3.878      5.109
REMARK  1 active torsions:
REMARK  status: ('A' for Active; 'I' for Inactive)
REMARK    1  A    between atoms: O1_1  and  C2_2 
ROOT
ATOM      1  C2  ZIN A   1      19.336  -1.014   5.228  0.00  0.00     0.095 A 
ATOM      2  C3  ZIN A   1      19.176  -1.653   6.475  0.00  0.00     0.099 A 
ATOM      3  N4  ZIN A   1      19.280  -2.980   6.588  0.00  0.00    -0.257 NA
ATOM      4  C5  ZIN A   1      19.132  -3.579   7.745  0.00  0.00     0.117 A 
ATOM      5  C6  ZIN A   1      18.860  -2.866   8.910  0.00  0.00     0.020 A 
ATOM      6  C7  ZIN A   1      18.740  -1.506   8.864  0.00  0.00     0.015 A 
ATOM      7  C8  ZIN A   1      18.900  -0.867   7.621  0.00  0.00    -0.005 A 
ATOM      8  C9  ZIN A   1      18.792   0.528   7.497  0.00  0.00     0.014 A 
ATOM      9  C10 ZIN A   1      18.953   1.111   6.276  0.00  0.00     0.004 A 
ATOM     10  C11 ZIN A   1      19.230   0.346   5.147  0.00  0.00     0.039 A 
ENDROOT
BRANCH   1  11
ATOM     11  O1  ZIN A   1      19.601  -1.746   4.115  0.00  0.00    -0.358 OA
ATOM     12  H12 ZIN A   1      19.049  -2.535   4.022  0.00  0.00     0.217 HD
ENDBRANCH   1  11
TORSDOF 1
ENDMDL
MODEL 6
REMARK VINA RESULT:      -5.1      2.114      2.312
REMARK  1 active torsions:
REMARK  status: ('A' for Active; 'I' for Inactive)
REMARK    1  A    between atoms: O1_1  and  C2_2 
ROOT
ATOM      1  C2  ZIN A   1      19.594   1.947  11.941  0.00  0.00     0.095 A 
ATOM      2  C3  ZIN A   1      19.488   1.363  10.661  0.00  0.00     0.099 A 
ATOM      3  N4  ZIN A   1      19.955   0.134  10.424  0.00  0.00    -0.257 NA
ATOM      4  C5  ZIN A   1      19.859  -0.415   9.236  0.00  0.00     0.117 A 
ATOM      5  C6  ZIN A   1      19.267   0.253   8.167  0.00  0.00     0.020 A 
ATOM      6  C7  ZIN A   1      18.769   1.513   8.342  0.00  0.00     0.015 A 
ATOM      7  C8  ZIN A   1      18.874   2.098   9.618  0.00  0.00    -0.005 A 
ATOM      8  C9  ZIN A   1      18.384   3.389   9.873  0.00  0.00     0.014 A 
ATOM      9  C10 ZIN A   1      18.503   3.922  11.121  0.00  0.00     0.004 A 
ATOM     10  C11 ZIN A   1      19.100   3.203  12.153  0.00  0.00     0.039 A 
ENDROOT
BRANCH   1  11
ATOM     11  O1  ZIN A   1      20.178   1.262  12.958  0.00  0.00    -0.358 OA
ATOM     12  H12 ZIN A   1      19.801   1.451  13.828  0.00  0.00     0.217 HD
ENDBRANCH   1  11
TORSDOF 1
ENDMDL
MODEL 7
REMARK VINA RESULT:      -5.1      5.483      7.627
REMARK  1 active torsions:
REMARK  status: ('A' for Active; 'I' for Inactive)
REMARK    1  A    between atoms: O1_1  and  C2_2 
ROOT
ATOM      1  C2  ZIN A   1      19.289   0.971  14.492  0.00  0.00     0.095 A 
ATOM      2  C3  ZIN A   1      19.086   1.002  15.888  0.00  0.00     0.099 A 
ATOM      3  N4  ZIN A   1      19.191   2.144  16.574  0.00  0.00    -0.257 NA
ATOM      4  C5  ZIN A   1      19.004   2.179  17.872  0.00  0.00     0.117 A 
ATOM      5  C6  ZIN A   1      18.688   1.032  18.597  0.00  0.00     0.020 A 
ATOM      6  C7  ZIN A   1      18.567  -0.168  17.956  0.00  0.00     0.015 A 
ATOM      7  C8  ZIN A   1      18.768  -0.201  16.564  0.00  0.00    -0.005 A 
ATOM      8  C9  ZIN A   1      18.660  -1.398  15.839  0.00  0.00     0.014 A 
ATOM      9  C10 ZIN A   1      18.861  -1.391  14.491  0.00  0.00     0.004 A 
ATOM     10  C11 ZIN A   1      19.169  -0.212  13.819  0.00  0.00     0.039 A 
ENDROOT
BRANCH   1  11
ATOM     11  O1  ZIN A   1      19.595   2.111  13.821  0.00  0.00    -0.358 OA
ATOM     12  H12 ZIN A   1      19.813   2.859  14.394  0.00  0.00     0.217 HD
ENDBRANCH   1  11
TORSDOF 1
ENDMDL
MODEL 8
REMARK VINA RESULT:      -5.1      2.760      3.559
REMARK  1 active torsions:
REMARK  status: ('A' for Active; 'I' for Inactive)
REMARK    1  A    between atoms: O1_1  and  C2_2 
ROOT
ATOM      1  C2  ZIN A   1      20.338   0.395  12.471  0.00  0.00     0.095 A 
ATOM      2  C3  ZIN A   1      19.351   0.331  11.466  0.00  0.00     0.099 A 
ATOM      3  N4  ZIN A   1      19.667   0.490  10.177  0.00  0.00    -0.257 NA
ATOM      4  C5  ZIN A   1      18.754   0.431   9.239  0.00  0.00     0.117 A 
ATOM      5  C6  ZIN A   1      17.412   0.202   9.536  0.00  0.00     0.020 A 
ATOM      6  C7  ZIN A   1      17.021   0.033  10.833  0.00  0.00     0.015 A 
ATOM      7  C8  ZIN A   1      18.004   0.096  11.838  0.00  0.00    -0.005 A 
ATOM      8  C9  ZIN A   1      17.677  -0.070  13.193  0.00  0.00     0.014 A 
ATOM      9  C10 ZIN A   1      18.657  -0.003  14.137  0.00  0.00     0.004 A 
ATOM     10  C11 ZIN A   1      19.983   0.223  13.779  0.00  0.00     0.039 A 
ENDROOT
BRANCH   1  11
ATOM     11  O1  ZIN A   1      21.636   0.620  12.140  0.00  0.00    -0.358 OA
ATOM     12  H12 ZIN A   1      21.754   1.075  11.294  0.00  0.00     0.217 HD
ENDBRANCH   1  11
TORSDOF 1
ENDMDL
MODEL 9
REMARK VINA RESULT:      -5.1      4.209      5.907
REMARK  1 active torsions:
REMARK  status: ('A' for Active; 'I' for Inactive)
REMARK    1  A    between atoms: O1_1  and  C2_2 
ROOT
ATOM      1  C2  ZIN A   1      20.375   0.408  12.161  0.00  0.00     0.095 A 
ATOM      2  C3  ZIN A   1      19.736   0.114  13.384  0.00  0.00     0.099 A 
ATOM      3  N4  ZIN A   1      19.655   1.027  14.357  0.00  0.00    -0.257 NA
ATOM      4  C5  ZIN A   1      19.062   0.760  15.495  0.00  0.00     0.117 A 
ATOM      5  C6  ZIN A   1      18.488  -0.484  15.747  0.00  0.00     0.020 A 
ATOM      6  C7  ZIN A   1      18.536  -1.462  14.795  0.00  0.00     0.015 A 
ATOM      7  C8  ZIN A   1      19.173  -1.171  13.575  0.00  0.00    -0.005 A 
ATOM      8  C9  ZIN A   1      19.260  -2.127  12.550  0.00  0.00     0.014 A 
ATOM      9  C10 ZIN A   1      19.884  -1.808  11.382  0.00  0.00     0.004 A 
ATOM     10  C11 ZIN A   1      20.435  -0.545  11.185  0.00  0.00     0.039 A 
ENDROOT
BRANCH   1  11
ATOM     11  O1  ZIN A   1      20.922   1.634  11.954  0.00  0.00    -0.358 OA
ATOM     12  H12 ZIN A   1      20.302   2.367  12.073  0.00  0.00     0.217 HD
ENDBRANCH   1  11
TORSDOF 1
ENDMDL
