MODEL 1
REMARK VINA RESULT:     -10.2      0.000      0.000
REMARK  5 active torsions:
REMARK  status: ('A' for Active; 'I' for Inactive)
REMARK    1  A    between atoms: C2_2  and  C4_4 
REMARK    2  A    between atoms: C10_10  and  N11_11 
REMARK    3  A    between atoms: N11_11  and  C12_12 
REMARK    4  A    between atoms: C15_15  and  N16_16 
REMARK    5  A    between atoms: N28_28  and  C29_29 
ROOT
ATOM      1  C4  <0> d   1      18.697   1.510  16.703  0.00  0.00     0.084 A 
ATOM      2  C5  <0> d   1      18.194   0.633  15.747  0.00  0.00    -0.027 A 
ATOM      3  C6  <0> d   1      17.834  -0.782  16.117  0.00  0.00     0.050 C 
ATOM      4  C7  <0> d   1      18.026   1.093  14.427  0.00  0.00     0.036 A 
ATOM      5  C8  <0> d   1      17.521   0.250  13.422  0.00  0.00     0.152 A 
ATOM      6  N9  <0> d   1      17.384   0.734  12.203  0.00  0.00    -0.074 NA
ATOM      7  C10 <0> d   1      17.714   1.990  11.920  0.00  0.00     0.730 A 
ATOM      8  N26 <0> d   1      18.194   2.822  12.832  0.00  0.00    -0.044 NA
ATOM      9  C27 <0> d   1      18.366   2.423  14.087  0.00  0.00     0.164 A 
ATOM     10  N28 <0> d   1      18.861   3.282  15.033  0.00  0.00    -0.292 N 
ATOM     11  C34 <0> d   1      19.031   2.883  16.309  0.00  0.00     0.264 A 
ATOM     12  O35 <0> d   1      19.472   3.662  17.134  0.00  0.00    -0.267 OA
ENDROOT
BRANCH   7  13
ATOM     13  N11 <0> d   1      17.550   2.444  10.627  0.00  0.00    -0.171 N 
ATOM     14  H43 <0> d   1      17.141   3.308  10.464  0.00  0.00     0.186 HD
BRANCH  13  15
ATOM     15  C12 <0> d   1      17.973   1.660   9.554  0.00  0.00     0.142 A 
ATOM     16  N25 <0> d   1      17.269   0.596   9.203  0.00  0.00    -0.241 NA
ATOM     17  C24 <0> d   1      17.628  -0.172   8.192  0.00  0.00     0.148 A 
ATOM     18  C15 <0> d   1      18.774   0.109   7.462  0.00  0.00     0.048 A 
ATOM     19  C14 <0> d   1      19.544   1.217   7.805  0.00  0.00     0.034 A 
ATOM     20  C13 <0> d   1      19.133   2.001   8.867  0.00  0.00     0.053 A 
BRANCH  18  21
ATOM     21  N16 <0> d   1      19.151  -0.714   6.393  0.00  0.00    -0.377 N 
ATOM     22  C23 <0> d   1      19.264  -0.178   5.028  0.00  0.00     0.150 C 
ATOM     23  C22 <0> d   1      18.478  -1.083   4.081  0.00  0.00     0.252 C 
ATOM     24  N19 <0> d   1      18.940  -2.469   4.229  0.00  0.00    -0.072 N 
ATOM     25  C18 <0> d   1      18.639  -2.955   5.581  0.00  0.00     0.252 C 
ATOM     26  H20 <0> d   1      19.936  -2.508   4.072  0.00  0.00     0.277 HD
ATOM     27  H21 <0> d   1      18.472  -3.052   3.551  0.00  0.00     0.277 HD
ATOM     28  C17 <0> d   1      19.439  -2.141   6.604  0.00  0.00     0.150 C 
ENDBRANCH  18  21
ENDBRANCH  13  15
ENDBRANCH   7  13
BRANCH  10  29
ATOM     29  C29 <0> d   1      19.204   4.655  14.655  0.00  0.00     0.095 C 
ATOM     30  C33 <0> d   1      19.797   5.402  15.864  0.00  0.00     0.026 C 
ATOM     31  C32 <0> d   1      18.864   6.599  16.142  0.00  0.00     0.002 C 
ATOM     32  C31 <0> d   1      17.507   6.173  15.529  0.00  0.00     0.002 C 
ATOM     33  C30 <0> d   1      17.933   5.424  14.241  0.00  0.00     0.026 C 
ENDBRANCH  10  29
BRANCH   1  34
ATOM     34  C2  <0> d   1      18.885   1.069  18.086  0.00  0.00     0.161 C 
ATOM     35  C1  <0> d   1      17.737   1.131  19.060  0.00  0.00     0.097 C 
ATOM     36  O3  <0> d   1      19.967   0.653  18.448  0.00  0.00    -0.293 OA
ENDBRANCH   1  34
TORSDOF 5
ENDMDL
MODEL 2
REMARK VINA RESULT:      -9.7      3.270      8.115
REMARK  5 active torsions:
REMARK  status: ('A' for Active; 'I' for Inactive)
REMARK    1  A    between atoms: C2_2  and  C4_4 
REMARK    2  A    between atoms: C10_10  and  N11_11 
REMARK    3  A    between atoms: N11_11  and  C12_12 
REMARK    4  A    between atoms: C15_15  and  N16_16 
REMARK    5  A    between atoms: N28_28  and  C29_29 
ROOT
ATOM      1  C4  <0> d   1      19.003  -3.416  10.010  0.00  0.00     0.084 A 
ATOM      2  C5  <0> d   1      18.699  -2.675   8.873  0.00  0.00    -0.027 A 
ATOM      3  C6  <0> d   1      18.379  -3.364   7.571  0.00  0.00     0.050 C 
ATOM      4  C7  <0> d   1      18.694  -1.270   8.960  0.00  0.00     0.036 A 
ATOM      5  C8  <0> d   1      18.393  -0.473   7.841  0.00  0.00     0.152 A 
ATOM      6  N9  <0> d   1      18.403   0.838   7.979  0.00  0.00    -0.074 NA
ATOM      7  C10 <0> d   1      18.692   1.405   9.146  0.00  0.00     0.730 A 
ATOM      8  N26 <0> d   1      18.982   0.698  10.228  0.00  0.00    -0.044 NA
ATOM      9  C27 <0> d   1      18.996  -0.630  10.184  0.00  0.00     0.164 A 
ATOM     10  N28 <0> d   1      19.295  -1.365  11.302  0.00  0.00    -0.292 N 
ATOM     11  C34 <0> d   1      19.304  -2.712  11.262  0.00  0.00     0.264 A 
ATOM     12  O35 <0> d   1      19.572  -3.345  12.267  0.00  0.00    -0.267 OA
ENDROOT
BRANCH   7  13
ATOM     13  N11 <0> d   1      18.688   2.782   9.234  0.00  0.00    -0.171 N 
ATOM     14  H43 <0> d   1      18.705   3.320   8.428  0.00  0.00     0.186 HD
BRANCH  13  15
ATOM     15  C12 <0> d   1      18.659   3.401  10.484  0.00  0.00     0.142 A 
ATOM     16  N25 <0> d   1      19.781   3.539  11.172  0.00  0.00    -0.241 NA
ATOM     17  C24 <0> d   1      19.802   4.121  12.355  0.00  0.00     0.148 A 
ATOM     18  C15 <0> d   1      18.634   4.604  12.928  0.00  0.00     0.048 A 
ATOM     19  C14 <0> d   1      17.433   4.471  12.237  0.00  0.00     0.034 A 
ATOM     20  C13 <0> d   1      17.450   3.859  10.997  0.00  0.00     0.053 A 
BRANCH  18  21
ATOM     21  N16 <0> d   1      18.665   5.216  14.187  0.00  0.00    -0.377 N 
ATOM     22  C23 <0> d   1      19.755   6.130  14.558  0.00  0.00     0.150 C 
ATOM     23  C22 <0> d   1      20.315   5.701  15.914  0.00  0.00     0.252 C 
ATOM     24  N19 <0> d   1      19.224   5.629  16.894  0.00  0.00    -0.072 N 
ATOM     25  C18 <0> d   1      18.273   4.579  16.507  0.00  0.00     0.252 C 
ATOM     26  H20 <0> d   1      18.746   6.517  16.930  0.00  0.00     0.277 HD
ATOM     27  H21 <0> d   1      19.605   5.417  17.804  0.00  0.00     0.277 HD
ATOM     28  C17 <0> d   1      17.609   4.957  15.179  0.00  0.00     0.150 C 
ENDBRANCH  18  21
ENDBRANCH  13  15
ENDBRANCH   7  13
BRANCH  10  29
ATOM     29  C29 <0> d   1      19.603  -0.678  12.558  0.00  0.00     0.095 C 
ATOM     30  C33 <0> d   1      19.455  -1.652  13.741  0.00  0.00     0.026 C 
ATOM     31  C32 <0> d   1      18.362  -1.067  14.659  0.00  0.00     0.002 C 
ATOM     32  C31 <0> d   1      17.521  -0.167  13.720  0.00  0.00     0.002 C 
ATOM     33  C30 <0> d   1      18.593   0.464  12.798  0.00  0.00     0.026 C 
ENDBRANCH  10  29
BRANCH   1  34
ATOM     34  C2  <0> d   1      19.018  -4.878   9.960  0.00  0.00     0.161 C 
ATOM     35  C1  <0> d   1      17.771  -5.656  10.294  0.00  0.00     0.097 C 
ATOM     36  O3  <0> d   1      20.034  -5.465   9.650  0.00  0.00    -0.293 OA
ENDBRANCH   1  34
TORSDOF 5
ENDMDL
MODEL 3
REMARK VINA RESULT:      -9.7      1.372      3.643
REMARK  5 active torsions:
REMARK  status: ('A' for Active; 'I' for Inactive)
REMARK    1  A    between atoms: C2_2  and  C4_4 
REMARK    2  A    between atoms: C10_10  and  N11_11 
REMARK    3  A    between atoms: N11_11  and  C12_12 
REMARK    4  A    between atoms: C15_15  and  N16_16 
REMARK    5  A    between atoms: N28_28  and  C29_29 
ROOT
ATOM      1  C4  <0> d   1      18.951   4.516  15.698  0.00  0.00     0.084 A 
ATOM      2  C5  <0> d   1      18.423   4.525  14.411  0.00  0.00    -0.027 A 
ATOM      3  C6  <0> d   1      18.160   5.826  13.699  0.00  0.00     0.050 C 
ATOM      4  C7  <0> d   1      18.140   3.296  13.786  0.00  0.00     0.036 A 
ATOM      5  C8  <0> d   1      17.607   3.248  12.486  0.00  0.00     0.152 A 
ATOM      6  N9  <0> d   1      17.361   2.069  11.949  0.00  0.00    -0.074 NA
ATOM      7  C10 <0> d   1      17.608   0.945  12.613  0.00  0.00     0.730 A 
ATOM      8  N26 <0> d   1      18.110   0.938  13.839  0.00  0.00    -0.044 NA
ATOM      9  C27 <0> d   1      18.389   2.078  14.461  0.00  0.00     0.164 A 
ATOM     10  N28 <0> d   1      18.909   2.075  15.728  0.00  0.00    -0.292 N 
ATOM     11  C34 <0> d   1      19.200   3.230  16.360  0.00  0.00     0.264 A 
ATOM     12  O35 <0> d   1      19.662   3.205  17.486  0.00  0.00    -0.267 OA
ENDROOT
BRANCH   7  13
ATOM     13  N11 <0> d   1      17.332  -0.262  12.002  0.00  0.00    -0.171 N 
ATOM     14  H43 <0> d   1      16.843  -0.948  12.482  0.00  0.00     0.186 HD
BRANCH  13  15
ATOM     15  C12 <0> d   1      17.757  -0.495  10.695  0.00  0.00     0.142 A 
ATOM     16  N25 <0> d   1      18.942  -1.044  10.480  0.00  0.00    -0.241 NA
ATOM     17  C24 <0> d   1      19.383  -1.287   9.261  0.00  0.00     0.148 A 
ATOM     18  C15 <0> d   1      18.616  -0.961   8.151  0.00  0.00     0.048 A 
ATOM     19  C14 <0> d   1      17.366  -0.376   8.338  0.00  0.00     0.034 A 
ATOM     20  C13 <0> d   1      16.935  -0.141   9.631  0.00  0.00     0.053 A 
BRANCH  18  21
ATOM     21  N16 <0> d   1      19.094  -1.218   6.861  0.00  0.00    -0.377 N 
ATOM     22  C23 <0> d   1      19.200  -0.141   5.865  0.00  0.00     0.150 C 
ATOM     23  C22 <0> d   1      18.524  -0.600   4.574  0.00  0.00     0.252 C 
ATOM     24  N19 <0> d   1      19.101  -1.881   4.146  0.00  0.00    -0.072 N 
ATOM     25  C18 <0> d   1      18.804  -2.920   5.140  0.00  0.00     0.252 C 
ATOM     26  H20 <0> d   1      20.101  -1.782   4.051  0.00  0.00     0.277 HD
ATOM     27  H21 <0> d   1      18.705  -2.145   3.256  0.00  0.00     0.277 HD
ATOM     28  C17 <0> d   1      19.499  -2.574   6.461  0.00  0.00     0.150 C 
ENDBRANCH  18  21
ENDBRANCH  13  15
ENDBRANCH   7  13
BRANCH  10  29
ATOM     29  C29 <0> d   1      19.159   0.801  16.405  0.00  0.00     0.095 C 
ATOM     30  C33 <0> d   1      18.942  -0.367  15.425  0.00  0.00     0.026 C 
ATOM     31  C32 <0> d   1      17.809  -1.232  16.015  0.00  0.00     0.002 C 
ATOM     32  C31 <0> d   1      17.026  -0.258  16.929  0.00  0.00     0.002 C 
ATOM     33  C30 <0> d   1      18.150   0.604  17.555  0.00  0.00     0.026 C 
ENDBRANCH  10  29
BRANCH   1  34
ATOM     34  C2  <0> d   1      19.259   5.773  16.382  0.00  0.00     0.161 C 
ATOM     35  C1  <0> d   1      18.227   6.421  17.268  0.00  0.00     0.097 C 
ATOM     36  O3  <0> d   1      20.346   6.293  16.236  0.00  0.00    -0.293 OA
ENDBRANCH   1  34
TORSDOF 5
ENDMDL
MODEL 4
REMARK VINA RESULT:      -9.6      3.277      5.129
REMARK  5 active torsions:
REMARK  status: ('A' for Active; 'I' for Inactive)
REMARK    1  A    between atoms: C2_2  and  C4_4 
REMARK    2  A    between atoms: C10_10  and  N11_11 
REMARK    3  A    between atoms: N11_11  and  C12_12 
REMARK    4  A    between atoms: C15_15  and  N16_16 
REMARK    5  A    between atoms: N28_28  and  C29_29 
ROOT
ATOM      1  C4  <0> d   1      17.365   4.532  13.241  0.00  0.00     0.084 A 
ATOM      2  C5  <0> d   1      17.499   4.315  11.873  0.00  0.00    -0.027 A 
ATOM      3  C6  <0> d   1      16.872   5.260  10.881  0.00  0.00     0.050 C 
ATOM      4  C7  <0> d   1      18.233   3.197  11.432  0.00  0.00     0.036 A 
ATOM      5  C8  <0> d   1      18.401   2.932  10.062  0.00  0.00     0.152 A 
ATOM      6  N9  <0> d   1      19.098   1.871   9.706  0.00  0.00    -0.074 NA
ATOM      7  C10 <0> d   1      19.634   1.063  10.614  0.00  0.00     0.730 A 
ATOM      8  N26 <0> d   1      19.504   1.270  11.916  0.00  0.00    -0.044 NA
ATOM      9  C27 <0> d   1      18.819   2.314  12.369  0.00  0.00     0.164 A 
ATOM     10  N28 <0> d   1      18.683   2.532  13.715  0.00  0.00    -0.292 N 
ATOM     11  C34 <0> d   1      17.994   3.594  14.178  0.00  0.00     0.264 A 
ATOM     12  O35 <0> d   1      17.885   3.770  15.378  0.00  0.00    -0.267 OA
ENDROOT
BRANCH   7  13
ATOM     13  N11 <0> d   1      20.354  -0.033  10.185  0.00  0.00    -0.171 N 
ATOM     14  H43 <0> d   1      21.292   0.061   9.957  0.00  0.00     0.186 HD
BRANCH  13  15
ATOM     15  C12 <0> d   1      19.734  -1.277  10.079  0.00  0.00     0.142 A 
ATOM     16  N25 <0> d   1      19.073  -1.587   8.975  0.00  0.00    -0.241 NA
ATOM     17  C24 <0> d   1      18.475  -2.754   8.828  0.00  0.00     0.148 A 
ATOM     18  C15 <0> d   1      18.509  -3.700   9.842  0.00  0.00     0.048 A 
ATOM     19  C14 <0> d   1      19.190  -3.408  11.022  0.00  0.00     0.034 A 
ATOM     20  C13 <0> d   1      19.809  -2.177  11.137  0.00  0.00     0.053 A 
BRANCH  18  21
ATOM     21  N16 <0> d   1      17.867  -4.934   9.680  0.00  0.00    -0.377 N 
ATOM     22  C23 <0> d   1      18.587  -6.098   9.142  0.00  0.00     0.150 C 
ATOM     23  C22 <0> d   1      17.762  -6.703   8.008  0.00  0.00     0.252 C 
ATOM     24  N19 <0> d   1      16.407  -6.999   8.491  0.00  0.00    -0.072 N 
ATOM     25  C18 <0> d   1      15.723  -5.751   8.857  0.00  0.00     0.252 C 
ATOM     26  H20 <0> d   1      16.463  -7.600   9.300  0.00  0.00     0.277 HD
ATOM     27  H21 <0> d   1      15.886  -7.465   7.763  0.00  0.00     0.277 HD
ATOM     28  C17 <0> d   1      16.450  -5.100  10.038  0.00  0.00     0.150 C 
ENDBRANCH  18  21
ENDBRANCH  13  15
ENDBRANCH   7  13
BRANCH  10  29
ATOM     29  C29 <0> d   1      19.300   1.603  14.664  0.00  0.00     0.095 C 
ATOM     30  C33 <0> d   1      19.884   0.393  13.913  0.00  0.00     0.026 C 
ATOM     31  C32 <0> d   1      19.153  -0.854  14.451  0.00  0.00     0.002 C 
ATOM     32  C31 <0> d   1      17.814  -0.301  15.000  0.00  0.00     0.002 C 
ATOM     33  C30 <0> d   1      18.234   1.049  15.632  0.00  0.00     0.026 C 
ENDBRANCH  10  29
BRANCH   1  34
ATOM     34  C2  <0> d   1      16.610   5.682  13.738  0.00  0.00     0.161 C 
ATOM     35  C1  <0> d   1      17.334   6.939  14.145  0.00  0.00     0.097 C 
ATOM     36  O3  <0> d   1      15.400   5.624  13.823  0.00  0.00    -0.293 OA
ENDBRANCH   1  34
TORSDOF 5
ENDMDL
MODEL 5
REMARK VINA RESULT:      -9.6      4.126      6.717
REMARK  5 active torsions:
REMARK  status: ('A' for Active; 'I' for Inactive)
REMARK    1  A    between atoms: C2_2  and  C4_4 
REMARK    2  A    between atoms: C10_10  and  N11_11 
REMARK    3  A    between atoms: N11_11  and  C12_12 
REMARK    4  A    between atoms: C15_15  and  N16_16 
REMARK    5  A    between atoms: N28_28  and  C29_29 
ROOT
ATOM      1  C4  <0> d   1      18.429   2.211  11.645  0.00  0.00     0.084 A 
ATOM      2  C5  <0> d   1      18.451   1.298  12.694  0.00  0.00    -0.027 A 
ATOM      3  C6  <0> d   1      18.084   1.725  14.091  0.00  0.00     0.050 C 
ATOM      4  C7  <0> d   1      18.820  -0.034  12.426  0.00  0.00     0.036 A 
ATOM      5  C8  <0> d   1      18.858  -0.998  13.448  0.00  0.00     0.152 A 
ATOM      6  N9  <0> d   1      19.211  -2.230  13.141  0.00  0.00    -0.074 NA
ATOM      7  C10 <0> d   1      19.527  -2.565  11.894  0.00  0.00     0.730 A 
ATOM      8  N26 <0> d   1      19.506  -1.693  10.896  0.00  0.00    -0.044 NA
ATOM      9  C27 <0> d   1      19.163  -0.428  11.111  0.00  0.00     0.164 A 
ATOM     10  N28 <0> d   1      19.140   0.476  10.082  0.00  0.00    -0.292 N 
ATOM     11  C34 <0> d   1      18.786   1.759  10.295  0.00  0.00     0.264 A 
ATOM     12  O35 <0> d   1      18.772   2.546   9.367  0.00  0.00    -0.267 OA
ENDROOT
BRANCH   7  13
ATOM     13  N11 <0> d   1      19.889  -3.869  11.628  0.00  0.00    -0.171 N 
ATOM     14  H43 <0> d   1      20.693  -4.240  12.024  0.00  0.00     0.186 HD
BRANCH  13  15
ATOM     15  C12 <0> d   1      19.100  -4.655  10.789  0.00  0.00     0.142 A 
ATOM     16  N25 <0> d   1      19.567  -5.025   9.607  0.00  0.00    -0.241 NA
ATOM     17  C24 <0> d   1      18.857  -5.771   8.783  0.00  0.00     0.148 A 
ATOM     18  C15 <0> d   1      17.580  -6.189   9.127  0.00  0.00     0.048 A 
ATOM     19  C14 <0> d   1      17.052  -5.815  10.360  0.00  0.00     0.034 A 
ATOM     20  C13 <0> d   1      17.827  -5.036  11.200  0.00  0.00     0.053 A 
BRANCH  18  21
ATOM     21  N16 <0> d   1      16.832  -6.977   8.244  0.00  0.00    -0.377 N 
ATOM     22  C23 <0> d   1      17.463  -8.060   7.475  0.00  0.00     0.150 C 
ATOM     23  C22 <0> d   1      17.081  -7.903   6.004  0.00  0.00     0.252 C 
ATOM     24  N19 <0> d   1      15.620  -7.843   5.880  0.00  0.00    -0.072 N 
ATOM     25  C18 <0> d   1      15.110  -6.641   6.551  0.00  0.00     0.252 C 
ATOM     26  H20 <0> d   1      15.213  -8.663   6.305  0.00  0.00     0.277 HD
ATOM     27  H21 <0> d   1      15.368  -7.813   4.902  0.00  0.00     0.277 HD
ATOM     28  C17 <0> d   1      15.392  -6.740   8.054  0.00  0.00     0.150 C 
ENDBRANCH  18  21
ENDBRANCH  13  15
ENDBRANCH   7  13
BRANCH  10  29
ATOM     29  C29 <0> d   1      19.498   0.042   8.730  0.00  0.00     0.095 C 
ATOM     30  C33 <0> d   1      19.393   1.226   7.751  0.00  0.00     0.026 C 
ATOM     31  C32 <0> d   1      18.338   0.833   6.697  0.00  0.00     0.002 C 
ATOM     32  C31 <0> d   1      17.464  -0.228   7.412  0.00  0.00     0.002 C 
ATOM     33  C30 <0> d   1      18.503  -1.028   8.236  0.00  0.00     0.026 C 
ENDBRANCH  10  29
BRANCH   1  34
ATOM     34  C2  <0> d   1      18.050   3.604  11.883  0.00  0.00     0.161 C 
ATOM     35  C1  <0> d   1      19.098   4.613  12.277  0.00  0.00     0.097 C 
ATOM     36  O3  <0> d   1      16.892   3.948  11.763  0.00  0.00    -0.293 OA
ENDBRANCH   1  34
TORSDOF 5
ENDMDL
MODEL 6
REMARK VINA RESULT:      -9.6      3.826      9.399
REMARK  5 active torsions:
REMARK  status: ('A' for Active; 'I' for Inactive)
REMARK    1  A    between atoms: C2_2  and  C4_4 
REMARK    2  A    between atoms: C10_10  and  N11_11 
REMARK    3  A    between atoms: N11_11  and  C12_12 
REMARK    4  A    between atoms: C15_15  and  N16_16 
REMARK    5  A    between atoms: N28_28  and  C29_29 
ROOT
ATOM      1  C4  <0> d   1      19.077  -4.346   8.555  0.00  0.00     0.084 A 
ATOM      2  C5  <0> d   1      18.615  -3.722   9.709  0.00  0.00    -0.027 A 
ATOM      3  C6  <0> d   1      18.316  -4.524  10.949  0.00  0.00     0.050 C 
ATOM      4  C7  <0> d   1      18.433  -2.326   9.698  0.00  0.00     0.036 A 
ATOM      5  C8  <0> d   1      17.970  -1.644  10.836  0.00  0.00     0.152 A 
ATOM      6  N9  <0> d   1      17.817  -0.336  10.770  0.00  0.00    -0.074 NA
ATOM      7  C10 <0> d   1      18.092   0.333   9.655  0.00  0.00     0.730 A 
ATOM      8  N26 <0> d   1      18.532  -0.264   8.557  0.00  0.00    -0.044 NA
ATOM      9  C27 <0> d   1      18.715  -1.579   8.530  0.00  0.00     0.164 A 
ATOM     10  N28 <0> d   1      19.170  -2.200   7.396  0.00  0.00    -0.292 N 
ATOM     11  C34 <0> d   1      19.364  -3.533   7.367  0.00  0.00     0.264 A 
ATOM     12  O35 <0> d   1      19.769  -4.065   6.350  0.00  0.00    -0.267 OA
ENDROOT
BRANCH   7  13
ATOM     13  N11 <0> d   1      17.915   1.702   9.641  0.00  0.00    -0.171 N 
ATOM     14  H43 <0> d   1      17.564   2.138   8.849  0.00  0.00     0.186 HD
BRANCH  13  15
ATOM     15  C12 <0> d   1      18.242   2.459  10.765  0.00  0.00     0.142 A 
ATOM     16  N25 <0> d   1      17.297   2.784  11.633  0.00  0.00    -0.241 NA
ATOM     17  C24 <0> d   1      17.560   3.495  12.712  0.00  0.00     0.148 A 
ATOM     18  C15 <0> d   1      18.848   3.939  12.971  0.00  0.00     0.048 A 
ATOM     19  C14 <0> d   1      19.869   3.622  12.078  0.00  0.00     0.034 A 
ATOM     20  C13 <0> d   1      19.556   2.871  10.960  0.00  0.00     0.053 A 
BRANCH  18  21
ATOM     21  N16 <0> d   1      19.118   4.697  14.117  0.00  0.00    -0.377 N 
ATOM     22  C23 <0> d   1      19.872   5.958  14.030  0.00  0.00     0.150 C 
ATOM     23  C22 <0> d   1      21.000   5.926  15.061  0.00  0.00     0.252 C 
ATOM     24  N19 <0> d   1      20.443   5.642  16.389  0.00  0.00    -0.072 N 
ATOM     25  C18 <0> d   1      19.852   4.298  16.407  0.00  0.00     0.252 C 
ATOM     26  H20 <0> d   1      19.731   6.324  16.607  0.00  0.00     0.277 HD
ATOM     27  H21 <0> d   1      21.178   5.694  17.078  0.00  0.00     0.277 HD
ATOM     28  C17 <0> d   1      18.662   4.252  15.443  0.00  0.00     0.150 C 
ENDBRANCH  18  21
ENDBRANCH  13  15
ENDBRANCH   7  13
BRANCH  10  29
ATOM     29  C29 <0> d   1      19.456  -1.404   6.201  0.00  0.00     0.095 C 
ATOM     30  C33 <0> d   1      18.650  -0.092   6.236  0.00  0.00     0.026 C 
ATOM     31  C32 <0> d   1      17.738  -0.101   4.993  0.00  0.00     0.002 C 
ATOM     32  C31 <0> d   1      17.591  -1.603   4.642  0.00  0.00     0.002 C 
ATOM     33  C30 <0> d   1      19.004  -2.164   4.937  0.00  0.00     0.026 C 
ENDBRANCH  10  29
BRANCH   1  34
ATOM     34  C2  <0> d   1      19.280  -5.795   8.527  0.00  0.00     0.161 C 
ATOM     35  C1  <0> d   1      18.153  -6.706   8.113  0.00  0.00     0.097 C 
ATOM     36  O3  <0> d   1      20.355  -6.264   8.838  0.00  0.00    -0.293 OA
ENDBRANCH   1  34
TORSDOF 5
ENDMDL
MODEL 7
REMARK VINA RESULT:      -9.5      4.035      9.520
REMARK  5 active torsions:
REMARK  status: ('A' for Active; 'I' for Inactive)
REMARK    1  A    between atoms: C2_2  and  C4_4 
REMARK    2  A    between atoms: C10_10  and  N11_11 
REMARK    3  A    between atoms: N11_11  and  C12_12 
REMARK    4  A    between atoms: C15_15  and  N16_16 
REMARK    5  A    between atoms: N28_28  and  C29_29 
ROOT
ATOM      1  C4  <0> d   1      18.390  -4.444   6.833  0.00  0.00     0.084 A 
ATOM      2  C5  <0> d   1      18.498  -3.270   6.095  0.00  0.00    -0.027 A 
ATOM      3  C6  <0> d   1      18.311  -3.282   4.600  0.00  0.00     0.050 C 
ATOM      4  C7  <0> d   1      18.785  -2.069   6.771  0.00  0.00     0.036 A 
ATOM      5  C8  <0> d   1      18.903  -0.853   6.075  0.00  0.00     0.152 A 
ATOM      6  N9  <0> d   1      19.173   0.242   6.759  0.00  0.00    -0.074 NA
ATOM      7  C10 <0> d   1      19.331   0.208   8.078  0.00  0.00     0.730 A 
ATOM      8  N26 <0> d   1      19.228  -0.912   8.778  0.00  0.00    -0.044 NA
ATOM      9  C27 <0> d   1      18.960  -2.064   8.175  0.00  0.00     0.164 A 
ATOM     10  N28 <0> d   1      18.853  -3.224   8.896  0.00  0.00    -0.292 N 
ATOM     11  C34 <0> d   1      18.573  -4.394   8.288  0.00  0.00     0.264 A 
ATOM     12  O35 <0> d   1      18.482  -5.413   8.947  0.00  0.00    -0.267 OA
ENDROOT
BRANCH   7  13
ATOM     13  N11 <0> d   1      19.611   1.384   8.743  0.00  0.00    -0.171 N 
ATOM     14  H43 <0> d   1      20.097   2.092   8.293  0.00  0.00     0.186 HD
BRANCH  13  15
ATOM     15  C12 <0> d   1      19.197   1.554  10.064  0.00  0.00     0.142 A 
ATOM     16  N25 <0> d   1      19.968   1.130  11.052  0.00  0.00    -0.241 NA
ATOM     17  C24 <0> d   1      19.619   1.274  12.316  0.00  0.00     0.148 A 
ATOM     18  C15 <0> d   1      18.413   1.871  12.654  0.00  0.00     0.048 A 
ATOM     19  C14 <0> d   1      17.571   2.323  11.641  0.00  0.00     0.034 A 
ATOM     20  C13 <0> d   1      17.973   2.160  10.328  0.00  0.00     0.053 A 
BRANCH  18  21
ATOM     21  N16 <0> d   1      18.047   2.014  13.998  0.00  0.00    -0.377 N 
ATOM     22  C23 <0> d   1      18.149   3.316  14.675  0.00  0.00     0.150 C 
ATOM     23  C22 <0> d   1      18.907   3.126  15.989  0.00  0.00     0.252 C 
ATOM     24  N19 <0> d   1      18.256   2.078  16.784  0.00  0.00    -0.072 N 
ATOM     25  C18 <0> d   1      18.347   0.790  16.085  0.00  0.00     0.252 C 
ATOM     26  H20 <0> d   1      17.285   2.317  16.922  0.00  0.00     0.277 HD
ATOM     27  H21 <0> d   1      18.714   2.006  17.681  0.00  0.00     0.277 HD
ATOM     28  C17 <0> d   1      17.556   0.865  14.774  0.00  0.00     0.150 C 
ENDBRANCH  18  21
ENDBRANCH  13  15
ENDBRANCH   7  13
BRANCH  10  29
ATOM     29  C29 <0> d   1      19.037  -3.193  10.348  0.00  0.00     0.095 C 
ATOM     30  C33 <0> d   1      19.324  -4.611  10.874  0.00  0.00     0.026 C 
ATOM     31  C32 <0> d   1      18.192  -4.952  11.864  0.00  0.00     0.002 C 
ATOM     32  C31 <0> d   1      17.020  -4.037  11.429  0.00  0.00     0.002 C 
ATOM     33  C30 <0> d   1      17.739  -2.722  11.037  0.00  0.00     0.026 C 
ENDBRANCH  10  29
BRANCH   1  34
ATOM     34  C2  <0> d   1      18.094  -5.713   6.167  0.00  0.00     0.161 C 
ATOM     35  C1  <0> d   1      16.671  -6.064   5.813  0.00  0.00     0.097 C 
ATOM     36  O3  <0> d   1      18.993  -6.483   5.899  0.00  0.00    -0.293 OA
ENDBRANCH   1  34
TORSDOF 5
ENDMDL
MODEL 8
REMARK VINA RESULT:      -9.5      4.062     10.484
REMARK  5 active torsions:
REMARK  status: ('A' for Active; 'I' for Inactive)
REMARK    1  A    between atoms: C2_2  and  C4_4 
REMARK    2  A    between atoms: C10_10  and  N11_11 
REMARK    3  A    between atoms: N11_11  and  C12_12 
REMARK    4  A    between atoms: C15_15  and  N16_16 
REMARK    5  A    between atoms: N28_28  and  C29_29 
ROOT
ATOM      1  C4  <0> d   1      18.928  -1.769   6.653  0.00  0.00     0.084 A 
ATOM      2  C5  <0> d   1      18.631  -0.778   7.584  0.00  0.00    -0.027 A 
ATOM      3  C6  <0> d   1      18.343   0.632   7.138  0.00  0.00     0.050 C 
ATOM      4  C7  <0> d   1      18.602  -1.118   8.949  0.00  0.00     0.036 A 
ATOM      5  C8  <0> d   1      18.307  -0.156   9.931  0.00  0.00     0.152 A 
ATOM      6  N9  <0> d   1      18.294  -0.529  11.196  0.00  0.00    -0.074 NA
ATOM      7  C10 <0> d   1      18.554  -1.784  11.546  0.00  0.00     0.730 A 
ATOM      8  N26 <0> d   1      18.838  -2.726  10.658  0.00  0.00    -0.044 NA
ATOM      9  C27 <0> d   1      18.874  -2.443   9.361  0.00  0.00     0.164 A 
ATOM     10  N28 <0> d   1      19.166  -3.415   8.440  0.00  0.00    -0.292 N 
ATOM     11  C34 <0> d   1      19.197  -3.133   7.122  0.00  0.00     0.264 A 
ATOM     12  O35 <0> d   1      19.458  -4.011   6.321  0.00  0.00    -0.267 OA
ENDROOT
BRANCH   7  13
ATOM     13  N11 <0> d   1      18.527  -2.120  12.884  0.00  0.00    -0.171 N 
ATOM     14  H43 <0> d   1      18.394  -3.043  13.150  0.00  0.00     0.186 HD
BRANCH  13  15
ATOM     15  C12 <0> d   1      18.690  -1.132  13.854  0.00  0.00     0.142 A 
ATOM     16  N25 <0> d   1      19.447  -0.078  13.594  0.00  0.00    -0.241 NA
ATOM     17  C24 <0> d   1      19.627   0.882  14.480  0.00  0.00     0.148 A 
ATOM     18  C15 <0> d   1      19.031   0.814  15.731  0.00  0.00     0.048 A 
ATOM     19  C14 <0> d   1      18.231  -0.283  16.043  0.00  0.00     0.034 A 
ATOM     20  C13 <0> d   1      18.062  -1.268  15.088  0.00  0.00     0.053 A 
BRANCH  18  21
ATOM     21  N16 <0> d   1      19.231   1.836  16.667  0.00  0.00    -0.377 N 
ATOM     22  C23 <0> d   1      19.055   1.589  18.106  0.00  0.00     0.150 C 
ATOM     23  C22 <0> d   1      18.142   2.671  18.681  0.00  0.00     0.252 C 
ATOM     24  N19 <0> d   1      18.685   3.995  18.354  0.00  0.00    -0.072 N 
ATOM     25  C18 <0> d   1      18.671   4.197  16.900  0.00  0.00     0.252 C 
ATOM     26  H20 <0> d   1      19.633   4.062  18.694  0.00  0.00     0.277 HD
ATOM     27  H21 <0> d   1      18.121   4.706  18.797  0.00  0.00     0.277 HD
ATOM     28  C17 <0> d   1      19.617   3.189  16.238  0.00  0.00     0.150 C 
ENDBRANCH  18  21
ENDBRANCH  13  15
ENDBRANCH   7  13
BRANCH  10  29
ATOM     29  C29 <0> d   1      19.442  -4.780   8.892  0.00  0.00     0.095 C 
ATOM     30  C33 <0> d   1      19.253  -5.769   7.728  0.00  0.00     0.026 C 
ATOM     31  C32 <0> d   1      18.137  -6.745   8.155  0.00  0.00     0.002 C 
ATOM     32  C31 <0> d   1      17.330  -5.957   9.217  0.00  0.00     0.002 C 
ATOM     33  C30 <0> d   1      18.434  -5.190   9.986  0.00  0.00     0.026 C 
ENDBRANCH  10  29
BRANCH   1  34
ATOM     34  C2  <0> d   1      18.966  -1.456   5.224  0.00  0.00     0.161 C 
ATOM     35  C1  <0> d   1      17.721  -1.596   4.388  0.00  0.00     0.097 C 
ATOM     36  O3  <0> d   1      20.002  -1.083   4.712  0.00  0.00    -0.293 OA
ENDBRANCH   1  34
TORSDOF 5
ENDMDL
MODEL 9
REMARK VINA RESULT:      -9.3      4.133      8.810
REMARK  5 active torsions:
REMARK  status: ('A' for Active; 'I' for Inactive)
REMARK    1  A    between atoms: C2_2  and  C4_4 
REMARK    2  A    between atoms: C10_10  and  N11_11 
REMARK    3  A    between atoms: N11_11  and  C12_12 
REMARK    4  A    between atoms: C15_15  and  N16_16 
REMARK    5  A    between atoms: N28_28  and  C29_29 
ROOT
ATOM      1  C4  <0> d   1      17.495  -4.294   9.476  0.00  0.00     0.084 A 
ATOM      2  C5  <0> d   1      17.625  -4.048  10.839  0.00  0.00    -0.027 A 
ATOM      3  C6  <0> d   1      16.997  -4.972  11.850  0.00  0.00     0.050 C 
ATOM      4  C7  <0> d   1      18.355  -2.919  11.258  0.00  0.00     0.036 A 
ATOM      5  C8  <0> d   1      18.518  -2.624  12.622  0.00  0.00     0.152 A 
ATOM      6  N9  <0> d   1      19.212  -1.554  12.958  0.00  0.00    -0.074 NA
ATOM      7  C10 <0> d   1      19.749  -0.764  12.034  0.00  0.00     0.730 A 
ATOM      8  N26 <0> d   1      19.624  -1.001  10.736  0.00  0.00    -0.044 NA
ATOM      9  C27 <0> d   1      18.942  -2.055  10.304  0.00  0.00     0.164 A 
ATOM     10  N28 <0> d   1      18.811  -2.303   8.963  0.00  0.00    -0.292 N 
ATOM     11  C34 <0> d   1      18.125  -3.376   8.520  0.00  0.00     0.264 A 
ATOM     12  O35 <0> d   1      18.021  -3.577   7.325  0.00  0.00    -0.267 OA
ENDROOT
BRANCH   7  13
ATOM     13  N11 <0> d   1      20.466   0.342  12.441  0.00  0.00    -0.171 N 
ATOM     14  H43 <0> d   1      21.426   0.279  12.567  0.00  0.00     0.186 HD
BRANCH  13  15
ATOM     15  C12 <0> d   1      19.811   1.551  12.672  0.00  0.00     0.142 A 
ATOM     16  N25 <0> d   1      19.252   1.777  13.850  0.00  0.00    -0.241 NA
ATOM     17  C24 <0> d   1      18.626   2.908  14.115  0.00  0.00     0.148 A 
ATOM     18  C15 <0> d   1      18.523   3.903  13.154  0.00  0.00     0.048 A 
ATOM     19  C14 <0> d   1      19.094   3.698  11.900  0.00  0.00     0.034 A 
ATOM     20  C13 <0> d   1      19.746   2.503  11.660  0.00  0.00     0.053 A 
BRANCH  18  21
ATOM     21  N16 <0> d   1      17.852   5.098  13.442  0.00  0.00    -0.377 N 
ATOM     22  C23 <0> d   1      18.345   6.011  14.484  0.00  0.00     0.150 C 
ATOM     23  C22 <0> d   1      17.187   6.358  15.419  0.00  0.00     0.252 C 
ATOM     24  N19 <0> d   1      16.063   6.884  14.633  0.00  0.00    -0.072 N 
ATOM     25  C18 <0> d   1      15.549   5.842  13.736  0.00  0.00     0.252 C 
ATOM     26  H20 <0> d   1      16.376   7.673  14.087  0.00  0.00     0.277 HD
ATOM     27  H21 <0> d   1      15.328   7.181  15.258  0.00  0.00     0.277 HD
ATOM     28  C17 <0> d   1      16.629   5.472  12.714  0.00  0.00     0.150 C 
ENDBRANCH  18  21
ENDBRANCH  13  15
ENDBRANCH   7  13
BRANCH  10  29
ATOM     29  C29 <0> d   1      19.429  -1.393   7.996  0.00  0.00     0.095 C 
ATOM     30  C33 <0> d   1      19.626  -0.004   8.629  0.00  0.00     0.026 C 
ATOM     31  C32 <0> d   1      18.807   0.988   7.779  0.00  0.00     0.002 C 
ATOM     32  C31 <0> d   1      17.725   0.107   7.106  0.00  0.00     0.002 C 
ATOM     33  C30 <0> d   1      18.496  -1.196   6.783  0.00  0.00     0.026 C 
ENDBRANCH  10  29
BRANCH   1  34
ATOM     34  C2  <0> d   1      16.744  -5.457   9.002  0.00  0.00     0.161 C 
ATOM     35  C1  <0> d   1      17.464  -6.744   8.692  0.00  0.00     0.097 C 
ATOM     36  O3  <0> d   1      15.541  -5.385   8.858  0.00  0.00    -0.293 OA
ENDBRANCH   1  34
TORSDOF 5
ENDMDL
