MODEL 1
REMARK VINA RESULT:      -7.6      0.000      0.000
REMARK  6 active torsions:
REMARK  status: ('A' for Active; 'I' for Inactive)
REMARK    1  A    between atoms: C7_7  and  C9_8 
REMARK    2  A    between atoms: C9_8  and  C10_9 
REMARK    3  A    between atoms: C10_9  and  O11_10 
REMARK    4  A    between atoms: O11_10  and  C12_11 
REMARK    5  A    between atoms: C12_11  and  C14_13 
REMARK    6  A    between atoms: C12_11  and  C20_19 
ROOT
ATOM      1  C12 ZIN A   1      19.309  -0.116  12.658  0.00  0.00     0.111 C 
ATOM      2  C13 ZIN A   1      20.757   0.242  12.317  0.00  0.00     0.057 C 
ENDROOT
BRANCH   1   3
ATOM      3  O11 ZIN A   1      18.430   0.836  12.056  0.00  0.00    -0.371 OA
BRANCH   3   4
ATOM      4  C10 ZIN A   1      18.937   1.420  10.855  0.00  0.00     0.171 C 
BRANCH   4   5
ATOM      5  C9  ZIN A   1      17.853   1.393   9.776  0.00  0.00     0.059 C 
BRANCH   5   6
ATOM      6  C7  ZIN A   1      18.379   0.656   8.543  0.00  0.00     0.190 C 
ATOM      7  N2  ZIN A   1      17.375  -0.320   8.077  0.00  0.00    -0.071 N 
ATOM      8  C1  ZIN A   1      17.007  -0.024   6.686  0.00  0.00     0.270 C 
ATOM      9  H3  ZIN A   1      16.557  -0.272   8.664  0.00  0.00     0.279 HD
ATOM     10  C4  ZIN A   1      17.967  -1.673   8.158  0.00  0.00     0.235 C 
ATOM     11  C5  ZIN A   1      19.496  -1.441   8.090  0.00  0.00     0.030 C 
ATOM     12  C6  ZIN A   1      19.651  -0.131   8.907  0.00  0.00     0.035 C 
ENDBRANCH   5   6
ENDBRANCH   4   5
ENDBRANCH   3   4
ENDBRANCH   1   3
BRANCH   1  13
ATOM     13  C14 ZIN A   1      18.996  -1.493  12.132  0.00  0.00    -0.020 A 
ATOM     14  C19 ZIN A   1      17.682  -1.870  11.924  0.00  0.00     0.010 A 
ATOM     15  C18 ZIN A   1      17.395  -3.132  11.437  0.00  0.00     0.001 A 
ATOM     16  C17 ZIN A   1      18.420  -4.019  11.168  0.00  0.00     0.000 A 
ATOM     17  C16 ZIN A   1      19.733  -3.643  11.381  0.00  0.00     0.001 A 
ATOM     18  C15 ZIN A   1      20.021  -2.380  11.863  0.00  0.00     0.010 A 
ENDBRANCH   1  13
BRANCH   1  19
ATOM     19  C20 ZIN A   1      19.126  -0.095  14.153  0.00  0.00    -0.019 A 
ATOM     20  C26 ZIN A   1      18.982   1.110  14.815  0.00  0.00     0.012 A 
ATOM     21  C25 ZIN A   1      18.807   1.130  16.186  0.00  0.00     0.024 A 
ATOM     22  C23 ZIN A   1      18.789  -0.057  16.897  0.00  0.00     0.034 A 
ATOM     23  C22 ZIN A   1      18.938  -1.262  16.236  0.00  0.00     0.024 A 
ATOM     24 Cl24 ZIN A   1      18.576  -0.033  18.620  0.00  0.00    -0.084 Cl
ATOM     25  C21 ZIN A   1      19.107  -1.281  14.864  0.00  0.00     0.012 A 
ENDBRANCH   1  19
TORSDOF 6
ENDMDL
MODEL 2
REMARK VINA RESULT:      -7.6      1.913      3.426
REMARK  6 active torsions:
REMARK  status: ('A' for Active; 'I' for Inactive)
REMARK    1  A    between atoms: C7_7  and  C9_8 
REMARK    2  A    between atoms: C9_8  and  C10_9 
REMARK    3  A    between atoms: C10_9  and  O11_10 
REMARK    4  A    between atoms: O11_10  and  C12_11 
REMARK    5  A    between atoms: C12_11  and  C14_13 
REMARK    6  A    between atoms: C12_11  and  C20_19 
ROOT
ATOM      1  C12 ZIN A   1      19.008  -0.767  12.072  0.00  0.00     0.111 C 
ATOM      2  C13 ZIN A   1      20.458  -0.366  11.792  0.00  0.00     0.057 C 
ENDROOT
BRANCH   1   3
ATOM      3  O11 ZIN A   1      18.130   0.056  11.303  0.00  0.00    -0.371 OA
BRANCH   3   4
ATOM      4  C10 ZIN A   1      18.781   0.796  10.269  0.00  0.00     0.171 C 
BRANCH   4   5
ATOM      5  C9  ZIN A   1      17.877   1.943   9.814  0.00  0.00     0.059 C 
BRANCH   5   6
ATOM      6  C7  ZIN A   1      18.368   3.254  10.430  0.00  0.00     0.190 C 
ATOM      7  N2  ZIN A   1      18.911   3.001  11.778  0.00  0.00    -0.071 N 
ATOM      8  C1  ZIN A   1      20.311   3.443  11.837  0.00  0.00     0.270 C 
ATOM      9  H3  ZIN A   1      18.856   2.016  11.987  0.00  0.00     0.279 HD
ATOM     10  C4  ZIN A   1      18.106   3.764  12.757  0.00  0.00     0.235 C 
ATOM     11  C5  ZIN A   1      17.488   4.925  11.941  0.00  0.00     0.030 C 
ATOM     12  C6  ZIN A   1      17.188   4.232  10.586  0.00  0.00     0.035 C 
ENDBRANCH   5   6
ENDBRANCH   4   5
ENDBRANCH   3   4
ENDBRANCH   1   3
BRANCH   1  13
ATOM     13  C14 ZIN A   1      18.806  -2.211  11.693  0.00  0.00    -0.020 A 
ATOM     14  C19 ZIN A   1      19.898  -3.015  11.427  0.00  0.00     0.010 A 
ATOM     15  C18 ZIN A   1      19.712  -4.342  11.083  0.00  0.00     0.001 A 
ATOM     16  C17 ZIN A   1      18.435  -4.862  10.998  0.00  0.00     0.000 A 
ATOM     17  C16 ZIN A   1      17.342  -4.056  11.260  0.00  0.00     0.001 A 
ATOM     18  C15 ZIN A   1      17.528  -2.731  11.608  0.00  0.00     0.010 A 
ENDBRANCH   1  13
BRANCH   1  19
ATOM     19  C20 ZIN A   1      18.712  -0.586  13.538  0.00  0.00    -0.019 A 
ATOM     20  C26 ZIN A   1      19.410  -1.319  14.480  0.00  0.00     0.012 A 
ATOM     21  C25 ZIN A   1      19.144  -1.150  15.826  0.00  0.00     0.024 A 
ATOM     22  C23 ZIN A   1      18.168  -0.255  16.229  0.00  0.00     0.034 A 
ATOM     23  C22 ZIN A   1      17.466   0.474  15.287  0.00  0.00     0.024 A 
ATOM     24 Cl24 ZIN A   1      17.827  -0.047  17.918  0.00  0.00    -0.084 Cl
ATOM     25  C21 ZIN A   1      17.738   0.307  13.942  0.00  0.00     0.012 A 
ENDBRANCH   1  19
TORSDOF 6
ENDMDL
MODEL 3
REMARK VINA RESULT:      -7.5      3.474      6.592
REMARK  6 active torsions:
REMARK  status: ('A' for Active; 'I' for Inactive)
REMARK    1  A    between atoms: C7_7  and  C9_8 
REMARK    2  A    between atoms: C9_8  and  C10_9 
REMARK    3  A    between atoms: C10_9  and  O11_10 
REMARK    4  A    between atoms: O11_10  and  C12_11 
REMARK    5  A    between atoms: C12_11  and  C14_13 
REMARK    6  A    between atoms: C12_11  and  C20_19 
ROOT
ATOM      1  C12 ZIN A   1      18.226  -0.282  11.088  0.00  0.00     0.111 C 
ATOM      2  C13 ZIN A   1      16.795   0.024  11.535  0.00  0.00     0.057 C 
ENDROOT
BRANCH   1   3
ATOM      3  O11 ZIN A   1      19.141   0.516  11.842  0.00  0.00    -0.371 OA
BRANCH   3   4
ATOM      4  C10 ZIN A   1      18.526   1.285  12.877  0.00  0.00     0.171 C 
BRANCH   4   5
ATOM      5  C9  ZIN A   1      19.296   1.088  14.185  0.00  0.00     0.059 C 
BRANCH   5   6
ATOM      6  C7  ZIN A   1      18.360   0.499  15.243  0.00  0.00     0.190 C 
ATOM      7  N2  ZIN A   1      18.996   0.574  16.572  0.00  0.00    -0.071 N 
ATOM      8  C1  ZIN A   1      18.145   1.351  17.483  0.00  0.00     0.270 C 
ATOM      9  H3  ZIN A   1      19.900   1.014  16.491  0.00  0.00     0.279 HD
ATOM     10  C4  ZIN A   1      19.157  -0.801  17.091  0.00  0.00     0.235 C 
ATOM     11  C5  ZIN A   1      18.078  -1.631  16.353  0.00  0.00     0.030 C 
ATOM     12  C6  ZIN A   1      18.099  -0.988  14.941  0.00  0.00     0.035 C 
ENDBRANCH   5   6
ENDBRANCH   4   5
ENDBRANCH   3   4
ENDBRANCH   1   3
BRANCH   1  13
ATOM     13  C14 ZIN A   1      18.523  -1.741  11.320  0.00  0.00    -0.020 A 
ATOM     14  C19 ZIN A   1      19.829  -2.194  11.290  0.00  0.00     0.010 A 
ATOM     15  C18 ZIN A   1      20.101  -3.532  11.507  0.00  0.00     0.001 A 
ATOM     16  C17 ZIN A   1      19.068  -4.418  11.745  0.00  0.00     0.000 A 
ATOM     17  C16 ZIN A   1      17.761  -3.966  11.770  0.00  0.00     0.001 A 
ATOM     18  C15 ZIN A   1      17.489  -2.628  11.557  0.00  0.00     0.010 A 
ENDBRANCH   1  13
BRANCH   1  19
ATOM     19  C20 ZIN A   1      18.373   0.033   9.623  0.00  0.00    -0.019 A 
ATOM     20  C26 ZIN A   1      17.642  -0.675   8.687  0.00  0.00     0.012 A 
ATOM     21  C25 ZIN A   1      17.771  -0.382   7.342  0.00  0.00     0.024 A 
ATOM     22  C23 ZIN A   1      18.641   0.612   6.932  0.00  0.00     0.034 A 
ATOM     23  C22 ZIN A   1      19.377   1.317   7.868  0.00  0.00     0.024 A 
ATOM     24 Cl24 ZIN A   1      18.810   0.976   5.243  0.00  0.00    -0.084 Cl
ATOM     25  C21 ZIN A   1      19.243   1.026   9.212  0.00  0.00     0.012 A 
ENDBRANCH   1  19
TORSDOF 6
ENDMDL
MODEL 4
REMARK VINA RESULT:      -7.5      3.514      5.867
REMARK  6 active torsions:
REMARK  status: ('A' for Active; 'I' for Inactive)
REMARK    1  A    between atoms: C7_7  and  C9_8 
REMARK    2  A    between atoms: C9_8  and  C10_9 
REMARK    3  A    between atoms: C10_9  and  O11_10 
REMARK    4  A    between atoms: O11_10  and  C12_11 
REMARK    5  A    between atoms: C12_11  and  C14_13 
REMARK    6  A    between atoms: C12_11  and  C20_19 
ROOT
ATOM      1  C12 ZIN A   1      18.327   2.507  11.429  0.00  0.00     0.111 C 
ATOM      2  C13 ZIN A   1      19.461   3.535  11.453  0.00  0.00     0.057 C 
ENDROOT
BRANCH   1   3
ATOM      3  O11 ZIN A   1      17.077   3.174  11.608  0.00  0.00    -0.371 OA
BRANCH   3   4
ATOM      4  C10 ZIN A   1      17.145   4.593  11.449  0.00  0.00     0.171 C 
BRANCH   4   5
ATOM      5  C9  ZIN A   1      16.344   5.271  12.562  0.00  0.00     0.059 C 
BRANCH   5   6
ATOM      6  C7  ZIN A   1      17.290   5.693  13.687  0.00  0.00     0.190 C 
ATOM      7  N2  ZIN A   1      17.061   4.852  14.877  0.00  0.00    -0.071 N 
ATOM      8  C1  ZIN A   1      18.307   4.165  15.244  0.00  0.00     0.270 C 
ATOM      9  H3  ZIN A   1      16.343   4.172  14.678  0.00  0.00     0.279 HD
ATOM     10  C4  ZIN A   1      16.627   5.724  15.989  0.00  0.00     0.235 C 
ATOM     11  C5  ZIN A   1      17.182   7.125  15.633  0.00  0.00     0.030 C 
ATOM     12  C6  ZIN A   1      17.004   7.151  14.092  0.00  0.00     0.035 C 
ENDBRANCH   5   6
ENDBRANCH   4   5
ENDBRANCH   3   4
ENDBRANCH   1   3
BRANCH   1  13
ATOM     13  C14 ZIN A   1      18.329   1.790  10.104  0.00  0.00    -0.020 A 
ATOM     14  C19 ZIN A   1      17.508   0.696   9.910  0.00  0.00     0.010 A 
ATOM     15  C18 ZIN A   1      17.506   0.040   8.692  0.00  0.00     0.001 A 
ATOM     16  C17 ZIN A   1      18.332   0.473   7.673  0.00  0.00     0.000 A 
ATOM     17  C16 ZIN A   1      19.157   1.565   7.868  0.00  0.00     0.001 A 
ATOM     18  C15 ZIN A   1      19.156   2.223   9.084  0.00  0.00     0.010 A 
ENDBRANCH   1  13
BRANCH   1  19
ATOM     19  C20 ZIN A   1      18.530   1.510  12.539  0.00  0.00    -0.019 A 
ATOM     20  C26 ZIN A   1      19.768   0.926  12.727  0.00  0.00     0.012 A 
ATOM     21  C25 ZIN A   1      19.957   0.015  13.750  0.00  0.00     0.024 A 
ATOM     22  C23 ZIN A   1      18.902  -0.321  14.579  0.00  0.00     0.034 A 
ATOM     23  C22 ZIN A   1      17.660   0.260  14.388  0.00  0.00     0.024 A 
ATOM     24 Cl24 ZIN A   1      19.135  -1.469  15.859  0.00  0.00    -0.084 Cl
ATOM     25  C21 ZIN A   1      17.475   1.174  13.368  0.00  0.00     0.012 A 
ENDBRANCH   1  19
TORSDOF 6
ENDMDL
MODEL 5
REMARK VINA RESULT:      -7.5      2.087      4.265
REMARK  6 active torsions:
REMARK  status: ('A' for Active; 'I' for Inactive)
REMARK    1  A    between atoms: C7_7  and  C9_8 
REMARK    2  A    between atoms: C9_8  and  C10_9 
REMARK    3  A    between atoms: C10_9  and  O11_10 
REMARK    4  A    between atoms: O11_10  and  C12_11 
REMARK    5  A    between atoms: C12_11  and  C14_13 
REMARK    6  A    between atoms: C12_11  and  C20_19 
ROOT
ATOM      1  C12 ZIN A   1      18.547  -0.515  12.260  0.00  0.00     0.111 C 
ATOM      2  C13 ZIN A   1      17.281  -1.180  11.716  0.00  0.00     0.057 C 
ENDROOT
BRANCH   1   3
ATOM      3  O11 ZIN A   1      19.691  -1.273  11.863  0.00  0.00    -0.371 OA
BRANCH   3   4
ATOM      4  C10 ZIN A   1      19.403  -2.316  10.929  0.00  0.00     0.171 C 
BRANCH   4   5
ATOM      5  C9  ZIN A   1      19.983  -3.636  11.442  0.00  0.00     0.059 C 
BRANCH   5   6
ATOM      6  C7  ZIN A   1      19.051  -4.786  11.057  0.00  0.00     0.190 C 
ATOM      7  N2  ZIN A   1      18.687  -4.681   9.632  0.00  0.00    -0.071 N 
ATOM      8  C1  ZIN A   1      19.091  -5.905   8.927  0.00  0.00     0.270 C 
ATOM      9  H3  ZIN A   1      19.149  -3.883   9.222  0.00  0.00     0.279 HD
ATOM     10  C4  ZIN A   1      17.221  -4.511   9.535  0.00  0.00     0.235 C 
ATOM     11  C5  ZIN A   1      16.665  -5.122  10.845  0.00  0.00     0.030 C 
ATOM     12  C6  ZIN A   1      17.747  -4.698  11.873  0.00  0.00     0.035 C 
ENDBRANCH   5   6
ENDBRANCH   4   5
ENDBRANCH   3   4
ENDBRANCH   1   3
BRANCH   1  13
ATOM     13  C14 ZIN A   1      18.655   0.883  11.710  0.00  0.00    -0.020 A 
ATOM     14  C19 ZIN A   1      17.630   1.405  10.943  0.00  0.00     0.010 A 
ATOM     15  C18 ZIN A   1      17.728   2.690  10.442  0.00  0.00     0.001 A 
ATOM     16  C17 ZIN A   1      18.852   3.450  10.701  0.00  0.00     0.000 A 
ATOM     17  C16 ZIN A   1      19.880   2.927  11.464  0.00  0.00     0.001 A 
ATOM     18  C15 ZIN A   1      19.781   1.643  11.968  0.00  0.00     0.010 A 
ENDBRANCH   1  13
BRANCH   1  19
ATOM     19  C20 ZIN A   1      18.479  -0.459  13.764  0.00  0.00    -0.019 A 
ATOM     20  C26 ZIN A   1      19.285  -1.287  14.524  0.00  0.00     0.012 A 
ATOM     21  C25 ZIN A   1      19.227  -1.232  15.904  0.00  0.00     0.024 A 
ATOM     22  C23 ZIN A   1      18.353  -0.358  16.525  0.00  0.00     0.034 A 
ATOM     23  C22 ZIN A   1      17.542   0.466  15.765  0.00  0.00     0.024 A 
ATOM     24 Cl24 ZIN A   1      18.274  -0.294  18.257  0.00  0.00    -0.084 Cl
ATOM     25  C21 ZIN A   1      17.605   0.414  14.385  0.00  0.00     0.012 A 
ENDBRANCH   1  19
TORSDOF 6
ENDMDL
MODEL 6
REMARK VINA RESULT:      -7.4      1.512      3.531
REMARK  6 active torsions:
REMARK  status: ('A' for Active; 'I' for Inactive)
REMARK    1  A    between atoms: C7_7  and  C9_8 
REMARK    2  A    between atoms: C9_8  and  C10_9 
REMARK    3  A    between atoms: C10_9  and  O11_10 
REMARK    4  A    between atoms: O11_10  and  C12_11 
REMARK    5  A    between atoms: C12_11  and  C14_13 
REMARK    6  A    between atoms: C12_11  and  C20_19 
ROOT
ATOM      1  C12 ZIN A   1      18.331  -0.240  12.129  0.00  0.00     0.111 C 
ATOM      2  C13 ZIN A   1      16.968  -0.758  11.665  0.00  0.00     0.057 C 
ENDROOT
BRANCH   1   3
ATOM      3  O11 ZIN A   1      19.364  -1.051  11.567  0.00  0.00    -0.371 OA
BRANCH   3   4
ATOM      4  C10 ZIN A   1      18.960  -1.792  10.414  0.00  0.00     0.171 C 
BRANCH   4   5
ATOM      5  C9  ZIN A   1      19.498  -1.109   9.154  0.00  0.00     0.059 C 
BRANCH   5   6
ATOM      6  C7  ZIN A   1      18.535  -1.355   7.991  0.00  0.00     0.190 C 
ATOM      7  N2  ZIN A   1      19.258  -1.245   6.710  0.00  0.00    -0.071 N 
ATOM      8  C1  ZIN A   1      19.130  -2.502   5.961  0.00  0.00     0.270 C 
ATOM      9  H3  ZIN A   1      20.231  -1.050   6.886  0.00  0.00     0.279 HD
ATOM     10  C4  ZIN A   1      18.661  -0.138   5.931  0.00  0.00     0.235 C 
ATOM     11  C5  ZIN A   1      17.220  -0.001   6.479  0.00  0.00     0.030 C 
ATOM     12  C6  ZIN A   1      17.431  -0.281   7.991  0.00  0.00     0.035 C 
ENDBRANCH   5   6
ENDBRANCH   4   5
ENDBRANCH   3   4
ENDBRANCH   1   3
BRANCH   1  13
ATOM     13  C14 ZIN A   1      18.507   1.186  11.675  0.00  0.00    -0.020 A 
ATOM     14  C19 ZIN A   1      17.484   1.828  11.004  0.00  0.00     0.010 A 
ATOM     15  C18 ZIN A   1      17.644   3.139  10.591  0.00  0.00     0.001 A 
ATOM     16  C17 ZIN A   1      18.829   3.802  10.841  0.00  0.00     0.000 A 
ATOM     17  C16 ZIN A   1      19.855   3.158  11.508  0.00  0.00     0.001 A 
ATOM     18  C15 ZIN A   1      19.694   1.850  11.925  0.00  0.00     0.010 A 
ENDBRANCH   1  13
BRANCH   1  19
ATOM     19  C20 ZIN A   1      18.406  -0.301  13.632  0.00  0.00    -0.019 A 
ATOM     20  C26 ZIN A   1      19.252  -1.206  14.246  0.00  0.00     0.012 A 
ATOM     21  C25 ZIN A   1      19.327  -1.259  15.625  0.00  0.00     0.024 A 
ATOM     22  C23 ZIN A   1      18.544  -0.413  16.392  0.00  0.00     0.034 A 
ATOM     23  C22 ZIN A   1      17.694   0.488  15.778  0.00  0.00     0.024 A 
ATOM     24 Cl24 ZIN A   1      18.631  -0.483  18.124  0.00  0.00    -0.084 Cl
ATOM     25  C21 ZIN A   1      17.625   0.543  14.399  0.00  0.00     0.012 A 
ENDBRANCH   1  19
TORSDOF 6
ENDMDL
MODEL 7
REMARK VINA RESULT:      -7.4      2.377      4.457
REMARK  6 active torsions:
REMARK  status: ('A' for Active; 'I' for Inactive)
REMARK    1  A    between atoms: C7_7  and  C9_8 
REMARK    2  A    between atoms: C9_8  and  C10_9 
REMARK    3  A    between atoms: C10_9  and  O11_10 
REMARK    4  A    between atoms: O11_10  and  C12_11 
REMARK    5  A    between atoms: C12_11  and  C14_13 
REMARK    6  A    between atoms: C12_11  and  C20_19 
ROOT
ATOM      1  C12 ZIN A   1      18.625  -0.547  12.909  0.00  0.00     0.111 C 
ATOM      2  C13 ZIN A   1      17.550   0.389  12.352  0.00  0.00     0.057 C 
ENDROOT
BRANCH   1   3
ATOM      3  O11 ZIN A   1      19.918  -0.016  12.612  0.00  0.00    -0.371 OA
BRANCH   3   4
ATOM      4  C10 ZIN A   1      19.995   0.663  11.357  0.00  0.00     0.171 C 
BRANCH   4   5
ATOM      5  C9  ZIN A   1      20.693  -0.235  10.333  0.00  0.00     0.059 C 
BRANCH   5   6
ATOM      6  C7  ZIN A   1      19.952  -0.156   8.997  0.00  0.00     0.190 C 
ATOM      7  N2  ZIN A   1      18.894   0.869   9.071  0.00  0.00    -0.071 N 
ATOM      8  C1  ZIN A   1      19.116   1.883   8.032  0.00  0.00     0.270 C 
ATOM      9  H3  ZIN A   1      18.906   1.304   9.980  0.00  0.00     0.279 HD
ATOM     10  C4  ZIN A   1      17.589   0.209   8.852  0.00  0.00     0.235 C 
ATOM     11  C5  ZIN A   1      17.923  -1.075   8.054  0.00  0.00     0.030 C 
ATOM     12  C6  ZIN A   1      19.268  -1.504   8.699  0.00  0.00     0.035 C 
ENDBRANCH   5   6
ENDBRANCH   4   5
ENDBRANCH   3   4
ENDBRANCH   1   3
BRANCH   1  13
ATOM     13  C14 ZIN A   1      18.461  -0.668  14.401  0.00  0.00    -0.020 A 
ATOM     14  C19 ZIN A   1      17.434   0.002  15.040  0.00  0.00     0.010 A 
ATOM     15  C18 ZIN A   1      17.281  -0.113  16.410  0.00  0.00     0.001 A 
ATOM     16  C17 ZIN A   1      18.159  -0.890  17.141  0.00  0.00     0.000 A 
ATOM     17  C16 ZIN A   1      19.189  -1.557  16.503  0.00  0.00     0.001 A 
ATOM     18  C15 ZIN A   1      19.340  -1.445  15.133  0.00  0.00     0.010 A 
ENDBRANCH   1  13
BRANCH   1  19
ATOM     19  C20 ZIN A   1      18.483  -1.907  12.276  0.00  0.00    -0.019 A 
ATOM     20  C26 ZIN A   1      19.563  -2.770  12.244  0.00  0.00     0.012 A 
ATOM     21  C25 ZIN A   1      19.432  -4.021  11.669  0.00  0.00     0.024 A 
ATOM     22  C23 ZIN A   1      18.224  -4.403  11.114  0.00  0.00     0.034 A 
ATOM     23  C22 ZIN A   1      17.145  -3.537  11.141  0.00  0.00     0.024 A 
ATOM     24 Cl24 ZIN A   1      18.060  -5.970  10.386  0.00  0.00    -0.084 Cl
ATOM     25  C21 ZIN A   1      17.276  -2.290  11.721  0.00  0.00     0.012 A 
ENDBRANCH   1  19
TORSDOF 6
ENDMDL
MODEL 8
REMARK VINA RESULT:      -7.3      3.216      5.605
REMARK  6 active torsions:
REMARK  status: ('A' for Active; 'I' for Inactive)
REMARK    1  A    between atoms: C7_7  and  C9_8 
REMARK    2  A    between atoms: C9_8  and  C10_9 
REMARK    3  A    between atoms: C10_9  and  O11_10 
REMARK    4  A    between atoms: O11_10  and  C12_11 
REMARK    5  A    between atoms: C12_11  and  C14_13 
REMARK    6  A    between atoms: C12_11  and  C20_19 
ROOT
ATOM      1  C12 ZIN A   1      18.305  -0.118  12.832  0.00  0.00     0.111 C 
ATOM      2  C13 ZIN A   1      16.998   0.526  12.362  0.00  0.00     0.057 C 
ENDROOT
BRANCH   1   3
ATOM      3  O11 ZIN A   1      19.399   0.748  12.528  0.00  0.00    -0.371 OA
BRANCH   3   4
ATOM      4  C10 ZIN A   1      19.178   1.589  11.393  0.00  0.00     0.171 C 
BRANCH   4   5
ATOM      5  C9  ZIN A   1      20.111   2.799  11.464  0.00  0.00     0.059 C 
BRANCH   5   6
ATOM      6  C7  ZIN A   1      19.332   4.014  11.969  0.00  0.00     0.190 C 
ATOM      7  N2  ZIN A   1      19.239   3.974  13.441  0.00  0.00    -0.071 N 
ATOM      8  C1  ZIN A   1      19.835   5.192  14.007  0.00  0.00     0.270 C 
ATOM      9  H3  ZIN A   1      19.727   3.163  13.789  0.00  0.00     0.279 HD
ATOM     10  C4  ZIN A   1      17.811   3.897  13.817  0.00  0.00     0.235 C 
ATOM     11  C5  ZIN A   1      17.051   4.500  12.610  0.00  0.00     0.030 C 
ATOM     12  C6  ZIN A   1      17.895   3.981  11.416  0.00  0.00     0.035 C 
ENDBRANCH   5   6
ENDBRANCH   4   5
ENDBRANCH   3   4
ENDBRANCH   1   3
BRANCH   1  13
ATOM     13  C14 ZIN A   1      18.244  -0.349  14.320  0.00  0.00    -0.020 A 
ATOM     14  C19 ZIN A   1      17.361   0.379  15.096  0.00  0.00     0.010 A 
ATOM     15  C18 ZIN A   1      17.302   0.165  16.461  0.00  0.00     0.001 A 
ATOM     16  C17 ZIN A   1      18.132  -0.770  17.050  0.00  0.00     0.000 A 
ATOM     17  C16 ZIN A   1      19.018  -1.495  16.275  0.00  0.00     0.001 A 
ATOM     18  C15 ZIN A   1      19.074  -1.283  14.909  0.00  0.00     0.010 A 
ENDBRANCH   1  13
BRANCH   1  19
ATOM     19  C20 ZIN A   1      18.496  -1.436  12.128  0.00  0.00    -0.019 A 
ATOM     20  C26 ZIN A   1      19.770  -1.932  11.924  0.00  0.00     0.012 A 
ATOM     21  C25 ZIN A   1      19.948  -3.144  11.283  0.00  0.00     0.024 A 
ATOM     22  C23 ZIN A   1      18.849  -3.855  10.834  0.00  0.00     0.034 A 
ATOM     23  C22 ZIN A   1      17.574  -3.356  11.033  0.00  0.00     0.024 A 
ATOM     24 Cl24 ZIN A   1      19.070  -5.374  10.023  0.00  0.00    -0.084 Cl
ATOM     25  C21 ZIN A   1      17.399  -2.147  11.679  0.00  0.00     0.012 A 
ENDBRANCH   1  19
TORSDOF 6
ENDMDL
MODEL 9
REMARK VINA RESULT:      -7.2      2.738      6.000
REMARK  6 active torsions:
REMARK  status: ('A' for Active; 'I' for Inactive)
REMARK    1  A    between atoms: C7_7  and  C9_8 
REMARK    2  A    between atoms: C9_8  and  C10_9 
REMARK    3  A    between atoms: C10_9  and  O11_10 
REMARK    4  A    between atoms: O11_10  and  C12_11 
REMARK    5  A    between atoms: C12_11  and  C14_13 
REMARK    6  A    between atoms: C12_11  and  C20_19 
ROOT
ATOM      1  C12 ZIN A   1      19.514  -0.320  11.039  0.00  0.00     0.111 C 
ATOM      2  C13 ZIN A   1      21.002  -0.204  11.374  0.00  0.00     0.057 C 
ENDROOT
BRANCH   1   3
ATOM      3  O11 ZIN A   1      18.763   0.535  11.903  0.00  0.00    -0.371 OA
BRANCH   3   4
ATOM      4  C10 ZIN A   1      19.371   0.754  13.178  0.00  0.00     0.171 C 
BRANCH   4   5
ATOM      5  C9  ZIN A   1      18.297   1.136  14.197  0.00  0.00     0.059 C 
BRANCH   5   6
ATOM      6  C7  ZIN A   1      17.983  -0.070  15.084  0.00  0.00     0.190 C 
ATOM      7  N2  ZIN A   1      17.933   0.347  16.498  0.00  0.00    -0.071 N 
ATOM      8  C1  ZIN A   1      16.615   0.023  17.062  0.00  0.00     0.270 C 
ATOM      9  H3  ZIN A   1      18.098   1.339  16.565  0.00  0.00     0.279 HD
ATOM     10  C4  ZIN A   1      18.984  -0.384  17.239  0.00  0.00     0.235 C 
ATOM     11  C5  ZIN A   1      19.243  -1.660  16.401  0.00  0.00     0.030 C 
ATOM     12  C6  ZIN A   1      19.102  -1.120  14.954  0.00  0.00     0.035 C 
ENDBRANCH   5   6
ENDBRANCH   4   5
ENDBRANCH   3   4
ENDBRANCH   1   3
BRANCH   1  13
ATOM     13  C14 ZIN A   1      19.288   0.088   9.607  0.00  0.00    -0.020 A 
ATOM     14  C19 ZIN A   1      19.261  -0.871   8.611  0.00  0.00     0.010 A 
ATOM     15  C18 ZIN A   1      19.049  -0.496   7.297  0.00  0.00     0.001 A 
ATOM     16  C17 ZIN A   1      18.875   0.837   6.977  0.00  0.00     0.000 A 
ATOM     17  C16 ZIN A   1      18.907   1.797   7.972  0.00  0.00     0.001 A 
ATOM     18  C15 ZIN A   1      19.114   1.422   9.287  0.00  0.00     0.010 A 
ENDBRANCH   1  13
BRANCH   1  19
ATOM     19  C20 ZIN A   1      19.066  -1.746  11.231  0.00  0.00    -0.019 A 
ATOM     20  C26 ZIN A   1      20.003  -2.759  11.314  0.00  0.00     0.012 A 
ATOM     21  C25 ZIN A   1      19.595  -4.067  11.496  0.00  0.00     0.024 A 
ATOM     22  C23 ZIN A   1      18.246  -4.363  11.583  0.00  0.00     0.034 A 
ATOM     23  C22 ZIN A   1      17.308  -3.350  11.494  0.00  0.00     0.024 A 
ATOM     24 Cl24 ZIN A   1      17.731  -6.006  11.804  0.00  0.00    -0.084 Cl
ATOM     25  C21 ZIN A   1      17.719  -2.043  11.318  0.00  0.00     0.012 A 
ENDBRANCH   1  19
TORSDOF 6
ENDMDL
