MODEL 1
REMARK VINA RESULT:      -4.2      0.000      0.000
REMARK  12 active torsions:
REMARK  status: ('A' for Active; 'I' for Inactive)
REMARK    1  A    between atoms: N1_1  and  C5_5 
REMARK    2  A    between atoms: C5_5  and  C6_6 
REMARK    3  A    between atoms: C6_6  and  N7_7 
REMARK    4  A    between atoms: N7_7  and  C8_8 
REMARK    5  A    between atoms: C8_8  and  C9_9 
REMARK    6  A    between atoms: C9_9  and  N10_10 
REMARK    7  A    between atoms: N10_10  and  C13_13 
REMARK    8  A    between atoms: C13_13  and  C14_14 
REMARK    9  A    between atoms: C14_14  and  N15_15 
REMARK   10  A    between atoms: N15_15  and  C16_16 
REMARK   11  A    between atoms: C16_16  and  C17_17 
REMARK   12  A    between atoms: C17_17  and  N18_18 
ROOT
ATOM      1  N10 <0> d   1      20.045  -4.353   9.385  0.00  0.00    -0.072 N 
ATOM      2  H11 <0> d   1      20.557  -5.212   9.241  0.00  0.00     0.277 HD
ATOM      3  H12 <0> d   1      20.690  -3.578   9.405  0.00  0.00     0.277 HD
ENDROOT
BRANCH   1   4
ATOM      4  C9  <0> d   1      19.085  -4.166   8.289  0.00  0.00     0.262 C 
BRANCH   4   5
ATOM      5  C8  <0> d   1      18.559  -2.729   8.312  0.00  0.00     0.297 C 
BRANCH   5   6
ATOM      6  N7  <0> d   1      19.559  -1.832   7.720  0.00  0.00     0.086 N 
ATOM      7  H26 <0> d   1      20.241  -2.351   7.188  0.00  0.00     0.315 HD
BRANCH   6   8
ATOM      8  C6  <0> d   1      18.917  -0.802   6.892  0.00  0.00     0.296 C 
BRANCH   8   9
ATOM      9  C5  <0> d   1      19.289  -1.023   5.424  0.00  0.00     0.259 C 
BRANCH   9  10
ATOM     10  N1  <0> d   1      19.551   0.272   4.785  0.00  0.00    -0.078 N 
ATOM     11  H2  <0> d   1      20.169   0.817   5.369  0.00  0.00     0.274 HD
ATOM     12  H3  <0> d   1      18.682   0.769   4.661  0.00  0.00     0.274 HD
ATOM     13  H4  <0> d   1      19.985   0.123   3.886  0.00  0.00     0.274 HD
ENDBRANCH   9  10
ENDBRANCH   8   9
ENDBRANCH   6   8
ENDBRANCH   5   6
ENDBRANCH   4   5
ENDBRANCH   1   4
BRANCH   1  14
ATOM     14  C13 <0> d   1      19.323  -4.423  10.662  0.00  0.00     0.262 C 
BRANCH  14  15
ATOM     15  C14 <0> d   1      20.103  -3.654  11.731  0.00  0.00     0.297 C 
BRANCH  15  16
ATOM     16  N15 <0> d   1      20.600  -2.393  11.164  0.00  0.00     0.086 N 
ATOM     17  H35 <0> d   1      21.581  -2.270  11.361  0.00  0.00     0.315 HD
BRANCH  16  18
ATOM     18  C16 <0> d   1      19.816  -1.251  11.652  0.00  0.00     0.296 C 
BRANCH  18  19
ATOM     19  C17 <0> d   1      20.442   0.050  11.147  0.00  0.00     0.259 C 
BRANCH  19  20
ATOM     20  N18 <0> d   1      21.459   0.508  12.102  0.00  0.00    -0.078 N 
ATOM     21  H19 <0> d   1      22.182   1.011  11.609  0.00  0.00     0.274 HD
ATOM     22  H20 <0> d   1      21.031   1.117  12.784  0.00  0.00     0.274 HD
ATOM     23  H21 <0> d   1      21.864  -0.289  12.571  0.00  0.00     0.274 HD
ENDBRANCH  19  20
ENDBRANCH  18  19
ENDBRANCH  16  18
ENDBRANCH  15  16
ENDBRANCH  14  15
ENDBRANCH   1  14
TORSDOF 12
ENDMDL
MODEL 2
REMARK VINA RESULT:      -4.1      2.217      4.689
REMARK  12 active torsions:
REMARK  status: ('A' for Active; 'I' for Inactive)
REMARK    1  A    between atoms: N1_1  and  C5_5 
REMARK    2  A    between atoms: C5_5  and  C6_6 
REMARK    3  A    between atoms: C6_6  and  N7_7 
REMARK    4  A    between atoms: N7_7  and  C8_8 
REMARK    5  A    between atoms: C8_8  and  C9_9 
REMARK    6  A    between atoms: C9_9  and  N10_10 
REMARK    7  A    between atoms: N10_10  and  C13_13 
REMARK    8  A    between atoms: C13_13  and  C14_14 
REMARK    9  A    between atoms: C14_14  and  N15_15 
REMARK   10  A    between atoms: N15_15  and  C16_16 
REMARK   11  A    between atoms: C16_16  and  C17_17 
REMARK   12  A    between atoms: C17_17  and  N18_18 
ROOT
ATOM      1  N10 <0> d   1      19.988   0.441   9.019  0.00  0.00    -0.072 N 
ATOM      2  H11 <0> d   1      19.948   0.273  10.014  0.00  0.00     0.277 HD
ATOM      3  H12 <0> d   1      20.947   0.584   8.741  0.00  0.00     0.277 HD
ENDROOT
BRANCH   1   4
ATOM      4  C9  <0> d   1      19.437  -0.718   8.305  0.00  0.00     0.262 C 
BRANCH   4   5
ATOM      5  C8  <0> d   1      18.436  -1.444   9.205  0.00  0.00     0.297 C 
BRANCH   5   6
ATOM      6  N7  <0> d   1      19.052  -1.701  10.514  0.00  0.00     0.086 N 
ATOM      7  H26 <0> d   1      18.930  -0.913  11.132  0.00  0.00     0.315 HD
BRANCH   6   8
ATOM      8  C6  <0> d   1      18.515  -2.930  11.115  0.00  0.00     0.296 C 
BRANCH   8   9
ATOM      9  C5  <0> d   1      19.664  -3.902  11.398  0.00  0.00     0.259 C 
BRANCH   9  10
ATOM     10  N1  <0> d   1      20.927  -3.157  11.474  0.00  0.00    -0.078 N 
ATOM     11  H2  <0> d   1      20.924  -2.417  10.789  0.00  0.00     0.274 HD
ATOM     12  H3  <0> d   1      21.698  -3.782  11.291  0.00  0.00     0.274 HD
ATOM     13  H4  <0> d   1      21.029  -2.760  12.397  0.00  0.00     0.274 HD
ENDBRANCH   9  10
ENDBRANCH   8   9
ENDBRANCH   6   8
ENDBRANCH   5   6
ENDBRANCH   4   5
ENDBRANCH   1   4
BRANCH   1  14
ATOM     14  C13 <0> d   1      19.200   1.637   8.693  0.00  0.00     0.262 C 
BRANCH  14  15
ATOM     15  C14 <0> d   1      19.010   2.483   9.954  0.00  0.00     0.297 C 
BRANCH  15  16
ATOM     16  N15 <0> d   1      20.005   2.091  10.962  0.00  0.00     0.086 N 
ATOM     17  H35 <0> d   1      20.654   1.417  10.585  0.00  0.00     0.315 HD
BRANCH  16  18
ATOM     18  C16 <0> d   1      19.353   1.576  12.173  0.00  0.00     0.296 C 
BRANCH  18  19
ATOM     19  C17 <0> d   1      20.307   0.627  12.901  0.00  0.00     0.259 C 
BRANCH  19  20
ATOM     20  N18 <0> d   1      21.571   0.538  12.158  0.00  0.00    -0.078 N 
ATOM     21  H19 <0> d   1      22.168   1.309  12.416  0.00  0.00     0.274 HD
ATOM     22  H20 <0> d   1      22.031  -0.332  12.381  0.00  0.00     0.274 HD
ATOM     23  H21 <0> d   1      21.382   0.574  11.167  0.00  0.00     0.274 HD
ENDBRANCH  19  20
ENDBRANCH  18  19
ENDBRANCH  16  18
ENDBRANCH  15  16
ENDBRANCH  14  15
ENDBRANCH   1  14
TORSDOF 12
ENDMDL
MODEL 3
REMARK VINA RESULT:      -4.1      2.341      5.754
REMARK  12 active torsions:
REMARK  status: ('A' for Active; 'I' for Inactive)
REMARK    1  A    between atoms: N1_1  and  C5_5 
REMARK    2  A    between atoms: C5_5  and  C6_6 
REMARK    3  A    between atoms: C6_6  and  N7_7 
REMARK    4  A    between atoms: N7_7  and  C8_8 
REMARK    5  A    between atoms: C8_8  and  C9_9 
REMARK    6  A    between atoms: C9_9  and  N10_10 
REMARK    7  A    between atoms: N10_10  and  C13_13 
REMARK    8  A    between atoms: C13_13  and  C14_14 
REMARK    9  A    between atoms: C14_14  and  N15_15 
REMARK   10  A    between atoms: N15_15  and  C16_16 
REMARK   11  A    between atoms: C16_16  and  C17_17 
REMARK   12  A    between atoms: C17_17  and  N18_18 
ROOT
ATOM      1  N10 <0> d   1      19.965   1.037   8.848  0.00  0.00    -0.072 N 
ATOM      2  H11 <0> d   1      20.474   1.345   8.033  0.00  0.00     0.277 HD
ATOM      3  H12 <0> d   1      20.517   1.210   9.675  0.00  0.00     0.277 HD
ENDROOT
BRANCH   1   4
ATOM      4  C9  <0> d   1      18.698   1.775   8.942  0.00  0.00     0.262 C 
BRANCH   4   5
ATOM      5  C8  <0> d   1      18.782   2.790  10.084  0.00  0.00     0.297 C 
BRANCH   5   6
ATOM      6  N7  <0> d   1      19.974   2.514  10.897  0.00  0.00     0.086 N 
ATOM      7  H26 <0> d   1      20.568   3.326  10.955  0.00  0.00     0.315 HD
BRANCH   6   8
ATOM      8  C6  <0> d   1      19.598   2.040  12.236  0.00  0.00     0.296 C 
BRANCH   8   9
ATOM      9  C5  <0> d   1      20.117   0.614  12.436  0.00  0.00     0.259 C 
BRANCH   9  10
ATOM     10  N1  <0> d   1      21.554   0.570  12.137  0.00  0.00    -0.078 N 
ATOM     11  H2  <0> d   1      21.726  -0.105  11.407  0.00  0.00     0.274 HD
ATOM     12  H3  <0> d   1      22.063   0.304  12.967  0.00  0.00     0.274 HD
ATOM     13  H4  <0> d   1      21.862   1.481  11.832  0.00  0.00     0.274 HD
ENDBRANCH   9  10
ENDBRANCH   8   9
ENDBRANCH   6   8
ENDBRANCH   5   6
ENDBRANCH   4   5
ENDBRANCH   1   4
BRANCH   1  14
ATOM     14  C13 <0> d   1      19.687  -0.401   8.737  0.00  0.00     0.262 C 
BRANCH  14  15
ATOM     15  C14 <0> d   1      18.702  -0.644   7.592  0.00  0.00     0.297 C 
BRANCH  15  16
ATOM     16  N15 <0> d   1      17.773  -1.720   7.966  0.00  0.00     0.086 N 
ATOM     17  H35 <0> d   1      16.815  -1.433   7.832  0.00  0.00     0.315 HD
BRANCH  16  18
ATOM     18  C16 <0> d   1      18.005  -2.160   9.348  0.00  0.00     0.296 C 
BRANCH  18  19
ATOM     19  C17 <0> d   1      17.966  -3.687   9.410  0.00  0.00     0.259 C 
BRANCH  19  20
ATOM     20  N18 <0> d   1      17.123  -4.201   8.322  0.00  0.00    -0.078 N 
ATOM     21  H19 <0> d   1      16.785  -5.120   8.563  0.00  0.00     0.274 HD
ATOM     22  H20 <0> d   1      16.338  -3.581   8.183  0.00  0.00     0.274 HD
ATOM     23  H21 <0> d   1      17.664  -4.253   7.472  0.00  0.00     0.274 HD
ENDBRANCH  19  20
ENDBRANCH  18  19
ENDBRANCH  16  18
ENDBRANCH  15  16
ENDBRANCH  14  15
ENDBRANCH   1  14
TORSDOF 12
ENDMDL
MODEL 4
REMARK VINA RESULT:      -4.1      4.509      7.899
REMARK  12 active torsions:
REMARK  status: ('A' for Active; 'I' for Inactive)
REMARK    1  A    between atoms: N1_1  and  C5_5 
REMARK    2  A    between atoms: C5_5  and  C6_6 
REMARK    3  A    between atoms: C6_6  and  N7_7 
REMARK    4  A    between atoms: N7_7  and  C8_8 
REMARK    5  A    between atoms: C8_8  and  C9_9 
REMARK    6  A    between atoms: C9_9  and  N10_10 
REMARK    7  A    between atoms: N10_10  and  C13_13 
REMARK    8  A    between atoms: C13_13  and  C14_14 
REMARK    9  A    between atoms: C14_14  and  N15_15 
REMARK   10  A    between atoms: N15_15  and  C16_16 
REMARK   11  A    between atoms: C16_16  and  C17_17 
REMARK   12  A    between atoms: C17_17  and  N18_18 
ROOT
ATOM      1  N10 <0> d   1      17.948   0.568  14.847  0.00  0.00    -0.072 N 
ATOM      2  H11 <0> d   1      16.983   0.302  14.981  0.00  0.00     0.277 HD
ATOM      3  H12 <0> d   1      18.063   0.954  13.922  0.00  0.00     0.277 HD
ENDROOT
BRANCH   1   4
ATOM      4  C9  <0> d   1      18.322   1.575  15.848  0.00  0.00     0.262 C 
BRANCH   4   5
ATOM      5  C8  <0> d   1      18.715   2.875  15.143  0.00  0.00     0.297 C 
BRANCH   5   6
ATOM      6  N7  <0> d   1      19.960   3.391  15.727  0.00  0.00     0.086 N 
ATOM      7  H26 <0> d   1      20.682   3.470  15.027  0.00  0.00     0.315 HD
BRANCH   6   8
ATOM      8  C6  <0> d   1      19.733   4.679  16.396  0.00  0.00     0.296 C 
BRANCH   8   9
ATOM      9  C5  <0> d   1      20.484   5.782  15.647  0.00  0.00     0.259 C 
BRANCH   9  10
ATOM     10  N1  <0> d   1      21.926   5.515  15.701  0.00  0.00    -0.078 N 
ATOM     11  H2  <0> d   1      22.321   5.954  16.520  0.00  0.00     0.274 HD
ATOM     12  H3  <0> d   1      22.369   5.888  14.874  0.00  0.00     0.274 HD
ATOM     13  H4  <0> d   1      22.083   4.519  15.745  0.00  0.00     0.274 HD
ENDBRANCH   9  10
ENDBRANCH   8   9
ENDBRANCH   6   8
ENDBRANCH   5   6
ENDBRANCH   4   5
ENDBRANCH   1   4
BRANCH   1  14
ATOM     14  C13 <0> d   1      18.806  -0.614  14.995  0.00  0.00     0.262 C 
BRANCH  14  15
ATOM     15  C14 <0> d   1      19.599  -0.834  13.705  0.00  0.00     0.297 C 
BRANCH  15  16
ATOM     16  N15 <0> d   1      20.579   0.250  13.541  0.00  0.00     0.086 N 
ATOM     17  H35 <0> d   1      20.486   0.935  14.276  0.00  0.00     0.315 HD
BRANCH  16  18
ATOM     18  C16 <0> d   1      20.456   0.875  12.218  0.00  0.00     0.296 C 
BRANCH  18  19
ATOM     19  C17 <0> d   1      20.326  -0.213  11.150  0.00  0.00     0.259 C 
BRANCH  19  20
ATOM     20  N18 <0> d   1      21.663  -0.682  10.764  0.00  0.00    -0.078 N 
ATOM     21  H19 <0> d   1      21.627  -1.669  10.555  0.00  0.00     0.274 HD
ATOM     22  H20 <0> d   1      21.975  -0.177   9.948  0.00  0.00     0.274 HD
ATOM     23  H21 <0> d   1      22.308  -0.523  11.524  0.00  0.00     0.274 HD
ENDBRANCH  19  20
ENDBRANCH  18  19
ENDBRANCH  16  18
ENDBRANCH  15  16
ENDBRANCH  14  15
ENDBRANCH   1  14
TORSDOF 12
ENDMDL
MODEL 5
REMARK VINA RESULT:      -4.0      1.501      5.479
REMARK  12 active torsions:
REMARK  status: ('A' for Active; 'I' for Inactive)
REMARK    1  A    between atoms: N1_1  and  C5_5 
REMARK    2  A    between atoms: C5_5  and  C6_6 
REMARK    3  A    between atoms: C6_6  and  N7_7 
REMARK    4  A    between atoms: N7_7  and  C8_8 
REMARK    5  A    between atoms: C8_8  and  C9_9 
REMARK    6  A    between atoms: C9_9  and  N10_10 
REMARK    7  A    between atoms: N10_10  and  C13_13 
REMARK    8  A    between atoms: C13_13  and  C14_14 
REMARK    9  A    between atoms: C14_14  and  N15_15 
REMARK   10  A    between atoms: N15_15  and  C16_16 
REMARK   11  A    between atoms: C16_16  and  C17_17 
REMARK   12  A    between atoms: C17_17  and  N18_18 
ROOT
ATOM      1  N10 <0> d   1      19.747  -1.703   8.788  0.00  0.00    -0.072 N 
ATOM      2  H11 <0> d   1      19.698  -0.870   8.219  0.00  0.00     0.277 HD
ATOM      3  H12 <0> d   1      20.713  -1.962   8.920  0.00  0.00     0.277 HD
ENDROOT
BRANCH   1   4
ATOM      4  C9  <0> d   1      19.127  -1.440  10.094  0.00  0.00     0.262 C 
BRANCH   4   5
ATOM      5  C8  <0> d   1      19.610  -2.481  11.106  0.00  0.00     0.297 C 
BRANCH   5   6
ATOM      6  N7  <0> d   1      20.016  -1.805  12.346  0.00  0.00     0.086 N 
ATOM      7  H26 <0> d   1      21.016  -1.679  12.378  0.00  0.00     0.315 HD
BRANCH   6   8
ATOM      8  C6  <0> d   1      19.319  -0.521  12.497  0.00  0.00     0.296 C 
BRANCH   8   9
ATOM      9  C5  <0> d   1      20.307   0.541  12.987  0.00  0.00     0.259 C 
BRANCH   9  10
ATOM     10  N1  <0> d   1      21.507   0.520  12.141  0.00  0.00    -0.078 N 
ATOM     11  H2  <0> d   1      21.273   0.148  11.233  0.00  0.00     0.274 HD
ATOM     12  H3  <0> d   1      22.212  -0.060  12.570  0.00  0.00     0.274 HD
ATOM     13  H4  <0> d   1      21.862   1.459  12.037  0.00  0.00     0.274 HD
ENDBRANCH   9  10
ENDBRANCH   8   9
ENDBRANCH   6   8
ENDBRANCH   5   6
ENDBRANCH   4   5
ENDBRANCH   1   4
BRANCH   1  14
ATOM     14  C13 <0> d   1      19.032  -2.797   8.117  0.00  0.00     0.262 C 
BRANCH  14  15
ATOM     15  C14 <0> d   1      18.496  -2.306   6.771  0.00  0.00     0.297 C 
BRANCH  15  16
ATOM     16  N15 <0> d   1      17.491  -1.258   6.996  0.00  0.00     0.086 N 
ATOM     17  H35 <0> d   1      16.565  -1.652   7.062  0.00  0.00     0.315 HD
BRANCH  16  18
ATOM     18  C16 <0> d   1      17.555  -0.233   5.946  0.00  0.00     0.296 C 
BRANCH  18  19
ATOM     19  C17 <0> d   1      18.882   0.519   6.047  0.00  0.00     0.259 C 
BRANCH  19  20
ATOM     20  N18 <0> d   1      19.597   0.428   4.768  0.00  0.00    -0.078 N 
ATOM     21  H19 <0> d   1      20.437  -0.117   4.890  0.00  0.00     0.274 HD
ATOM     22  H20 <0> d   1      19.005  -0.017   4.082  0.00  0.00     0.274 HD
ATOM     23  H21 <0> d   1      19.840   1.354   4.451  0.00  0.00     0.274 HD
ENDBRANCH  19  20
ENDBRANCH  18  19
ENDBRANCH  16  18
ENDBRANCH  15  16
ENDBRANCH  14  15
ENDBRANCH   1  14
TORSDOF 12
ENDMDL
MODEL 6
REMARK VINA RESULT:      -4.0      1.482      5.138
REMARK  12 active torsions:
REMARK  status: ('A' for Active; 'I' for Inactive)
REMARK    1  A    between atoms: N1_1  and  C5_5 
REMARK    2  A    between atoms: C5_5  and  C6_6 
REMARK    3  A    between atoms: C6_6  and  N7_7 
REMARK    4  A    between atoms: N7_7  and  C8_8 
REMARK    5  A    between atoms: C8_8  and  C9_9 
REMARK    6  A    between atoms: C9_9  and  N10_10 
REMARK    7  A    between atoms: N10_10  and  C13_13 
REMARK    8  A    between atoms: C13_13  and  C14_14 
REMARK    9  A    between atoms: C14_14  and  N15_15 
REMARK   10  A    between atoms: N15_15  and  C16_16 
REMARK   11  A    between atoms: C16_16  and  C17_17 
REMARK   12  A    between atoms: C17_17  and  N18_18 
ROOT
ATOM      1  N10 <0> d   1      18.454  -4.235  10.389  0.00  0.00    -0.072 N 
ATOM      2  H11 <0> d   1      19.446  -4.421  10.351  0.00  0.00     0.277 HD
ATOM      3  H12 <0> d   1      17.996  -4.961  10.919  0.00  0.00     0.277 HD
ENDROOT
BRANCH   1   4
ATOM      4  C9  <0> d   1      18.224  -2.936  11.036  0.00  0.00     0.262 C 
BRANCH   4   5
ATOM      5  C8  <0> d   1      19.400  -2.611  11.960  0.00  0.00     0.297 C 
BRANCH   5   6
ATOM      6  N7  <0> d   1      20.530  -2.120  11.160  0.00  0.00     0.086 N 
ATOM      7  H26 <0> d   1      20.708  -2.728  10.374  0.00  0.00     0.315 HD
BRANCH   6   8
ATOM      8  C6  <0> d   1      20.298  -0.739  10.716  0.00  0.00     0.296 C 
BRANCH   8   9
ATOM      9  C5  <0> d   1      20.236   0.184  11.935  0.00  0.00     0.259 C 
BRANCH   9  10
ATOM     10  N1  <0> d   1      21.586   0.671  12.249  0.00  0.00    -0.078 N 
ATOM     11  H2  <0> d   1      22.240   0.312  11.570  0.00  0.00     0.274 HD
ATOM     12  H3  <0> d   1      21.852   0.356  13.170  0.00  0.00     0.274 HD
ATOM     13  H4  <0> d   1      21.594   1.680  12.223  0.00  0.00     0.274 HD
ENDBRANCH   9  10
ENDBRANCH   8   9
ENDBRANCH   6   8
ENDBRANCH   5   6
ENDBRANCH   4   5
ENDBRANCH   1   4
BRANCH   1  14
ATOM     14  C13 <0> d   1      17.909  -4.206   9.026  0.00  0.00     0.262 C 
BRANCH  14  15
ATOM     15  C14 <0> d   1      18.433  -2.970   8.292  0.00  0.00     0.297 C 
BRANCH  15  16
ATOM     16  N15 <0> d   1      19.751  -3.266   7.713  0.00  0.00     0.086 N 
ATOM     17  H35 <0> d   1      20.414  -2.537   7.930  0.00  0.00     0.315 HD
BRANCH  16  18
ATOM     18  C16 <0> d   1      19.654  -3.475   6.262  0.00  0.00     0.296 C 
BRANCH  18  19
ATOM     19  C17 <0> d   1      18.769  -2.389   5.649  0.00  0.00     0.259 C 
BRANCH  19  20
ATOM     20  N18 <0> d   1      19.073  -2.259   4.218  0.00  0.00    -0.078 N 
ATOM     21  H19 <0> d   1      20.023  -2.552   4.048  0.00  0.00     0.274 HD
ATOM     22  H20 <0> d   1      18.442  -2.840   3.686  0.00  0.00     0.274 HD
ATOM     23  H21 <0> d   1      18.962  -1.297   3.936  0.00  0.00     0.274 HD
ENDBRANCH  19  20
ENDBRANCH  18  19
ENDBRANCH  16  18
ENDBRANCH  15  16
ENDBRANCH  14  15
ENDBRANCH   1  14
TORSDOF 12
ENDMDL
MODEL 7
REMARK VINA RESULT:      -4.0      4.799      8.739
REMARK  12 active torsions:
REMARK  status: ('A' for Active; 'I' for Inactive)
REMARK    1  A    between atoms: N1_1  and  C5_5 
REMARK    2  A    between atoms: C5_5  and  C6_6 
REMARK    3  A    between atoms: C6_6  and  N7_7 
REMARK    4  A    between atoms: N7_7  and  C8_8 
REMARK    5  A    between atoms: C8_8  and  C9_9 
REMARK    6  A    between atoms: C9_9  and  N10_10 
REMARK    7  A    between atoms: N10_10  and  C13_13 
REMARK    8  A    between atoms: C13_13  and  C14_14 
REMARK    9  A    between atoms: C14_14  and  N15_15 
REMARK   10  A    between atoms: N15_15  and  C16_16 
REMARK   11  A    between atoms: C16_16  and  C17_17 
REMARK   12  A    between atoms: C17_17  and  N18_18 
ROOT
ATOM      1  N10 <0> d   1      19.442   3.122  14.152  0.00  0.00    -0.072 N 
ATOM      2  H11 <0> d   1      19.948   3.584  14.894  0.00  0.00     0.277 HD
ATOM      3  H12 <0> d   1      20.048   2.454  13.699  0.00  0.00     0.277 HD
ENDROOT
BRANCH   1   4
ATOM      4  C9  <0> d   1      18.278   2.425  14.713  0.00  0.00     0.262 C 
BRANCH   4   5
ATOM      5  C8  <0> d   1      18.750   1.342  15.685  0.00  0.00     0.297 C 
BRANCH   5   6
ATOM      6  N7  <0> d   1      17.593   0.784  16.397  0.00  0.00     0.086 N 
ATOM      7  H26 <0> d   1      17.479  -0.196  16.190  0.00  0.00     0.315 HD
BRANCH   6   8
ATOM      8  C6  <0> d   1      17.708   1.007  17.844  0.00  0.00     0.296 C 
BRANCH   8   9
ATOM      9  C5  <0> d   1      19.155   1.369  18.190  0.00  0.00     0.259 C 
BRANCH   9  10
ATOM     10  N1  <0> d   1      19.168   2.556  19.054  0.00  0.00    -0.078 N 
ATOM     11  H2  <0> d   1      18.919   2.291  19.996  0.00  0.00     0.274 HD
ATOM     12  H3  <0> d   1      18.504   3.232  18.709  0.00  0.00     0.274 HD
ATOM     13  H4  <0> d   1      20.092   2.963  19.054  0.00  0.00     0.274 HD
ENDBRANCH   9  10
ENDBRANCH   8   9
ENDBRANCH   6   8
ENDBRANCH   5   6
ENDBRANCH   4   5
ENDBRANCH   1   4
BRANCH   1  14
ATOM     14  C13 <0> d   1      18.992   4.119  13.173  0.00  0.00     0.262 C 
BRANCH  14  15
ATOM     15  C14 <0> d   1      19.388   3.667  11.765  0.00  0.00     0.297 C 
BRANCH  15  16
ATOM     16  N15 <0> d   1      20.419   2.624  11.858  0.00  0.00     0.086 N 
ATOM     17  H35 <0> d   1      21.273   2.919  11.408  0.00  0.00     0.315 HD
BRANCH  16  18
ATOM     18  C16 <0> d   1      19.937   1.356  11.296  0.00  0.00     0.296 C 
BRANCH  18  19
ATOM     19  C17 <0> d   1      20.655   0.191  11.978  0.00  0.00     0.259 C 
BRANCH  19  20
ATOM     20  N18 <0> d   1      21.509  -0.498  11.001  0.00  0.00    -0.078 N 
ATOM     21  H19 <0> d   1      22.287  -0.928  11.479  0.00  0.00     0.274 HD
ATOM     22  H20 <0> d   1      20.972  -1.209  10.527  0.00  0.00     0.274 HD
ATOM     23  H21 <0> d   1      21.854   0.168  10.327  0.00  0.00     0.274 HD
ENDBRANCH  19  20
ENDBRANCH  18  19
ENDBRANCH  16  18
ENDBRANCH  15  16
ENDBRANCH  14  15
ENDBRANCH   1  14
TORSDOF 12
ENDMDL
MODEL 8
REMARK VINA RESULT:      -3.9      5.028      8.081
REMARK  12 active torsions:
REMARK  status: ('A' for Active; 'I' for Inactive)
REMARK    1  A    between atoms: N1_1  and  C5_5 
REMARK    2  A    between atoms: C5_5  and  C6_6 
REMARK    3  A    between atoms: C6_6  and  N7_7 
REMARK    4  A    between atoms: N7_7  and  C8_8 
REMARK    5  A    between atoms: C8_8  and  C9_9 
REMARK    6  A    between atoms: C9_9  and  N10_10 
REMARK    7  A    between atoms: N10_10  and  C13_13 
REMARK    8  A    between atoms: C13_13  and  C14_14 
REMARK    9  A    between atoms: C14_14  and  N15_15 
REMARK   10  A    between atoms: N15_15  and  C16_16 
REMARK   11  A    between atoms: C16_16  and  C17_17 
REMARK   12  A    between atoms: C17_17  and  N18_18 
ROOT
ATOM      1  N10 <0> d   1      20.239   4.870  13.225  0.00  0.00    -0.072 N 
ATOM      2  H11 <0> d   1      20.751   4.062  13.547  0.00  0.00     0.277 HD
ATOM      3  H12 <0> d   1      20.876   5.516  12.782  0.00  0.00     0.277 HD
ENDROOT
BRANCH   1   4
ATOM      4  C9  <0> d   1      19.218   4.449  12.257  0.00  0.00     0.262 C 
BRANCH   4   5
ATOM      5  C8  <0> d   1      18.270   3.446  12.919  0.00  0.00     0.297 C 
BRANCH   5   6
ATOM      6  N7  <0> d   1      18.393   2.143  12.254  0.00  0.00     0.086 N 
ATOM      7  H26 <0> d   1      18.632   2.255  11.280  0.00  0.00     0.315 HD
BRANCH   6   8
ATOM      8  C6  <0> d   1      19.373   1.292  12.942  0.00  0.00     0.296 C 
BRANCH   8   9
ATOM      9  C5  <0> d   1      20.175   0.498  11.907  0.00  0.00     0.259 C 
BRANCH   9  10
ATOM     10  N1  <0> d   1      21.610   0.645  12.183  0.00  0.00    -0.078 N 
ATOM     11  H2  <0> d   1      21.834   1.623  12.291  0.00  0.00     0.274 HD
ATOM     12  H3  <0> d   1      22.141   0.261  11.415  0.00  0.00     0.274 HD
ATOM     13  H4  <0> d   1      21.842   0.152  13.032  0.00  0.00     0.274 HD
ENDBRANCH   9  10
ENDBRANCH   8   9
ENDBRANCH   6   8
ENDBRANCH   5   6
ENDBRANCH   4   5
ENDBRANCH   1   4
BRANCH   1  14
ATOM     14  C13 <0> d   1      19.591   5.527  14.367  0.00  0.00     0.262 C 
BRANCH  14  15
ATOM     15  C14 <0> d   1      20.629   5.792  15.460  0.00  0.00     0.297 C 
BRANCH  15  16
ATOM     16  N15 <0> d   1      20.718   4.623  16.345  0.00  0.00     0.086 N 
ATOM     17  H35 <0> d   1      21.263   3.888  15.920  0.00  0.00     0.315 HD
BRANCH  16  18
ATOM     18  C16 <0> d   1      19.381   4.141  16.717  0.00  0.00     0.296 C 
BRANCH  18  19
ATOM     19  C17 <0> d   1      19.346   2.615  16.626  0.00  0.00     0.259 C 
BRANCH  19  20
ATOM     20  N18 <0> d   1      18.005   2.179  16.214  0.00  0.00    -0.078 N 
ATOM     21  H19 <0> d   1      17.553   2.921  15.702  0.00  0.00     0.274 HD
ATOM     22  H20 <0> d   1      18.083   1.363  15.625  0.00  0.00     0.274 HD
ATOM     23  H21 <0> d   1      17.459   1.953  17.032  0.00  0.00     0.274 HD
ENDBRANCH  19  20
ENDBRANCH  18  19
ENDBRANCH  16  18
ENDBRANCH  15  16
ENDBRANCH  14  15
ENDBRANCH   1  14
TORSDOF 12
ENDMDL
MODEL 9
REMARK VINA RESULT:      -3.9      2.327      2.561
REMARK  12 active torsions:
REMARK  status: ('A' for Active; 'I' for Inactive)
REMARK    1  A    between atoms: N1_1  and  C5_5 
REMARK    2  A    between atoms: C5_5  and  C6_6 
REMARK    3  A    between atoms: C6_6  and  N7_7 
REMARK    4  A    between atoms: N7_7  and  C8_8 
REMARK    5  A    between atoms: C8_8  and  C9_9 
REMARK    6  A    between atoms: C9_9  and  N10_10 
REMARK    7  A    between atoms: N10_10  and  C13_13 
REMARK    8  A    between atoms: C13_13  and  C14_14 
REMARK    9  A    between atoms: C14_14  and  N15_15 
REMARK   10  A    between atoms: N15_15  and  C16_16 
REMARK   11  A    between atoms: C16_16  and  C17_17 
REMARK   12  A    between atoms: C17_17  and  N18_18 
ROOT
ATOM      1  N10 <0> d   1      18.604  -4.797  11.380  0.00  0.00    -0.072 N 
ATOM      2  H11 <0> d   1      17.895  -4.143  11.680  0.00  0.00     0.277 HD
ATOM      3  H12 <0> d   1      18.618  -5.587  12.007  0.00  0.00     0.277 HD
ENDROOT
BRANCH   1   4
ATOM      4  C9  <0> d   1      18.303  -5.257  10.018  0.00  0.00     0.262 C 
BRANCH   4   5
ATOM      5  C8  <0> d   1      17.275  -4.320   9.379  0.00  0.00     0.297 C 
BRANCH   5   6
ATOM      6  N7  <0> d   1      17.600  -4.135   7.958  0.00  0.00     0.086 N 
ATOM      7  H26 <0> d   1      18.068  -3.255   7.806  0.00  0.00     0.315 HD
BRANCH   6   8
ATOM      8  C6  <0> d   1      18.406  -5.254   7.453  0.00  0.00     0.296 C 
BRANCH   8   9
ATOM      9  C5  <0> d   1      19.540  -4.712   6.579  0.00  0.00     0.259 C 
BRANCH   9  10
ATOM     10  N1  <0> d   1      20.030  -3.449   7.143  0.00  0.00    -0.078 N 
ATOM     11  H2  <0> d   1      19.251  -2.832   7.318  0.00  0.00     0.274 HD
ATOM     12  H3  <0> d   1      20.665  -3.012   6.491  0.00  0.00     0.274 HD
ATOM     13  H4  <0> d   1      20.514  -3.632   8.010  0.00  0.00     0.274 HD
ENDBRANCH   9  10
ENDBRANCH   8   9
ENDBRANCH   6   8
ENDBRANCH   5   6
ENDBRANCH   4   5
ENDBRANCH   1   4
BRANCH   1  14
ATOM     14  C13 <0> d   1      19.916  -4.136  11.396  0.00  0.00     0.262 C 
BRANCH  14  15
ATOM     15  C14 <0> d   1      19.741  -2.662  11.768  0.00  0.00     0.297 C 
BRANCH  15  16
ATOM     16  N15 <0> d   1      20.720  -1.852  11.031  0.00  0.00     0.086 N 
ATOM     17  H35 <0> d   1      21.545  -1.688  11.588  0.00  0.00     0.315 HD
BRANCH  16  18
ATOM     18  C16 <0> d   1      20.125  -0.585  10.584  0.00  0.00     0.296 C 
BRANCH  18  19
ATOM     19  C17 <0> d   1      20.186   0.436  11.721  0.00  0.00     0.259 C 
BRANCH  19  20
ATOM     20  N18 <0> d   1      21.572   0.566  12.189  0.00  0.00    -0.078 N 
ATOM     21  H19 <0> d   1      21.824  -0.250  12.726  0.00  0.00     0.274 HD
ATOM     22  H20 <0> d   1      22.189   0.650  11.395  0.00  0.00     0.274 HD
ATOM     23  H21 <0> d   1      21.655   1.389  12.768  0.00  0.00     0.274 HD
ENDBRANCH  19  20
ENDBRANCH  18  19
ENDBRANCH  16  18
ENDBRANCH  15  16
ENDBRANCH  14  15
ENDBRANCH   1  14
TORSDOF 12
ENDMDL
