MODEL 1
REMARK VINA RESULT:      -7.7      0.000      0.000
REMARK  5 active torsions:
REMARK  status: ('A' for Active; 'I' for Inactive)
REMARK    1  A    between atoms: C2_2  and  C3_3 
REMARK    2  A    between atoms: C3_3  and  C4_4 
REMARK    3  A    between atoms: C4_4  and  N5_5 
REMARK    4  A    between atoms: C11_11  and  C13_12 
REMARK       I    between atoms: C13_12  and  N15_14 
REMARK    5  A    between atoms: N15_14  and  C16_15 
ROOT
ATOM      1  C13 ZIN A   1      18.976   1.639  12.625  0.00  0.00     0.253 C 
ATOM      2  O14 ZIN A   1      17.772   1.532  12.725  0.00  0.00    -0.271 OA
ATOM      3  N15 ZIN A   1      19.776   1.198  13.616  0.00  0.00    -0.324 N 
ATOM      4  H41 ZIN A   1      20.736   1.324  13.557  0.00  0.00     0.169 HD
ENDROOT
BRANCH   1   5
ATOM      5  C11 ZIN A   1      19.577   2.266  11.393  0.00  0.00     0.279 C 
ATOM      6  N5  ZIN A   1      18.521   2.521  10.407  0.00  0.00    -0.058 N 
ATOM      7  H6  ZIN A   1      18.917   2.987   9.604  0.00  0.00     0.280 HD
ATOM      8  C7  ZIN A   1      17.483   3.373  11.001  0.00  0.00     0.236 C 
ATOM      9  C8  ZIN A   1      18.080   4.734  11.367  0.00  0.00     0.028 C 
ATOM     10  C9  ZIN A   1      19.216   4.532  12.374  0.00  0.00     0.004 C 
ATOM     11  C10 ZIN A   1      20.257   3.584  11.772  0.00  0.00     0.043 C 
BRANCH   6  12
ATOM     12  C4  ZIN A   1      17.925   1.246   9.988  0.00  0.00     0.236 C 
BRANCH  12  13
ATOM     13  C3  ZIN A   1      18.822   0.586   8.938  0.00  0.00     0.027 C 
BRANCH  13  14
ATOM     14  C2  ZIN A   1      19.184   1.609   7.860  0.00  0.00    -0.003 C 
ATOM     15  C1  ZIN A   1      18.773   1.070   6.487  0.00  0.00     0.005 C 
ENDBRANCH  13  14
ENDBRANCH  12  13
ENDBRANCH   6  12
ENDBRANCH   1   5
BRANCH   3  16
ATOM     16  C16 ZIN A   1      19.221   0.559  14.730  0.00  0.00     0.046 A 
ATOM     17  C22 ZIN A   1      18.909   1.290  15.868  0.00  0.00    -0.035 A 
ATOM     18  C21 ZIN A   1      18.355   0.656  16.964  0.00  0.00     0.009 A 
ATOM     19  C23 ZIN A   1      19.163   2.775  15.903  0.00  0.00     0.050 C 
ATOM     20  C20 ZIN A   1      18.121  -0.706  16.932  0.00  0.00     0.001 A 
ATOM     21  C19 ZIN A   1      18.437  -1.438  15.802  0.00  0.00     0.009 A 
ATOM     22  C17 ZIN A   1      18.986  -0.810  14.701  0.00  0.00    -0.035 A 
ATOM     23  C18 ZIN A   1      19.329  -1.609  13.469  0.00  0.00     0.050 C 
ENDBRANCH   3  16
TORSDOF 5
ENDMDL
MODEL 2
REMARK VINA RESULT:      -7.7      0.045      1.870
REMARK  5 active torsions:
REMARK  status: ('A' for Active; 'I' for Inactive)
REMARK    1  A    between atoms: C2_2  and  C3_3 
REMARK    2  A    between atoms: C3_3  and  C4_4 
REMARK    3  A    between atoms: C4_4  and  N5_5 
REMARK    4  A    between atoms: C11_11  and  C13_12 
REMARK       I    between atoms: C13_12  and  N15_14 
REMARK    5  A    between atoms: N15_14  and  C16_15 
ROOT
ATOM      1  C13 ZIN A   1      18.962   1.646  12.657  0.00  0.00     0.253 C 
ATOM      2  O14 ZIN A   1      17.756   1.564  12.762  0.00  0.00    -0.271 OA
ATOM      3  N15 ZIN A   1      19.756   1.187  13.645  0.00  0.00    -0.324 N 
ATOM      4  H41 ZIN A   1      20.719   1.293  13.582  0.00  0.00     0.169 HD
ENDROOT
BRANCH   1   5
ATOM      5  C11 ZIN A   1      19.571   2.260  11.423  0.00  0.00     0.279 C 
ATOM      6  N5  ZIN A   1      18.518   2.524  10.436  0.00  0.00    -0.058 N 
ATOM      7  H6  ZIN A   1      18.920   2.981   9.631  0.00  0.00     0.280 HD
ATOM      8  C7  ZIN A   1      17.490   3.390  11.026  0.00  0.00     0.236 C 
ATOM      9  C8  ZIN A   1      18.104   4.745  11.386  0.00  0.00     0.028 C 
ATOM     10  C9  ZIN A   1      19.237   4.534  12.394  0.00  0.00     0.004 C 
ATOM     11  C10 ZIN A   1      20.266   3.571  11.797  0.00  0.00     0.043 C 
BRANCH   6  12
ATOM     12  C4  ZIN A   1      17.907   1.254  10.021  0.00  0.00     0.236 C 
BRANCH  12  13
ATOM     13  C3  ZIN A   1      18.784   0.590   8.958  0.00  0.00     0.027 C 
BRANCH  13  14
ATOM     14  C2  ZIN A   1      19.183   1.626   7.905  0.00  0.00    -0.003 C 
ATOM     15  C1  ZIN A   1      18.798   1.115   6.515  0.00  0.00     0.005 C 
ENDBRANCH  13  14
ENDBRANCH  12  13
ENDBRANCH   6  12
ENDBRANCH   1   5
BRANCH   3  16
ATOM     16  C16 ZIN A   1      19.193   0.559  14.761  0.00  0.00     0.046 A 
ATOM     17  C22 ZIN A   1      18.941  -0.806  14.738  0.00  0.00    -0.035 A 
ATOM     18  C21 ZIN A   1      18.391  -1.424  15.845  0.00  0.00     0.009 A 
ATOM     19  C23 ZIN A   1      19.280  -1.615  13.513  0.00  0.00     0.050 C 
ATOM     20  C20 ZIN A   1      18.080  -0.682  16.970  0.00  0.00     0.001 A 
ATOM     21  C19 ZIN A   1      18.324   0.679  16.993  0.00  0.00     0.009 A 
ATOM     22  C17 ZIN A   1      18.879   1.302  15.892  0.00  0.00    -0.035 A 
ATOM     23  C18 ZIN A   1      19.145   2.785  15.918  0.00  0.00     0.050 C 
ENDBRANCH   3  16
TORSDOF 5
ENDMDL
MODEL 3
REMARK VINA RESULT:      -7.6      2.792      7.495
REMARK  5 active torsions:
REMARK  status: ('A' for Active; 'I' for Inactive)
REMARK    1  A    between atoms: C2_2  and  C3_3 
REMARK    2  A    between atoms: C3_3  and  C4_4 
REMARK    3  A    between atoms: C4_4  and  N5_5 
REMARK    4  A    between atoms: C11_11  and  C13_12 
REMARK       I    between atoms: C13_12  and  N15_14 
REMARK    5  A    between atoms: N15_14  and  C16_15 
ROOT
ATOM      1  C13 ZIN A   1      18.978  -1.743  10.139  0.00  0.00     0.253 C 
ATOM      2  O14 ZIN A   1      17.790  -1.739   9.890  0.00  0.00    -0.271 OA
ATOM      3  N15 ZIN A   1      19.861  -1.310   9.218  0.00  0.00    -0.324 N 
ATOM      4  H41 ZIN A   1      20.813  -1.356   9.399  0.00  0.00     0.169 HD
ENDROOT
BRANCH   1   5
ATOM      5  C11 ZIN A   1      19.465  -2.233  11.479  0.00  0.00     0.279 C 
ATOM      6  N5  ZIN A   1      18.316  -2.487  12.355  0.00  0.00    -0.058 N 
ATOM      7  H6  ZIN A   1      18.641  -2.863  13.234  0.00  0.00     0.280 HD
ATOM      8  C7  ZIN A   1      17.409  -3.451  11.719  0.00  0.00     0.236 C 
ATOM      9  C8  ZIN A   1      18.128  -4.790  11.537  0.00  0.00     0.028 C 
ATOM     10  C9  ZIN A   1      19.361  -4.586  10.653  0.00  0.00     0.004 C 
ATOM     11  C10 ZIN A   1      20.263  -3.525  11.289  0.00  0.00     0.043 C 
BRANCH   6  12
ATOM     12  C4  ZIN A   1      17.598  -1.229  12.598  0.00  0.00     0.236 C 
BRANCH  12  13
ATOM     13  C3  ZIN A   1      18.347  -0.410  13.651  0.00  0.00     0.027 C 
BRANCH  13  14
ATOM     14  C2  ZIN A   1      18.584  -1.271  14.893  0.00  0.00    -0.003 C 
ATOM     15  C1  ZIN A   1      17.685  -0.785  16.032  0.00  0.00     0.005 C 
ENDBRANCH  13  14
ENDBRANCH  12  13
ENDBRANCH   6  12
ENDBRANCH   1   5
BRANCH   3  16
ATOM     16  C16 ZIN A   1      19.404  -0.797   7.999  0.00  0.00     0.046 A 
ATOM     17  C22 ZIN A   1      19.119   0.557   7.878  0.00  0.00    -0.035 A 
ATOM     18  C21 ZIN A   1      18.675   1.062   6.670  0.00  0.00     0.009 A 
ATOM     19  C23 ZIN A   1      19.307   1.475   9.057  0.00  0.00     0.050 C 
ATOM     20  C20 ZIN A   1      18.504   0.219   5.588  0.00  0.00     0.001 A 
ATOM     21  C19 ZIN A   1      18.781  -1.130   5.707  0.00  0.00     0.009 A 
ATOM     22  C17 ZIN A   1      19.231  -1.641   6.909  0.00  0.00    -0.035 A 
ATOM     23  C18 ZIN A   1      19.533  -3.112   7.039  0.00  0.00     0.050 C 
ENDBRANCH   3  16
TORSDOF 5
ENDMDL
MODEL 4
REMARK VINA RESULT:      -7.6      2.788      7.721
REMARK  5 active torsions:
REMARK  status: ('A' for Active; 'I' for Inactive)
REMARK    1  A    between atoms: C2_2  and  C3_3 
REMARK    2  A    between atoms: C3_3  and  C4_4 
REMARK    3  A    between atoms: C4_4  and  N5_5 
REMARK    4  A    between atoms: C11_11  and  C13_12 
REMARK       I    between atoms: C13_12  and  N15_14 
REMARK    5  A    between atoms: N15_14  and  C16_15 
ROOT
ATOM      1  C13 ZIN A   1      18.966  -1.739  10.138  0.00  0.00     0.253 C 
ATOM      2  O14 ZIN A   1      17.778  -1.728   9.891  0.00  0.00    -0.271 OA
ATOM      3  N15 ZIN A   1      19.849  -1.307   9.216  0.00  0.00    -0.324 N 
ATOM      4  H41 ZIN A   1      20.801  -1.358   9.394  0.00  0.00     0.169 HD
ENDROOT
BRANCH   1   5
ATOM      5  C11 ZIN A   1      19.454  -2.237  11.474  0.00  0.00     0.279 C 
ATOM      6  N5  ZIN A   1      18.305  -2.487  12.353  0.00  0.00    -0.058 N 
ATOM      7  H6  ZIN A   1      18.631  -2.868  13.229  0.00  0.00     0.280 HD
ATOM      8  C7  ZIN A   1      17.392  -3.443  11.715  0.00  0.00     0.236 C 
ATOM      9  C8  ZIN A   1      18.102  -4.786  11.526  0.00  0.00     0.028 C 
ATOM     10  C9  ZIN A   1      19.334  -4.586  10.640  0.00  0.00     0.004 C 
ATOM     11  C10 ZIN A   1      20.244  -3.533  11.277  0.00  0.00     0.043 C 
BRANCH   6  12
ATOM     12  C4  ZIN A   1      17.596  -1.226  12.602  0.00  0.00     0.236 C 
BRANCH  12  13
ATOM     13  C3  ZIN A   1      18.354  -0.415  13.655  0.00  0.00     0.027 C 
BRANCH  13  14
ATOM     14  C2  ZIN A   1      18.610  -1.288  14.885  0.00  0.00    -0.003 C 
ATOM     15  C1  ZIN A   1      17.725  -0.816  16.040  0.00  0.00     0.005 C 
ENDBRANCH  13  14
ENDBRANCH  12  13
ENDBRANCH   6  12
ENDBRANCH   1   5
BRANCH   3  16
ATOM     16  C16 ZIN A   1      19.392  -0.786   8.000  0.00  0.00     0.046 A 
ATOM     17  C22 ZIN A   1      19.219  -1.622   6.905  0.00  0.00    -0.035 A 
ATOM     18  C21 ZIN A   1      18.761  -1.105   5.709  0.00  0.00     0.009 A 
ATOM     19  C23 ZIN A   1      19.518  -3.094   7.027  0.00  0.00     0.050 C 
ATOM     20  C20 ZIN A   1      18.486   0.245   5.597  0.00  0.00     0.001 A 
ATOM     21  C19 ZIN A   1      18.664   1.082   6.684  0.00  0.00     0.009 A 
ATOM     22  C17 ZIN A   1      19.115   0.571   7.885  0.00  0.00    -0.035 A 
ATOM     23  C18 ZIN A   1      19.308   1.483   9.069  0.00  0.00     0.050 C 
ENDBRANCH   3  16
TORSDOF 5
ENDMDL
MODEL 5
REMARK VINA RESULT:      -7.2      1.670      3.492
REMARK  5 active torsions:
REMARK  status: ('A' for Active; 'I' for Inactive)
REMARK    1  A    between atoms: C2_2  and  C3_3 
REMARK    2  A    between atoms: C3_3  and  C4_4 
REMARK    3  A    between atoms: C4_4  and  N5_5 
REMARK    4  A    between atoms: C11_11  and  C13_12 
REMARK       I    between atoms: C13_12  and  N15_14 
REMARK    5  A    between atoms: N15_14  and  C16_15 
ROOT
ATOM      1  C13 ZIN A   1      17.386   0.468  11.315  0.00  0.00     0.253 C 
ATOM      2  O14 ZIN A   1      16.324   0.079  11.755  0.00  0.00    -0.271 OA
ATOM      3  N15 ZIN A   1      18.457   0.564  12.128  0.00  0.00    -0.324 N 
ATOM      4  H41 ZIN A   1      19.294   0.918  11.789  0.00  0.00     0.169 HD
ENDROOT
BRANCH   1   5
ATOM      5  C11 ZIN A   1      17.507   0.844   9.861  0.00  0.00     0.279 C 
ATOM      6  N5  ZIN A   1      18.885   1.262   9.576  0.00  0.00    -0.058 N 
ATOM      7  H6  ZIN A   1      18.977   1.465   8.592  0.00  0.00     0.280 HD
ATOM      8  C7  ZIN A   1      19.816   0.186   9.941  0.00  0.00     0.236 C 
ATOM      9  C8  ZIN A   1      19.542  -1.046   9.076  0.00  0.00     0.028 C 
ATOM     10  C9  ZIN A   1      18.103  -1.514   9.304  0.00  0.00     0.004 C 
ATOM     11  C10 ZIN A   1      17.145  -0.362   8.991  0.00  0.00     0.043 C 
BRANCH   6  12
ATOM     12  C4  ZIN A   1      19.201   2.466  10.355  0.00  0.00     0.236 C 
BRANCH  12  13
ATOM     13  C3  ZIN A   1      18.266   3.603   9.938  0.00  0.00     0.027 C 
BRANCH  13  14
ATOM     14  C2  ZIN A   1      18.129   4.600  11.091  0.00  0.00    -0.003 C 
ATOM     15  C1  ZIN A   1      16.652   4.943  11.297  0.00  0.00     0.005 C 
ENDBRANCH  13  14
ENDBRANCH  12  13
ENDBRANCH   6  12
ENDBRANCH   1   5
BRANCH   3  16
ATOM     16  C16 ZIN A   1      18.360   0.155  13.463  0.00  0.00     0.046 A 
ATOM     17  C22 ZIN A   1      18.061   1.079  14.454  0.00  0.00    -0.035 A 
ATOM     18  C21 ZIN A   1      17.959   0.670  15.770  0.00  0.00     0.009 A 
ATOM     19  C23 ZIN A   1      17.833   2.524  14.093  0.00  0.00     0.050 C 
ATOM     20  C20 ZIN A   1      18.167  -0.656  16.102  0.00  0.00     0.001 A 
ATOM     21  C19 ZIN A   1      18.473  -1.578  15.117  0.00  0.00     0.009 A 
ATOM     22  C17 ZIN A   1      18.570  -1.177  13.799  0.00  0.00    -0.035 A 
ATOM     23  C18 ZIN A   1      18.902  -2.182  12.726  0.00  0.00     0.050 C 
ENDBRANCH   3  16
TORSDOF 5
ENDMDL
MODEL 6
REMARK VINA RESULT:      -7.2      1.696      5.953
REMARK  5 active torsions:
REMARK  status: ('A' for Active; 'I' for Inactive)
REMARK    1  A    between atoms: C2_2  and  C3_3 
REMARK    2  A    between atoms: C3_3  and  C4_4 
REMARK    3  A    between atoms: C4_4  and  N5_5 
REMARK    4  A    between atoms: C11_11  and  C13_12 
REMARK       I    between atoms: C13_12  and  N15_14 
REMARK    5  A    between atoms: N15_14  and  C16_15 
ROOT
ATOM      1  C13 ZIN A   1      19.313   1.167  12.308  0.00  0.00     0.253 C 
ATOM      2  O14 ZIN A   1      18.149   0.828  12.340  0.00  0.00    -0.271 OA
ATOM      3  N15 ZIN A   1      19.632   2.467  12.144  0.00  0.00    -0.324 N 
ATOM      4  H41 ZIN A   1      20.562   2.733  12.074  0.00  0.00     0.169 HD
ENDROOT
BRANCH   1   5
ATOM      5  C11 ZIN A   1      20.403   0.136  12.453  0.00  0.00     0.279 C 
ATOM      6  N5  ZIN A   1      19.909  -0.991  13.252  0.00  0.00    -0.058 N 
ATOM      7  H6  ZIN A   1      20.623  -1.703  13.305  0.00  0.00     0.280 HD
ATOM      8  C7  ZIN A   1      18.706  -1.553  12.626  0.00  0.00     0.236 C 
ATOM      9  C8  ZIN A   1      19.058  -2.114  11.246  0.00  0.00     0.028 C 
ATOM     10  C9  ZIN A   1      19.613  -0.988  10.370  0.00  0.00     0.004 C 
ATOM     11  C10 ZIN A   1      20.823  -0.360  11.067  0.00  0.00     0.043 C 
BRANCH   6  12
ATOM     12  C4  ZIN A   1      19.583  -0.525  14.606  0.00  0.00     0.236 C 
BRANCH  12  13
ATOM     13  C3  ZIN A   1      18.452  -1.380  15.181  0.00  0.00     0.027 C 
BRANCH  13  14
ATOM     14  C2  ZIN A   1      18.278  -1.063  16.668  0.00  0.00    -0.003 C 
ATOM     15  C1  ZIN A   1      16.977  -0.285  16.875  0.00  0.00     0.005 C 
ENDBRANCH  13  14
ENDBRANCH  12  13
ENDBRANCH   6  12
ENDBRANCH   1   5
BRANCH   3  16
ATOM     16  C16 ZIN A   1      18.620   3.431  12.074  0.00  0.00     0.046 A 
ATOM     17  C22 ZIN A   1      18.065   3.769  10.847  0.00  0.00    -0.035 A 
ATOM     18  C21 ZIN A   1      17.061   4.716  10.783  0.00  0.00     0.009 A 
ATOM     19  C23 ZIN A   1      18.547   3.093   9.590  0.00  0.00     0.050 C 
ATOM     20  C20 ZIN A   1      16.618   5.336  11.937  0.00  0.00     0.001 A 
ATOM     21  C19 ZIN A   1      17.174   5.006  13.159  0.00  0.00     0.009 A 
ATOM     22  C17 ZIN A   1      18.173   4.056  13.232  0.00  0.00    -0.035 A 
ATOM     23  C18 ZIN A   1      18.778   3.696  14.565  0.00  0.00     0.050 C 
ENDBRANCH   3  16
TORSDOF 5
ENDMDL
MODEL 7
REMARK VINA RESULT:      -7.1      4.213      8.216
REMARK  5 active torsions:
REMARK  status: ('A' for Active; 'I' for Inactive)
REMARK    1  A    between atoms: C2_2  and  C3_3 
REMARK    2  A    between atoms: C3_3  and  C4_4 
REMARK    3  A    between atoms: C4_4  and  N5_5 
REMARK    4  A    between atoms: C11_11  and  C13_12 
REMARK       I    between atoms: C13_12  and  N15_14 
REMARK    5  A    between atoms: N15_14  and  C16_15 
ROOT
ATOM      1  C13 ZIN A   1      18.955  -3.566   8.844  0.00  0.00     0.253 C 
ATOM      2  O14 ZIN A   1      17.781  -3.308   9.010  0.00  0.00    -0.271 OA
ATOM      3  N15 ZIN A   1      19.675  -2.876   7.938  0.00  0.00    -0.324 N 
ATOM      4  H41 ZIN A   1      20.602  -3.111   7.773  0.00  0.00     0.169 HD
ENDROOT
BRANCH   1   5
ATOM      5  C11 ZIN A   1      19.608  -4.658   9.652  0.00  0.00     0.279 C 
ATOM      6  N5  ZIN A   1      19.136  -4.590  11.040  0.00  0.00    -0.058 N 
ATOM      7  H6  ZIN A   1      19.534  -5.352  11.568  0.00  0.00     0.280 HD
ATOM      8  C7  ZIN A   1      17.671  -4.689  11.072  0.00  0.00     0.236 C 
ATOM      9  C8  ZIN A   1      17.236  -6.051  10.526  0.00  0.00     0.028 C 
ATOM     10  C9  ZIN A   1      17.729  -6.198   9.084  0.00  0.00     0.004 C 
ATOM     11  C10 ZIN A   1      19.249  -6.019   9.053  0.00  0.00     0.043 C 
BRANCH   6  12
ATOM     12  C4  ZIN A   1      19.552  -3.314  11.636  0.00  0.00     0.236 C 
BRANCH  12  13
ATOM     13  C3  ZIN A   1      18.396  -2.732  12.454  0.00  0.00     0.027 C 
BRANCH  13  14
ATOM     14  C2  ZIN A   1      18.414  -1.206  12.348  0.00  0.00    -0.003 C 
ATOM     15  C1  ZIN A   1      17.164  -0.731  11.605  0.00  0.00     0.005 C 
ENDBRANCH  13  14
ENDBRANCH  12  13
ENDBRANCH   6  12
ENDBRANCH   1   5
BRANCH   3  16
ATOM     16  C16 ZIN A   1      19.086  -1.820   7.234  0.00  0.00     0.046 A 
ATOM     17  C22 ZIN A   1      19.129  -0.531   7.748  0.00  0.00    -0.035 A 
ATOM     18  C21 ZIN A   1      18.552   0.510   7.046  0.00  0.00     0.009 A 
ATOM     19  C23 ZIN A   1      19.817  -0.266   9.062  0.00  0.00     0.050 C 
ATOM     20  C20 ZIN A   1      17.922   0.268   5.840  0.00  0.00     0.001 A 
ATOM     21  C19 ZIN A   1      17.872  -1.016   5.328  0.00  0.00     0.009 A 
ATOM     22  C17 ZIN A   1      18.452  -2.061   6.021  0.00  0.00    -0.035 A 
ATOM     23  C18 ZIN A   1      18.397  -3.460   5.463  0.00  0.00     0.050 C 
ENDBRANCH   3  16
TORSDOF 5
ENDMDL
MODEL 8
REMARK VINA RESULT:      -7.1      1.720      3.913
REMARK  5 active torsions:
REMARK  status: ('A' for Active; 'I' for Inactive)
REMARK    1  A    between atoms: C2_2  and  C3_3 
REMARK    2  A    between atoms: C3_3  and  C4_4 
REMARK    3  A    between atoms: C4_4  and  N5_5 
REMARK    4  A    between atoms: C11_11  and  C13_12 
REMARK       I    between atoms: C13_12  and  N15_14 
REMARK    5  A    between atoms: N15_14  and  C16_15 
ROOT
ATOM      1  C13 ZIN A   1      18.569   0.351  13.458  0.00  0.00     0.253 C 
ATOM      2  O14 ZIN A   1      19.774   0.373  13.602  0.00  0.00    -0.271 OA
ATOM      3  N15 ZIN A   1      17.761   0.530  14.522  0.00  0.00    -0.324 N 
ATOM      4  H41 ZIN A   1      16.798   0.468  14.416  0.00  0.00     0.169 HD
ENDROOT
BRANCH   1   5
ATOM      5  C11 ZIN A   1      17.977   0.124  12.091  0.00  0.00     0.279 C 
ATOM      6  N5  ZIN A   1      19.026   0.259  11.074  0.00  0.00    -0.058 N 
ATOM      7  H6  ZIN A   1      18.639   0.057  10.164  0.00  0.00     0.280 HD
ATOM      8  C7  ZIN A   1      20.117  -0.681  11.358  0.00  0.00     0.236 C 
ATOM      9  C8  ZIN A   1      19.596  -2.118  11.265  0.00  0.00     0.028 C 
ATOM     10  C9  ZIN A   1      18.471  -2.314  12.284  0.00  0.00     0.004 C 
ATOM     11  C10 ZIN A   1      17.373  -1.280  12.024  0.00  0.00     0.043 C 
BRANCH   6  12
ATOM     12  C4  ZIN A   1      19.548   1.631  11.089  0.00  0.00     0.236 C 
BRANCH  12  13
ATOM     13  C3  ZIN A   1      19.174   2.334   9.782  0.00  0.00     0.027 C 
BRANCH  13  14
ATOM     14  C2  ZIN A   1      18.214   3.487  10.080  0.00  0.00    -0.003 C 
ATOM     15  C1  ZIN A   1      18.397   3.942  11.529  0.00  0.00     0.005 C 
ENDBRANCH  13  14
ENDBRANCH  12  13
ENDBRANCH   6  12
ENDBRANCH   1   5
BRANCH   3  16
ATOM     16  C16 ZIN A   1      18.310   0.804  15.779  0.00  0.00     0.046 A 
ATOM     17  C22 ZIN A   1      18.546  -0.230  16.675  0.00  0.00    -0.035 A 
ATOM     18  C21 ZIN A   1      19.095   0.043  17.914  0.00  0.00     0.009 A 
ATOM     19  C23 ZIN A   1      18.216  -1.650  16.293  0.00  0.00     0.050 C 
ATOM     20  C20 ZIN A   1      19.398   1.346  18.265  0.00  0.00     0.001 A 
ATOM     21  C19 ZIN A   1      19.159   2.378  17.377  0.00  0.00     0.009 A 
ATOM     22  C17 ZIN A   1      18.615   2.111  16.135  0.00  0.00    -0.035 A 
ATOM     23  C18 ZIN A   1      18.355   3.237  15.167  0.00  0.00     0.050 C 
ENDBRANCH   3  16
TORSDOF 5
ENDMDL
MODEL 9
REMARK VINA RESULT:      -7.0      1.694      2.922
REMARK  5 active torsions:
REMARK  status: ('A' for Active; 'I' for Inactive)
REMARK    1  A    between atoms: C2_2  and  C3_3 
REMARK    2  A    between atoms: C3_3  and  C4_4 
REMARK    3  A    between atoms: C4_4  and  N5_5 
REMARK    4  A    between atoms: C11_11  and  C13_12 
REMARK       I    between atoms: C13_12  and  N15_14 
REMARK    5  A    between atoms: N15_14  and  C16_15 
ROOT
ATOM      1  C13 ZIN A   1      18.742   3.169  14.425  0.00  0.00     0.253 C 
ATOM      2  O14 ZIN A   1      17.584   2.830  14.299  0.00  0.00    -0.271 OA
ATOM      3  N15 ZIN A   1      19.628   2.337  15.008  0.00  0.00    -0.324 N 
ATOM      4  H41 ZIN A   1      20.544   2.624  15.150  0.00  0.00     0.169 HD
ENDROOT
BRANCH   1   5
ATOM      5  C11 ZIN A   1      19.191   4.520  13.929  0.00  0.00     0.279 C 
ATOM      6  N5  ZIN A   1      18.724   4.716  12.552  0.00  0.00    -0.058 N 
ATOM      7  H6  ZIN A   1      18.981   5.641  12.239  0.00  0.00     0.280 HD
ATOM      8  C7  ZIN A   1      17.264   4.572  12.497  0.00  0.00     0.236 C 
ATOM      9  C8  ZIN A   1      16.607   5.666  13.344  0.00  0.00     0.028 C 
ATOM     10  C9  ZIN A   1      17.082   5.534  14.794  0.00  0.00     0.004 C 
ATOM     11  C10 ZIN A   1      18.610   5.612  14.830  0.00  0.00     0.043 C 
BRANCH   6  12
ATOM     12  C4  ZIN A   1      19.346   3.714  11.677  0.00  0.00     0.236 C 
BRANCH  12  13
ATOM     13  C3  ZIN A   1      18.375   3.344  10.554  0.00  0.00     0.027 C 
BRANCH  13  14
ATOM     14  C2  ZIN A   1      18.882   2.093   9.834  0.00  0.00    -0.003 C 
ATOM     15  C1  ZIN A   1      17.789   1.022   9.842  0.00  0.00     0.005 C 
ENDBRANCH  13  14
ENDBRANCH  12  13
ENDBRANCH   6  12
ENDBRANCH   1   5
BRANCH   3  16
ATOM     16  C16 ZIN A   1      19.226   1.059  15.411  0.00  0.00     0.046 A 
ATOM     17  C22 ZIN A   1      19.263   0.002  14.511  0.00  0.00    -0.035 A 
ATOM     18  C21 ZIN A   1      18.872  -1.261  14.914  0.00  0.00     0.009 A 
ATOM     19  C23 ZIN A   1      19.743   0.230  13.101  0.00  0.00     0.050 C 
ATOM     20  C20 ZIN A   1      18.432  -1.470  16.208  0.00  0.00     0.001 A 
ATOM     21  C19 ZIN A   1      18.388  -0.418  17.105  0.00  0.00     0.009 A 
ATOM     22  C17 ZIN A   1      18.783   0.845  16.710  0.00  0.00    -0.035 A 
ATOM     23  C18 ZIN A   1      18.735   1.991  17.688  0.00  0.00     0.050 C 
ENDBRANCH   3  16
TORSDOF 5
ENDMDL
