MODEL 1
REMARK VINA RESULT:      -3.9      0.000      0.000
REMARK  1 active torsions:
REMARK  status: ('A' for Active; 'I' for Inactive)
REMARK    1  A    between atoms: C5_4  and  P7_5 
ROOT
ATOM      1  C1  ZIN A   1      17.717  -0.969  16.702  0.00  0.00     0.043 C 
ATOM      2  C2  ZIN A   1      17.916   0.179  15.709  0.00  0.00     0.161 A 
ATOM      3  O4  ZIN A   1      19.253   0.605  15.442  0.00  0.00    -0.361 OA
ATOM      4  C5  ZIN A   1      18.477   1.498  16.245  0.00  0.00     0.279 A 
ENDROOT
BRANCH   4   5
ATOM      5  P7  ZIN A   1      18.866   1.596  18.024  0.00  0.00     0.292 P 
ATOM      6  O8  ZIN A   1      17.566   1.336  18.858  0.00  0.00    -0.638 OA
ATOM      7  O9  ZIN A   1      19.942   0.515  18.383  0.00  0.00    -0.638 OA
ATOM      8  O10 ZIN A   1      19.426   3.020  18.358  0.00  0.00    -0.638 OA
ENDBRANCH   4   5
TORSDOF 1
ENDMDL
MODEL 2
REMARK VINA RESULT:      -3.8     10.401     11.383
REMARK  1 active torsions:
REMARK  status: ('A' for Active; 'I' for Inactive)
REMARK    1  A    between atoms: C5_4  and  P7_5 
ROOT
ATOM      1  C1  ZIN A   1      17.516  -1.562   4.538  0.00  0.00     0.043 C 
ATOM      2  C2  ZIN A   1      18.540  -0.465   4.240  0.00  0.00     0.161 A 
ATOM      3  O4  ZIN A   1      19.897  -0.700   4.619  0.00  0.00    -0.361 OA
ATOM      4  C5  ZIN A   1      19.191   0.245   5.428  0.00  0.00     0.279 A 
ENDROOT
BRANCH   4   5
ATOM      5  P7  ZIN A   1      18.696  -0.273   7.105  0.00  0.00     0.292 P 
ATOM      6  O8  ZIN A   1      19.388   0.651   8.163  0.00  0.00    -0.638 OA
ATOM      7  O9  ZIN A   1      17.140  -0.157   7.248  0.00  0.00    -0.638 OA
ATOM      8  O10 ZIN A   1      19.133  -1.758   7.342  0.00  0.00    -0.638 OA
ENDBRANCH   4   5
TORSDOF 1
ENDMDL
MODEL 3
REMARK VINA RESULT:      -3.7      9.715     11.182
REMARK  1 active torsions:
REMARK  status: ('A' for Active; 'I' for Inactive)
REMARK    1  A    between atoms: C5_4  and  P7_5 
ROOT
ATOM      1  C1  ZIN A   1      17.268  -0.157   8.164  0.00  0.00     0.043 C 
ATOM      2  C2  ZIN A   1      18.288  -1.286   8.327  0.00  0.00     0.161 A 
ATOM      3  O4  ZIN A   1      19.674  -0.947   8.263  0.00  0.00    -0.361 OA
ATOM      4  C5  ZIN A   1      19.161  -1.639   7.121  0.00  0.00     0.279 A 
ENDROOT
BRANCH   4   5
ATOM      5  P7  ZIN A   1      18.918  -0.685   5.587  0.00  0.00     0.292 P 
ATOM      6  O8  ZIN A   1      17.446  -0.873   5.083  0.00  0.00    -0.638 OA
ATOM      7  O9  ZIN A   1      19.184   0.833   5.869  0.00  0.00    -0.638 OA
ATOM      8  O10 ZIN A   1      19.914  -1.196   4.492  0.00  0.00    -0.638 OA
ENDBRANCH   4   5
TORSDOF 1
ENDMDL
MODEL 4
REMARK VINA RESULT:      -3.5      6.736      7.596
REMARK  1 active torsions:
REMARK  status: ('A' for Active; 'I' for Inactive)
REMARK    1  A    between atoms: C5_4  and  P7_5 
ROOT
ATOM      1  C1  ZIN A   1      19.377   1.772   8.561  0.00  0.00     0.043 C 
ATOM      2  C2  ZIN A   1      18.718   2.748   9.539  0.00  0.00     0.161 A 
ATOM      3  O4  ZIN A   1      19.034   2.617  10.926  0.00  0.00    -0.361 OA
ATOM      4  C5  ZIN A   1      17.724   2.180  10.554  0.00  0.00     0.279 A 
ENDROOT
BRANCH   4   5
ATOM      5  P7  ZIN A   1      17.405   0.385  10.519  0.00  0.00     0.292 P 
ATOM      6  O8  ZIN A   1      17.084  -0.060   9.052  0.00  0.00    -0.638 OA
ATOM      7  O9  ZIN A   1      18.673  -0.380  11.031  0.00  0.00    -0.638 OA
ATOM      8  O10 ZIN A   1      16.186   0.053  11.444  0.00  0.00    -0.638 OA
ENDBRANCH   4   5
TORSDOF 1
ENDMDL
MODEL 5
REMARK VINA RESULT:      -3.5      1.450      2.250
REMARK  1 active torsions:
REMARK  status: ('A' for Active; 'I' for Inactive)
REMARK    1  A    between atoms: C5_4  and  P7_5 
ROOT
ATOM      1  C1  ZIN A   1      17.398   0.388  14.752  0.00  0.00     0.043 C 
ATOM      2  C2  ZIN A   1      18.131  -0.845  15.286  0.00  0.00     0.161 A 
ATOM      3  O4  ZIN A   1      17.684  -1.403  16.522  0.00  0.00    -0.361 OA
ATOM      4  C5  ZIN A   1      18.925  -0.696  16.585  0.00  0.00     0.279 A 
ENDROOT
BRANCH   4   5
ATOM      5  P7  ZIN A   1      18.932   0.938  17.396  0.00  0.00     0.292 P 
ATOM      6  O8  ZIN A   1      19.973   0.935  18.566  0.00  0.00    -0.638 OA
ATOM      7  O9  ZIN A   1      19.325   2.037  16.350  0.00  0.00    -0.638 OA
ATOM      8  O10 ZIN A   1      17.506   1.244  17.964  0.00  0.00    -0.638 OA
ENDBRANCH   4   5
TORSDOF 1
ENDMDL
MODEL 6
REMARK VINA RESULT:      -3.5      6.040      6.987
REMARK  1 active torsions:
REMARK  status: ('A' for Active; 'I' for Inactive)
REMARK    1  A    between atoms: C5_4  and  P7_5 
ROOT
ATOM      1  C1  ZIN A   1      17.907   2.315  10.496  0.00  0.00     0.043 C 
ATOM      2  C2  ZIN A   1      18.383   1.238   9.520  0.00  0.00     0.161 A 
ATOM      3  O4  ZIN A   1      17.391   0.435   8.878  0.00  0.00    -0.361 OA
ATOM      4  C5  ZIN A   1      18.144  -0.225   9.899  0.00  0.00     0.279 A 
ENDROOT
BRANCH   4   5
ATOM      5  P7  ZIN A   1      17.310  -0.568  11.484  0.00  0.00     0.292 P 
ATOM      6  O8  ZIN A   1      15.913   0.142  11.502  0.00  0.00    -0.638 OA
ATOM      7  O9  ZIN A   1      17.112  -2.113  11.646  0.00  0.00    -0.638 OA
ATOM      8  O10 ZIN A   1      18.187  -0.026  12.663  0.00  0.00    -0.638 OA
ENDBRANCH   4   5
TORSDOF 1
ENDMDL
MODEL 7
REMARK VINA RESULT:      -3.4      4.893      6.033
REMARK  1 active torsions:
REMARK  status: ('A' for Active; 'I' for Inactive)
REMARK    1  A    between atoms: C5_4  and  P7_5 
ROOT
ATOM      1  C1  ZIN A   1      17.750   0.614   9.559  0.00  0.00     0.043 C 
ATOM      2  C2  ZIN A   1      17.341  -0.183  10.800  0.00  0.00     0.161 A 
ATOM      3  O4  ZIN A   1      16.174   0.238  11.508  0.00  0.00    -0.361 OA
ATOM      4  C5  ZIN A   1      17.417   0.520  12.157  0.00  0.00     0.279 A 
ENDROOT
BRANCH   4   5
ATOM      5  P7  ZIN A   1      17.986   2.252  12.187  0.00  0.00     0.292 P 
ATOM      6  O8  ZIN A   1      17.949   2.788  13.658  0.00  0.00    -0.638 OA
ATOM      7  O9  ZIN A   1      19.453   2.329  11.640  0.00  0.00    -0.638 OA
ATOM      8  O10 ZIN A   1      17.047   3.125  11.288  0.00  0.00    -0.638 OA
ENDBRANCH   4   5
TORSDOF 1
ENDMDL
MODEL 8
REMARK VINA RESULT:      -3.4     10.370     11.527
REMARK  1 active torsions:
REMARK  status: ('A' for Active; 'I' for Inactive)
REMARK    1  A    between atoms: C5_4  and  P7_5 
ROOT
ATOM      1  C1  ZIN A   1      19.371  -3.634   6.201  0.00  0.00     0.043 C 
ATOM      2  C2  ZIN A   1      19.424  -2.805   7.486  0.00  0.00     0.161 A 
ATOM      3  O4  ZIN A   1      18.215  -2.187   7.931  0.00  0.00    -0.361 OA
ATOM      4  C5  ZIN A   1      19.186  -1.297   7.373  0.00  0.00     0.279 A 
ENDROOT
BRANCH   4   5
ATOM      5  P7  ZIN A   1      18.856  -0.610   5.716  0.00  0.00     0.292 P 
ATOM      6  O8  ZIN A   1      18.798   0.952   5.801  0.00  0.00    -0.638 OA
ATOM      7  O9  ZIN A   1      20.002  -1.038   4.736  0.00  0.00    -0.638 OA
ATOM      8  O10 ZIN A   1      17.487  -1.157   5.188  0.00  0.00    -0.638 OA
ENDBRANCH   4   5
TORSDOF 1
ENDMDL
MODEL 9
REMARK VINA RESULT:      -3.4      2.523      3.451
REMARK  1 active torsions:
REMARK  status: ('A' for Active; 'I' for Inactive)
REMARK    1  A    between atoms: C5_4  and  P7_5 
ROOT
ATOM      1  C1  ZIN A   1      16.999  -0.195  16.858  0.00  0.00     0.043 C 
ATOM      2  C2  ZIN A   1      17.843  -1.406  16.459  0.00  0.00     0.161 A 
ATOM      3  O4  ZIN A   1      19.245  -1.361  16.734  0.00  0.00    -0.361 OA
ATOM      4  C5  ZIN A   1      18.887  -1.217  15.357  0.00  0.00     0.279 A 
ENDROOT
BRANCH   4   5
ATOM      5  P7  ZIN A   1      19.042   0.438  14.607  0.00  0.00     0.292 P 
ATOM      6  O8  ZIN A   1      19.351   1.490  15.726  0.00  0.00    -0.638 OA
ATOM      7  O9  ZIN A   1      20.209   0.430  13.561  0.00  0.00    -0.638 OA
ATOM      8  O10 ZIN A   1      17.701   0.814  13.891  0.00  0.00    -0.638 OA
ENDBRANCH   4   5
TORSDOF 1
ENDMDL
