MODEL 1
REMARK VINA RESULT:      -5.3      0.000      0.000
REMARK  5 active torsions:
REMARK  status: ('A' for Active; 'I' for Inactive)
REMARK    1  A    between atoms: C5_5  and  C6_6 
REMARK    2  A    between atoms: C6_6  and  O7_7 
REMARK    3  A    between atoms: C8_8  and  C9_9 
REMARK    4  A    between atoms: C9_9  and  O10_10 
REMARK    5  A    between atoms: C11_11  and  O12_12 
ROOT
ATOM      1  C1  <0> d   1      18.857   0.041   6.472  0.00  0.00     0.073 C 
ATOM      2  C2  <0> d   1      19.072   0.658   7.830  0.00  0.00     0.064 A 
ATOM      3  N3  <0> d   1      18.759   1.923   8.028  0.00  0.00    -0.262 NA
ATOM      4  C4  <0> d   1      18.928   2.505   9.200  0.00  0.00     0.127 A 
ATOM      5  C5  <0> d   1      19.445   1.803  10.273  0.00  0.00    -0.006 A 
ATOM      6  C8  <0> d   1      19.787   0.471  10.108  0.00  0.00     0.010 A 
ATOM      7  C11 <0> d   1      19.590  -0.113   8.861  0.00  0.00     0.099 A 
ENDROOT
BRANCH   5   8
ATOM      8  C6  <0> d   1      19.632   2.480  11.605  0.00  0.00     0.205 C 
BRANCH   8   9
ATOM      9  O7  <0> d   1      20.891   3.154  11.625  0.00  0.00    -0.396 OA
ATOM     10  H19 <0> d   1      21.302   3.248  10.754  0.00  0.00     0.209 HD
ENDBRANCH   8   9
ENDBRANCH   5   8
BRANCH   6  11
ATOM     11  C9  <0> d   1      20.352  -0.328  11.253  0.00  0.00     0.206 C 
BRANCH  11  12
ATOM     12  O10 <0> d   1      21.715  -0.655  10.979  0.00  0.00    -0.396 OA
ATOM     13  H22 <0> d   1      22.130  -0.089  10.314  0.00  0.00     0.209 HD
ENDBRANCH  11  12
ENDBRANCH   6  11
BRANCH   7  14
ATOM     14  O12 <0> d   1      19.912  -1.417   8.652  0.00  0.00    -0.358 OA
ATOM     15  H23 <0> d   1      20.770  -1.674   9.018  0.00  0.00     0.217 HD
ENDBRANCH   7  14
TORSDOF 5
ENDMDL
MODEL 2
REMARK VINA RESULT:      -5.2      2.928      4.538
REMARK  5 active torsions:
REMARK  status: ('A' for Active; 'I' for Inactive)
REMARK    1  A    between atoms: C5_5  and  C6_6 
REMARK    2  A    between atoms: C6_6  and  O7_7 
REMARK    3  A    between atoms: C8_8  and  C9_9 
REMARK    4  A    between atoms: C9_9  and  O10_10 
REMARK    5  A    between atoms: C11_11  and  O12_12 
ROOT
ATOM      1  C1  <0> d   1      18.911  -1.276  15.618  0.00  0.00     0.073 C 
ATOM      2  C2  <0> d   1      19.130  -0.287  14.502  0.00  0.00     0.064 A 
ATOM      3  N3  <0> d   1      18.873   0.990  14.704  0.00  0.00    -0.262 NA
ATOM      4  C4  <0> d   1      19.050   1.892  13.757  0.00  0.00     0.127 A 
ATOM      5  C5  <0> d   1      19.515   1.528  12.508  0.00  0.00    -0.006 A 
ATOM      6  C8  <0> d   1      19.797   0.196  12.254  0.00  0.00     0.010 A 
ATOM      7  C11 <0> d   1      19.605  -0.729  13.276  0.00  0.00     0.099 A 
ENDROOT
BRANCH   5   8
ATOM      8  C6  <0> d   1      19.713   2.568  11.436  0.00  0.00     0.205 C 
BRANCH   8   9
ATOM      9  O7  <0> d   1      20.978   3.206  11.618  0.00  0.00    -0.396 OA
ATOM     10  H19 <0> d   1      21.597   3.069  10.888  0.00  0.00     0.209 HD
ENDBRANCH   8   9
ENDBRANCH   5   8
BRANCH   6  11
ATOM     11  C9  <0> d   1      20.307  -0.242  10.905  0.00  0.00     0.206 C 
BRANCH  11  12
ATOM     12  O10 <0> d   1      21.683  -0.609  11.011  0.00  0.00    -0.396 OA
ATOM     13  H22 <0> d   1      22.265   0.116  11.276  0.00  0.00     0.209 HD
ENDBRANCH  11  12
ENDBRANCH   6  11
BRANCH   7  14
ATOM     14  O12 <0> d   1      19.868  -2.046  13.072  0.00  0.00    -0.358 OA
ATOM     15  H23 <0> d   1      20.785  -2.230  12.825  0.00  0.00     0.217 HD
ENDBRANCH   7  14
TORSDOF 5
ENDMDL
MODEL 3
REMARK VINA RESULT:      -5.1      1.901      3.267
REMARK  5 active torsions:
REMARK  status: ('A' for Active; 'I' for Inactive)
REMARK    1  A    between atoms: C5_5  and  C6_6 
REMARK    2  A    between atoms: C6_6  and  O7_7 
REMARK    3  A    between atoms: C8_8  and  C9_9 
REMARK    4  A    between atoms: C9_9  and  O10_10 
REMARK    5  A    between atoms: C11_11  and  O12_12 
ROOT
ATOM      1  C1  <0> d   1      19.045   1.356   7.427  0.00  0.00     0.073 C 
ATOM      2  C2  <0> d   1      19.223   0.344   8.529  0.00  0.00     0.064 A 
ATOM      3  N3  <0> d   1      18.965  -0.928   8.294  0.00  0.00    -0.262 NA
ATOM      4  C4  <0> d   1      19.107  -1.849   9.227  0.00  0.00     0.127 A 
ATOM      5  C5  <0> d   1      19.534  -1.512  10.498  0.00  0.00    -0.006 A 
ATOM      6  C8  <0> d   1      19.816  -0.187  10.787  0.00  0.00     0.010 A 
ATOM      7  C11 <0> d   1      19.661   0.758   9.778  0.00  0.00     0.099 A 
ENDROOT
BRANCH   5   8
ATOM      8  C6  <0> d   1      19.692  -2.574  11.554  0.00  0.00     0.205 C 
BRANCH   8   9
ATOM      9  O7  <0> d   1      20.967  -3.201  11.414  0.00  0.00    -0.396 OA
ATOM     10  H19 <0> d   1      21.413  -3.005  10.578  0.00  0.00     0.209 HD
ENDBRANCH   8   9
ENDBRANCH   5   8
BRANCH   6  11
ATOM     11  C9  <0> d   1      20.285   0.220  12.160  0.00  0.00     0.206 C 
BRANCH  11  12
ATOM     12  O10 <0> d   1      21.652   0.628  12.095  0.00  0.00    -0.396 OA
ATOM     13  H22 <0> d   1      21.929   1.195  12.828  0.00  0.00     0.209 HD
ENDBRANCH  11  12
ENDBRANCH   6  11
BRANCH   7  14
ATOM     14  O12 <0> d   1      19.925   2.070  10.016  0.00  0.00    -0.358 OA
ATOM     15  H23 <0> d   1      19.221   2.670   9.732  0.00  0.00     0.217 HD
ENDBRANCH   7  14
TORSDOF 5
ENDMDL
MODEL 4
REMARK VINA RESULT:      -4.9      3.354      5.392
REMARK  5 active torsions:
REMARK  status: ('A' for Active; 'I' for Inactive)
REMARK    1  A    between atoms: C5_5  and  C6_6 
REMARK    2  A    between atoms: C6_6  and  O7_7 
REMARK    3  A    between atoms: C8_8  and  C9_9 
REMARK    4  A    between atoms: C9_9  and  O10_10 
REMARK    5  A    between atoms: C11_11  and  O12_12 
ROOT
ATOM      1  C1  <0> d   1      17.959   0.773   9.229  0.00  0.00     0.073 C 
ATOM      2  C2  <0> d   1      18.416  -0.446   8.469  0.00  0.00     0.064 A 
ATOM      3  N3  <0> d   1      18.678  -1.561   9.121  0.00  0.00    -0.262 NA
ATOM      4  C4  <0> d   1      19.079  -2.652   8.498  0.00  0.00     0.127 A 
ATOM      5  C5  <0> d   1      19.242  -2.667   7.125  0.00  0.00    -0.006 A 
ATOM      6  C8  <0> d   1      18.977  -1.516   6.401  0.00  0.00     0.010 A 
ATOM      7  C11 <0> d   1      18.550  -0.384   7.089  0.00  0.00     0.099 A 
ENDROOT
BRANCH   5   8
ATOM      8  C6  <0> d   1      19.700  -3.919   6.426  0.00  0.00     0.205 C 
BRANCH   8   9
ATOM      9  O7  <0> d   1      21.051  -4.204   6.794  0.00  0.00    -0.396 OA
ATOM     10  H19 <0> d   1      21.279  -5.143   6.759  0.00  0.00     0.209 HD
ENDBRANCH   8   9
ENDBRANCH   5   8
BRANCH   6  11
ATOM     11  C9  <0> d   1      19.141  -1.491   4.903  0.00  0.00     0.206 C 
BRANCH  11  12
ATOM     12  O10 <0> d   1      20.089  -0.484   4.544  0.00  0.00    -0.396 OA
ATOM     13  H22 <0> d   1      19.692   0.314   4.168  0.00  0.00     0.209 HD
ENDBRANCH  11  12
ENDBRANCH   6  11
BRANCH   7  14
ATOM     14  O12 <0> d   1      18.279   0.767   6.421  0.00  0.00    -0.358 OA
ATOM     15  H23 <0> d   1      18.254   1.553   6.985  0.00  0.00     0.217 HD
ENDBRANCH   7  14
TORSDOF 5
ENDMDL
MODEL 5
REMARK VINA RESULT:      -4.8      5.360      6.989
REMARK  5 active torsions:
REMARK  status: ('A' for Active; 'I' for Inactive)
REMARK    1  A    between atoms: C5_5  and  C6_6 
REMARK    2  A    between atoms: C6_6  and  O7_7 
REMARK    3  A    between atoms: C8_8  and  C9_9 
REMARK    4  A    between atoms: C9_9  and  O10_10 
REMARK    5  A    between atoms: C11_11  and  O12_12 
ROOT
ATOM      1  C1  <0> d   1      19.470  -0.825  13.376  0.00  0.00     0.073 C 
ATOM      2  C2  <0> d   1      19.202  -0.147  14.695  0.00  0.00     0.064 A 
ATOM      3  N3  <0> d   1      18.893  -0.873  15.750  0.00  0.00    -0.262 NA
ATOM      4  C4  <0> d   1      18.652  -0.324  16.926  0.00  0.00     0.127 A 
ATOM      5  C5  <0> d   1      18.714   1.046  17.094  0.00  0.00    -0.006 A 
ATOM      6  C8  <0> d   1      19.035   1.847  16.011  0.00  0.00     0.010 A 
ATOM      7  C11 <0> d   1      19.289   1.235  14.787  0.00  0.00     0.099 A 
ENDROOT
BRANCH   5   8
ATOM      8  C6  <0> d   1      18.436   1.660  18.441  0.00  0.00     0.205 C 
BRANCH   8   9
ATOM      9  O7  <0> d   1      19.661   2.106  19.025  0.00  0.00    -0.396 OA
ATOM     10  H19 <0> d   1      20.177   1.402  19.444  0.00  0.00     0.209 HD
ENDBRANCH   8   9
ENDBRANCH   5   8
BRANCH   6  11
ATOM     11  C9  <0> d   1      19.114   3.345  16.154  0.00  0.00     0.206 C 
BRANCH  11  12
ATOM     12  O10 <0> d   1      20.468   3.731  16.390  0.00  0.00    -0.396 OA
ATOM     13  H22 <0> d   1      20.979   3.085  16.896  0.00  0.00     0.209 HD
ENDBRANCH  11  12
ENDBRANCH   6  11
BRANCH   7  14
ATOM     14  O12 <0> d   1      19.607   1.980  13.697  0.00  0.00    -0.358 OA
ATOM     15  H23 <0> d   1      20.399   2.525  13.810  0.00  0.00     0.217 HD
ENDBRANCH   7  14
TORSDOF 5
ENDMDL
MODEL 6
REMARK VINA RESULT:      -4.7      1.911      2.754
REMARK  5 active torsions:
REMARK  status: ('A' for Active; 'I' for Inactive)
REMARK    1  A    between atoms: C5_5  and  C6_6 
REMARK    2  A    between atoms: C6_6  and  O7_7 
REMARK    3  A    between atoms: C8_8  and  C9_9 
REMARK    4  A    between atoms: C9_9  and  O10_10 
REMARK    5  A    between atoms: C11_11  and  O12_12 
ROOT
ATOM      1  C1  <0> d   1      18.014   0.158   5.773  0.00  0.00     0.073 C 
ATOM      2  C2  <0> d   1      18.598  -0.072   7.143  0.00  0.00     0.064 A 
ATOM      3  N3  <0> d   1      19.186   0.923   7.776  0.00  0.00    -0.262 NA
ATOM      4  C4  <0> d   1      19.710   0.770   8.977  0.00  0.00     0.127 A 
ATOM      5  C5  <0> d   1      19.662  -0.453   9.621  0.00  0.00    -0.006 A 
ATOM      6  C8  <0> d   1      19.054  -1.525   8.991  0.00  0.00     0.010 A 
ATOM      7  C11 <0> d   1      18.506  -1.327   7.727  0.00  0.00     0.099 A 
ENDROOT
BRANCH   5   8
ATOM      8  C6  <0> d   1      20.265  -0.615  10.992  0.00  0.00     0.205 C 
BRANCH   8   9
ATOM      9  O7  <0> d   1      21.689  -0.578  10.894  0.00  0.00    -0.396 OA
ATOM     10  H19 <0> d   1      22.109  -1.449  10.929  0.00  0.00     0.209 HD
ENDBRANCH   8   9
ENDBRANCH   5   8
BRANCH   6  11
ATOM     11  C9  <0> d   1      18.980  -2.874   9.660  0.00  0.00     0.206 C 
BRANCH  11  12
ATOM     12  O10 <0> d   1      17.613  -3.219   9.888  0.00  0.00    -0.396 OA
ATOM     13  H22 <0> d   1      17.105  -3.372   9.079  0.00  0.00     0.209 HD
ENDBRANCH  11  12
ENDBRANCH   6  11
BRANCH   7  14
ATOM     14  O12 <0> d   1      17.899  -2.350   7.071  0.00  0.00    -0.358 OA
ATOM     15  H23 <0> d   1      18.307  -2.569   6.221  0.00  0.00     0.217 HD
ENDBRANCH   7  14
TORSDOF 5
ENDMDL
MODEL 7
REMARK VINA RESULT:      -4.6      2.914      5.597
REMARK  5 active torsions:
REMARK  status: ('A' for Active; 'I' for Inactive)
REMARK    1  A    between atoms: C5_5  and  C6_6 
REMARK    2  A    between atoms: C6_6  and  O7_7 
REMARK    3  A    between atoms: C8_8  and  C9_9 
REMARK    4  A    between atoms: C9_9  and  O10_10 
REMARK    5  A    between atoms: C11_11  and  O12_12 
ROOT
ATOM      1  C1  <0> d   1      19.118   1.174   7.889  0.00  0.00     0.073 C 
ATOM      2  C2  <0> d   1      18.758   0.047   6.955  0.00  0.00     0.064 A 
ATOM      3  N3  <0> d   1      18.088   0.306   5.849  0.00  0.00    -0.262 NA
ATOM      4  C4  <0> d   1      17.753  -0.647   5.001  0.00  0.00     0.127 A 
ATOM      5  C5  <0> d   1      18.093  -1.965   5.244  0.00  0.00    -0.006 A 
ATOM      6  C8  <0> d   1      18.796  -2.281   6.395  0.00  0.00     0.010 A 
ATOM      7  C11 <0> d   1      19.140  -1.250   7.264  0.00  0.00     0.099 A 
ENDROOT
BRANCH   5   8
ATOM      8  C6  <0> d   1      17.703  -3.044   4.268  0.00  0.00     0.205 C 
BRANCH   8   9
ATOM      9  O7  <0> d   1      16.284  -3.208   4.279  0.00  0.00    -0.396 OA
ATOM     10  H19 <0> d   1      15.848  -2.815   5.048  0.00  0.00     0.209 HD
ENDBRANCH   8   9
ENDBRANCH   5   8
BRANCH   6  11
ATOM     11  C9  <0> d   1      19.186  -3.705   6.695  0.00  0.00     0.206 C 
BRANCH  11  12
ATOM     12  O10 <0> d   1      20.610  -3.818   6.701  0.00  0.00    -0.396 OA
ATOM     13  H22 <0> d   1      20.958  -4.375   7.411  0.00  0.00     0.209 HD
ENDBRANCH  11  12
ENDBRANCH   6  11
BRANCH   7  14
ATOM     14  O12 <0> d   1      19.829  -1.513   8.406  0.00  0.00    -0.358 OA
ATOM     15  H23 <0> d   1      20.774  -1.311   8.349  0.00  0.00     0.217 HD
ENDBRANCH   7  14
TORSDOF 5
ENDMDL
MODEL 8
REMARK VINA RESULT:      -4.6      1.851      4.045
REMARK  5 active torsions:
REMARK  status: ('A' for Active; 'I' for Inactive)
REMARK    1  A    between atoms: C5_5  and  C6_6 
REMARK    2  A    between atoms: C6_6  and  O7_7 
REMARK    3  A    between atoms: C8_8  and  C9_9 
REMARK    4  A    between atoms: C9_9  and  O10_10 
REMARK    5  A    between atoms: C11_11  and  O12_12 
ROOT
ATOM      1  C1  <0> d   1      18.431   4.294  13.324  0.00  0.00     0.073 C 
ATOM      2  C2  <0> d   1      18.691   3.441  12.108  0.00  0.00     0.064 A 
ATOM      3  N3  <0> d   1      18.289   3.855  10.923  0.00  0.00    -0.262 NA
ATOM      4  C4  <0> d   1      18.496   3.144   9.832  0.00  0.00     0.127 A 
ATOM      5  C5  <0> d   1      19.147   1.927   9.891  0.00  0.00    -0.006 A 
ATOM      6  C8  <0> d   1      19.586   1.454  11.117  0.00  0.00     0.010 A 
ATOM      7  C11 <0> d   1      19.357   2.232  12.247  0.00  0.00     0.099 A 
ENDROOT
BRANCH   5   8
ATOM      8  C6  <0> d   1      19.376   1.124   8.637  0.00  0.00     0.205 C 
BRANCH   8   9
ATOM      9  O7  <0> d   1      18.153   0.505   8.236  0.00  0.00    -0.396 OA
ATOM     10  H19 <0> d   1      18.102   0.308   7.291  0.00  0.00     0.209 HD
ENDBRANCH   8   9
ENDBRANCH   5   8
BRANCH   6  11
ATOM     11  C9  <0> d   1      20.301   0.131  11.223  0.00  0.00     0.206 C 
BRANCH  11  12
ATOM     12  O10 <0> d   1      21.567   0.323  11.856  0.00  0.00    -0.396 OA
ATOM     13  H22 <0> d   1      21.568   0.124  12.802  0.00  0.00     0.209 HD
ENDBRANCH  11  12
ENDBRANCH   6  11
BRANCH   7  14
ATOM     14  O12 <0> d   1      19.769   1.808  13.470  0.00  0.00    -0.358 OA
ATOM     15  H23 <0> d   1      20.349   1.034  13.444  0.00  0.00     0.217 HD
ENDBRANCH   7  14
TORSDOF 5
ENDMDL
MODEL 9
REMARK VINA RESULT:      -4.5      3.615      4.810
REMARK  5 active torsions:
REMARK  status: ('A' for Active; 'I' for Inactive)
REMARK    1  A    between atoms: C5_5  and  C6_6 
REMARK    2  A    between atoms: C6_6  and  O7_7 
REMARK    3  A    between atoms: C8_8  and  C9_9 
REMARK    4  A    between atoms: C9_9  and  O10_10 
REMARK    5  A    between atoms: C11_11  and  O12_12 
ROOT
ATOM      1  C1  <0> d   1      17.756  -5.763  10.147  0.00  0.00     0.073 C 
ATOM      2  C2  <0> d   1      18.366  -4.394  10.310  0.00  0.00     0.064 A 
ATOM      3  N3  <0> d   1      19.016  -4.098  11.417  0.00  0.00    -0.262 NA
ATOM      4  C4  <0> d   1      19.568  -2.914  11.604  0.00  0.00     0.127 A 
ATOM      5  C5  <0> d   1      19.482  -1.931  10.636  0.00  0.00    -0.006 A 
ATOM      6  C8  <0> d   1      18.807  -2.201   9.457  0.00  0.00     0.010 A 
ATOM      7  C11 <0> d   1      18.242  -3.461   9.290  0.00  0.00     0.099 A 
ENDROOT
BRANCH   5   8
ATOM      8  C6  <0> d   1      20.116  -0.584  10.861  0.00  0.00     0.205 C 
BRANCH   8   9
ATOM      9  O7  <0> d   1      21.537  -0.706  10.788  0.00  0.00    -0.396 OA
ATOM     10  H19 <0> d   1      21.944  -1.057  11.592  0.00  0.00     0.209 HD
ENDBRANCH   8   9
ENDBRANCH   5   8
BRANCH   6  11
ATOM     11  C9  <0> d   1      18.692  -1.156   8.377  0.00  0.00     0.206 C 
BRANCH  11  12
ATOM     12  O10 <0> d   1      17.339  -1.084   7.925  0.00  0.00    -0.396 OA
ATOM     13  H22 <0> d   1      17.233  -1.233   6.975  0.00  0.00     0.209 HD
ENDBRANCH  11  12
ENDBRANCH   6  11
BRANCH   7  14
ATOM     14  O12 <0> d   1      17.570  -3.771   8.151  0.00  0.00    -0.358 OA
ATOM     15  H23 <0> d   1      17.756  -3.175   7.411  0.00  0.00     0.217 HD
ENDBRANCH   7  14
TORSDOF 5
ENDMDL
