MODEL 1
REMARK VINA RESULT:      -5.1      0.000      0.000
REMARK  3 active torsions:
REMARK  status: ('A' for Active; 'I' for Inactive)
REMARK    1  A    between atoms: N2_2  and  C5_5 
REMARK    2  A    between atoms: C5_5  and  C8_7 
REMARK    3  A    between atoms: C8_7  and  C9_8 
ROOT
ATOM      1  C8  <0> d   1      19.181   0.057  12.849  0.00  0.00     0.037 C 
ENDROOT
BRANCH   1   2
ATOM      2  C5  <0> d   1      20.357   0.987  12.542  0.00  0.00     0.181 C 
ATOM      3  C7  <0> d   1      19.864   2.178  11.717  0.00  0.00     0.040 C 
BRANCH   2   4
ATOM      4  N2  <0> d   1      21.376   0.252  11.779  0.00  0.00    -0.075 N 
ATOM      5  C1  <0> d   1      20.718  -0.626  10.802  0.00  0.00     0.267 C 
ATOM      6  H3  <0> d   1      21.932  -0.305  12.410  0.00  0.00     0.277 HD
ATOM      7  H4  <0> d   1      21.971   0.907  11.294  0.00  0.00     0.277 HD
ENDBRANCH   2   4
ENDBRANCH   1   2
BRANCH   1   8
ATOM      8  C9  <0> d   1      18.984  -0.031  14.364  0.00  0.00    -0.013 C 
ATOM      9  C14 <0> d   1      19.285  -1.455  14.835  0.00  0.00     0.005 C 
ATOM     10  C13 <0> d   1      19.087  -1.544  16.349  0.00  0.00     0.000 C 
ATOM     11  C12 <0> d   1      17.640  -1.187  16.697  0.00  0.00     0.000 C 
ATOM     12  C11 <0> d   1      17.339   0.238  16.226  0.00  0.00     0.000 C 
ATOM     13  C10 <0> d   1      17.536   0.326  14.711  0.00  0.00     0.005 C 
ENDBRANCH   1   8
TORSDOF 3
ENDMDL
MODEL 2
REMARK VINA RESULT:      -5.1      3.477      6.256
REMARK  3 active torsions:
REMARK  status: ('A' for Active; 'I' for Inactive)
REMARK    1  A    between atoms: N2_2  and  C5_5 
REMARK    2  A    between atoms: C5_5  and  C8_7 
REMARK    3  A    between atoms: C8_7  and  C9_8 
ROOT
ATOM      1  C8  <0> d   1      19.252   2.470   9.686  0.00  0.00     0.037 C 
ENDROOT
BRANCH   1   2
ATOM      2  C5  <0> d   1      19.097   2.038  11.146  0.00  0.00     0.181 C 
ATOM      3  C7  <0> d   1      18.240   3.062  11.893  0.00  0.00     0.040 C 
BRANCH   2   4
ATOM      4  N2  <0> d   1      20.422   1.956  11.775  0.00  0.00    -0.075 N 
ATOM      5  C1  <0> d   1      20.684   0.571  12.189  0.00  0.00     0.267 C 
ATOM      6  H3  <0> d   1      20.449   2.560  12.584  0.00  0.00     0.277 HD
ATOM      7  H4  <0> d   1      21.127   2.248  11.114  0.00  0.00     0.277 HD
ENDBRANCH   2   4
ENDBRANCH   1   2
BRANCH   1   8
ATOM      8  C9  <0> d   1      19.020   1.266   8.771  0.00  0.00    -0.013 C 
ATOM      9  C14 <0> d   1      18.986   1.732   7.314  0.00  0.00     0.005 C 
ATOM     10  C13 <0> d   1      18.755   0.528   6.399  0.00  0.00     0.000 C 
ATOM     11  C12 <0> d   1      17.421  -0.134   6.753  0.00  0.00     0.000 C 
ATOM     12  C11 <0> d   1      17.456  -0.601   8.210  0.00  0.00     0.000 C 
ATOM     13  C10 <0> d   1      17.687   0.603   9.126  0.00  0.00     0.005 C 
ENDBRANCH   1   8
TORSDOF 3
ENDMDL
MODEL 3
REMARK VINA RESULT:      -5.0      3.867      6.418
REMARK  3 active torsions:
REMARK  status: ('A' for Active; 'I' for Inactive)
REMARK    1  A    between atoms: N2_2  and  C5_5 
REMARK    2  A    between atoms: C5_5  and  C8_7 
REMARK    3  A    between atoms: C8_7  and  C9_8 
ROOT
ATOM      1  C8  <0> d   1      19.201   2.417  10.198  0.00  0.00     0.037 C 
ENDROOT
BRANCH   1   2
ATOM      2  C5  <0> d   1      17.830   2.946  10.625  0.00  0.00     0.181 C 
ATOM      3  C7  <0> d   1      17.688   4.406  10.189  0.00  0.00     0.040 C 
BRANCH   2   4
ATOM      4  N2  <0> d   1      17.704   2.857  12.087  0.00  0.00    -0.075 N 
ATOM      5  C1  <0> d   1      19.005   2.501  12.669  0.00  0.00     0.267 C 
ATOM      6  H3  <0> d   1      17.025   2.149  12.324  0.00  0.00     0.277 HD
ATOM      7  H4  <0> d   1      17.404   3.748  12.453  0.00  0.00     0.277 HD
ENDBRANCH   2   4
ENDBRANCH   1   2
BRANCH   1   8
ATOM      8  C9  <0> d   1      19.019   1.308   9.160  0.00  0.00    -0.013 C 
ATOM      9  C14 <0> d   1      19.099   1.907   7.755  0.00  0.00     0.005 C 
ATOM     10  C13 <0> d   1      18.917   0.798   6.717  0.00  0.00     0.000 C 
ATOM     11  C12 <0> d   1      17.551   0.135   6.911  0.00  0.00     0.000 C 
ATOM     12  C11 <0> d   1      17.471  -0.464   8.317  0.00  0.00     0.000 C 
ATOM     13  C10 <0> d   1      17.653   0.644   9.356  0.00  0.00     0.005 C 
ENDBRANCH   1   8
TORSDOF 3
ENDMDL
MODEL 4
REMARK VINA RESULT:      -5.0      4.791      6.489
REMARK  3 active torsions:
REMARK  status: ('A' for Active; 'I' for Inactive)
REMARK    1  A    between atoms: N2_2  and  C5_5 
REMARK    2  A    between atoms: C5_5  and  C8_7 
REMARK    3  A    between atoms: C8_7  and  C9_8 
ROOT
ATOM      1  C8  <0> d   1      19.039  -0.346   7.460  0.00  0.00     0.037 C 
ENDROOT
BRANCH   1   2
ATOM      2  C5  <0> d   1      18.522   0.499   6.294  0.00  0.00     0.181 C 
ATOM      3  C7  <0> d   1      17.107   0.047   5.925  0.00  0.00     0.040 C 
BRANCH   2   4
ATOM      4  N2  <0> d   1      19.408   0.329   5.135  0.00  0.00    -0.075 N 
ATOM      5  C1  <0> d   1      19.303  -1.049   4.636  0.00  0.00     0.267 C 
ATOM      6  H3  <0> d   1      20.362   0.515   5.410  0.00  0.00     0.277 HD
ATOM      7  H4  <0> d   1      19.137   0.972   4.406  0.00  0.00     0.277 HD
ENDBRANCH   2   4
ENDBRANCH   1   2
BRANCH   1   8
ATOM      8  C9  <0> d   1      18.969   0.471   8.752  0.00  0.00    -0.013 C 
ATOM      9  C14 <0> d   1      17.619   0.237   9.431  0.00  0.00     0.005 C 
ATOM     10  C13 <0> d   1      17.549   1.053  10.723  0.00  0.00     0.000 C 
ATOM     11  C12 <0> d   1      17.705   2.541  10.396  0.00  0.00     0.000 C 
ATOM     12  C11 <0> d   1      19.056   2.775   9.717  0.00  0.00     0.000 C 
ATOM     13  C10 <0> d   1      19.126   1.958   8.425  0.00  0.00     0.005 C 
ENDBRANCH   1   8
TORSDOF 3
ENDMDL
MODEL 5
REMARK VINA RESULT:      -5.0      3.162      6.060
REMARK  3 active torsions:
REMARK  status: ('A' for Active; 'I' for Inactive)
REMARK    1  A    between atoms: N2_2  and  C5_5 
REMARK    2  A    between atoms: C5_5  and  C8_7 
REMARK    3  A    between atoms: C8_7  and  C9_8 
ROOT
ATOM      1  C8  <0> d   1      18.409   2.271  10.823  0.00  0.00     0.037 C 
ENDROOT
BRANCH   1   2
ATOM      2  C5  <0> d   1      19.798   1.781  11.238  0.00  0.00     0.181 C 
ATOM      3  C7  <0> d   1      19.663   0.776  12.384  0.00  0.00     0.040 C 
BRANCH   2   4
ATOM      4  N2  <0> d   1      20.608   2.924  11.682  0.00  0.00    -0.075 N 
ATOM      5  C1  <0> d   1      19.722   4.023  12.089  0.00  0.00     0.267 C 
ATOM      6  H3  <0> d   1      21.199   3.232  10.924  0.00  0.00     0.277 HD
ATOM      7  H4  <0> d   1      21.181   2.647  12.465  0.00  0.00     0.277 HD
ENDBRANCH   2   4
ENDBRANCH   1   2
BRANCH   1   8
ATOM      8  C9  <0> d   1      18.083   1.754   9.421  0.00  0.00    -0.013 C 
ATOM      9  C14 <0> d   1      17.618   0.300   9.509  0.00  0.00     0.005 C 
ATOM     10  C13 <0> d   1      17.292  -0.217   8.106  0.00  0.00     0.000 C 
ATOM     11  C12 <0> d   1      18.543  -0.135   7.228  0.00  0.00     0.000 C 
ATOM     12  C11 <0> d   1      19.009   1.320   7.140  0.00  0.00     0.000 C 
ATOM     13  C10 <0> d   1      19.335   1.837   8.543  0.00  0.00     0.005 C 
ENDBRANCH   1   8
TORSDOF 3
ENDMDL
MODEL 6
REMARK VINA RESULT:      -4.9      4.374      7.642
REMARK  3 active torsions:
REMARK  status: ('A' for Active; 'I' for Inactive)
REMARK    1  A    between atoms: N2_2  and  C5_5 
REMARK    2  A    between atoms: C5_5  and  C8_7 
REMARK    3  A    between atoms: C8_7  and  C9_8 
ROOT
ATOM      1  C8  <0> d   1      17.905   0.286   8.461  0.00  0.00     0.037 C 
ENDROOT
BRANCH   1   2
ATOM      2  C5  <0> d   1      18.810   0.910   9.525  0.00  0.00     0.181 C 
ATOM      3  C7  <0> d   1      18.907   2.420   9.292  0.00  0.00     0.040 C 
BRANCH   2   4
ATOM      4  N2  <0> d   1      20.151   0.315   9.437  0.00  0.00    -0.075 N 
ATOM      5  C1  <0> d   1      20.414  -0.480  10.644  0.00  0.00     0.267 C 
ATOM      6  H3  <0> d   1      20.841   1.048   9.361  0.00  0.00     0.277 HD
ATOM      7  H4  <0> d   1      20.202  -0.281   8.624  0.00  0.00     0.277 HD
ENDBRANCH   2   4
ENDBRANCH   1   2
BRANCH   1   8
ATOM      8  C9  <0> d   1      18.759  -0.213   7.294  0.00  0.00    -0.013 C 
ATOM      9  C14 <0> d   1      18.451   0.615   6.045  0.00  0.00     0.005 C 
ATOM     10  C13 <0> d   1      19.305   0.116   4.878  0.00  0.00     0.000 C 
ATOM     11  C12 <0> d   1      18.986  -1.356   4.605  0.00  0.00     0.000 C 
ATOM     12  C11 <0> d   1      19.294  -2.185   5.854  0.00  0.00     0.000 C 
ATOM     13  C10 <0> d   1      18.440  -1.685   7.021  0.00  0.00     0.005 C 
ENDBRANCH   1   8
TORSDOF 3
ENDMDL
MODEL 7
REMARK VINA RESULT:      -4.8      4.245      5.305
REMARK  3 active torsions:
REMARK  status: ('A' for Active; 'I' for Inactive)
REMARK    1  A    between atoms: N2_2  and  C5_5 
REMARK    2  A    between atoms: C5_5  and  C8_7 
REMARK    3  A    between atoms: C8_7  and  C9_8 
ROOT
ATOM      1  C8  <0> d   1      18.979   2.669   9.092  0.00  0.00     0.037 C 
ENDROOT
BRANCH   1   2
ATOM      2  C5  <0> d   1      18.803   1.164   8.875  0.00  0.00     0.181 C 
ATOM      3  C7  <0> d   1      17.630   0.661   9.720  0.00  0.00     0.040 C 
BRANCH   2   4
ATOM      4  N2  <0> d   1      20.031   0.465   9.277  0.00  0.00    -0.075 N 
ATOM      5  C1  <0> d   1      19.716  -0.935   9.594  0.00  0.00     0.267 C 
ATOM      6  H3  <0> d   1      20.423   0.913  10.091  0.00  0.00     0.277 HD
ATOM      7  H4  <0> d   1      20.699   0.496   8.520  0.00  0.00     0.277 HD
ENDBRANCH   2   4
ENDBRANCH   1   2
BRANCH   1   8
ATOM      8  C9  <0> d   1      18.420   3.056  10.462  0.00  0.00    -0.013 C 
ATOM      9  C14 <0> d   1      17.606   4.345  10.335  0.00  0.00     0.005 C 
ATOM     10  C13 <0> d   1      17.047   4.732  11.705  0.00  0.00     0.000 C 
ATOM     11  C12 <0> d   1      18.202   4.953  12.685  0.00  0.00     0.000 C 
ATOM     12  C11 <0> d   1      19.016   3.664  12.812  0.00  0.00     0.000 C 
ATOM     13  C10 <0> d   1      19.576   3.277  11.442  0.00  0.00     0.005 C 
ENDBRANCH   1   8
TORSDOF 3
ENDMDL
MODEL 8
REMARK VINA RESULT:      -4.7      1.204      2.017
REMARK  3 active torsions:
REMARK  status: ('A' for Active; 'I' for Inactive)
REMARK    1  A    between atoms: N2_2  and  C5_5 
REMARK    2  A    between atoms: C5_5  and  C8_7 
REMARK    3  A    between atoms: C8_7  and  C9_8 
ROOT
ATOM      1  C8  <0> d   1      18.320  -0.192  12.865  0.00  0.00     0.037 C 
ENDROOT
BRANCH   1   2
ATOM      2  C5  <0> d   1      18.502   1.327  12.820  0.00  0.00     0.181 C 
ATOM      3  C7  <0> d   1      17.817   1.887  11.573  0.00  0.00     0.040 C 
BRANCH   2   4
ATOM      4  N2  <0> d   1      19.936   1.646  12.776  0.00  0.00    -0.075 N 
ATOM      5  C1  <0> d   1      20.640   0.630  11.981  0.00  0.00     0.267 C 
ATOM      6  H3  <0> d   1      20.308   1.655  13.714  0.00  0.00     0.277 HD
ATOM      7  H4  <0> d   1      20.066   2.553  12.353  0.00  0.00     0.277 HD
ENDBRANCH   2   4
ENDBRANCH   1   2
BRANCH   1   8
ATOM      8  C9  <0> d   1      18.002  -0.626  14.297  0.00  0.00    -0.013 C 
ATOM      9  C14 <0> d   1      17.575   0.593  15.116  0.00  0.00     0.005 C 
ATOM     10  C13 <0> d   1      17.258   0.159  16.549  0.00  0.00     0.000 C 
ATOM     11  C12 <0> d   1      18.503  -0.469  17.180  0.00  0.00     0.000 C 
ATOM     12  C11 <0> d   1      18.930  -1.688  16.360  0.00  0.00     0.000 C 
ATOM     13  C10 <0> d   1      19.248  -1.254  14.928  0.00  0.00     0.005 C 
ENDBRANCH   1   8
TORSDOF 3
ENDMDL
MODEL 9
REMARK VINA RESULT:      -4.7      4.883      6.869
REMARK  3 active torsions:
REMARK  status: ('A' for Active; 'I' for Inactive)
REMARK    1  A    between atoms: N2_2  and  C5_5 
REMARK    2  A    between atoms: C5_5  and  C8_7 
REMARK    3  A    between atoms: C8_7  and  C9_8 
ROOT
ATOM      1  C8  <0> d   1      17.619  -0.388   6.503  0.00  0.00     0.037 C 
ENDROOT
BRANCH   1   2
ATOM      2  C5  <0> d   1      19.047  -0.719   6.062  0.00  0.00     0.181 C 
ATOM      3  C7  <0> d   1      19.182  -0.491   4.555  0.00  0.00     0.040 C 
BRANCH   2   4
ATOM      4  N2  <0> d   1      19.341  -2.125   6.372  0.00  0.00    -0.075 N 
ATOM      5  C1  <0> d   1      19.061  -2.956   5.193  0.00  0.00     0.267 C 
ATOM      6  H3  <0> d   1      18.762  -2.429   7.142  0.00  0.00     0.277 HD
ATOM      7  H4  <0> d   1      20.313  -2.218   6.625  0.00  0.00     0.277 HD
ENDBRANCH   2   4
ENDBRANCH   1   2
BRANCH   1   8
ATOM      8  C9  <0> d   1      17.663   0.547   7.713  0.00  0.00    -0.013 C 
ATOM      9  C14 <0> d   1      19.009   1.271   7.749  0.00  0.00     0.005 C 
ATOM     10  C13 <0> d   1      19.053   2.206   8.960  0.00  0.00     0.000 C 
ATOM     11  C12 <0> d   1      18.879   1.389  10.243  0.00  0.00     0.000 C 
ATOM     12  C11 <0> d   1      17.531   0.665  10.206  0.00  0.00     0.000 C 
ATOM     13  C10 <0> d   1      17.487  -0.270   8.996  0.00  0.00     0.005 C 
ENDBRANCH   1   8
TORSDOF 3
ENDMDL
