MODEL 1
REMARK VINA RESULT:      -7.5      0.000      0.000
REMARK  7 active torsions:
REMARK  status: ('A' for Active; 'I' for Inactive)
REMARK    1  A    between atoms: C2_2  and  C3_3 
REMARK    2  A    between atoms: C3_3  and  N4_4 
REMARK    3  A    between atoms: N4_4  and  C6_6 
REMARK    4  A    between atoms: N4_4  and  C13_13 
REMARK    5  A    between atoms: C6_6  and  C7_7 
REMARK    6  A    between atoms: C7_7  and  C8_8 
REMARK    7  A    between atoms: C18_17  and  O19_18 
ROOT
ATOM      1  C13 ZIN A   1      18.794   0.792   9.726  0.00  0.00     0.192 C 
ATOM      2  C15 ZIN A   1      17.581  -0.144   9.673  0.00  0.00     0.038 C 
ATOM      3  C16 ZIN A   1      17.890  -1.277   8.697  0.00  0.00     0.044 C 
ATOM      4  C17 ZIN A   1      18.373  -0.726   7.381  0.00  0.00    -0.019 A 
ATOM      5  C18 ZIN A   1      18.339  -1.569   6.272  0.00  0.00     0.072 A 
ATOM      6  C20 ZIN A   1      18.775  -1.121   5.036  0.00  0.00     0.037 A 
ATOM      7  C21 ZIN A   1      19.248   0.170   4.905  0.00  0.00     0.003 A 
ATOM      8  C22 ZIN A   1      19.280   1.005   6.002  0.00  0.00     0.008 A 
ATOM      9  C23 ZIN A   1      18.840   0.561   7.243  0.00  0.00    -0.047 A 
ATOM     10  C24 ZIN A   1      18.892   1.532   8.393  0.00  0.00     0.072 C 
ENDROOT
BRANCH   1  11
ATOM     11  N4  ZIN A   1      18.625   1.760  10.818  0.00  0.00    -0.066 N 
ATOM     12  H5  ZIN A   1      17.868   1.464  11.416  0.00  0.00     0.280 HD
BRANCH  11  13
ATOM     13  C3  ZIN A   1      18.316   3.082  10.257  0.00  0.00     0.235 C 
BRANCH  13  14
ATOM     14  C2  ZIN A   1      17.411   3.849  11.224  0.00  0.00     0.023 C 
ATOM     15  C1  ZIN A   1      17.079   5.220  10.633  0.00  0.00     0.007 C 
ENDBRANCH  13  14
ENDBRANCH  11  13
BRANCH  11  16
ATOM     16  C6  ZIN A   1      19.865   1.837  11.601  0.00  0.00     0.240 C 
BRANCH  16  17
ATOM     17  C7  ZIN A   1      20.305   0.427  12.000  0.00  0.00     0.074 C 
BRANCH  17  18
ATOM     18  C8  ZIN A   1      19.649   0.046  13.302  0.00  0.00    -0.016 A 
ATOM     19  S12 ZIN A   1      19.186   1.173  14.572  0.00  0.00    -0.106 SA
ATOM     20  C11 ZIN A   1      18.567  -0.146  15.557  0.00  0.00     0.050 A 
ATOM     21  C10 ZIN A   1      18.740  -1.303  14.916  0.00  0.00     0.008 A 
ATOM     22  C9  ZIN A   1      19.337  -1.197  13.671  0.00  0.00     0.015 A 
ENDBRANCH  17  18
ENDBRANCH  16  17
ENDBRANCH  11  16
ENDBRANCH   1  11
BRANCH   5  23
ATOM     23  O19 ZIN A   1      17.873  -2.839   6.403  0.00  0.00    -0.360 OA
ATOM     24  H43 ZIN A   1      18.376  -3.380   7.028  0.00  0.00     0.217 HD
ENDBRANCH   5  23
TORSDOF 7
ENDMDL
MODEL 2
REMARK VINA RESULT:      -7.4      2.642      4.197
REMARK  7 active torsions:
REMARK  status: ('A' for Active; 'I' for Inactive)
REMARK    1  A    between atoms: C2_2  and  C3_3 
REMARK    2  A    between atoms: C3_3  and  N4_4 
REMARK    3  A    between atoms: N4_4  and  C6_6 
REMARK    4  A    between atoms: N4_4  and  C13_13 
REMARK    5  A    between atoms: C6_6  and  C7_7 
REMARK    6  A    between atoms: C7_7  and  C8_8 
REMARK    7  A    between atoms: C18_17  and  O19_18 
ROOT
ATOM      1  C13 ZIN A   1      18.979  -2.757   9.063  0.00  0.00     0.192 C 
ATOM      2  C15 ZIN A   1      18.481  -3.582   7.871  0.00  0.00     0.038 C 
ATOM      3  C16 ZIN A   1      19.194  -3.088   6.613  0.00  0.00     0.044 C 
ATOM      4  C17 ZIN A   1      19.077  -1.592   6.492  0.00  0.00    -0.019 A 
ATOM      5  C18 ZIN A   1      19.327  -1.019   5.245  0.00  0.00     0.072 A 
ATOM      6  C20 ZIN A   1      19.241   0.352   5.073  0.00  0.00     0.037 A 
ATOM      7  C21 ZIN A   1      18.906   1.156   6.144  0.00  0.00     0.003 A 
ATOM      8  C22 ZIN A   1      18.656   0.590   7.377  0.00  0.00     0.008 A 
ATOM      9  C23 ZIN A   1      18.738  -0.785   7.554  0.00  0.00    -0.047 A 
ATOM     10  C24 ZIN A   1      18.439  -1.335   8.925  0.00  0.00     0.072 C 
ENDROOT
BRANCH   1  11
ATOM     11  N4  ZIN A   1      18.490  -3.352  10.315  0.00  0.00    -0.066 N 
ATOM     12  H5  ZIN A   1      19.213  -3.930  10.716  0.00  0.00     0.280 HD
BRANCH  11  13
ATOM     13  C3  ZIN A   1      17.304  -4.172  10.037  0.00  0.00     0.235 C 
BRANCH  13  14
ATOM     14  C2  ZIN A   1      16.697  -4.655  11.355  0.00  0.00     0.023 C 
ATOM     15  C1  ZIN A   1      17.544  -5.797  11.920  0.00  0.00     0.007 C 
ENDBRANCH  13  14
ENDBRANCH  11  13
BRANCH  11  16
ATOM     16  C6  ZIN A   1      18.137  -2.283  11.259  0.00  0.00     0.240 C 
BRANCH  16  17
ATOM     17  C7  ZIN A   1      19.135  -2.277  12.419  0.00  0.00     0.074 C 
BRANCH  17  18
ATOM     18  C8  ZIN A   1      18.659  -1.327  13.487  0.00  0.00    -0.016 A 
ATOM     19  S12 ZIN A   1      17.653   0.089  13.209  0.00  0.00    -0.106 SA
ATOM     20  C11 ZIN A   1      17.663   0.470  14.926  0.00  0.00     0.050 A 
ATOM     21  C10 ZIN A   1      18.391  -0.436  15.581  0.00  0.00     0.008 A 
ATOM     22  C9  ZIN A   1      18.940  -1.428  14.787  0.00  0.00     0.015 A 
ENDBRANCH  17  18
ENDBRANCH  16  17
ENDBRANCH  11  16
ENDBRANCH   1  11
BRANCH   5  23
ATOM     23  O19 ZIN A   1      19.656  -1.813   4.192  0.00  0.00    -0.360 OA
ATOM     24  H43 ZIN A   1      19.458  -1.425   3.329  0.00  0.00     0.217 HD
ENDBRANCH   5  23
TORSDOF 7
ENDMDL
MODEL 3
REMARK VINA RESULT:      -7.4      3.608      7.754
REMARK  7 active torsions:
REMARK  status: ('A' for Active; 'I' for Inactive)
REMARK    1  A    between atoms: C2_2  and  C3_3 
REMARK    2  A    between atoms: C3_3  and  N4_4 
REMARK    3  A    between atoms: N4_4  and  C6_6 
REMARK    4  A    between atoms: N4_4  and  C13_13 
REMARK    5  A    between atoms: C6_6  and  C7_7 
REMARK    6  A    between atoms: C7_7  and  C8_8 
REMARK    7  A    between atoms: C18_17  and  O19_18 
ROOT
ATOM      1  C13 ZIN A   1      19.023   2.627  13.944  0.00  0.00     0.192 C 
ATOM      2  C15 ZIN A   1      18.508   3.516  15.082  0.00  0.00     0.038 C 
ATOM      3  C16 ZIN A   1      19.200   3.091  16.375  0.00  0.00     0.044 C 
ATOM      4  C17 ZIN A   1      19.079   1.603  16.576  0.00  0.00    -0.019 A 
ATOM      5  C18 ZIN A   1      19.308   1.099  17.855  0.00  0.00     0.072 A 
ATOM      6  C20 ZIN A   1      19.216  -0.261  18.100  0.00  0.00     0.037 A 
ATOM      7  C21 ZIN A   1      18.897  -1.122  17.069  0.00  0.00     0.003 A 
ATOM      8  C22 ZIN A   1      18.668  -0.623  15.804  0.00  0.00     0.008 A 
ATOM      9  C23 ZIN A   1      18.755   0.740  15.554  0.00  0.00    -0.047 A 
ATOM     10  C24 ZIN A   1      18.479   1.215  14.150  0.00  0.00     0.072 C 
ENDROOT
BRANCH   1  11
ATOM     11  N4  ZIN A   1      18.555   3.154  12.655  0.00  0.00    -0.066 N 
ATOM     12  H5  ZIN A   1      19.240   3.795  12.285  0.00  0.00     0.280 HD
BRANCH  11  13
ATOM     13  C3  ZIN A   1      17.280   3.857  12.847  0.00  0.00     0.235 C 
BRANCH  13  14
ATOM     14  C2  ZIN A   1      17.316   5.192  12.100  0.00  0.00     0.023 C 
ATOM     15  C1  ZIN A   1      16.784   4.996  10.679  0.00  0.00     0.007 C 
ENDBRANCH  13  14
ENDBRANCH  11  13
BRANCH  11  16
ATOM     16  C6  ZIN A   1      18.366   2.043  11.712  0.00  0.00     0.240 C 
BRANCH  16  17
ATOM     17  C7  ZIN A   1      19.357   2.181  10.555  0.00  0.00     0.074 C 
BRANCH  17  18
ATOM     18  C8  ZIN A   1      18.828   1.448   9.350  0.00  0.00    -0.016 A 
ATOM     19  S12 ZIN A   1      17.618   0.171   9.390  0.00  0.00    -0.106 SA
ATOM     20  C11 ZIN A   1      17.694   0.004   7.641  0.00  0.00     0.050 A 
ATOM     21  C10 ZIN A   1      18.583   0.867   7.146  0.00  0.00     0.008 A 
ATOM     22  C9  ZIN A   1      19.209   1.664   8.090  0.00  0.00     0.015 A 
ENDBRANCH  17  18
ENDBRANCH  16  17
ENDBRANCH  11  16
ENDBRANCH   1  11
BRANCH   5  23
ATOM     23  O19 ZIN A   1      19.622   1.948  18.869  0.00  0.00    -0.360 OA
ATOM     24  H43 ZIN A   1      18.860   2.407  19.249  0.00  0.00     0.217 HD
ENDBRANCH   5  23
TORSDOF 7
ENDMDL
MODEL 4
REMARK VINA RESULT:      -7.3      1.434      2.130
REMARK  7 active torsions:
REMARK  status: ('A' for Active; 'I' for Inactive)
REMARK    1  A    between atoms: C2_2  and  C3_3 
REMARK    2  A    between atoms: C3_3  and  N4_4 
REMARK    3  A    between atoms: N4_4  and  C6_6 
REMARK    4  A    between atoms: N4_4  and  C13_13 
REMARK    5  A    between atoms: C6_6  and  C7_7 
REMARK    6  A    between atoms: C7_7  and  C8_8 
REMARK    7  A    between atoms: C18_17  and  O19_18 
ROOT
ATOM      1  C13 ZIN A   1      17.856   0.883   9.017  0.00  0.00     0.192 C 
ATOM      2  C15 ZIN A   1      18.981   1.657   8.320  0.00  0.00     0.038 C 
ATOM      3  C16 ZIN A   1      18.939   1.329   6.829  0.00  0.00     0.044 C 
ATOM      4  C17 ZIN A   1      18.914  -0.161   6.616  0.00  0.00    -0.019 A 
ATOM      5  C18 ZIN A   1      19.253  -0.642   5.351  0.00  0.00     0.072 A 
ATOM      6  C20 ZIN A   1      19.243  -2.003   5.092  0.00  0.00     0.037 A 
ATOM      7  C21 ZIN A   1      18.894  -2.887   6.094  0.00  0.00     0.003 A 
ATOM      8  C22 ZIN A   1      18.561  -2.412   7.345  0.00  0.00     0.008 A 
ATOM      9  C23 ZIN A   1      18.573  -1.048   7.611  0.00  0.00    -0.047 A 
ATOM     10  C24 ZIN A   1      18.211  -0.602   9.004  0.00  0.00     0.072 C 
ENDROOT
BRANCH   1  11
ATOM     11  N4  ZIN A   1      17.722   1.347  10.404  0.00  0.00    -0.066 N 
ATOM     12  H5  ZIN A   1      16.760   1.593  10.585  0.00  0.00     0.280 HD
BRANCH  11  13
ATOM     13  C3  ZIN A   1      18.575   2.525  10.611  0.00  0.00     0.235 C 
BRANCH  13  14
ATOM     14  C2  ZIN A   1      17.773   3.619  11.319  0.00  0.00     0.023 C 
ATOM     15  C1  ZIN A   1      17.409   4.715  10.316  0.00  0.00     0.007 C 
ENDBRANCH  13  14
ENDBRANCH  11  13
BRANCH  11  16
ATOM     16  C6  ZIN A   1      18.134   0.276  11.321  0.00  0.00     0.240 C 
BRANCH  16  17
ATOM     17  C7  ZIN A   1      17.097   0.132  12.436  0.00  0.00     0.074 C 
BRANCH  17  18
ATOM     18  C8  ZIN A   1      17.801   0.003  13.763  0.00  0.00    -0.016 A 
ATOM     19  S12 ZIN A   1      18.133   1.331  14.868  0.00  0.00    -0.106 SA
ATOM     20  C11 ZIN A   1      18.908   0.233  16.002  0.00  0.00     0.050 A 
ATOM     21  C10 ZIN A   1      18.884  -1.007  15.511  0.00  0.00     0.008 A 
ATOM     22  C9  ZIN A   1      18.273  -1.134  14.275  0.00  0.00     0.015 A 
ENDBRANCH  17  18
ENDBRANCH  16  17
ENDBRANCH  11  16
ENDBRANCH   1  11
BRANCH   5  23
ATOM     23  O19 ZIN A   1      19.596   0.230   4.367  0.00  0.00    -0.360 OA
ATOM     24  H43 ZIN A   1      20.218   0.916   4.648  0.00  0.00     0.217 HD
ENDBRANCH   5  23
TORSDOF 7
ENDMDL
MODEL 5
REMARK VINA RESULT:      -7.2      3.594      7.710
REMARK  7 active torsions:
REMARK  status: ('A' for Active; 'I' for Inactive)
REMARK    1  A    between atoms: C2_2  and  C3_3 
REMARK    2  A    between atoms: C3_3  and  N4_4 
REMARK    3  A    between atoms: N4_4  and  C6_6 
REMARK    4  A    between atoms: N4_4  and  C13_13 
REMARK    5  A    between atoms: C6_6  and  C7_7 
REMARK    6  A    between atoms: C7_7  and  C8_8 
REMARK    7  A    between atoms: C18_17  and  O19_18 
ROOT
ATOM      1  C13 ZIN A   1      18.164  -1.411  11.871  0.00  0.00     0.192 C 
ATOM      2  C15 ZIN A   1      17.021  -0.390  11.889  0.00  0.00     0.038 C 
ATOM      3  C16 ZIN A   1      17.455   0.803  12.739  0.00  0.00     0.044 C 
ATOM      4  C17 ZIN A   1      17.966   0.341  14.078  0.00  0.00    -0.019 A 
ATOM      5  C18 ZIN A   1      18.044   1.282  15.103  0.00  0.00     0.072 A 
ATOM      6  C20 ZIN A   1      18.511   0.918  16.355  0.00  0.00     0.037 A 
ATOM      7  C21 ZIN A   1      18.902  -0.386  16.587  0.00  0.00     0.003 A 
ATOM      8  C22 ZIN A   1      18.822  -1.317  15.574  0.00  0.00     0.008 A 
ATOM      9  C23 ZIN A   1      18.351  -0.958  14.317  0.00  0.00    -0.047 A 
ATOM     10  C24 ZIN A   1      18.279  -2.032  13.262  0.00  0.00     0.072 C 
ENDROOT
BRANCH   1  11
ATOM     11  N4  ZIN A   1      17.875  -2.460  10.884  0.00  0.00    -0.066 N 
ATOM     12  H5  ZIN A   1      16.942  -2.333  10.521  0.00  0.00     0.280 HD
BRANCH  11  13
ATOM     13  C3  ZIN A   1      17.974  -3.777  11.526  0.00  0.00     0.235 C 
BRANCH  13  14
ATOM     14  C2  ZIN A   1      16.787  -4.644  11.100  0.00  0.00     0.023 C 
ATOM     15  C1  ZIN A   1      17.287  -6.031  10.696  0.00  0.00     0.007 C 
ENDBRANCH  13  14
ENDBRANCH  11  13
BRANCH  11  16
ATOM     16  C6  ZIN A   1      18.844  -2.377   9.783  0.00  0.00     0.240 C 
BRANCH  16  17
ATOM     17  C7  ZIN A   1      18.101  -2.149   8.465  0.00  0.00     0.074 C 
BRANCH  17  18
ATOM     18  C8  ZIN A   1      18.460  -0.792   7.915  0.00  0.00    -0.016 A 
ATOM     19  S12 ZIN A   1      18.259  -0.292   6.240  0.00  0.00    -0.106 SA
ATOM     20  C11 ZIN A   1      18.908   1.300   6.606  0.00  0.00     0.050 A 
ATOM     21  C10 ZIN A   1      19.232   1.365   7.899  0.00  0.00     0.008 A 
ATOM     22  C9  ZIN A   1      18.985   0.210   8.621  0.00  0.00     0.015 A 
ENDBRANCH  17  18
ENDBRANCH  16  17
ENDBRANCH  11  16
ENDBRANCH   1  11
BRANCH   5  23
ATOM     23  O19 ZIN A   1      17.659   2.565  14.873  0.00  0.00    -0.360 OA
ATOM     24  H43 ZIN A   1      17.030   2.910  15.521  0.00  0.00     0.217 HD
ENDBRANCH   5  23
TORSDOF 7
ENDMDL
MODEL 6
REMARK VINA RESULT:      -7.2      3.950      7.345
REMARK  7 active torsions:
REMARK  status: ('A' for Active; 'I' for Inactive)
REMARK    1  A    between atoms: C2_2  and  C3_3 
REMARK    2  A    between atoms: C3_3  and  N4_4 
REMARK    3  A    between atoms: N4_4  and  C6_6 
REMARK    4  A    between atoms: N4_4  and  C13_13 
REMARK    5  A    between atoms: C6_6  and  C7_7 
REMARK    6  A    between atoms: C7_7  and  C8_8 
REMARK    7  A    between atoms: C18_17  and  O19_18 
ROOT
ATOM      1  C13 ZIN A   1      18.860   1.142  13.260  0.00  0.00     0.192 C 
ATOM      2  C15 ZIN A   1      18.237   2.363  13.947  0.00  0.00     0.038 C 
ATOM      3  C16 ZIN A   1      18.962   2.592  15.272  0.00  0.00     0.044 C 
ATOM      4  C17 ZIN A   1      19.012   1.318  16.075  0.00  0.00    -0.019 A 
ATOM      5  C18 ZIN A   1      19.288   1.421  17.438  0.00  0.00     0.072 A 
ATOM      6  C20 ZIN A   1      19.352   0.285  18.228  0.00  0.00     0.037 A 
ATOM      7  C21 ZIN A   1      19.143  -0.956  17.660  0.00  0.00     0.003 A 
ATOM      8  C22 ZIN A   1      18.868  -1.057  16.312  0.00  0.00     0.008 A 
ATOM      9  C23 ZIN A   1      18.799   0.079  15.516  0.00  0.00    -0.047 A 
ATOM     10  C24 ZIN A   1      18.482  -0.106  14.055  0.00  0.00     0.072 C 
ENDROOT
BRANCH   1  11
ATOM     11  N4  ZIN A   1      18.346   1.030  11.888  0.00  0.00    -0.066 N 
ATOM     12  H5  ZIN A   1      19.102   0.794  11.264  0.00  0.00     0.280 HD
BRANCH  11  13
ATOM     13  C3  ZIN A   1      17.757   2.312  11.481  0.00  0.00     0.235 C 
BRANCH  13  14
ATOM     14  C2  ZIN A   1      18.729   3.051  10.559  0.00  0.00     0.023 C 
ATOM     15  C1  ZIN A   1      18.865   2.285   9.242  0.00  0.00     0.007 C 
ENDBRANCH  13  14
ENDBRANCH  11  13
BRANCH  11  16
ATOM     16  C6  ZIN A   1      17.320  -0.020  11.835  0.00  0.00     0.240 C 
BRANCH  16  17
ATOM     17  C7  ZIN A   1      17.527  -0.872  10.581  0.00  0.00     0.074 C 
BRANCH  17  18
ATOM     18  C8  ZIN A   1      18.218  -2.157  10.956  0.00  0.00    -0.016 A 
ATOM     19  S12 ZIN A   1      17.421  -3.709  11.181  0.00  0.00    -0.106 SA
ATOM     20  C11 ZIN A   1      18.957  -4.477  11.560  0.00  0.00     0.050 A 
ATOM     21  C10 ZIN A   1      19.935  -3.571  11.508  0.00  0.00     0.008 A 
ATOM     22  C9  ZIN A   1      19.527  -2.291  11.174  0.00  0.00     0.015 A 
ENDBRANCH  17  18
ENDBRANCH  16  17
ENDBRANCH  11  16
ENDBRANCH   1  11
BRANCH   5  23
ATOM     23  O19 ZIN A   1      19.493   2.643  17.995  0.00  0.00    -0.360 OA
ATOM     24  H43 ZIN A   1      20.425   2.865  18.127  0.00  0.00     0.217 HD
ENDBRANCH   5  23
TORSDOF 7
ENDMDL
MODEL 7
REMARK VINA RESULT:      -7.1      1.664      3.783
REMARK  7 active torsions:
REMARK  status: ('A' for Active; 'I' for Inactive)
REMARK    1  A    between atoms: C2_2  and  C3_3 
REMARK    2  A    between atoms: C3_3  and  N4_4 
REMARK    3  A    between atoms: N4_4  and  C6_6 
REMARK    4  A    between atoms: N4_4  and  C13_13 
REMARK    5  A    between atoms: C6_6  and  C7_7 
REMARK    6  A    between atoms: C7_7  and  C8_8 
REMARK    7  A    between atoms: C18_17  and  O19_18 
ROOT
ATOM      1  C13 ZIN A   1      18.763  -1.127   9.698  0.00  0.00     0.192 C 
ATOM      2  C15 ZIN A   1      18.145  -2.369   9.044  0.00  0.00     0.038 C 
ATOM      3  C16 ZIN A   1      18.905  -2.661   7.752  0.00  0.00     0.044 C 
ATOM      4  C17 ZIN A   1      18.993  -1.423   6.898  0.00  0.00    -0.019 A 
ATOM      5  C18 ZIN A   1      19.305  -1.585   5.549  0.00  0.00     0.072 A 
ATOM      6  C20 ZIN A   1      19.406  -0.485   4.715  0.00  0.00     0.037 A 
ATOM      7  C21 ZIN A   1      19.196   0.782   5.225  0.00  0.00     0.003 A 
ATOM      8  C22 ZIN A   1      18.884   0.942   6.559  0.00  0.00     0.008 A 
ATOM      9  C23 ZIN A   1      18.779  -0.159   7.399  0.00  0.00    -0.047 A 
ATOM     10  C24 ZIN A   1      18.422   0.090   8.842  0.00  0.00     0.072 C 
ENDROOT
BRANCH   1  11
ATOM     11  N4  ZIN A   1      18.211  -0.953  11.048  0.00  0.00    -0.066 N 
ATOM     12  H5  ZIN A   1      18.923  -0.575  11.656  0.00  0.00     0.280 HD
BRANCH  11  13
ATOM     13  C3  ZIN A   1      17.764  -2.252  11.566  0.00  0.00     0.235 C 
BRANCH  13  14
ATOM     14  C2  ZIN A   1      18.829  -2.821  12.506  0.00  0.00     0.023 C 
ATOM     15  C1  ZIN A   1      19.315  -1.722  13.453  0.00  0.00     0.007 C 
ENDBRANCH  13  14
ENDBRANCH  11  13
BRANCH  11  16
ATOM     16  C6  ZIN A   1      17.072  -0.027  10.995  0.00  0.00     0.240 C 
BRANCH  16  17
ATOM     17  C7  ZIN A   1      17.040   0.817  12.271  0.00  0.00     0.074 C 
BRANCH  17  18
ATOM     18  C8  ZIN A   1      17.721   2.137  12.016  0.00  0.00    -0.016 A 
ATOM     19  S12 ZIN A   1      18.817   2.944  13.131  0.00  0.00    -0.106 SA
ATOM     20  C11 ZIN A   1      19.036   4.273  12.000  0.00  0.00     0.050 A 
ATOM     21  C10 ZIN A   1      18.305   4.054  10.905  0.00  0.00     0.008 A 
ATOM     22  C9  ZIN A   1      17.580   2.875  10.914  0.00  0.00     0.015 A 
ENDBRANCH  17  18
ENDBRANCH  16  17
ENDBRANCH  11  16
ENDBRANCH   1  11
BRANCH   5  23
ATOM     23  O19 ZIN A   1      19.512  -2.832   5.050  0.00  0.00    -0.360 OA
ATOM     24  H43 ZIN A   1      20.440  -3.037   4.872  0.00  0.00     0.217 HD
ENDBRANCH   5  23
TORSDOF 7
ENDMDL
MODEL 8
REMARK VINA RESULT:      -7.0      3.641      8.146
REMARK  7 active torsions:
REMARK  status: ('A' for Active; 'I' for Inactive)
REMARK    1  A    between atoms: C2_2  and  C3_3 
REMARK    2  A    between atoms: C3_3  and  N4_4 
REMARK    3  A    between atoms: N4_4  and  C6_6 
REMARK    4  A    between atoms: N4_4  and  C13_13 
REMARK    5  A    between atoms: C6_6  and  C7_7 
REMARK    6  A    between atoms: C7_7  and  C8_8 
REMARK    7  A    between atoms: C18_17  and  O19_18 
ROOT
ATOM      1  C13 ZIN A   1      19.101  -0.383  13.184  0.00  0.00     0.192 C 
ATOM      2  C15 ZIN A   1      18.441   0.997  13.300  0.00  0.00     0.038 C 
ATOM      3  C16 ZIN A   1      19.098   1.748  14.456  0.00  0.00     0.044 C 
ATOM      4  C17 ZIN A   1      19.109   0.900  15.701  0.00  0.00    -0.019 A 
ATOM      5  C18 ZIN A   1      19.314   1.540  16.922  0.00  0.00     0.072 A 
ATOM      6  C20 ZIN A   1      19.340   0.813  18.100  0.00  0.00     0.037 A 
ATOM      7  C21 ZIN A   1      19.162  -0.556  18.063  0.00  0.00     0.003 A 
ATOM      8  C22 ZIN A   1      18.956  -1.189  16.856  0.00  0.00     0.008 A 
ATOM      9  C23 ZIN A   1      18.927  -0.464  15.671  0.00  0.00    -0.047 A 
ATOM     10  C24 ZIN A   1      18.684  -1.221  14.391  0.00  0.00     0.072 C 
ENDROOT
BRANCH   1  11
ATOM     11  N4  ZIN A   1      18.657  -1.041  11.948  0.00  0.00    -0.066 N 
ATOM     12  H5  ZIN A   1      17.779  -1.509  12.113  0.00  0.00     0.280 HD
BRANCH  11  13
ATOM     13  C3  ZIN A   1      19.665  -2.023  11.528  0.00  0.00     0.235 C 
BRANCH  13  14
ATOM     14  C2  ZIN A   1      19.011  -3.400  11.394  0.00  0.00     0.023 C 
ATOM     15  C1  ZIN A   1      17.493  -3.259  11.518  0.00  0.00     0.007 C 
ENDBRANCH  13  14
ENDBRANCH  11  13
BRANCH  11  16
ATOM     16  C6  ZIN A   1      18.484  -0.034  10.892  0.00  0.00     0.240 C 
BRANCH  16  17
ATOM     17  C7  ZIN A   1      19.755   0.040  10.044  0.00  0.00     0.074 C 
BRANCH  17  18
ATOM     18  C8  ZIN A   1      19.382   0.214   8.594  0.00  0.00    -0.016 A 
ATOM     19  S12 ZIN A   1      19.006  -1.095   7.480  0.00  0.00    -0.106 SA
ATOM     20  C11 ZIN A   1      18.731   0.053   6.177  0.00  0.00     0.050 A 
ATOM     21  C10 ZIN A   1      18.933   1.294   6.624  0.00  0.00     0.008 A 
ATOM     22  C9  ZIN A   1      19.292   1.382   7.958  0.00  0.00     0.015 A 
ENDBRANCH  17  18
ENDBRANCH  16  17
ENDBRANCH  11  16
ENDBRANCH   1  11
BRANCH   5  23
ATOM     23  O19 ZIN A   1      19.489   2.888  16.956  0.00  0.00    -0.360 OA
ATOM     24  H43 ZIN A   1      19.740   3.231  17.825  0.00  0.00     0.217 HD
ENDBRANCH   5  23
TORSDOF 7
ENDMDL
MODEL 9
REMARK VINA RESULT:      -6.9      3.149      5.796
REMARK  7 active torsions:
REMARK  status: ('A' for Active; 'I' for Inactive)
REMARK    1  A    between atoms: C2_2  and  C3_3 
REMARK    2  A    between atoms: C3_3  and  N4_4 
REMARK    3  A    between atoms: N4_4  and  C6_6 
REMARK    4  A    between atoms: N4_4  and  C13_13 
REMARK    5  A    between atoms: C6_6  and  C7_7 
REMARK    6  A    between atoms: C7_7  and  C8_8 
REMARK    7  A    between atoms: C18_17  and  O19_18 
ROOT
ATOM      1  C13 ZIN A   1      18.760   0.112   8.937  0.00  0.00     0.192 C 
ATOM      2  C15 ZIN A   1      19.995  -0.095   9.823  0.00  0.00     0.038 C 
ATOM      3  C16 ZIN A   1      19.678   0.435  11.220  0.00  0.00     0.044 C 
ATOM      4  C17 ZIN A   1      19.131   1.836  11.144  0.00  0.00    -0.019 A 
ATOM      5  C18 ZIN A   1      19.145   2.603  12.308  0.00  0.00     0.072 A 
ATOM      6  C20 ZIN A   1      18.651   3.896  12.302  0.00  0.00     0.037 A 
ATOM      7  C21 ZIN A   1      18.139   4.428  11.135  0.00  0.00     0.003 A 
ATOM      8  C22 ZIN A   1      18.128   3.670   9.983  0.00  0.00     0.008 A 
ATOM      9  C23 ZIN A   1      18.625   2.373   9.983  0.00  0.00    -0.047 A 
ATOM     10  C24 ZIN A   1      18.592   1.609   8.684  0.00  0.00     0.072 C 
ENDROOT
BRANCH   1  11
ATOM     11  N4  ZIN A   1      18.946  -0.588   7.659  0.00  0.00    -0.066 N 
ATOM     12  H5  ZIN A   1      19.919  -0.825   7.543  0.00  0.00     0.280 HD
BRANCH  11  13
ATOM     13  C3  ZIN A   1      18.520   0.285   6.557  0.00  0.00     0.235 C 
BRANCH  13  14
ATOM     14  C2  ZIN A   1      19.381   0.006   5.323  0.00  0.00     0.023 C 
ATOM     15  C1  ZIN A   1      18.480  -0.157   4.098  0.00  0.00     0.007 C 
ENDBRANCH  13  14
ENDBRANCH  11  13
BRANCH  11  16
ATOM     16  C6  ZIN A   1      18.139  -1.815   7.652  0.00  0.00     0.240 C 
BRANCH  16  17
ATOM     17  C7  ZIN A   1      19.040  -3.020   7.929  0.00  0.00     0.074 C 
BRANCH  17  18
ATOM     18  C8  ZIN A   1      18.697  -3.605   9.275  0.00  0.00    -0.016 A 
ATOM     19  S12 ZIN A   1      19.482  -5.000  10.004  0.00  0.00    -0.106 SA
ATOM     20  C11 ZIN A   1      18.453  -4.875  11.424  0.00  0.00     0.050 A 
ATOM     21  C10 ZIN A   1      17.612  -3.849  11.278  0.00  0.00     0.008 A 
ATOM     22  C9  ZIN A   1      17.747  -3.148  10.092  0.00  0.00     0.015 A 
ENDBRANCH  17  18
ENDBRANCH  16  17
ENDBRANCH  11  16
ENDBRANCH   1  11
BRANCH   5  23
ATOM     23  O19 ZIN A   1      19.649   2.078  13.456  0.00  0.00    -0.360 OA
ATOM     24  H43 ZIN A   1      20.615   2.077  13.498  0.00  0.00     0.217 HD
ENDBRANCH   5  23
TORSDOF 7
ENDMDL
