MODEL 1
REMARK VINA RESULT:     -10.3      0.000      0.000
REMARK  5 active torsions:
REMARK  status: ('A' for Active; 'I' for Inactive)
REMARK    1  A    between atoms: C4_4  and  C6_5 
REMARK       I    between atoms: C6_5  and  N8_7 
REMARK    2  A    between atoms: N8_7  and  C9_8 
REMARK    3  A    between atoms: C12_11  and  O13_12 
REMARK    4  A    between atoms: C22_20  and  C24_21 
REMARK    5  A    between atoms: C24_21  and  C25_22 
ROOT
ATOM      1  C9  ZIN A   1      18.874  -4.563  10.159  0.00  0.00     0.220 C 
ATOM      2  C10 ZIN A   1      20.049  -5.243  10.866  0.00  0.00     0.082 C 
ATOM      3  O11 ZIN A   1      19.318  -3.925   8.947  0.00  0.00    -0.296 OA
ATOM      4  C12 ZIN A   1      18.210  -4.071   8.044  0.00  0.00     0.276 C 
ATOM      5  C14 ZIN A   1      18.696  -4.198   6.615  0.00  0.00     0.173 C 
ATOM      6  C16 ZIN A   1      18.742  -2.816   5.926  0.00  0.00     0.034 C 
ATOM      7  C17 ZIN A   1      18.659  -3.182   4.425  0.00  0.00     0.022 C 
ATOM      8  C18 ZIN A   1      18.038  -4.592   4.390  0.00  0.00     0.127 C 
ATOM      9  N19 ZIN A   1      17.767  -4.986   5.792  0.00  0.00    -0.338 N 
ATOM     10  C20 ZIN A   1      16.838  -5.860   6.200  0.00  0.00     0.243 C 
ATOM     11  O21 ZIN A   1      16.250  -6.532   5.379  0.00  0.00    -0.271 OA
ATOM     12  C22 ZIN A   1      16.508  -6.023   7.659  0.00  0.00     0.189 C 
ATOM     13  N31 ZIN A   1      17.471  -5.263   8.462  0.00  0.00    -0.277 N 
ATOM     14  C32 ZIN A   1      17.860  -5.594   9.713  0.00  0.00     0.280 C 
ATOM     15  O33 ZIN A   1      17.487  -6.556  10.351  0.00  0.00    -0.268 OA
ENDROOT
BRANCH   1  16
ATOM     16  N8  ZIN A   1      18.246  -3.583  11.049  0.00  0.00    -0.321 N 
ATOM     17  C6  ZIN A   1      18.949  -2.516  11.480  0.00  0.00     0.229 C 
ATOM     18  O7  ZIN A   1      20.100  -2.367  11.130  0.00  0.00    -0.273 OA
ATOM     19  H53 ZIN A   1      17.325  -3.702  11.328  0.00  0.00     0.166 HD
BRANCH  17  20
ATOM     20  C4  ZIN A   1      18.302  -1.508  12.395  0.00  0.00     0.129 C 
ATOM     21  C3  ZIN A   1      19.177  -1.302  13.636  0.00  0.00     0.290 C 
ATOM     22  N2  ZIN A   1      18.574  -0.249  14.458  0.00  0.00     0.094 N 
ATOM     23  C1  ZIN A   1      19.224  -0.171  15.774  0.00  0.00     0.310 C 
ATOM     24  C46 ZIN A   1      18.567   1.052  13.802  0.00  0.00     0.260 C 
ATOM     25  C35 ZIN A   1      18.290   0.961  12.324  0.00  0.00    -0.017 C 
ATOM     26  C45 ZIN A   1      17.614   2.000  14.543  0.00  0.00     0.081 C 
ATOM     27  C34 ZIN A   1      18.168  -0.189  11.684  0.00  0.00    -0.001 C 
ATOM     28  C36 ZIN A   1      18.159   2.222  11.570  0.00  0.00    -0.015 A 
ATOM     29  C44 ZIN A   1      18.346   2.481  10.231  0.00  0.00     0.013 A 
ATOM     30  C37 ZIN A   1      17.785   3.330  12.358  0.00  0.00     0.009 A 
ATOM     31  C43 ZIN A   1      18.168   3.774   9.746  0.00  0.00     0.003 A 
ATOM     32  C42 ZIN A   1      17.805   4.862  10.532  0.00  0.00     0.030 A 
ATOM     33  C41 ZIN A   1      17.607   4.636  11.893  0.00  0.00     0.043 A 
ATOM     34  N40 ZIN A   1      17.262   5.365  12.990  0.00  0.00    -0.365 N 
ATOM     35  C39 ZIN A   1      17.213   4.553  14.113  0.00  0.00     0.096 A 
ATOM     36  H73 ZIN A   1      17.077   6.317  12.987  0.00  0.00     0.165 HD
ATOM     37  C38 ZIN A   1      17.518   3.300  13.792  0.00  0.00    -0.027 A 
ENDBRANCH  17  20
ENDBRANCH   1  16
BRANCH   4  38
ATOM     38  O13 ZIN A   1      17.363  -2.925   8.142  0.00  0.00    -0.347 OA
ATOM     39  H57 ZIN A   1      17.414  -2.468   8.994  0.00  0.00     0.215 HD
ENDBRANCH   4  38
BRANCH  12  40
ATOM     40  C24 ZIN A   1      15.113  -5.458   7.934  0.00  0.00     0.073 C 
BRANCH  40  41
ATOM     41  C25 ZIN A   1      14.110  -6.583   7.948  0.00  0.00    -0.056 A 
ATOM     42  C30 ZIN A   1      12.776  -6.317   8.197  0.00  0.00     0.007 A 
ATOM     43  C29 ZIN A   1      11.855  -7.348   8.205  0.00  0.00     0.001 A 
ATOM     44  C28 ZIN A   1      12.269  -8.646   7.974  0.00  0.00     0.000 A 
ATOM     45  C27 ZIN A   1      13.603  -8.913   7.730  0.00  0.00     0.001 A 
ATOM     46  C26 ZIN A   1      14.524  -7.882   7.717  0.00  0.00     0.007 A 
ENDBRANCH  40  41
ENDBRANCH  12  40
TORSDOF 5
ENDMDL
MODEL 2
REMARK VINA RESULT:     -10.3      1.702      2.462
REMARK  5 active torsions:
REMARK  status: ('A' for Active; 'I' for Inactive)
REMARK    1  A    between atoms: C4_4  and  C6_5 
REMARK       I    between atoms: C6_5  and  N8_7 
REMARK    2  A    between atoms: N8_7  and  C9_8 
REMARK    3  A    between atoms: C12_11  and  O13_12 
REMARK    4  A    between atoms: C22_20  and  C24_21 
REMARK    5  A    between atoms: C24_21  and  C25_22 
ROOT
ATOM      1  C9  ZIN A   1      18.476  -5.465   8.050  0.00  0.00     0.220 C 
ATOM      2  C10 ZIN A   1      19.602  -6.180   8.797  0.00  0.00     0.082 C 
ATOM      3  O11 ZIN A   1      18.898  -5.114   6.719  0.00  0.00    -0.296 OA
ATOM      4  C12 ZIN A   1      17.709  -5.246   5.924  0.00  0.00     0.276 C 
ATOM      5  C14 ZIN A   1      18.052  -5.684   4.515  0.00  0.00     0.173 C 
ATOM      6  C16 ZIN A   1      18.226  -4.461   3.587  0.00  0.00     0.034 C 
ATOM      7  C17 ZIN A   1      17.969  -5.061   2.184  0.00  0.00     0.022 C 
ATOM      8  C18 ZIN A   1      17.163  -6.349   2.440  0.00  0.00     0.127 C 
ATOM      9  N19 ZIN A   1      16.960  -6.455   3.903  0.00  0.00    -0.338 N 
ATOM     10  C20 ZIN A   1      15.958  -7.100   4.515  0.00  0.00     0.243 C 
ATOM     11  O21 ZIN A   1      15.219  -7.807   3.864  0.00  0.00    -0.271 OA
ATOM     12  C22 ZIN A   1      15.733  -6.962   5.997  0.00  0.00     0.189 C 
ATOM     13  N31 ZIN A   1      16.853  -6.227   6.592  0.00  0.00    -0.277 N 
ATOM     14  C32 ZIN A   1      17.297  -6.395   7.857  0.00  0.00     0.280 C 
ATOM     15  O33 ZIN A   1      16.853  -7.169   8.678  0.00  0.00    -0.268 OA
ENDROOT
BRANCH   1  16
ATOM     16  N8  ZIN A   1      18.062  -4.265   8.784  0.00  0.00    -0.321 N 
ATOM     17  C6  ZIN A   1      17.972  -4.296  10.129  0.00  0.00     0.229 C 
ATOM     18  O7  ZIN A   1      18.234  -5.316  10.731  0.00  0.00    -0.273 OA
ATOM     19  H53 ZIN A   1      17.854  -3.450   8.303  0.00  0.00     0.166 HD
BRANCH  17  20
ATOM     20  C4  ZIN A   1      17.547  -3.063  10.883  0.00  0.00     0.129 C 
ATOM     21  C3  ZIN A   1      18.371  -2.936  12.170  0.00  0.00     0.290 C 
ATOM     22  N2  ZIN A   1      18.005  -1.680  12.832  0.00  0.00     0.094 N 
ATOM     23  C1  ZIN A   1      18.574  -1.613  14.185  0.00  0.00     0.310 C 
ATOM     24  C46 ZIN A   1      18.366  -0.501  12.055  0.00  0.00     0.260 C 
ATOM     25  C35 ZIN A   1      18.163  -0.691  10.575  0.00  0.00    -0.017 C 
ATOM     26  C45 ZIN A   1      17.641   0.729  12.618  0.00  0.00     0.081 C 
ATOM     27  C34 ZIN A   1      17.793  -1.841  10.040  0.00  0.00    -0.001 C 
ATOM     28  C36 ZIN A   1      18.400   0.470   9.695  0.00  0.00    -0.015 A 
ATOM     29  C44 ZIN A   1      18.726   0.519   8.359  0.00  0.00     0.013 A 
ATOM     30  C37 ZIN A   1      18.271   1.718  10.338  0.00  0.00     0.009 A 
ATOM     31  C43 ZIN A   1      18.909   1.753   7.738  0.00  0.00     0.003 A 
ATOM     32  C42 ZIN A   1      18.787   2.979   8.381  0.00  0.00     0.030 A 
ATOM     33  C41 ZIN A   1      18.457   2.966   9.736  0.00  0.00     0.043 A 
ATOM     34  N40 ZIN A   1      18.242   3.878  10.724  0.00  0.00    -0.365 N 
ATOM     35  C39 ZIN A   1      17.923   3.237  11.912  0.00  0.00     0.096 A 
ATOM     36  H73 ZIN A   1      18.304   4.839  10.614  0.00  0.00     0.165 HD
ATOM     37  C38 ZIN A   1      17.921   1.919  11.739  0.00  0.00    -0.027 A 
ENDBRANCH  17  20
ENDBRANCH   1  16
BRANCH   4  38
ATOM     38  O13 ZIN A   1      17.036  -3.987   5.863  0.00  0.00    -0.347 OA
ATOM     39  H57 ZIN A   1      17.253  -3.462   5.081  0.00  0.00     0.215 HD
ENDBRANCH   4  38
BRANCH  12  40
ATOM     40  C24 ZIN A   1      14.454  -6.159   6.247  0.00  0.00     0.073 C 
BRANCH  40  41
ATOM     41  C25 ZIN A   1      13.504  -6.975   7.085  0.00  0.00    -0.056 A 
ATOM     42  C30 ZIN A   1      13.509  -8.354   6.989  0.00  0.00     0.007 A 
ATOM     43  C29 ZIN A   1      12.641  -9.104   7.761  0.00  0.00     0.001 A 
ATOM     44  C28 ZIN A   1      11.762  -8.474   8.622  0.00  0.00     0.000 A 
ATOM     45  C27 ZIN A   1      11.753  -7.095   8.713  0.00  0.00     0.001 A 
ATOM     46  C26 ZIN A   1      12.624  -6.345   7.945  0.00  0.00     0.007 A 
ENDBRANCH  40  41
ENDBRANCH  12  40
TORSDOF 5
ENDMDL
MODEL 3
REMARK VINA RESULT:      -9.9      2.962      9.970
REMARK  5 active torsions:
REMARK  status: ('A' for Active; 'I' for Inactive)
REMARK    1  A    between atoms: C4_4  and  C6_5 
REMARK       I    between atoms: C6_5  and  N8_7 
REMARK    2  A    between atoms: N8_7  and  C9_8 
REMARK    3  A    between atoms: C12_11  and  O13_12 
REMARK    4  A    between atoms: C22_20  and  C24_21 
REMARK    5  A    between atoms: C24_21  and  C25_22 
ROOT
ATOM      1  C9  ZIN A   1      19.179  -5.000   9.385  0.00  0.00     0.220 C 
ATOM      2  C10 ZIN A   1      20.332  -5.990   9.205  0.00  0.00     0.082 C 
ATOM      3  O11 ZIN A   1      19.114  -4.546  10.750  0.00  0.00    -0.296 OA
ATOM      4  C12 ZIN A   1      18.673  -3.183  10.649  0.00  0.00     0.276 C 
ATOM      5  C14 ZIN A   1      19.260  -2.345  11.766  0.00  0.00     0.173 C 
ATOM      6  C16 ZIN A   1      18.301  -2.295  12.976  0.00  0.00     0.034 C 
ATOM      7  C17 ZIN A   1      18.738  -0.999  13.701  0.00  0.00     0.022 C 
ATOM      8  C18 ZIN A   1      19.465  -0.165  12.628  0.00  0.00     0.127 C 
ATOM      9  N19 ZIN A   1      19.419  -0.939  11.367  0.00  0.00    -0.338 N 
ATOM     10  C20 ZIN A   1      19.480  -0.433  10.129  0.00  0.00     0.243 C 
ATOM     11  O21 ZIN A   1      19.756   0.739   9.977  0.00  0.00    -0.271 OA
ATOM     12  C22 ZIN A   1      19.210  -1.290   8.921  0.00  0.00     0.189 C 
ATOM     13  N31 ZIN A   1      19.097  -2.691   9.337  0.00  0.00    -0.277 N 
ATOM     14  C32 ZIN A   1      19.425  -3.751   8.566  0.00  0.00     0.280 C 
ATOM     15  O33 ZIN A   1      19.864  -3.709   7.436  0.00  0.00    -0.268 OA
ENDROOT
BRANCH   1  16
ATOM     16  N8  ZIN A   1      17.911  -5.623   8.995  0.00  0.00    -0.321 N 
ATOM     17  C6  ZIN A   1      17.888  -6.550   8.017  0.00  0.00     0.229 C 
ATOM     18  O7  ZIN A   1      18.917  -6.870   7.460  0.00  0.00    -0.273 OA
ATOM     19  H53 ZIN A   1      17.089  -5.368   9.441  0.00  0.00     0.166 HD
BRANCH  17  20
ATOM     20  C4  ZIN A   1      16.584  -7.190   7.617  0.00  0.00     0.129 C 
ATOM     21  C3  ZIN A   1      15.422  -6.252   7.961  0.00  0.00     0.290 C 
ATOM     22  N2  ZIN A   1      14.178  -6.857   7.474  0.00  0.00     0.094 N 
ATOM     23  C1  ZIN A   1      13.006  -6.132   7.983  0.00  0.00     0.310 C 
ATOM     24  C46 ZIN A   1      14.132  -6.971   6.022  0.00  0.00     0.260 C 
ATOM     25  C35 ZIN A   1      15.464  -7.334   5.420  0.00  0.00    -0.017 C 
ATOM     26  C45 ZIN A   1      12.999  -7.925   5.616  0.00  0.00     0.081 C 
ATOM     27  C34 ZIN A   1      16.572  -7.436   6.132  0.00  0.00    -0.001 C 
ATOM     28  C36 ZIN A   1      15.518  -7.576   3.966  0.00  0.00    -0.015 A 
ATOM     29  C44 ZIN A   1      16.574  -7.485   3.088  0.00  0.00     0.013 A 
ATOM     30  C37 ZIN A   1      14.285  -7.958   3.397  0.00  0.00     0.009 A 
ATOM     31  C43 ZIN A   1      16.376  -7.760   1.737  0.00  0.00     0.003 A 
ATOM     32  C42 ZIN A   1      15.155  -8.129   1.184  0.00  0.00     0.030 A 
ATOM     33  C41 ZIN A   1      14.063  -8.232   2.045  0.00  0.00     0.043 A 
ATOM     34  N40 ZIN A   1      12.741  -8.546   1.954  0.00  0.00    -0.365 N 
ATOM     35  C39 ZIN A   1      12.142  -8.483   3.203  0.00  0.00     0.096 A 
ATOM     36  H73 ZIN A   1      12.283  -8.779   1.132  0.00  0.00     0.165 HD
ATOM     37  C38 ZIN A   1      13.034  -8.134   4.125  0.00  0.00    -0.027 A 
ENDBRANCH  17  20
ENDBRANCH   1  16
BRANCH   4  38
ATOM     38  O13 ZIN A   1      17.248  -3.136  10.739  0.00  0.00    -0.347 OA
ATOM     39  H57 ZIN A   1      16.900  -2.287  11.047  0.00  0.00     0.215 HD
ENDBRANCH   4  38
BRANCH  12  40
ATOM     40  C24 ZIN A   1      17.881  -0.875   8.287  0.00  0.00     0.073 C 
BRANCH  40  41
ATOM     41  C25 ZIN A   1      18.088  -0.610   6.817  0.00  0.00    -0.056 A 
ATOM     42  C30 ZIN A   1      18.921   0.414   6.411  0.00  0.00     0.007 A 
ATOM     43  C29 ZIN A   1      19.114   0.655   5.063  0.00  0.00     0.001 A 
ATOM     44  C28 ZIN A   1      18.467  -0.124   4.122  0.00  0.00     0.000 A 
ATOM     45  C27 ZIN A   1      17.629  -1.145   4.529  0.00  0.00     0.001 A 
ATOM     46  C26 ZIN A   1      17.439  -1.389   5.877  0.00  0.00     0.007 A 
ENDBRANCH  40  41
ENDBRANCH  12  40
TORSDOF 5
ENDMDL
MODEL 4
REMARK VINA RESULT:      -9.3      2.442      9.467
REMARK  5 active torsions:
REMARK  status: ('A' for Active; 'I' for Inactive)
REMARK    1  A    between atoms: C4_4  and  C6_5 
REMARK       I    between atoms: C6_5  and  N8_7 
REMARK    2  A    between atoms: N8_7  and  C9_8 
REMARK    3  A    between atoms: C12_11  and  O13_12 
REMARK    4  A    between atoms: C22_20  and  C24_21 
REMARK    5  A    between atoms: C24_21  and  C25_22 
ROOT
ATOM      1  C9  ZIN A   1      19.182  -3.462  10.764  0.00  0.00     0.220 C 
ATOM      2  C10 ZIN A   1      20.479  -4.272  10.807  0.00  0.00     0.082 C 
ATOM      3  O11 ZIN A   1      18.849  -2.976  12.078  0.00  0.00    -0.296 OA
ATOM      4  C12 ZIN A   1      18.235  -1.700  11.838  0.00  0.00     0.276 C 
ATOM      5  C14 ZIN A   1      18.522  -0.743  12.978  0.00  0.00     0.173 C 
ATOM      6  C16 ZIN A   1      17.396  -0.796  14.034  0.00  0.00     0.034 C 
ATOM      7  C17 ZIN A   1      17.528   0.575  14.738  0.00  0.00     0.022 C 
ATOM      8  C18 ZIN A   1      18.279   1.472  13.734  0.00  0.00     0.127 C 
ATOM      9  N19 ZIN A   1      18.534   0.656  12.525  0.00  0.00    -0.338 N 
ATOM     10  C20 ZIN A   1      18.704   1.121  11.281  0.00  0.00     0.243 C 
ATOM     11  O21 ZIN A   1      18.828   2.314  11.103  0.00  0.00    -0.271 OA
ATOM     12  C22 ZIN A   1      18.744   0.191  10.098  0.00  0.00     0.189 C 
ATOM     13  N31 ZIN A   1      18.774  -1.196  10.574  0.00  0.00    -0.277 N 
ATOM     14  C32 ZIN A   1      19.364  -2.220   9.918  0.00  0.00     0.280 C 
ATOM     15  O33 ZIN A   1      19.955  -2.153   8.862  0.00  0.00    -0.268 OA
ENDROOT
BRANCH   1  16
ATOM     16  N8  ZIN A   1      18.089  -4.283  10.235  0.00  0.00    -0.321 N 
ATOM     17  C6  ZIN A   1      18.332  -5.179   9.258  0.00  0.00     0.229 C 
ATOM     18  O7  ZIN A   1      19.455  -5.308   8.818  0.00  0.00    -0.273 OA
ATOM     19  H53 ZIN A   1      17.192  -4.182  10.587  0.00  0.00     0.166 HD
BRANCH  17  20
ATOM     20  C4  ZIN A   1      17.209  -6.024   8.714  0.00  0.00     0.129 C 
ATOM     21  C3  ZIN A   1      15.863  -5.384   9.073  0.00  0.00     0.290 C 
ATOM     22  N2  ZIN A   1      14.795  -6.172   8.449  0.00  0.00     0.094 N 
ATOM     23  C1  ZIN A   1      13.476  -5.760   8.950  0.00  0.00     0.310 C 
ATOM     24  C46 ZIN A   1      14.835  -6.135   6.993  0.00  0.00     0.260 C 
ATOM     25  C35 ZIN A   1      16.239  -6.152   6.446  0.00  0.00    -0.017 C 
ATOM     26  C45 ZIN A   1      13.945  -7.248   6.423  0.00  0.00     0.081 C 
ATOM     27  C34 ZIN A   1      17.312  -6.104   7.215  0.00  0.00    -0.001 C 
ATOM     28  C36 ZIN A   1      16.404  -6.219   4.981  0.00  0.00    -0.015 A 
ATOM     29  C44 ZIN A   1      17.455  -5.820   4.187  0.00  0.00     0.013 A 
ATOM     30  C37 ZIN A   1      15.303  -6.779   4.300  0.00  0.00     0.009 A 
ATOM     31  C43 ZIN A   1      17.377  -5.981   2.805  0.00  0.00     0.003 A 
ATOM     32  C42 ZIN A   1      16.284  -6.528   2.142  0.00  0.00     0.030 A 
ATOM     33  C41 ZIN A   1      15.201  -6.943   2.915  0.00  0.00     0.043 A 
ATOM     34  N40 ZIN A   1      13.979  -7.507   2.709  0.00  0.00    -0.365 N 
ATOM     35  C39 ZIN A   1      13.328  -7.703   3.918  0.00  0.00     0.096 A 
ATOM     36  H73 ZIN A   1      13.616  -7.738   1.841  0.00  0.00     0.165 HD
ATOM     37  C38 ZIN A   1      14.086  -7.283   4.925  0.00  0.00    -0.027 A 
ENDBRANCH  17  20
ENDBRANCH   1  16
BRANCH   4  38
ATOM     38  O13 ZIN A   1      16.821  -1.866  11.721  0.00  0.00    -0.347 OA
ATOM     39  H57 ZIN A   1      16.442  -2.479  12.366  0.00  0.00     0.215 HD
ENDBRANCH   4  38
BRANCH  12  40
ATOM     40  C24 ZIN A   1      17.479   0.377   9.259  0.00  0.00     0.073 C 
BRANCH  40  41
ATOM     41  C25 ZIN A   1      17.835   0.328   7.795  0.00  0.00    -0.056 A 
ATOM     42  C30 ZIN A   1      17.075  -0.429   6.924  0.00  0.00     0.007 A 
ATOM     43  C29 ZIN A   1      17.399  -0.470   5.581  0.00  0.00     0.001 A 
ATOM     44  C28 ZIN A   1      18.489   0.237   5.110  0.00  0.00     0.000 A 
ATOM     45  C27 ZIN A   1      19.252   0.990   5.983  0.00  0.00     0.001 A 
ATOM     46  C26 ZIN A   1      18.926   1.035   7.326  0.00  0.00     0.007 A 
ENDBRANCH  40  41
ENDBRANCH  12  40
TORSDOF 5
ENDMDL
MODEL 5
REMARK VINA RESULT:      -9.3      5.788     11.239
REMARK  5 active torsions:
REMARK  status: ('A' for Active; 'I' for Inactive)
REMARK    1  A    between atoms: C4_4  and  C6_5 
REMARK       I    between atoms: C6_5  and  N8_7 
REMARK    2  A    between atoms: N8_7  and  C9_8 
REMARK    3  A    between atoms: C12_11  and  O13_12 
REMARK    4  A    between atoms: C22_20  and  C24_21 
REMARK    5  A    between atoms: C24_21  and  C25_22 
ROOT
ATOM      1  C9  ZIN A   1      19.787   5.258  15.615  0.00  0.00     0.220 C 
ATOM      2  C10 ZIN A   1      21.244   5.725  15.610  0.00  0.00     0.082 C 
ATOM      3  O11 ZIN A   1      19.169   5.555  16.882  0.00  0.00    -0.296 OA
ATOM      4  C12 ZIN A   1      17.806   5.862  16.547  0.00  0.00     0.276 C 
ATOM      5  C14 ZIN A   1      17.238   6.891  17.503  0.00  0.00     0.173 C 
ATOM      6  C16 ZIN A   1      16.521   6.203  18.686  0.00  0.00     0.034 C 
ATOM      7  C17 ZIN A   1      15.547   7.301  19.176  0.00  0.00     0.022 C 
ATOM      8  C18 ZIN A   1      15.378   8.252  17.976  0.00  0.00     0.127 C 
ATOM      9  N19 ZIN A   1      16.194   7.707  16.868  0.00  0.00    -0.338 N 
ATOM     10  C20 ZIN A   1      15.982   7.907  15.560  0.00  0.00     0.243 C 
ATOM     11  O21 ZIN A   1      15.159   8.727  15.209  0.00  0.00    -0.271 OA
ATOM     12  C22 ZIN A   1      16.744   7.133  14.519  0.00  0.00     0.189 C 
ATOM     13  N31 ZIN A   1      17.805   6.359  15.170  0.00  0.00    -0.277 N 
ATOM     14  C32 ZIN A   1      18.982   6.032  14.593  0.00  0.00     0.280 C 
ATOM     15  O33 ZIN A   1      19.341   6.328  13.473  0.00  0.00    -0.268 OA
ENDROOT
BRANCH   1  16
ATOM     16  N8  ZIN A   1      19.714   3.821  15.338  0.00  0.00    -0.321 N 
ATOM     17  C6  ZIN A   1      19.664   2.940  16.357  0.00  0.00     0.229 C 
ATOM     18  O7  ZIN A   1      19.678   3.336  17.503  0.00  0.00    -0.273 OA
ATOM     19  H53 ZIN A   1      19.702   3.504  14.422  0.00  0.00     0.166 HD
BRANCH  17  20
ATOM     20  C4  ZIN A   1      19.589   1.462  16.072  0.00  0.00     0.129 C 
ATOM     21  C3  ZIN A   1      18.227   0.919  16.519  0.00  0.00     0.290 C 
ATOM     22  N2  ZIN A   1      18.145  -0.495  16.142  0.00  0.00     0.094 N 
ATOM     23  C1  ZIN A   1      16.973  -1.137  16.753  0.00  0.00     0.310 C 
ATOM     24  C46 ZIN A   1      18.159  -0.701  14.699  0.00  0.00     0.260 C 
ATOM     25  C35 ZIN A   1      19.085   0.246  13.982  0.00  0.00    -0.017 C 
ATOM     26  C45 ZIN A   1      18.440  -2.179  14.391  0.00  0.00     0.081 C 
ATOM     27  C34 ZIN A   1      19.733   1.221  14.593  0.00  0.00    -0.001 C 
ATOM     28  C36 ZIN A   1      19.259   0.066  12.528  0.00  0.00    -0.015 A 
ATOM     29  C44 ZIN A   1      19.643   0.968  11.561  0.00  0.00     0.013 A 
ATOM     30  C37 ZIN A   1      18.982  -1.238  12.069  0.00  0.00     0.009 A 
ATOM     31  C43 ZIN A   1      19.730   0.561  10.232  0.00  0.00     0.003 A 
ATOM     32  C42 ZIN A   1      19.449  -0.726   9.787  0.00  0.00     0.030 A 
ATOM     33  C41 ZIN A   1      19.058  -1.666  10.740  0.00  0.00     0.043 A 
ATOM     34  N40 ZIN A   1      18.701  -2.980  10.765  0.00  0.00    -0.365 N 
ATOM     35  C39 ZIN A   1      18.416  -3.379  12.062  0.00  0.00     0.096 A 
ATOM     36  H73 ZIN A   1      18.652  -3.555   9.986  0.00  0.00     0.165 HD
ATOM     37  C38 ZIN A   1      18.574  -2.362  12.903  0.00  0.00    -0.027 A 
ENDBRANCH  17  20
ENDBRANCH   1  16
BRANCH   4  38
ATOM     38  O13 ZIN A   1      17.017   4.674  16.626  0.00  0.00    -0.347 OA
ATOM     39  H57 ZIN A   1      17.333   3.952  16.065  0.00  0.00     0.215 HD
ENDBRANCH   4  38
BRANCH  12  40
ATOM     40  C24 ZIN A   1      15.801   6.150  13.822  0.00  0.00     0.073 C 
BRANCH  40  41
ATOM     41  C25 ZIN A   1      16.545   5.433  12.724  0.00  0.00    -0.056 A 
ATOM     42  C30 ZIN A   1      16.786   6.072  11.522  0.00  0.00     0.007 A 
ATOM     43  C29 ZIN A   1      17.472   5.417  10.517  0.00  0.00     0.001 A 
ATOM     44  C28 ZIN A   1      17.910   4.120  10.710  0.00  0.00     0.000 A 
ATOM     45  C27 ZIN A   1      17.664   3.480  11.910  0.00  0.00     0.001 A 
ATOM     46  C26 ZIN A   1      16.981   4.136  12.917  0.00  0.00     0.007 A 
ENDBRANCH  40  41
ENDBRANCH  12  40
TORSDOF 5
ENDMDL
MODEL 6
REMARK VINA RESULT:      -8.9      3.424     10.728
REMARK  5 active torsions:
REMARK  status: ('A' for Active; 'I' for Inactive)
REMARK    1  A    between atoms: C4_4  and  C6_5 
REMARK       I    between atoms: C6_5  and  N8_7 
REMARK    2  A    between atoms: N8_7  and  C9_8 
REMARK    3  A    between atoms: C12_11  and  O13_12 
REMARK    4  A    between atoms: C22_20  and  C24_21 
REMARK    5  A    between atoms: C24_21  and  C25_22 
ROOT
ATOM      1  C9  ZIN A   1      20.054   0.242  11.645  0.00  0.00     0.220 C 
ATOM      2  C10 ZIN A   1      21.496  -0.136  11.298  0.00  0.00     0.082 C 
ATOM      3  O11 ZIN A   1      19.537  -0.630  12.667  0.00  0.00    -0.296 OA
ATOM      4  C12 ZIN A   1      18.668   0.210  13.442  0.00  0.00     0.276 C 
ATOM      5  C14 ZIN A   1      18.658  -0.223  14.894  0.00  0.00     0.173 C 
ATOM      6  C16 ZIN A   1      17.509  -1.220  15.161  0.00  0.00     0.034 C 
ATOM      7  C17 ZIN A   1      17.282  -1.075  16.685  0.00  0.00     0.022 C 
ATOM      8  C18 ZIN A   1      17.873   0.301  17.050  0.00  0.00     0.127 C 
ATOM      9  N19 ZIN A   1      18.382   0.903  15.797  0.00  0.00    -0.338 N 
ATOM     10  C20 ZIN A   1      18.523   2.213  15.553  0.00  0.00     0.243 C 
ATOM     11  O21 ZIN A   1      18.384   3.006  16.459  0.00  0.00    -0.271 OA
ATOM     12  C22 ZIN A   1      18.847   2.718  14.172  0.00  0.00     0.189 C 
ATOM     13  N31 ZIN A   1      19.159   1.582  13.301  0.00  0.00    -0.277 N 
ATOM     14  C32 ZIN A   1      20.005   1.630  12.248  0.00  0.00     0.280 C 
ATOM     15  O33 ZIN A   1      20.632   2.598  11.873  0.00  0.00    -0.268 OA
ENDROOT
BRANCH   1  16
ATOM     16  N8  ZIN A   1      19.212   0.178  10.447  0.00  0.00    -0.321 N 
ATOM     17  C6  ZIN A   1      19.194  -0.941   9.695  0.00  0.00     0.229 C 
ATOM     18  O7  ZIN A   1      19.875  -1.894  10.009  0.00  0.00    -0.273 OA
ATOM     19  H53 ZIN A   1      18.667   0.939  10.196  0.00  0.00     0.166 HD
BRANCH  17  20
ATOM     20  C4  ZIN A   1      18.327  -1.007   8.464  0.00  0.00     0.129 C 
ATOM     21  C3  ZIN A   1      18.929  -0.128   7.361  0.00  0.00     0.290 C 
ATOM     22  N2  ZIN A   1      18.121  -0.288   6.149  0.00  0.00     0.094 N 
ATOM     23  C1  ZIN A   1      18.494   0.704   5.132  0.00  0.00     0.310 C 
ATOM     24  C46 ZIN A   1      18.172  -1.639   5.604  0.00  0.00     0.260 C 
ATOM     25  C35 ZIN A   1      18.196  -2.701   6.672  0.00  0.00    -0.017 C 
ATOM     26  C45 ZIN A   1      17.042  -1.827   4.582  0.00  0.00     0.081 C 
ATOM     27  C34 ZIN A   1      18.264  -2.424   7.962  0.00  0.00    -0.001 C 
ATOM     28  C36 ZIN A   1      18.146  -4.111   6.240  0.00  0.00    -0.015 A 
ATOM     29  C44 ZIN A   1      18.579  -5.251   6.878  0.00  0.00     0.013 A 
ATOM     30  C37 ZIN A   1      17.566  -4.306   4.969  0.00  0.00     0.009 A 
ATOM     31  C43 ZIN A   1      18.429  -6.489   6.258  0.00  0.00     0.003 A 
ATOM     32  C42 ZIN A   1      17.861  -6.672   5.002  0.00  0.00     0.030 A 
ATOM     33  C41 ZIN A   1      17.412  -5.538   4.326  0.00  0.00     0.043 A 
ATOM     34  N40 ZIN A   1      16.819  -5.250   3.135  0.00  0.00    -0.365 N 
ATOM     35  C39 ZIN A   1      16.595  -3.886   3.024  0.00  0.00     0.096 A 
ATOM     36  H73 ZIN A   1      16.587  -5.905   2.459  0.00  0.00     0.165 HD
ATOM     37  C38 ZIN A   1      17.025  -3.257   4.113  0.00  0.00    -0.027 A 
ENDBRANCH  17  20
ENDBRANCH   1  16
BRANCH   4  38
ATOM     38  O13 ZIN A   1      17.338   0.123  12.927  0.00  0.00    -0.347 OA
ATOM     39  H57 ZIN A   1      17.052   0.909  12.441  0.00  0.00     0.215 HD
ENDBRANCH   4  38
BRANCH  12  40
ATOM     40  C24 ZIN A   1      17.628   3.439  13.593  0.00  0.00     0.073 C 
BRANCH  40  41
ATOM     41  C25 ZIN A   1      17.666   4.891  13.995  0.00  0.00    -0.056 A 
ATOM     42  C30 ZIN A   1      16.487   5.595  14.152  0.00  0.00     0.007 A 
ATOM     43  C29 ZIN A   1      16.521   6.926  14.526  0.00  0.00     0.001 A 
ATOM     44  C28 ZIN A   1      17.734   7.555  14.734  0.00  0.00     0.000 A 
ATOM     45  C27 ZIN A   1      18.913   6.852  14.572  0.00  0.00     0.001 A 
ATOM     46  C26 ZIN A   1      18.880   5.520  14.203  0.00  0.00     0.007 A 
ENDBRANCH  40  41
ENDBRANCH  12  40
TORSDOF 5
ENDMDL
MODEL 7
REMARK VINA RESULT:      -8.6      2.653      9.912
REMARK  5 active torsions:
REMARK  status: ('A' for Active; 'I' for Inactive)
REMARK    1  A    between atoms: C4_4  and  C6_5 
REMARK       I    between atoms: C6_5  and  N8_7 
REMARK    2  A    between atoms: N8_7  and  C9_8 
REMARK    3  A    between atoms: C12_11  and  O13_12 
REMARK    4  A    between atoms: C22_20  and  C24_21 
REMARK    5  A    between atoms: C24_21  and  C25_22 
ROOT
ATOM      1  C9  ZIN A   1      18.815  -3.728  10.558  0.00  0.00     0.220 C 
ATOM      2  C10 ZIN A   1      20.005  -4.670  10.755  0.00  0.00     0.082 C 
ATOM      3  O11 ZIN A   1      18.621  -2.910  11.727  0.00  0.00    -0.296 OA
ATOM      4  C12 ZIN A   1      18.154  -1.656  11.207  0.00  0.00     0.276 C 
ATOM      5  C14 ZIN A   1      18.621  -0.507  12.078  0.00  0.00     0.173 C 
ATOM      6  C16 ZIN A   1      17.561  -0.164  13.148  0.00  0.00     0.034 C 
ATOM      7  C17 ZIN A   1      17.900   1.304  13.501  0.00  0.00     0.022 C 
ATOM      8  C18 ZIN A   1      18.693   1.835  12.291  0.00  0.00     0.127 C 
ATOM      9  N19 ZIN A   1      18.776   0.734  11.305  0.00  0.00    -0.338 N 
ATOM     10  C20 ZIN A   1      18.928   0.871   9.981  0.00  0.00     0.243 C 
ATOM     11  O21 ZIN A   1      19.185   1.964   9.521  0.00  0.00    -0.271 OA
ATOM     12  C22 ZIN A   1      18.786  -0.306   9.054  0.00  0.00     0.189 C 
ATOM     13  N31 ZIN A   1      18.675  -1.535   9.844  0.00  0.00    -0.277 N 
ATOM     14  C32 ZIN A   1      19.096  -2.753   9.436  0.00  0.00     0.280 C 
ATOM     15  O33 ZIN A   1      19.628  -3.011   8.377  0.00  0.00    -0.268 OA
ENDROOT
BRANCH   1  16
ATOM     16  N8  ZIN A   1      17.601  -4.499  10.270  0.00  0.00    -0.321 N 
ATOM     17  C6  ZIN A   1      17.685  -5.657   9.585  0.00  0.00     0.229 C 
ATOM     18  O7  ZIN A   1      18.764  -6.063   9.209  0.00  0.00    -0.273 OA
ATOM     19  H53 ZIN A   1      16.739  -4.175  10.572  0.00  0.00     0.166 HD
BRANCH  17  20
ATOM     20  C4  ZIN A   1      16.437  -6.449   9.290  0.00  0.00     0.129 C 
ATOM     21  C3  ZIN A   1      15.318  -5.501   8.846  0.00  0.00     0.290 C 
ATOM     22  N2  ZIN A   1      14.150  -6.305   8.473  0.00  0.00     0.094 N 
ATOM     23  C1  ZIN A   1      12.968  -5.456   8.272  0.00  0.00     0.310 C 
ATOM     24  C46 ZIN A   1      14.389  -7.152   7.311  0.00  0.00     0.260 C 
ATOM     25  C35 ZIN A   1      15.778  -7.734   7.287  0.00  0.00    -0.017 C 
ATOM     26  C45 ZIN A   1      13.282  -8.211   7.208  0.00  0.00     0.081 C 
ATOM     27  C34 ZIN A   1      16.705  -7.424   8.176  0.00  0.00    -0.001 C 
ATOM     28  C36 ZIN A   1      16.104  -8.689   6.210  0.00  0.00    -0.015 A 
ATOM     29  C44 ZIN A   1      17.320  -9.032   5.665  0.00  0.00     0.013 A 
ATOM     30  C37 ZIN A   1      14.983  -9.344   5.659  0.00  0.00     0.009 A 
ATOM     31  C43 ZIN A   1      17.377  -9.969   4.636  0.00  0.00     0.003 A 
ATOM     32  C42 ZIN A   1      16.265 -10.604   4.094  0.00  0.00     0.030 A 
ATOM     33  C41 ZIN A   1      15.016 -10.281   4.622  0.00  0.00     0.043 A 
ATOM     34  N40 ZIN A   1      13.718 -10.634   4.415  0.00  0.00    -0.365 N 
ATOM     35  C39 ZIN A   1      12.886  -9.955   5.293  0.00  0.00     0.096 A 
ATOM     36  H73 ZIN A   1      13.417 -11.271   3.749  0.00  0.00     0.165 HD
ATOM     37  C38 ZIN A   1      13.599  -9.156   6.080  0.00  0.00    -0.027 A 
ENDBRANCH  17  20
ENDBRANCH   1  16
BRANCH   4  38
ATOM     38  O13 ZIN A   1      16.725  -1.656  11.174  0.00  0.00    -0.347 OA
ATOM     39  H57 ZIN A   1      16.352  -1.804  10.293  0.00  0.00     0.215 HD
ENDBRANCH   4  38
BRANCH  12  40
ATOM     40  C24 ZIN A   1      17.505  -0.155   8.231  0.00  0.00     0.073 C 
BRANCH  40  41
ATOM     41  C25 ZIN A   1      17.834  -0.270   6.764  0.00  0.00    -0.056 A 
ATOM     42  C30 ZIN A   1      18.922   0.406   6.245  0.00  0.00     0.007 A 
ATOM     43  C29 ZIN A   1      19.227   0.297   4.901  0.00  0.00     0.001 A 
ATOM     44  C28 ZIN A   1      18.439  -0.481   4.075  0.00  0.00     0.000 A 
ATOM     45  C27 ZIN A   1      17.348  -1.153   4.592  0.00  0.00     0.001 A 
ATOM     46  C26 ZIN A   1      17.045  -1.048   5.937  0.00  0.00     0.007 A 
ENDBRANCH  40  41
ENDBRANCH  12  40
TORSDOF 5
ENDMDL
MODEL 8
REMARK VINA RESULT:      -8.6      2.568      3.826
REMARK  5 active torsions:
REMARK  status: ('A' for Active; 'I' for Inactive)
REMARK    1  A    between atoms: C4_4  and  C6_5 
REMARK       I    between atoms: C6_5  and  N8_7 
REMARK    2  A    between atoms: N8_7  and  C9_8 
REMARK    3  A    between atoms: C12_11  and  O13_12 
REMARK    4  A    between atoms: C22_20  and  C24_21 
REMARK    5  A    between atoms: C24_21  and  C25_22 
ROOT
ATOM      1  C9  ZIN A   1      20.011  -1.167  10.828  0.00  0.00     0.220 C 
ATOM      2  C10 ZIN A   1      21.502  -0.965  11.108  0.00  0.00     0.082 C 
ATOM      3  O11 ZIN A   1      19.586  -0.329   9.737  0.00  0.00    -0.296 OA
ATOM      4  C12 ZIN A   1      18.584  -1.106   9.063  0.00  0.00     0.276 C 
ATOM      5  C14 ZIN A   1      18.586  -0.812   7.577  0.00  0.00     0.173 C 
ATOM      6  C16 ZIN A   1      17.577   0.307   7.238  0.00  0.00     0.034 C 
ATOM      7  C17 ZIN A   1      17.283   0.056   5.740  0.00  0.00     0.022 C 
ATOM      8  C18 ZIN A   1      17.665  -1.417   5.498  0.00  0.00     0.127 C 
ATOM      9  N19 ZIN A   1      18.128  -1.967   6.792  0.00  0.00    -0.338 N 
ATOM     10  C20 ZIN A   1      18.094  -3.255   7.159  0.00  0.00     0.243 C 
ATOM     11  O21 ZIN A   1      17.817  -4.102   6.335  0.00  0.00    -0.271 OA
ATOM     12  C22 ZIN A   1      18.391  -3.672   8.574  0.00  0.00     0.189 C 
ATOM     13  N31 ZIN A   1      18.885  -2.514   9.326  0.00  0.00    -0.277 N 
ATOM     14  C32 ZIN A   1      19.751  -2.583  10.362  0.00  0.00     0.280 C 
ATOM     15  O33 ZIN A   1      20.250  -3.591  10.815  0.00  0.00    -0.268 OA
ENDROOT
BRANCH   1  16
ATOM     16  N8  ZIN A   1      19.226  -0.874  12.030  0.00  0.00    -0.321 N 
ATOM     17  C6  ZIN A   1      19.511   0.214  12.773  0.00  0.00     0.229 C 
ATOM     18  O7  ZIN A   1      20.416   0.952  12.446  0.00  0.00    -0.273 OA
ATOM     19  H53 ZIN A   1      18.501  -1.463  12.291  0.00  0.00     0.166 HD
BRANCH  17  20
ATOM     20  C4  ZIN A   1      18.702   0.515  14.008  0.00  0.00     0.129 C 
ATOM     21  C3  ZIN A   1      19.281  -0.252  15.203  0.00  0.00     0.290 C 
ATOM     22  N2  ZIN A   1      18.537   0.135  16.406  0.00  0.00     0.094 N 
ATOM     23  C1  ZIN A   1      18.877  -0.738  17.538  0.00  0.00     0.310 C 
ATOM     24  C46 ZIN A   1      18.713   1.538  16.758  0.00  0.00     0.260 C 
ATOM     25  C35 ZIN A   1      18.772   2.441  15.553  0.00  0.00    -0.017 C 
ATOM     26  C45 ZIN A   1      17.643   1.952  17.778  0.00  0.00     0.081 C 
ATOM     27  C34 ZIN A   1      18.766   1.987  14.313  0.00  0.00    -0.001 C 
ATOM     28  C36 ZIN A   1      18.846   3.895  15.788  0.00  0.00    -0.015 A 
ATOM     29  C44 ZIN A   1      19.336   4.901  14.985  0.00  0.00     0.013 A 
ATOM     30  C37 ZIN A   1      18.335   4.307  17.036  0.00  0.00     0.009 A 
ATOM     31  C43 ZIN A   1      19.305   6.219  15.433  0.00  0.00     0.003 A 
ATOM     32  C42 ZIN A   1      18.805   6.615  16.669  0.00  0.00     0.030 A 
ATOM     33  C41 ZIN A   1      18.300   5.622  17.507  0.00  0.00     0.043 A 
ATOM     34  N40 ZIN A   1      17.737   5.546  18.745  0.00  0.00    -0.365 N 
ATOM     35  C39 ZIN A   1      17.416   4.232  19.050  0.00  0.00     0.096 A 
ATOM     36  H73 ZIN A   1      17.583   6.303  19.330  0.00  0.00     0.165 HD
ATOM     37  C38 ZIN A   1      17.752   3.430  18.045  0.00  0.00    -0.027 A 
ENDBRANCH  17  20
ENDBRANCH   1  16
BRANCH   4  38
ATOM     38  O13 ZIN A   1      17.297  -0.786   9.594  0.00  0.00    -0.347 OA
ATOM     39  H57 ZIN A   1      16.938  -1.459  10.190  0.00  0.00     0.215 HD
ENDBRANCH   4  38
BRANCH  12  40
ATOM     40  C24 ZIN A   1      17.104  -4.157   9.244  0.00  0.00     0.073 C 
BRANCH  40  41
ATOM     41  C25 ZIN A   1      16.744  -5.520   8.711  0.00  0.00    -0.056 A 
ATOM     42  C30 ZIN A   1      15.449  -5.783   8.305  0.00  0.00     0.007 A 
ATOM     43  C29 ZIN A   1      15.119  -7.032   7.811  0.00  0.00     0.001 A 
ATOM     44  C28 ZIN A   1      16.082  -8.020   7.732  0.00  0.00     0.000 A 
ATOM     45  C27 ZIN A   1      17.376  -7.758   8.142  0.00  0.00     0.001 A 
ATOM     46  C26 ZIN A   1      17.707  -6.508   8.632  0.00  0.00     0.007 A 
ENDBRANCH  40  41
ENDBRANCH  12  40
TORSDOF 5
ENDMDL
MODEL 9
REMARK VINA RESULT:      -8.4      2.448      9.102
REMARK  5 active torsions:
REMARK  status: ('A' for Active; 'I' for Inactive)
REMARK    1  A    between atoms: C4_4  and  C6_5 
REMARK       I    between atoms: C6_5  and  N8_7 
REMARK    2  A    between atoms: N8_7  and  C9_8 
REMARK    3  A    between atoms: C12_11  and  O13_12 
REMARK    4  A    between atoms: C22_20  and  C24_21 
REMARK    5  A    between atoms: C24_21  and  C25_22 
ROOT
ATOM      1  C9  ZIN A   1      20.014  -2.316  11.486  0.00  0.00     0.220 C 
ATOM      2  C10 ZIN A   1      21.449  -2.844  11.437  0.00  0.00     0.082 C 
ATOM      3  O11 ZIN A   1      19.521  -2.323  12.839  0.00  0.00    -0.296 OA
ATOM      4  C12 ZIN A   1      18.665  -1.172  12.909  0.00  0.00     0.276 C 
ATOM      5  C14 ZIN A   1      18.687  -0.570  14.300  0.00  0.00     0.173 C 
ATOM      6  C16 ZIN A   1      17.547  -1.150  15.166  0.00  0.00     0.034 C 
ATOM      7  C17 ZIN A   1      17.352  -0.058  16.245  0.00  0.00     0.022 C 
ATOM      8  C18 ZIN A   1      17.945   1.224  15.629  0.00  0.00     0.127 C 
ATOM      9  N19 ZIN A   1      18.426   0.876  14.273  0.00  0.00    -0.338 N 
ATOM     10  C20 ZIN A   1      18.556   1.720  13.241  0.00  0.00     0.243 C 
ATOM     11  O21 ZIN A   1      18.434   2.913  13.429  0.00  0.00    -0.271 OA
ATOM     12  C22 ZIN A   1      18.850   1.218  11.853  0.00  0.00     0.189 C 
ATOM     13  N31 ZIN A   1      19.148  -0.216  11.911  0.00  0.00    -0.277 N 
ATOM     14  C32 ZIN A   1      19.971  -0.865  11.058  0.00  0.00     0.280 C 
ATOM     15  O33 ZIN A   1      20.587  -0.371  10.137  0.00  0.00    -0.268 OA
ENDROOT
BRANCH   1  16
ATOM     16  N8  ZIN A   1      19.146  -3.126  10.626  0.00  0.00    -0.321 N 
ATOM     17  C6  ZIN A   1      19.277  -4.468  10.609  0.00  0.00     0.229 C 
ATOM     18  O7  ZIN A   1      20.111  -5.005  11.307  0.00  0.00    -0.273 OA
ATOM     19  H53 ZIN A   1      18.479  -2.697  10.069  0.00  0.00     0.166 HD
BRANCH  17  20
ATOM     20  C4  ZIN A   1      18.385  -5.300   9.725  0.00  0.00     0.129 C 
ATOM     21  C3  ZIN A   1      16.917  -5.052  10.093  0.00  0.00     0.290 C 
ATOM     22  N2  ZIN A   1      16.072  -5.798   9.155  0.00  0.00     0.094 N 
ATOM     23  C1  ZIN A   1      14.671  -5.800   9.597  0.00  0.00     0.310 C 
ATOM     24  C46 ZIN A   1      16.186  -5.321   7.783  0.00  0.00     0.260 C 
ATOM     25  C35 ZIN A   1      17.590  -4.919   7.417  0.00  0.00    -0.017 C 
ATOM     26  C45 ZIN A   1      15.578  -6.355   6.825  0.00  0.00     0.081 C 
ATOM     27  C34 ZIN A   1      18.586  -4.909   8.286  0.00  0.00    -0.001 C 
ATOM     28  C36 ZIN A   1      17.848  -4.514   6.022  0.00  0.00    -0.015 A 
ATOM     29  C44 ZIN A   1      18.837  -3.713   5.498  0.00  0.00     0.013 A 
ATOM     30  C37 ZIN A   1      16.926  -5.035   5.090  0.00  0.00     0.009 A 
ATOM     31  C43 ZIN A   1      18.871  -3.465   4.127  0.00  0.00     0.003 A 
ATOM     32  C42 ZIN A   1      17.954  -3.977   3.216  0.00  0.00     0.030 A 
ATOM     33  C41 ZIN A   1      16.939  -4.794   3.713  0.00  0.00     0.043 A 
ATOM     34  N40 ZIN A   1      15.873  -5.482   3.218  0.00  0.00    -0.365 N 
ATOM     35  C39 ZIN A   1      15.210  -6.145   4.239  0.00  0.00     0.096 A 
ATOM     36  H73 ZIN A   1      15.614  -5.505   2.284  0.00  0.00     0.165 HD
ATOM     37  C38 ZIN A   1      15.807  -5.915   5.404  0.00  0.00    -0.027 A 
ENDBRANCH  17  20
ENDBRANCH   1  16
BRANCH   4  38
ATOM     38  O13 ZIN A   1      17.325  -1.555  12.595  0.00  0.00    -0.347 OA
ATOM     39  H57 ZIN A   1      17.006  -1.212  11.749  0.00  0.00     0.215 HD
ENDBRANCH   4  38
BRANCH  12  40
ATOM     40  C24 ZIN A   1      17.617   1.410  10.969  0.00  0.00     0.073 C 
BRANCH  40  41
ATOM     41  C25 ZIN A   1      17.985   1.150   9.530  0.00  0.00    -0.056 A 
ATOM     42  C30 ZIN A   1      18.892   1.973   8.889  0.00  0.00     0.007 A 
ATOM     43  C29 ZIN A   1      19.233   1.732   7.572  0.00  0.00     0.001 A 
ATOM     44  C28 ZIN A   1      18.662   0.672   6.892  0.00  0.00     0.000 A 
ATOM     45  C27 ZIN A   1      17.751  -0.148   7.532  0.00  0.00     0.001 A 
ATOM     46  C26 ZIN A   1      17.413   0.090   8.851  0.00  0.00     0.007 A 
ENDBRANCH  40  41
ENDBRANCH  12  40
TORSDOF 5
ENDMDL
