MODEL 1
REMARK VINA RESULT:      -3.9      0.000      0.000
REMARK  2 active torsions:
REMARK  status: ('A' for Active; 'I' for Inactive)
REMARK    1  A    between atoms: P2_2  and  O5_5 
REMARK    2  A    between atoms: O5_5  and  P6_6 
ROOT
ATOM      1  O5  ZIN A   1      18.634   0.996  16.275  0.00  0.00    -0.166 OA
ENDROOT
BRANCH   1   2
ATOM      2  P2  ZIN A   1      18.113  -0.490  15.941  0.00  0.00     0.432 P 
ATOM      3  O1  ZIN A   1      16.841  -0.804  16.798  0.00  0.00    -0.616 OA
ATOM      4  O3  ZIN A   1      19.240  -1.527  16.277  0.00  0.00    -0.616 OA
ATOM      5  O4  ZIN A   1      17.753  -0.587  14.418  0.00  0.00    -0.616 OA
ENDBRANCH   1   2
BRANCH   1   6
ATOM      6  P6  ZIN A   1      19.031   1.763  17.633  0.00  0.00     0.432 P 
ATOM      7  O7  ZIN A   1      19.804   3.081  17.282  0.00  0.00    -0.616 OA
ATOM      8  O8  ZIN A   1      17.731   2.119  18.432  0.00  0.00    -0.616 OA
ATOM      9  O9  ZIN A   1      19.946   0.840  18.507  0.00  0.00    -0.616 OA
ENDBRANCH   1   6
TORSDOF 2
ENDMDL
MODEL 2
REMARK VINA RESULT:      -3.9      0.030      3.862
REMARK  2 active torsions:
REMARK  status: ('A' for Active; 'I' for Inactive)
REMARK    1  A    between atoms: P2_2  and  O5_5 
REMARK    2  A    between atoms: O5_5  and  P6_6 
ROOT
ATOM      1  O5  ZIN A   1      18.655   1.014  16.270  0.00  0.00    -0.166 OA
ENDROOT
BRANCH   1   2
ATOM      2  P2  ZIN A   1      19.037   1.780  17.633  0.00  0.00     0.432 P 
ATOM      3  O1  ZIN A   1      17.730   2.129  18.421  0.00  0.00    -0.616 OA
ATOM      4  O3  ZIN A   1      19.810   3.100  17.292  0.00  0.00    -0.616 OA
ATOM      5  O4  ZIN A   1      19.947   0.856  18.513  0.00  0.00    -0.616 OA
ENDBRANCH   1   2
BRANCH   1   6
ATOM      6  P6  ZIN A   1      18.109  -0.462  15.931  0.00  0.00     0.432 P 
ATOM      7  O7  ZIN A   1      16.839  -0.761  16.798  0.00  0.00    -0.616 OA
ATOM      8  O8  ZIN A   1      17.734  -0.544  14.412  0.00  0.00    -0.616 OA
ATOM      9  O9  ZIN A   1      19.221  -1.517  16.253  0.00  0.00    -0.616 OA
ENDBRANCH   1   6
TORSDOF 2
ENDMDL
MODEL 3
REMARK VINA RESULT:      -3.9      0.042      1.483
REMARK  2 active torsions:
REMARK  status: ('A' for Active; 'I' for Inactive)
REMARK    1  A    between atoms: P2_2  and  O5_5 
REMARK    2  A    between atoms: O5_5  and  P6_6 
ROOT
ATOM      1  O5  ZIN A   1      18.629   1.034  16.276  0.00  0.00    -0.166 OA
ENDROOT
BRANCH   1   2
ATOM      2  P2  ZIN A   1      18.102  -0.451  15.945  0.00  0.00     0.432 P 
ATOM      3  O1  ZIN A   1      16.826  -0.756  16.801  0.00  0.00    -0.616 OA
ATOM      4  O3  ZIN A   1      19.223  -1.491  16.288  0.00  0.00    -0.616 OA
ATOM      5  O4  ZIN A   1      17.745  -0.551  14.423  0.00  0.00    -0.616 OA
ENDBRANCH   1   2
BRANCH   1   6
ATOM      6  P6  ZIN A   1      19.040   1.800  17.631  0.00  0.00     0.432 P 
ATOM      7  O7  ZIN A   1      19.941   0.864  18.507  0.00  0.00    -0.616 OA
ATOM      8  O8  ZIN A   1      19.833   3.103  17.274  0.00  0.00    -0.616 OA
ATOM      9  O9  ZIN A   1      17.747   2.177  18.431  0.00  0.00    -0.616 OA
ENDBRANCH   1   6
TORSDOF 2
ENDMDL
MODEL 4
REMARK VINA RESULT:      -3.9      8.536     11.019
REMARK  2 active torsions:
REMARK  status: ('A' for Active; 'I' for Inactive)
REMARK    1  A    between atoms: P2_2  and  O5_5 
REMARK    2  A    between atoms: O5_5  and  P6_6 
ROOT
ATOM      1  O5  ZIN A   1      19.256  -1.096   6.999  0.00  0.00    -0.166 OA
ENDROOT
BRANCH   1   2
ATOM      2  P2  ZIN A   1      18.749   0.230   7.758  0.00  0.00     0.432 P 
ATOM      3  O1  ZIN A   1      18.917   1.469   6.815  0.00  0.00    -0.616 OA
ATOM      4  O3  ZIN A   1      19.595   0.444   9.059  0.00  0.00    -0.616 OA
ATOM      5  O4  ZIN A   1      17.237   0.067   8.140  0.00  0.00    -0.616 OA
ENDBRANCH   1   2
BRANCH   1   6
ATOM      6  P6  ZIN A   1      19.115  -1.647   5.494  0.00  0.00     0.432 P 
ATOM      7  O7  ZIN A   1      19.595  -3.138   5.435  0.00  0.00    -0.616 OA
ATOM      8  O8  ZIN A   1      17.616  -1.564   5.045  0.00  0.00    -0.616 OA
ATOM      9  O9  ZIN A   1      19.997  -0.777   4.534  0.00  0.00    -0.616 OA
ENDBRANCH   1   6
TORSDOF 2
ENDMDL
MODEL 5
REMARK VINA RESULT:      -3.8      8.790     10.676
REMARK  2 active torsions:
REMARK  status: ('A' for Active; 'I' for Inactive)
REMARK    1  A    between atoms: P2_2  and  O5_5 
REMARK    2  A    between atoms: O5_5  and  P6_6 
ROOT
ATOM      1  O5  ZIN A   1      18.182  -0.996   6.425  0.00  0.00    -0.166 OA
ENDROOT
BRANCH   1   2
ATOM      2  P2  ZIN A   1      18.998  -1.809   5.300  0.00  0.00     0.432 P 
ATOM      3  O1  ZIN A   1      19.835  -2.946   5.979  0.00  0.00    -0.616 OA
ATOM      4  O3  ZIN A   1      19.961  -0.831   4.543  0.00  0.00    -0.616 OA
ATOM      5  O4  ZIN A   1      17.990  -2.441   4.279  0.00  0.00    -0.616 OA
ENDBRANCH   1   2
BRANCH   1   6
ATOM      6  P6  ZIN A   1      18.611  -0.026   7.635  0.00  0.00     0.432 P 
ATOM      7  O7  ZIN A   1      19.743  -0.708   8.477  0.00  0.00    -0.616 OA
ATOM      8  O8  ZIN A   1      19.138   1.331   7.055  0.00  0.00    -0.616 OA
ATOM      9  O9  ZIN A   1      17.370   0.245   8.553  0.00  0.00    -0.616 OA
ENDBRANCH   1   6
TORSDOF 2
ENDMDL
MODEL 6
REMARK VINA RESULT:      -3.8      8.905     11.245
REMARK  2 active torsions:
REMARK  status: ('A' for Active; 'I' for Inactive)
REMARK    1  A    between atoms: P2_2  and  O5_5 
REMARK    2  A    between atoms: O5_5  and  P6_6 
ROOT
ATOM      1  O5  ZIN A   1      18.141  -1.250   6.374  0.00  0.00    -0.166 OA
ENDROOT
BRANCH   1   2
ATOM      2  P2  ZIN A   1      18.497  -0.194   7.536  0.00  0.00     0.432 P 
ATOM      3  O1  ZIN A   1      19.664  -0.758   8.415  0.00  0.00    -0.616 OA
ATOM      4  O3  ZIN A   1      17.233   0.042   8.432  0.00  0.00    -0.616 OA
ATOM      5  O4  ZIN A   1      18.939   1.163   6.889  0.00  0.00    -0.616 OA
ENDBRANCH   1   2
BRANCH   1   6
ATOM      6  P6  ZIN A   1      19.007  -2.016   5.254  0.00  0.00     0.432 P 
ATOM      7  O7  ZIN A   1      18.043  -2.719   4.237  0.00  0.00    -0.616 OA
ATOM      8  O8  ZIN A   1      19.906  -0.984   4.492  0.00  0.00    -0.616 OA
ATOM      9  O9  ZIN A   1      19.914  -3.093   5.941  0.00  0.00    -0.616 OA
ENDBRANCH   1   6
TORSDOF 2
ENDMDL
MODEL 7
REMARK VINA RESULT:      -3.8      8.879     11.208
REMARK  2 active torsions:
REMARK  status: ('A' for Active; 'I' for Inactive)
REMARK    1  A    between atoms: P2_2  and  O5_5 
REMARK    2  A    between atoms: O5_5  and  P6_6 
ROOT
ATOM      1  O5  ZIN A   1      18.169  -1.229   6.409  0.00  0.00    -0.166 OA
ENDROOT
BRANCH   1   2
ATOM      2  P2  ZIN A   1      18.539  -0.163   7.557  0.00  0.00     0.432 P 
ATOM      3  O1  ZIN A   1      17.282   0.100   8.452  0.00  0.00    -0.616 OA
ATOM      4  O3  ZIN A   1      18.999   1.181   6.893  0.00  0.00    -0.616 OA
ATOM      5  O4  ZIN A   1      19.701  -0.731   8.442  0.00  0.00    -0.616 OA
ENDBRANCH   1   2
BRANCH   1   6
ATOM      6  P6  ZIN A   1      19.022  -2.009   5.289  0.00  0.00     0.432 P 
ATOM      7  O7  ZIN A   1      19.922  -0.987   4.512  0.00  0.00    -0.616 OA
ATOM      8  O8  ZIN A   1      19.929  -3.085   5.978  0.00  0.00    -0.616 OA
ATOM      9  O9  ZIN A   1      18.046  -2.713   4.285  0.00  0.00    -0.616 OA
ENDBRANCH   1   6
TORSDOF 2
ENDMDL
MODEL 8
REMARK VINA RESULT:      -3.8     10.503     11.754
REMARK  2 active torsions:
REMARK  status: ('A' for Active; 'I' for Inactive)
REMARK    1  A    between atoms: P2_2  and  O5_5 
REMARK    2  A    between atoms: O5_5  and  P6_6 
ROOT
ATOM      1  O5  ZIN A   1      20.128  -3.832   6.280  0.00  0.00    -0.166 OA
ENDROOT
BRANCH   1   2
ATOM      2  P2  ZIN A   1      19.996  -5.170   7.165  0.00  0.00     0.432 P 
ATOM      3  O1  ZIN A   1      21.424  -5.692   7.542  0.00  0.00    -0.616 OA
ATOM      4  O3  ZIN A   1      19.238  -6.268   6.344  0.00  0.00    -0.616 OA
ATOM      5  O4  ZIN A   1      19.195  -4.852   8.475  0.00  0.00    -0.616 OA
ENDBRANCH   1   2
BRANCH   1   6
ATOM      6  P6  ZIN A   1      19.073  -2.757   5.713  0.00  0.00     0.432 P 
ATOM      7  O7  ZIN A   1      17.890  -3.506   5.009  0.00  0.00    -0.616 OA
ATOM      8  O8  ZIN A   1      18.515  -1.898   6.899  0.00  0.00    -0.616 OA
ATOM      9  O9  ZIN A   1      19.786  -1.820   4.679  0.00  0.00    -0.616 OA
ENDBRANCH   1   6
TORSDOF 2
ENDMDL
MODEL 9
REMARK VINA RESULT:      -3.8      8.414     10.072
REMARK  2 active torsions:
REMARK  status: ('A' for Active; 'I' for Inactive)
REMARK    1  A    between atoms: P2_2  and  O5_5 
REMARK    2  A    between atoms: O5_5  and  P6_6 
ROOT
ATOM      1  O5  ZIN A   1      19.065   0.366   6.593  0.00  0.00    -0.166 OA
ENDROOT
BRANCH   1   2
ATOM      2  P2  ZIN A   1      18.980  -0.999   5.744  0.00  0.00     0.432 P 
ATOM      3  O1  ZIN A   1      19.988  -0.934   4.547  0.00  0.00    -0.616 OA
ATOM      4  O3  ZIN A   1      17.525  -1.183   5.194  0.00  0.00    -0.616 OA
ATOM      5  O4  ZIN A   1      19.346  -2.212   6.668  0.00  0.00    -0.616 OA
ENDBRANCH   1   2
BRANCH   1   6
ATOM      6  P6  ZIN A   1      18.899   0.726   8.153  0.00  0.00     0.432 P 
ATOM      7  O7  ZIN A   1      19.086   2.269   8.357  0.00  0.00    -0.616 OA
ATOM      8  O8  ZIN A   1      17.469   0.306   8.636  0.00  0.00    -0.616 OA
ATOM      9  O9  ZIN A   1      19.979  -0.045   8.986  0.00  0.00    -0.616 OA
ENDBRANCH   1   6
TORSDOF 2
ENDMDL
