MODEL 1
REMARK VINA RESULT:      -3.9      0.000      0.000
REMARK  2 active torsions:
REMARK  status: ('A' for Active; 'I' for Inactive)
REMARK    1  A    between atoms: P2_2  and  C5_5 
REMARK    2  A    between atoms: C5_5  and  P6_6 
ROOT
ATOM      1  C5  ZIN A   1      18.755   1.274  16.311  0.00  0.00     0.291 C 
ENDROOT
BRANCH   1   2
ATOM      2  P2  ZIN A   1      18.129  -0.265  15.562  0.00  0.00     0.272 P 
ATOM      3  O1  ZIN A   1      17.027  -0.885  16.487  0.00  0.00    -0.639 OA
ATOM      4  O3  ZIN A   1      19.308  -1.284  15.397  0.00  0.00    -0.639 OA
ATOM      5  O4  ZIN A   1      17.512   0.052  14.156  0.00  0.00    -0.639 OA
ENDBRANCH   1   2
BRANCH   1   6
ATOM      6  P6  ZIN A   1      18.827   1.083  18.123  0.00  0.00     0.272 P 
ATOM      7  O7  ZIN A   1      17.391   1.263  18.724  0.00  0.00    -0.639 OA
ATOM      8  O8  ZIN A   1      19.366  -0.345  18.476  0.00  0.00    -0.639 OA
ATOM      9  O9  ZIN A   1      19.786   2.167  18.724  0.00  0.00    -0.639 OA
ENDBRANCH   1   6
TORSDOF 2
ENDMDL
MODEL 2
REMARK VINA RESULT:      -3.9      0.167      3.854
REMARK  2 active torsions:
REMARK  status: ('A' for Active; 'I' for Inactive)
REMARK    1  A    between atoms: P2_2  and  C5_5 
REMARK    2  A    between atoms: C5_5  and  P6_6 
ROOT
ATOM      1  C5  ZIN A   1      18.704   1.329  16.343  0.00  0.00     0.291 C 
ENDROOT
BRANCH   1   2
ATOM      2  P2  ZIN A   1      18.874   1.198  18.153  0.00  0.00     0.272 P 
ATOM      3  O1  ZIN A   1      19.571  -0.157  18.516  0.00  0.00    -0.639 OA
ATOM      4  O3  ZIN A   1      17.456   1.252  18.818  0.00  0.00    -0.639 OA
ATOM      5  O4  ZIN A   1      19.744   2.390  18.683  0.00  0.00    -0.639 OA
ENDBRANCH   1   2
BRANCH   1   6
ATOM      6  P6  ZIN A   1      18.119  -0.262  15.672  0.00  0.00     0.272 P 
ATOM      7  O7  ZIN A   1      17.002  -0.843  16.604  0.00  0.00    -0.639 OA
ATOM      8  O8  ZIN A   1      17.536  -0.038  14.235  0.00  0.00    -0.639 OA
ATOM      9  O9  ZIN A   1      19.316  -1.269  15.598  0.00  0.00    -0.639 OA
ENDBRANCH   1   6
TORSDOF 2
ENDMDL
MODEL 3
REMARK VINA RESULT:      -3.8      0.154      2.130
REMARK  2 active torsions:
REMARK  status: ('A' for Active; 'I' for Inactive)
REMARK    1  A    between atoms: P2_2  and  C5_5 
REMARK    2  A    between atoms: C5_5  and  P6_6 
ROOT
ATOM      1  C5  ZIN A   1      18.770   1.273  16.314  0.00  0.00     0.291 C 
ENDROOT
BRANCH   1   2
ATOM      2  P2  ZIN A   1      18.153  -0.310  15.655  0.00  0.00     0.272 P 
ATOM      3  O1  ZIN A   1      17.574  -0.088  14.217  0.00  0.00    -0.639 OA
ATOM      4  O3  ZIN A   1      17.026  -0.864  16.593  0.00  0.00    -0.639 OA
ATOM      5  O4  ZIN A   1      19.331  -1.343  15.590  0.00  0.00    -0.639 OA
ENDBRANCH   1   2
BRANCH   1   6
ATOM      6  P6  ZIN A   1      18.883   1.173  18.131  0.00  0.00     0.272 P 
ATOM      7  O7  ZIN A   1      19.551  -0.185  18.539  0.00  0.00    -0.639 OA
ATOM      8  O8  ZIN A   1      19.750   2.363  18.666  0.00  0.00    -0.639 OA
ATOM      9  O9  ZIN A   1      17.446   1.255  18.748  0.00  0.00    -0.639 OA
ENDBRANCH   1   6
TORSDOF 2
ENDMDL
MODEL 4
REMARK VINA RESULT:      -3.7      8.725     10.585
REMARK  2 active torsions:
REMARK  status: ('A' for Active; 'I' for Inactive)
REMARK    1  A    between atoms: P2_2  and  C5_5 
REMARK    2  A    between atoms: C5_5  and  P6_6 
ROOT
ATOM      1  C5  ZIN A   1      19.182   0.941   6.442  0.00  0.00     0.291 C 
ENDROOT
BRANCH   1   2
ATOM      2  P2  ZIN A   1      18.869   0.929   8.237  0.00  0.00     0.272 P 
ATOM      3  O1  ZIN A   1      19.987   0.101   8.957  0.00  0.00    -0.639 OA
ATOM      4  O3  ZIN A   1      17.472   0.278   8.521  0.00  0.00    -0.639 OA
ATOM      5  O4  ZIN A   1      18.879   2.400   8.779  0.00  0.00    -0.639 OA
ENDBRANCH   1   2
BRANCH   1   6
ATOM      6  P6  ZIN A   1      18.942  -0.737   5.771  0.00  0.00     0.272 P 
ATOM      7  O7  ZIN A   1      19.853  -0.932   4.512  0.00  0.00    -0.639 OA
ATOM      8  O8  ZIN A   1      19.325  -1.794   6.862  0.00  0.00    -0.639 OA
ATOM      9  O9  ZIN A   1      17.441  -0.926   5.365  0.00  0.00    -0.639 OA
ENDBRANCH   1   6
TORSDOF 2
ENDMDL
MODEL 5
REMARK VINA RESULT:      -3.7      8.728     11.135
REMARK  2 active torsions:
REMARK  status: ('A' for Active; 'I' for Inactive)
REMARK    1  A    between atoms: P2_2  and  C5_5 
REMARK    2  A    between atoms: C5_5  and  P6_6 
ROOT
ATOM      1  C5  ZIN A   1      19.302  -1.454   7.165  0.00  0.00     0.291 C 
ENDROOT
BRANCH   1   2
ATOM      2  P2  ZIN A   1      18.596   0.137   7.706  0.00  0.00     0.272 P 
ATOM      3  O1  ZIN A   1      17.063  -0.038   7.978  0.00  0.00    -0.639 OA
ATOM      4  O3  ZIN A   1      18.809   1.212   6.587  0.00  0.00    -0.639 OA
ATOM      5  O4  ZIN A   1      19.309   0.604   9.021  0.00  0.00    -0.639 OA
ENDBRANCH   1   2
BRANCH   1   6
ATOM      6  P6  ZIN A   1      19.028  -1.663   5.375  0.00  0.00     0.272 P 
ATOM      7  O7  ZIN A   1      17.536  -1.327   5.032  0.00  0.00    -0.639 OA
ATOM      8  O8  ZIN A   1      19.976  -0.698   4.585  0.00  0.00    -0.639 OA
ATOM      9  O9  ZIN A   1      19.337  -3.145   4.969  0.00  0.00    -0.639 OA
ENDBRANCH   1   6
TORSDOF 2
ENDMDL
MODEL 6
REMARK VINA RESULT:      -3.7      5.047      6.519
REMARK  2 active torsions:
REMARK  status: ('A' for Active; 'I' for Inactive)
REMARK    1  A    between atoms: P2_2  and  C5_5 
REMARK    2  A    between atoms: C5_5  and  P6_6 
ROOT
ATOM      1  C5  ZIN A   1      18.341   0.168  10.320  0.00  0.00     0.291 C 
ENDROOT
BRANCH   1   2
ATOM      2  P2  ZIN A   1      17.284  -0.374  11.703  0.00  0.00     0.272 P 
ATOM      3  O1  ZIN A   1      17.293  -1.938  11.785  0.00  0.00    -0.639 OA
ATOM      4  O3  ZIN A   1      15.819   0.130  11.470  0.00  0.00    -0.639 OA
ATOM      5  O4  ZIN A   1      17.834   0.222  13.044  0.00  0.00    -0.639 OA
ENDBRANCH   1   2
BRANCH   1   6
ATOM      6  P6  ZIN A   1      18.593   1.971  10.418  0.00  0.00     0.272 P 
ATOM      7  O7  ZIN A   1      17.262   2.660  10.877  0.00  0.00    -0.639 OA
ATOM      8  O8  ZIN A   1      19.728   2.285  11.451  0.00  0.00    -0.639 OA
ATOM      9  O9  ZIN A   1      19.005   2.518   9.008  0.00  0.00    -0.639 OA
ENDBRANCH   1   6
TORSDOF 2
ENDMDL
MODEL 7
REMARK VINA RESULT:      -3.7      8.795     10.671
REMARK  2 active torsions:
REMARK  status: ('A' for Active; 'I' for Inactive)
REMARK    1  A    between atoms: P2_2  and  C5_5 
REMARK    2  A    between atoms: C5_5  and  P6_6 
ROOT
ATOM      1  C5  ZIN A   1      19.203  -1.664   7.054  0.00  0.00     0.291 C 
ENDROOT
BRANCH   1   2
ATOM      2  P2  ZIN A   1      18.893  -1.783   5.261  0.00  0.00     0.272 P 
ATOM      3  O1  ZIN A   1      18.996  -3.280   4.812  0.00  0.00    -0.639 OA
ATOM      4  O3  ZIN A   1      19.957  -0.931   4.488  0.00  0.00    -0.639 OA
ATOM      5  O4  ZIN A   1      17.458  -1.240   4.943  0.00  0.00    -0.639 OA
ENDBRANCH   1   2
BRANCH   1   6
ATOM      6  P6  ZIN A   1      18.663  -0.030   7.656  0.00  0.00     0.272 P 
ATOM      7  O7  ZIN A   1      17.124  -0.063   7.947  0.00  0.00    -0.639 OA
ATOM      8  O8  ZIN A   1      19.436   0.324   8.972  0.00  0.00    -0.639 OA
ATOM      9  O9  ZIN A   1      18.966   1.054   6.566  0.00  0.00    -0.639 OA
ENDBRANCH   1   6
TORSDOF 2
ENDMDL
MODEL 8
REMARK VINA RESULT:      -3.7      5.023      6.585
REMARK  2 active torsions:
REMARK  status: ('A' for Active; 'I' for Inactive)
REMARK    1  A    between atoms: P2_2  and  C5_5 
REMARK    2  A    between atoms: C5_5  and  P6_6 
ROOT
ATOM      1  C5  ZIN A   1      18.285   0.117  10.361  0.00  0.00     0.291 C 
ENDROOT
BRANCH   1   2
ATOM      2  P2  ZIN A   1      18.557   1.915  10.491  0.00  0.00     0.272 P 
ATOM      3  O1  ZIN A   1      18.953   2.486   9.087  0.00  0.00    -0.639 OA
ATOM      4  O3  ZIN A   1      19.710   2.197  11.514  0.00  0.00    -0.639 OA
ATOM      5  O4  ZIN A   1      17.241   2.608  10.984  0.00  0.00    -0.639 OA
ENDBRANCH   1   2
BRANCH   1   6
ATOM      6  P6  ZIN A   1      17.218  -0.436  11.733  0.00  0.00     0.272 P 
ATOM      7  O7  ZIN A   1      17.181  -2.002  11.767  0.00  0.00    -0.639 OA
ATOM      8  O8  ZIN A   1      17.790   0.103  13.088  0.00  0.00    -0.639 OA
ATOM      9  O9  ZIN A   1      15.768   0.118  11.522  0.00  0.00    -0.639 OA
ENDBRANCH   1   6
TORSDOF 2
ENDMDL
MODEL 9
REMARK VINA RESULT:      -3.7      8.787     10.764
REMARK  2 active torsions:
REMARK  status: ('A' for Active; 'I' for Inactive)
REMARK    1  A    between atoms: P2_2  and  C5_5 
REMARK    2  A    between atoms: C5_5  and  P6_6 
ROOT
ATOM      1  C5  ZIN A   1      19.219  -1.650   7.064  0.00  0.00     0.291 C 
ENDROOT
BRANCH   1   2
ATOM      2  P2  ZIN A   1      18.900  -1.778   5.274  0.00  0.00     0.272 P 
ATOM      3  O1  ZIN A   1      19.956  -0.925   4.493  0.00  0.00    -0.639 OA
ATOM      4  O3  ZIN A   1      17.461  -1.244   4.960  0.00  0.00    -0.639 OA
ATOM      5  O4  ZIN A   1      19.009  -3.277   4.831  0.00  0.00    -0.639 OA
ENDBRANCH   1   2
BRANCH   1   6
ATOM      6  P6  ZIN A   1      18.664  -0.021   7.666  0.00  0.00     0.272 P 
ATOM      7  O7  ZIN A   1      18.949   1.064   6.572  0.00  0.00    -0.639 OA
ATOM      8  O8  ZIN A   1      17.127  -0.071   7.965  0.00  0.00    -0.639 OA
ATOM      9  O9  ZIN A   1      19.440   0.343   8.978  0.00  0.00    -0.639 OA
ENDBRANCH   1   6
TORSDOF 2
ENDMDL
