MODEL 1
REMARK VINA RESULT:      -4.9      0.000      0.000
REMARK  4 active torsions:
REMARK  status: ('A' for Active; 'I' for Inactive)
REMARK    1  A    between atoms: C5_5  and  N6_6 
REMARK    2  A    between atoms: N9_9  and  C10_10 
REMARK    3  A    between atoms: C10_10  and  C11_11 
REMARK    4  A    between atoms: C11_11  and  O14_13 
ROOT
ATOM      1  C1  ZIN A   1      19.279   0.193   4.899  0.00  0.00     0.091 C 
ATOM      2  C2  ZIN A   1      19.240  -1.019   5.794  0.00  0.00     0.103 A 
ATOM      3  N3  ZIN A   1      19.617  -2.223   5.462  0.00  0.00    -0.244 NA
ATOM      4  C4  ZIN A   1      19.443  -3.045   6.507  0.00  0.00     0.173 A 
ATOM      5  C5  ZIN A   1      18.938  -2.323   7.526  0.00  0.00     0.195 A 
ATOM      6  N9  ZIN A   1      18.813  -1.037   7.076  0.00  0.00    -0.313 N 
ENDROOT
BRANCH   6   7
ATOM      7  C10 ZIN A   1      18.305   0.106   7.839  0.00  0.00     0.163 C 
BRANCH   7   8
ATOM      8  C11 ZIN A   1      19.480   0.953   8.332  0.00  0.00     0.132 C 
ATOM      9  C13 ZIN A   1      18.951   2.250   8.948  0.00  0.00     0.041 C 
BRANCH   8  10
ATOM     10  O14 ZIN A   1      20.214   0.223   9.317  0.00  0.00    -0.394 OA
ATOM     11  H24 ZIN A   1      19.806  -0.616   9.571  0.00  0.00     0.210 HD
ENDBRANCH   8  10
ENDBRANCH   7   8
ENDBRANCH   6   7
BRANCH   5  12
ATOM     12  N6  ZIN A   1      18.589  -2.825   8.874  0.00  0.00    -0.096 N 
ATOM     13  O7  ZIN A   1      19.304  -2.566   9.825  0.00  0.00    -0.530 OA
ATOM     14  O8  ZIN A   1      17.585  -3.495   9.033  0.00  0.00    -0.530 OA
ENDBRANCH   5  12
TORSDOF 4
ENDMDL
MODEL 2
REMARK VINA RESULT:      -4.7      3.462      5.002
REMARK  4 active torsions:
REMARK  status: ('A' for Active; 'I' for Inactive)
REMARK    1  A    between atoms: C5_5  and  N6_6 
REMARK    2  A    between atoms: N9_9  and  C10_10 
REMARK    3  A    between atoms: C10_10  and  C11_11 
REMARK    4  A    between atoms: C11_11  and  O14_13 
ROOT
ATOM      1  C1  ZIN A   1      19.674  -1.032   8.552  0.00  0.00     0.091 C 
ATOM      2  C2  ZIN A   1      19.283   0.398   8.821  0.00  0.00     0.103 A 
ATOM      3  N3  ZIN A   1      19.137   1.330   7.918  0.00  0.00    -0.244 NA
ATOM      4  C4  ZIN A   1      18.783   2.475   8.518  0.00  0.00     0.173 A 
ATOM      5  C5  ZIN A   1      18.705   2.246   9.843  0.00  0.00     0.195 A 
ATOM      6  N9  ZIN A   1      19.018   0.927  10.035  0.00  0.00    -0.313 N 
ENDROOT
BRANCH   6   7
ATOM      7  C10 ZIN A   1      19.064   0.223  11.319  0.00  0.00     0.163 C 
BRANCH   7   8
ATOM      8  C11 ZIN A   1      20.332   0.625  12.076  0.00  0.00     0.132 C 
ATOM      9  C13 ZIN A   1      20.185   0.251  13.552  0.00  0.00     0.041 C 
BRANCH   8  10
ATOM     10  O14 ZIN A   1      21.456  -0.061  11.520  0.00  0.00    -0.394 OA
ATOM     11  H24 ZIN A   1      21.924  -0.625  12.151  0.00  0.00     0.210 HD
ENDBRANCH   8  10
ENDBRANCH   7   8
ENDBRANCH   6   7
BRANCH   5  12
ATOM     12  N6  ZIN A   1      18.348   3.230  10.889  0.00  0.00    -0.096 N 
ATOM     13  O7  ZIN A   1      17.180   3.413  11.181  0.00  0.00    -0.530 OA
ATOM     14  O8  ZIN A   1      19.223   3.857  11.459  0.00  0.00    -0.530 OA
ENDBRANCH   5  12
TORSDOF 4
ENDMDL
MODEL 3
REMARK VINA RESULT:      -4.6      7.533      9.230
REMARK  4 active torsions:
REMARK  status: ('A' for Active; 'I' for Inactive)
REMARK    1  A    between atoms: C5_5  and  N6_6 
REMARK    2  A    between atoms: N9_9  and  C10_10 
REMARK    3  A    between atoms: C10_10  and  C11_11 
REMARK    4  A    between atoms: C11_11  and  O14_13 
ROOT
ATOM      1  C1  ZIN A   1      19.503   3.947  16.228  0.00  0.00     0.091 C 
ATOM      2  C2  ZIN A   1      19.322   2.584  16.845  0.00  0.00     0.103 A 
ATOM      3  N3  ZIN A   1      19.552   2.277  18.092  0.00  0.00    -0.244 NA
ATOM      4  C4  ZIN A   1      19.282   0.978  18.285  0.00  0.00     0.173 A 
ATOM      5  C5  ZIN A   1      18.868   0.459  17.112  0.00  0.00     0.195 A 
ATOM      6  N9  ZIN A   1      18.889   1.479  16.200  0.00  0.00    -0.313 N 
ENDROOT
BRANCH   6   7
ATOM      7  C10 ZIN A   1      18.518   1.388  14.785  0.00  0.00     0.163 C 
BRANCH   7   8
ATOM      8  C11 ZIN A   1      19.655   0.730  14.001  0.00  0.00     0.132 C 
ATOM      9  C13 ZIN A   1      19.146  -0.552  13.340  0.00  0.00     0.041 C 
BRANCH   8  10
ATOM     10  O14 ZIN A   1      20.123   1.631  12.994  0.00  0.00    -0.394 OA
ATOM     11  H24 ZIN A   1      20.425   1.196  12.186  0.00  0.00     0.210 HD
ENDBRANCH   8  10
ENDBRANCH   7   8
ENDBRANCH   6   7
BRANCH   5  12
ATOM     12  N6  ZIN A   1      18.464  -0.942  16.861  0.00  0.00    -0.096 N 
ATOM     13  O7  ZIN A   1      19.311  -1.794  16.666  0.00  0.00    -0.530 OA
ATOM     14  O8  ZIN A   1      17.284  -1.243  16.851  0.00  0.00    -0.530 OA
ENDBRANCH   5  12
TORSDOF 4
ENDMDL
MODEL 4
REMARK VINA RESULT:      -4.6      7.697      9.729
REMARK  4 active torsions:
REMARK  status: ('A' for Active; 'I' for Inactive)
REMARK    1  A    between atoms: C5_5  and  N6_6 
REMARK    2  A    between atoms: N9_9  and  C10_10 
REMARK    3  A    between atoms: C10_10  and  C11_11 
REMARK    4  A    between atoms: C11_11  and  O14_13 
ROOT
ATOM      1  C1  ZIN A   1      19.269   0.301  18.227  0.00  0.00     0.091 C 
ATOM      2  C2  ZIN A   1      19.199   1.607  17.477  0.00  0.00     0.103 A 
ATOM      3  N3  ZIN A   1      19.592   2.766  17.930  0.00  0.00    -0.244 NA
ATOM      4  C4  ZIN A   1      19.381   3.701  16.992  0.00  0.00     0.173 A 
ATOM      5  C5  ZIN A   1      18.837   3.099  15.917  0.00  0.00     0.195 A 
ATOM      6  N9  ZIN A   1      18.726   1.770  16.222  0.00  0.00    -0.313 N 
ENDROOT
BRANCH   6   7
ATOM      7  C10 ZIN A   1      18.188   0.720  15.353  0.00  0.00     0.163 C 
BRANCH   7   8
ATOM      8  C11 ZIN A   1      19.341  -0.057  14.716  0.00  0.00     0.132 C 
ATOM      9  C13 ZIN A   1      18.782  -1.226  13.902  0.00  0.00     0.041 C 
BRANCH   8  10
ATOM     10  O14 ZIN A   1      20.083   0.811  13.855  0.00  0.00    -0.394 OA
ATOM     11  H24 ZIN A   1      20.223   0.457  12.967  0.00  0.00     0.210 HD
ENDBRANCH   8  10
ENDBRANCH   7   8
ENDBRANCH   6   7
BRANCH   5  12
ATOM     12  N6  ZIN A   1      18.440   3.750  14.648  0.00  0.00    -0.096 N 
ATOM     13  O7  ZIN A   1      17.419   4.411  14.596  0.00  0.00    -0.530 OA
ATOM     14  O8  ZIN A   1      19.136   3.626  13.657  0.00  0.00    -0.530 OA
ENDBRANCH   5  12
TORSDOF 4
ENDMDL
MODEL 5
REMARK VINA RESULT:      -4.6      2.231      3.244
REMARK  4 active torsions:
REMARK  status: ('A' for Active; 'I' for Inactive)
REMARK    1  A    between atoms: C5_5  and  N6_6 
REMARK    2  A    between atoms: N9_9  and  C10_10 
REMARK    3  A    between atoms: C10_10  and  C11_11 
REMARK    4  A    between atoms: C11_11  and  O14_13 
ROOT
ATOM      1  C1  ZIN A   1      18.817  -3.118   9.784  0.00  0.00     0.091 C 
ATOM      2  C2  ZIN A   1      19.002  -2.954   8.297  0.00  0.00     0.103 A 
ATOM      3  N3  ZIN A   1      19.377  -3.891   7.469  0.00  0.00    -0.244 NA
ATOM      4  C4  ZIN A   1      19.433  -3.388   6.228  0.00  0.00     0.173 A 
ATOM      5  C5  ZIN A   1      19.080  -2.089   6.288  0.00  0.00     0.195 A 
ATOM      6  N9  ZIN A   1      18.802  -1.815   7.599  0.00  0.00    -0.313 N 
ENDROOT
BRANCH   6   7
ATOM      7  C10 ZIN A   1      18.376  -0.524   8.146  0.00  0.00     0.163 C 
BRANCH   7   8
ATOM      8  C11 ZIN A   1      19.584   0.407   8.260  0.00  0.00     0.132 C 
ATOM      9  C13 ZIN A   1      19.105   1.856   8.366  0.00  0.00     0.041 C 
BRANCH   8  10
ATOM     10  O14 ZIN A   1      20.338   0.068   9.427  0.00  0.00    -0.394 OA
ATOM     11  H24 ZIN A   1      20.050   0.526  10.228  0.00  0.00     0.210 HD
ENDBRANCH   8  10
ENDBRANCH   7   8
ENDBRANCH   6   7
BRANCH   5  12
ATOM     12  N6  ZIN A   1      19.004  -1.143   5.152  0.00  0.00    -0.096 N 
ATOM     13  O7  ZIN A   1      17.922  -0.748   4.759  0.00  0.00    -0.530 OA
ATOM     14  O8  ZIN A   1      20.026  -0.758   4.612  0.00  0.00    -0.530 OA
ENDBRANCH   5  12
TORSDOF 4
ENDMDL
MODEL 6
REMARK VINA RESULT:      -4.6      3.464      5.037
REMARK  4 active torsions:
REMARK  status: ('A' for Active; 'I' for Inactive)
REMARK    1  A    between atoms: C5_5  and  N6_6 
REMARK    2  A    between atoms: N9_9  and  C10_10 
REMARK    3  A    between atoms: C10_10  and  C11_11 
REMARK    4  A    between atoms: C11_11  and  O14_13 
ROOT
ATOM      1  C1  ZIN A   1      19.572  -1.064   8.368  0.00  0.00     0.091 C 
ATOM      2  C2  ZIN A   1      19.237   0.368   8.696  0.00  0.00     0.103 A 
ATOM      3  N3  ZIN A   1      19.295   1.373   7.864  0.00  0.00    -0.244 NA
ATOM      4  C4  ZIN A   1      18.926   2.494   8.500  0.00  0.00     0.173 A 
ATOM      5  C5  ZIN A   1      18.628   2.174   9.774  0.00  0.00     0.195 A 
ATOM      6  N9  ZIN A   1      18.821   0.824   9.897  0.00  0.00    -0.313 N 
ENDROOT
BRANCH   6   7
ATOM      7  C10 ZIN A   1      18.621   0.025  11.109  0.00  0.00     0.163 C 
BRANCH   7   8
ATOM      8  C11 ZIN A   1      17.279  -0.703  11.024  0.00  0.00     0.132 C 
ATOM      9  C13 ZIN A   1      17.384  -2.054  11.735  0.00  0.00     0.041 C 
BRANCH   8  10
ATOM     10  O14 ZIN A   1      16.267   0.088  11.651  0.00  0.00    -0.394 OA
ATOM     11  H24 ZIN A   1      15.829  -0.349  12.394  0.00  0.00     0.210 HD
ENDBRANCH   8  10
ENDBRANCH   7   8
ENDBRANCH   6   7
BRANCH   5  12
ATOM     12  N6  ZIN A   1      18.177   3.102  10.835  0.00  0.00    -0.096 N 
ATOM     13  O7  ZIN A   1      17.002   3.139  11.152  0.00  0.00    -0.530 OA
ATOM     14  O8  ZIN A   1      18.981   3.828  11.391  0.00  0.00    -0.530 OA
ENDBRANCH   5  12
TORSDOF 4
ENDMDL
MODEL 7
REMARK VINA RESULT:      -4.6      3.426      4.304
REMARK  4 active torsions:
REMARK  status: ('A' for Active; 'I' for Inactive)
REMARK    1  A    between atoms: C5_5  and  N6_6 
REMARK    2  A    between atoms: N9_9  and  C10_10 
REMARK    3  A    between atoms: C10_10  and  C11_11 
REMARK    4  A    between atoms: C11_11  and  O14_13 
ROOT
ATOM      1  C1  ZIN A   1      19.169   1.726   8.239  0.00  0.00     0.091 C 
ATOM      2  C2  ZIN A   1      19.445   0.787   9.385  0.00  0.00     0.103 A 
ATOM      3  N3  ZIN A   1      19.954  -0.410   9.282  0.00  0.00    -0.244 NA
ATOM      4  C4  ZIN A   1      20.059  -0.952  10.504  0.00  0.00     0.173 A 
ATOM      5  C5  ZIN A   1      19.598  -0.058  11.399  0.00  0.00     0.195 A 
ATOM      6  N9  ZIN A   1      19.212   1.048  10.690  0.00  0.00    -0.313 N 
ENDROOT
BRANCH   6   7
ATOM      7  C10 ZIN A   1      18.646   2.281  11.242  0.00  0.00     0.163 C 
BRANCH   7   8
ATOM      8  C11 ZIN A   1      19.743   3.342  11.353  0.00  0.00     0.132 C 
ATOM      9  C13 ZIN A   1      19.297   4.438  12.323  0.00  0.00     0.041 C 
BRANCH   8  10
ATOM     10  O14 ZIN A   1      20.944   2.737  11.838  0.00  0.00    -0.394 OA
ATOM     11  H24 ZIN A   1      21.742   3.015  11.369  0.00  0.00     0.210 HD
ENDBRANCH   8  10
ENDBRANCH   7   8
ENDBRANCH   6   7
BRANCH   5  12
ATOM     12  N6  ZIN A   1      19.525  -0.235  12.867  0.00  0.00    -0.096 N 
ATOM     13  O7  ZIN A   1      20.354   0.291  13.586  0.00  0.00    -0.530 OA
ATOM     14  O8  ZIN A   1      18.634  -0.907  13.355  0.00  0.00    -0.530 OA
ENDBRANCH   5  12
TORSDOF 4
ENDMDL
MODEL 8
REMARK VINA RESULT:      -4.6      7.961      9.751
REMARK  4 active torsions:
REMARK  status: ('A' for Active; 'I' for Inactive)
REMARK    1  A    between atoms: C5_5  and  N6_6 
REMARK    2  A    between atoms: N9_9  and  C10_10 
REMARK    3  A    between atoms: C10_10  and  C11_11 
REMARK    4  A    between atoms: C11_11  and  O14_13 
ROOT
ATOM      1  C1  ZIN A   1      18.101  -1.643  16.375  0.00  0.00     0.091 C 
ATOM      2  C2  ZIN A   1      18.541  -0.337  16.986  0.00  0.00     0.103 A 
ATOM      3  N3  ZIN A   1      18.935  -0.169  18.219  0.00  0.00    -0.244 NA
ATOM      4  C4  ZIN A   1      19.250   1.120  18.409  0.00  0.00     0.173 A 
ATOM      5  C5  ZIN A   1      19.044   1.776  17.251  0.00  0.00     0.195 A 
ATOM      6  N9  ZIN A   1      18.599   0.851  16.346  0.00  0.00    -0.313 N 
ENDROOT
BRANCH   6   7
ATOM      7  C10 ZIN A   1      18.243   1.103  14.948  0.00  0.00     0.163 C 
BRANCH   7   8
ATOM      8  C11 ZIN A   1      19.495   0.990  14.075  0.00  0.00     0.132 C 
ATOM      9  C13 ZIN A   1      19.373  -0.233  13.164  0.00  0.00     0.041 C 
BRANCH   8  10
ATOM     10  O14 ZIN A   1      19.626   2.168  13.275  0.00  0.00    -0.394 OA
ATOM     11  H24 ZIN A   1      19.710   1.993  12.328  0.00  0.00     0.210 HD
ENDBRANCH   8  10
ENDBRANCH   7   8
ENDBRANCH   6   7
BRANCH   5  12
ATOM     12  N6  ZIN A   1      19.262   3.219  17.004  0.00  0.00    -0.096 N 
ATOM     13  O7  ZIN A   1      18.328   3.997  17.072  0.00  0.00    -0.530 OA
ATOM     14  O8  ZIN A   1      20.376   3.629  16.733  0.00  0.00    -0.530 OA
ENDBRANCH   5  12
TORSDOF 4
ENDMDL
MODEL 9
REMARK VINA RESULT:      -4.5      2.641      3.682
REMARK  4 active torsions:
REMARK  status: ('A' for Active; 'I' for Inactive)
REMARK    1  A    between atoms: C5_5  and  N6_6 
REMARK    2  A    between atoms: N9_9  and  C10_10 
REMARK    3  A    between atoms: C10_10  and  C11_11 
REMARK    4  A    between atoms: C11_11  and  O14_13 
ROOT
ATOM      1  C1  ZIN A   1      19.106  -2.840   7.736  0.00  0.00     0.091 C 
ATOM      2  C2  ZIN A   1      18.620  -2.255   9.037  0.00  0.00     0.103 A 
ATOM      3  N3  ZIN A   1      18.737  -2.811  10.212  0.00  0.00    -0.244 NA
ATOM      4  C4  ZIN A   1      18.194  -2.007  11.138  0.00  0.00     0.173 A 
ATOM      5  C5  ZIN A   1      17.724  -0.910  10.514  0.00  0.00     0.195 A 
ATOM      6  N9  ZIN A   1      17.998  -1.065   9.182  0.00  0.00    -0.313 N 
ENDROOT
BRANCH   6   7
ATOM      7  C10 ZIN A   1      17.670  -0.119   8.112  0.00  0.00     0.163 C 
BRANCH   7   8
ATOM      8  C11 ZIN A   1      18.881   0.772   7.829  0.00  0.00     0.132 C 
ATOM      9  C13 ZIN A   1      18.877   1.189   6.357  0.00  0.00     0.041 C 
BRANCH   8  10
ATOM     10  O14 ZIN A   1      18.818   1.937   8.654  0.00  0.00    -0.394 OA
ATOM     11  H24 ZIN A   1      19.680   2.254   8.955  0.00  0.00     0.210 HD
ENDBRANCH   8  10
ENDBRANCH   7   8
ENDBRANCH   6   7
BRANCH   5  12
ATOM     12  N6  ZIN A   1      17.044   0.242  11.148  0.00  0.00    -0.096 N 
ATOM     13  O7  ZIN A   1      15.877   0.152  11.483  0.00  0.00    -0.530 OA
ATOM     14  O8  ZIN A   1      17.653   1.280  11.335  0.00  0.00    -0.530 OA
ENDBRANCH   5  12
TORSDOF 4
ENDMDL
