MODEL 1
REMARK VINA RESULT:      -6.7      0.000      0.000
REMARK  8 active torsions:
REMARK  status: ('A' for Active; 'I' for Inactive)
REMARK    1  A    between atoms: N2_2  and  C5_5 
REMARK    2  A    between atoms: C5_5  and  C6_6 
REMARK    3  A    between atoms: C6_6  and  O7_7 
REMARK    4  A    between atoms: O7_7  and  C8_8 
REMARK    5  A    between atoms: C8_8  and  C10_10 
REMARK    6  A    between atoms: C10_10  and  C12_11 
REMARK    7  A    between atoms: C10_10  and  C18_17 
REMARK    8  A    between atoms: C18_17  and  O19_18 
ROOT
ATOM      1  C10 ZIN A   1      17.442   1.194  10.012  0.00  0.00     0.152 C 
ENDROOT
BRANCH   1   2
ATOM      2  C8  ZIN A   1      17.111   0.135  11.032  0.00  0.00     0.270 C 
ATOM      3  O9  ZIN A   1      15.993   0.063  11.488  0.00  0.00    -0.264 OA
BRANCH   2   4
ATOM      4  O7  ZIN A   1      18.056  -0.729  11.434  0.00  0.00    -0.319 OA
BRANCH   4   5
ATOM      5  C6  ZIN A   1      17.609  -2.041  11.868  0.00  0.00     0.206 C 
BRANCH   5   6
ATOM      6  C5  ZIN A   1      17.648  -3.009  10.684  0.00  0.00     0.260 C 
BRANCH   6   7
ATOM      7  N2  ZIN A   1      19.017  -3.084  10.156  0.00  0.00    -0.077 N 
ATOM      8  C1  ZIN A   1      19.859  -3.849  11.086  0.00  0.00     0.269 C 
ATOM      9  H3  ZIN A   1      19.390  -2.151  10.056  0.00  0.00     0.279 HD
ATOM     10  C4  ZIN A   1      19.002  -3.750   8.848  0.00  0.00     0.269 C 
ENDBRANCH   6   7
ENDBRANCH   5   6
ENDBRANCH   4   5
ENDBRANCH   2   4
ENDBRANCH   1   2
BRANCH   1  11
ATOM     11  C12 ZIN A   1      18.111   2.358  10.695  0.00  0.00    -0.042 A 
ATOM     12  C17 ZIN A   1      17.501   3.599  10.702  0.00  0.00     0.008 A 
ATOM     13  C16 ZIN A   1      18.114   4.666  11.332  0.00  0.00     0.001 A 
ATOM     14  C15 ZIN A   1      19.338   4.495  11.950  0.00  0.00     0.000 A 
ATOM     15  C14 ZIN A   1      19.950   3.255  11.939  0.00  0.00     0.001 A 
ATOM     16  C13 ZIN A   1      19.337   2.187  11.312  0.00  0.00     0.008 A 
ENDBRANCH   1  11
BRANCH   1  17
ATOM     17  C18 ZIN A   1      18.387   0.609   8.959  0.00  0.00     0.074 C 
ATOM     18  C23 ZIN A   1      18.920   1.723   8.034  0.00  0.00     0.039 C 
ATOM     19  C22 ZIN A   1      18.991   1.123   6.619  0.00  0.00     0.003 C 
ATOM     20  C21 ZIN A   1      18.499  -0.334   6.733  0.00  0.00     0.003 C 
ATOM     21  C20 ZIN A   1      17.617  -0.339   8.007  0.00  0.00     0.039 C 
BRANCH  17  22
ATOM     22  O19 ZIN A   1      19.470  -0.080   9.588  0.00  0.00    -0.389 OA
ATOM     23  H39 ZIN A   1      20.287  -0.082   9.071  0.00  0.00     0.210 HD
ENDBRANCH  17  22
ENDBRANCH   1  17
TORSDOF 8
ENDMDL
MODEL 2
REMARK VINA RESULT:      -6.6      1.196      4.082
REMARK  8 active torsions:
REMARK  status: ('A' for Active; 'I' for Inactive)
REMARK    1  A    between atoms: N2_2  and  C5_5 
REMARK    2  A    between atoms: C5_5  and  C6_6 
REMARK    3  A    between atoms: C6_6  and  O7_7 
REMARK    4  A    between atoms: O7_7  and  C8_8 
REMARK    5  A    between atoms: C8_8  and  C10_10 
REMARK    6  A    between atoms: C10_10  and  C12_11 
REMARK    7  A    between atoms: C10_10  and  C18_17 
REMARK    8  A    between atoms: C18_17  and  O19_18 
ROOT
ATOM      1  C10 ZIN A   1      19.238   1.912  10.569  0.00  0.00     0.152 C 
ENDROOT
BRANCH   1   2
ATOM      2  C8  ZIN A   1      19.572   0.810  11.541  0.00  0.00     0.270 C 
ATOM      3  O9  ZIN A   1      20.720   0.615  11.863  0.00  0.00    -0.264 OA
BRANCH   2   4
ATOM      4  O7  ZIN A   1      18.594   0.044  12.049  0.00  0.00    -0.319 OA
BRANCH   4   5
ATOM      5  C6  ZIN A   1      18.996  -1.175  12.728  0.00  0.00     0.206 C 
BRANCH   5   6
ATOM      6  C5  ZIN A   1      18.393  -2.382  12.007  0.00  0.00     0.260 C 
BRANCH   6   7
ATOM      7  N2  ZIN A   1      19.308  -2.826  10.946  0.00  0.00    -0.077 N 
ATOM      8  C1  ZIN A   1      20.159  -3.910  11.454  0.00  0.00     0.269 C 
ATOM      9  H3  ZIN A   1      19.887  -2.051  10.656  0.00  0.00     0.279 HD
ATOM     10  C4  ZIN A   1      18.529  -3.311   9.800  0.00  0.00     0.269 C 
ENDBRANCH   6   7
ENDBRANCH   5   6
ENDBRANCH   4   5
ENDBRANCH   2   4
ENDBRANCH   1   2
BRANCH   1  11
ATOM     11  C12 ZIN A   1      18.773   1.311   9.267  0.00  0.00    -0.042 A 
ATOM     12  C17 ZIN A   1      17.777   0.354   9.265  0.00  0.00     0.008 A 
ATOM     13  C16 ZIN A   1      17.347  -0.194   8.070  0.00  0.00     0.001 A 
ATOM     14  C15 ZIN A   1      17.918   0.211   6.879  0.00  0.00     0.000 A 
ATOM     15  C14 ZIN A   1      18.918   1.166   6.882  0.00  0.00     0.001 A 
ATOM     16  C13 ZIN A   1      19.346   1.716   8.075  0.00  0.00     0.008 A 
ENDBRANCH   1  11
BRANCH   1  17
ATOM     17  C18 ZIN A   1      18.126   2.787  11.153  0.00  0.00     0.074 C 
ATOM     18  C23 ZIN A   1      17.762   3.922  10.173  0.00  0.00     0.039 C 
ATOM     19  C22 ZIN A   1      17.477   5.168  11.030  0.00  0.00     0.003 C 
ATOM     20  C21 ZIN A   1      17.676   4.746  12.500  0.00  0.00     0.003 C 
ATOM     21  C20 ZIN A   1      18.625   3.523  12.420  0.00  0.00     0.039 C 
BRANCH  17  22
ATOM     22  O19 ZIN A   1      16.974   1.996  11.451  0.00  0.00    -0.389 OA
ATOM     23  H39 ZIN A   1      16.767   1.942  12.394  0.00  0.00     0.210 HD
ENDBRANCH  17  22
ENDBRANCH   1  17
TORSDOF 8
ENDMDL
MODEL 3
REMARK VINA RESULT:      -6.6      2.209      4.852
REMARK  8 active torsions:
REMARK  status: ('A' for Active; 'I' for Inactive)
REMARK    1  A    between atoms: N2_2  and  C5_5 
REMARK    2  A    between atoms: C5_5  and  C6_6 
REMARK    3  A    between atoms: C6_6  and  O7_7 
REMARK    4  A    between atoms: O7_7  and  C8_8 
REMARK    5  A    between atoms: C8_8  and  C10_10 
REMARK    6  A    between atoms: C10_10  and  C12_11 
REMARK    7  A    between atoms: C10_10  and  C18_17 
REMARK    8  A    between atoms: C18_17  and  O19_18 
ROOT
ATOM      1  C10 ZIN A   1      19.255   1.983  10.485  0.00  0.00     0.152 C 
ENDROOT
BRANCH   1   2
ATOM      2  C8  ZIN A   1      19.649   0.895  11.451  0.00  0.00     0.270 C 
ATOM      3  O9  ZIN A   1      20.785   0.830  11.858  0.00  0.00    -0.264 OA
BRANCH   2   4
ATOM      4  O7  ZIN A   1      18.738  -0.002  11.860  0.00  0.00    -0.319 OA
BRANCH   4   5
ATOM      5  C6  ZIN A   1      19.215  -1.097  12.687  0.00  0.00     0.206 C 
BRANCH   5   6
ATOM      6  C5  ZIN A   1      18.410  -1.143  13.986  0.00  0.00     0.260 C 
BRANCH   6   7
ATOM      7  N2  ZIN A   1      19.253  -0.691  15.102  0.00  0.00    -0.077 N 
ATOM      8  C1  ZIN A   1      19.217   0.775  15.179  0.00  0.00     0.269 C 
ATOM      9  H3  ZIN A   1      20.203  -0.997  14.951  0.00  0.00     0.279 HD
ATOM     10  C4  ZIN A   1      18.748  -1.260  16.358  0.00  0.00     0.269 C 
ENDBRANCH   6   7
ENDBRANCH   5   6
ENDBRANCH   4   5
ENDBRANCH   2   4
ENDBRANCH   1   2
BRANCH   1  11
ATOM     11  C12 ZIN A   1      18.780   1.363   9.196  0.00  0.00    -0.042 A 
ATOM     12  C17 ZIN A   1      19.310   1.784   7.991  0.00  0.00     0.008 A 
ATOM     13  C16 ZIN A   1      18.877   1.212   6.809  0.00  0.00     0.001 A 
ATOM     14  C15 ZIN A   1      17.911   0.224   6.832  0.00  0.00     0.000 A 
ATOM     15  C14 ZIN A   1      17.378  -0.194   8.037  0.00  0.00     0.001 A 
ATOM     16  C13 ZIN A   1      17.812   0.375   9.219  0.00  0.00     0.008 A 
ENDBRANCH   1  11
BRANCH   1  17
ATOM     17  C18 ZIN A   1      18.128   2.821  11.094  0.00  0.00     0.074 C 
ATOM     18  C23 ZIN A   1      17.718   3.955  10.131  0.00  0.00     0.039 C 
ATOM     19  C22 ZIN A   1      17.411   5.184  11.004  0.00  0.00     0.003 C 
ATOM     20  C21 ZIN A   1      17.643   4.753  12.467  0.00  0.00     0.003 C 
ATOM     21  C20 ZIN A   1      18.624   3.558  12.361  0.00  0.00     0.039 C 
BRANCH  17  22
ATOM     22  O19 ZIN A   1      17.002   1.995  11.400  0.00  0.00    -0.389 OA
ATOM     23  H39 ZIN A   1      16.151   2.383  11.155  0.00  0.00     0.210 HD
ENDBRANCH  17  22
ENDBRANCH   1  17
TORSDOF 8
ENDMDL
MODEL 4
REMARK VINA RESULT:      -6.5      1.726      2.647
REMARK  8 active torsions:
REMARK  status: ('A' for Active; 'I' for Inactive)
REMARK    1  A    between atoms: N2_2  and  C5_5 
REMARK    2  A    between atoms: C5_5  and  C6_6 
REMARK    3  A    between atoms: C6_6  and  O7_7 
REMARK    4  A    between atoms: O7_7  and  C8_8 
REMARK    5  A    between atoms: C8_8  and  C10_10 
REMARK    6  A    between atoms: C10_10  and  C12_11 
REMARK    7  A    between atoms: C10_10  and  C18_17 
REMARK    8  A    between atoms: C18_17  and  O19_18 
ROOT
ATOM      1  C10 ZIN A   1      17.459   1.178   9.931  0.00  0.00     0.152 C 
ENDROOT
BRANCH   1   2
ATOM      2  C8  ZIN A   1      17.156   0.079  10.915  0.00  0.00     0.270 C 
ATOM      3  O9  ZIN A   1      16.090   0.053  11.484  0.00  0.00    -0.264 OA
BRANCH   2   4
ATOM      4  O7  ZIN A   1      18.070  -0.873  11.161  0.00  0.00    -0.319 OA
BRANCH   4   5
ATOM      5  C6  ZIN A   1      17.864  -1.697  12.339  0.00  0.00     0.206 C 
BRANCH   5   6
ATOM      6  C5  ZIN A   1      18.790  -1.222  13.461  0.00  0.00     0.260 C 
BRANCH   6   7
ATOM      7  N2  ZIN A   1      17.984  -0.757  14.598  0.00  0.00    -0.077 N 
ATOM      8  C1  ZIN A   1      18.629  -1.164  15.854  0.00  0.00     0.269 C 
ATOM      9  H3  ZIN A   1      17.062  -1.165  14.546  0.00  0.00     0.279 HD
ATOM     10  C4  ZIN A   1      17.876   0.706  14.555  0.00  0.00     0.269 C 
ENDBRANCH   6   7
ENDBRANCH   5   6
ENDBRANCH   4   5
ENDBRANCH   2   4
ENDBRANCH   1   2
BRANCH   1  11
ATOM     11  C12 ZIN A   1      18.101   2.336  10.651  0.00  0.00    -0.042 A 
ATOM     12  C17 ZIN A   1      19.272   2.144  11.360  0.00  0.00     0.008 A 
ATOM     13  C16 ZIN A   1      19.864   3.208  12.017  0.00  0.00     0.001 A 
ATOM     14  C15 ZIN A   1      19.281   4.460  11.970  0.00  0.00     0.000 A 
ATOM     15  C14 ZIN A   1      18.108   4.650  11.264  0.00  0.00     0.001 A 
ATOM     16  C13 ZIN A   1      17.517   3.589  10.605  0.00  0.00     0.008 A 
ENDBRANCH   1  11
BRANCH   1  17
ATOM     17  C18 ZIN A   1      18.414   0.652   8.857  0.00  0.00     0.074 C 
ATOM     18  C23 ZIN A   1      18.928   1.811   7.977  0.00  0.00     0.039 C 
ATOM     19  C22 ZIN A   1      19.010   1.268   6.539  0.00  0.00     0.003 C 
ATOM     20  C21 ZIN A   1      18.545  -0.201   6.596  0.00  0.00     0.003 C 
ATOM     21  C20 ZIN A   1      17.662  -0.272   7.868  0.00  0.00     0.039 C 
BRANCH  17  22
ATOM     22  O19 ZIN A   1      19.509  -0.041   9.460  0.00  0.00    -0.389 OA
ATOM     23  H39 ZIN A   1      19.694  -0.904   9.065  0.00  0.00     0.210 HD
ENDBRANCH  17  22
ENDBRANCH   1  17
TORSDOF 8
ENDMDL
MODEL 5
REMARK VINA RESULT:      -6.4      2.409      6.269
REMARK  8 active torsions:
REMARK  status: ('A' for Active; 'I' for Inactive)
REMARK    1  A    between atoms: N2_2  and  C5_5 
REMARK    2  A    between atoms: C5_5  and  C6_6 
REMARK    3  A    between atoms: C6_6  and  O7_7 
REMARK    4  A    between atoms: O7_7  and  C8_8 
REMARK    5  A    between atoms: C8_8  and  C10_10 
REMARK    6  A    between atoms: C10_10  and  C12_11 
REMARK    7  A    between atoms: C10_10  and  C18_17 
REMARK    8  A    between atoms: C18_17  and  O19_18 
ROOT
ATOM      1  C10 ZIN A   1      17.470  -1.257  12.531  0.00  0.00     0.152 C 
ENDROOT
BRANCH   1   2
ATOM      2  C8  ZIN A   1      17.180  -0.354  11.361  0.00  0.00     0.270 C 
ATOM      3  O9  ZIN A   1      16.123   0.229  11.293  0.00  0.00    -0.264 OA
BRANCH   2   4
ATOM      4  O7  ZIN A   1      18.095  -0.195  10.392  0.00  0.00    -0.319 OA
BRANCH   4   5
ATOM      5  C6  ZIN A   1      17.920   0.935   9.497  0.00  0.00     0.206 C 
BRANCH   5   6
ATOM      6  C5  ZIN A   1      18.938   2.023   9.844  0.00  0.00     0.260 C 
BRANCH   6   7
ATOM      7  N2  ZIN A   1      18.571   2.648  11.122  0.00  0.00    -0.077 N 
ATOM      8  C1  ZIN A   1      19.724   3.386  11.654  0.00  0.00     0.269 C 
ATOM      9  H3  ZIN A   1      18.298   1.933  11.779  0.00  0.00     0.279 HD
ATOM     10  C4  ZIN A   1      17.452   3.574  10.910  0.00  0.00     0.269 C 
ENDBRANCH   6   7
ENDBRANCH   5   6
ENDBRANCH   4   5
ENDBRANCH   2   4
ENDBRANCH   1   2
BRANCH   1  11
ATOM     11  C12 ZIN A   1      18.184  -2.493  12.048  0.00  0.00    -0.042 A 
ATOM     12  C17 ZIN A   1      17.461  -3.623  11.715  0.00  0.00     0.008 A 
ATOM     13  C16 ZIN A   1      18.116  -4.755  11.268  0.00  0.00     0.001 A 
ATOM     14  C15 ZIN A   1      19.494  -4.760  11.160  0.00  0.00     0.000 A 
ATOM     15  C14 ZIN A   1      20.217  -3.631  11.498  0.00  0.00     0.001 A 
ATOM     16  C13 ZIN A   1      19.563  -2.498  11.942  0.00  0.00     0.008 A 
ENDBRANCH   1  11
BRANCH   1  17
ATOM     17  C18 ZIN A   1      18.355  -0.517  13.538  0.00  0.00     0.074 C 
ATOM     18  C23 ZIN A   1      18.911  -1.499  14.591  0.00  0.00     0.039 C 
ATOM     19  C22 ZIN A   1      18.912  -0.748  15.934  0.00  0.00     0.003 C 
ATOM     20  C21 ZIN A   1      18.358   0.663  15.650  0.00  0.00     0.003 C 
ATOM     21  C20 ZIN A   1      17.515   0.489  14.362  0.00  0.00     0.039 C 
BRANCH  17  22
ATOM     22  O19 ZIN A   1      19.424   0.151  12.865  0.00  0.00    -0.389 OA
ATOM     23  H39 ZIN A   1      19.198   1.037  12.551  0.00  0.00     0.210 HD
ENDBRANCH  17  22
ENDBRANCH   1  17
TORSDOF 8
ENDMDL
MODEL 6
REMARK VINA RESULT:      -6.4      2.306      5.716
REMARK  8 active torsions:
REMARK  status: ('A' for Active; 'I' for Inactive)
REMARK    1  A    between atoms: N2_2  and  C5_5 
REMARK    2  A    between atoms: C5_5  and  C6_6 
REMARK    3  A    between atoms: C6_6  and  O7_7 
REMARK    4  A    between atoms: O7_7  and  C8_8 
REMARK    5  A    between atoms: C8_8  and  C10_10 
REMARK    6  A    between atoms: C10_10  and  C12_11 
REMARK    7  A    between atoms: C10_10  and  C18_17 
REMARK    8  A    between atoms: C18_17  and  O19_18 
ROOT
ATOM      1  C10 ZIN A   1      17.551   0.510  10.322  0.00  0.00     0.152 C 
ENDROOT
BRANCH   1   2
ATOM      2  C8  ZIN A   1      17.918   1.823  10.964  0.00  0.00     0.270 C 
ATOM      3  O9  ZIN A   1      19.045   2.007  11.361  0.00  0.00    -0.264 OA
BRANCH   2   4
ATOM      4  O7  ZIN A   1      16.995   2.788  11.096  0.00  0.00    -0.319 OA
BRANCH   4   5
ATOM      5  C6  ZIN A   1      17.463   4.162  11.038  0.00  0.00     0.206 C 
BRANCH   5   6
ATOM      6  C5  ZIN A   1      17.179   4.853  12.373  0.00  0.00     0.260 C 
BRANCH   6   7
ATOM      7  N2  ZIN A   1      18.100   4.339  13.397  0.00  0.00    -0.077 N 
ATOM      8  C1  ZIN A   1      19.431   4.927  13.197  0.00  0.00     0.269 C 
ATOM      9  H3  ZIN A   1      18.161   3.335  13.320  0.00  0.00     0.279 HD
ATOM     10  C4  ZIN A   1      17.600   4.699  14.729  0.00  0.00     0.269 C 
ENDBRANCH   6   7
ENDBRANCH   5   6
ENDBRANCH   4   5
ENDBRANCH   2   4
ENDBRANCH   1   2
BRANCH   1  11
ATOM     11  C12 ZIN A   1      17.857   0.568   8.847  0.00  0.00    -0.042 A 
ATOM     12  C17 ZIN A   1      17.154  -0.228   7.964  0.00  0.00     0.008 A 
ATOM     13  C16 ZIN A   1      17.432  -0.172   6.610  0.00  0.00     0.001 A 
ATOM     14  C15 ZIN A   1      18.417   0.677   6.142  0.00  0.00     0.000 A 
ATOM     15  C14 ZIN A   1      19.123   1.471   7.026  0.00  0.00     0.001 A 
ATOM     16  C13 ZIN A   1      18.844   1.417   8.379  0.00  0.00     0.008 A 
ENDBRANCH   1  11
BRANCH   1  17
ATOM     17  C18 ZIN A   1      18.361  -0.617  10.967  0.00  0.00     0.074 C 
ATOM     18  C23 ZIN A   1      17.817  -1.992  10.527  0.00  0.00     0.039 C 
ATOM     19  C22 ZIN A   1      17.911  -2.915  11.755  0.00  0.00     0.003 C 
ATOM     20  C21 ZIN A   1      18.510  -2.068  12.897  0.00  0.00     0.003 C 
ATOM     21  C20 ZIN A   1      18.175  -0.607  12.503  0.00  0.00     0.039 C 
BRANCH  17  22
ATOM     22  O19 ZIN A   1      19.744  -0.495  10.626  0.00  0.00    -0.389 OA
ATOM     23  H39 ZIN A   1      19.947  -0.735   9.712  0.00  0.00     0.210 HD
ENDBRANCH  17  22
ENDBRANCH   1  17
TORSDOF 8
ENDMDL
MODEL 7
REMARK VINA RESULT:      -6.4      2.340      4.944
REMARK  8 active torsions:
REMARK  status: ('A' for Active; 'I' for Inactive)
REMARK    1  A    between atoms: N2_2  and  C5_5 
REMARK    2  A    between atoms: C5_5  and  C6_6 
REMARK    3  A    between atoms: C6_6  and  O7_7 
REMARK    4  A    between atoms: O7_7  and  C8_8 
REMARK    5  A    between atoms: C8_8  and  C10_10 
REMARK    6  A    between atoms: C10_10  and  C12_11 
REMARK    7  A    between atoms: C10_10  and  C18_17 
REMARK    8  A    between atoms: C18_17  and  O19_18 
ROOT
ATOM      1  C10 ZIN A   1      17.649  -1.088  10.018  0.00  0.00     0.152 C 
ENDROOT
BRANCH   1   2
ATOM      2  C8  ZIN A   1      17.362  -0.209  11.207  0.00  0.00     0.270 C 
ATOM      3  O9  ZIN A   1      16.220   0.011  11.536  0.00  0.00    -0.264 OA
BRANCH   2   4
ATOM      4  O7  ZIN A   1      18.375   0.331  11.903  0.00  0.00    -0.319 OA
BRANCH   4   5
ATOM      5  C6  ZIN A   1      18.162   0.541  13.324  0.00  0.00     0.206 C 
BRANCH   5   6
ATOM      6  C5  ZIN A   1      19.513   0.690  14.026  0.00  0.00     0.260 C 
BRANCH   6   7
ATOM      7  N2  ZIN A   1      19.470   1.848  14.930  0.00  0.00    -0.077 N 
ATOM      8  C1  ZIN A   1      18.532   2.847  14.401  0.00  0.00     0.269 C 
ATOM      9  H3  ZIN A   1      20.391   2.255  14.999  0.00  0.00     0.279 HD
ATOM     10  C4  ZIN A   1      19.025   1.414  16.260  0.00  0.00     0.269 C 
ENDBRANCH   6   7
ENDBRANCH   5   6
ENDBRANCH   4   5
ENDBRANCH   2   4
ENDBRANCH   1   2
BRANCH   1  11
ATOM     11  C12 ZIN A   1      18.048  -0.232   8.844  0.00  0.00    -0.042 A 
ATOM     12  C17 ZIN A   1      17.636  -0.572   7.569  0.00  0.00     0.008 A 
ATOM     13  C16 ZIN A   1      17.999   0.216   6.493  0.00  0.00     0.001 A 
ATOM     14  C15 ZIN A   1      18.780   1.339   6.690  0.00  0.00     0.000 A 
ATOM     15  C14 ZIN A   1      19.196   1.676   7.965  0.00  0.00     0.001 A 
ATOM     16  C13 ZIN A   1      18.831   0.891   9.041  0.00  0.00     0.008 A 
ENDBRANCH   1  11
BRANCH   1  17
ATOM     17  C18 ZIN A   1      18.790  -2.050  10.359  0.00  0.00     0.074 C 
ATOM     18  C23 ZIN A   1      18.915  -3.144   9.278  0.00  0.00     0.039 C 
ATOM     19  C22 ZIN A   1      19.266  -4.450  10.012  0.00  0.00     0.003 C 
ATOM     20  C21 ZIN A   1      19.343  -4.104  11.513  0.00  0.00     0.003 C 
ATOM     21  C20 ZIN A   1      18.469  -2.833  11.656  0.00  0.00     0.039 C 
BRANCH  17  22
ATOM     22  O19 ZIN A   1      20.021  -1.337  10.493  0.00  0.00    -0.389 OA
ATOM     23  H39 ZIN A   1      20.805  -1.865  10.291  0.00  0.00     0.210 HD
ENDBRANCH  17  22
ENDBRANCH   1  17
TORSDOF 8
ENDMDL
MODEL 8
REMARK VINA RESULT:      -6.3      2.001      5.144
REMARK  8 active torsions:
REMARK  status: ('A' for Active; 'I' for Inactive)
REMARK    1  A    between atoms: N2_2  and  C5_5 
REMARK    2  A    between atoms: C5_5  and  C6_6 
REMARK    3  A    between atoms: C6_6  and  O7_7 
REMARK    4  A    between atoms: O7_7  and  C8_8 
REMARK    5  A    between atoms: C8_8  and  C10_10 
REMARK    6  A    between atoms: C10_10  and  C12_11 
REMARK    7  A    between atoms: C10_10  and  C18_17 
REMARK    8  A    between atoms: C18_17  and  O19_18 
ROOT
ATOM      1  C10 ZIN A   1      17.660  -1.118   9.992  0.00  0.00     0.152 C 
ENDROOT
BRANCH   1   2
ATOM      2  C8  ZIN A   1      17.339  -0.225  11.162  0.00  0.00     0.270 C 
ATOM      3  O9  ZIN A   1      16.193   0.089  11.386  0.00  0.00    -0.264 OA
BRANCH   2   4
ATOM      4  O7  ZIN A   1      18.324   0.222  11.955  0.00  0.00    -0.319 OA
BRANCH   4   5
ATOM      5  C6  ZIN A   1      18.110   1.496  12.620  0.00  0.00     0.206 C 
BRANCH   5   6
ATOM      6  C5  ZIN A   1      19.258   2.448  12.279  0.00  0.00     0.260 C 
BRANCH   6   7
ATOM      7  N2  ZIN A   1      19.507   3.344  13.417  0.00  0.00    -0.077 N 
ATOM      8  C1  ZIN A   1      19.540   4.735  12.946  0.00  0.00     0.269 C 
ATOM      9  H3  ZIN A   1      20.393   3.111  13.840  0.00  0.00     0.279 HD
ATOM     10  C4  ZIN A   1      18.434   3.187  14.406  0.00  0.00     0.269 C 
ENDBRANCH   6   7
ENDBRANCH   5   6
ENDBRANCH   4   5
ENDBRANCH   2   4
ENDBRANCH   1   2
BRANCH   1  11
ATOM     11  C12 ZIN A   1      18.043  -0.274   8.804  0.00  0.00    -0.042 A 
ATOM     12  C17 ZIN A   1      18.887   0.808   8.969  0.00  0.00     0.008 A 
ATOM     13  C16 ZIN A   1      19.243   1.580   7.878  0.00  0.00     0.001 A 
ATOM     14  C15 ZIN A   1      18.749   1.274   6.624  0.00  0.00     0.000 A 
ATOM     15  C14 ZIN A   1      17.901   0.194   6.460  0.00  0.00     0.001 A 
ATOM     16  C13 ZIN A   1      17.548  -0.579   7.549  0.00  0.00     0.008 A 
ENDBRANCH   1  11
BRANCH   1  17
ATOM     17  C18 ZIN A   1      18.825  -2.040  10.359  0.00  0.00     0.074 C 
ATOM     18  C23 ZIN A   1      18.992  -3.149   9.299  0.00  0.00     0.039 C 
ATOM     19  C22 ZIN A   1      19.375  -4.430  10.059  0.00  0.00     0.003 C 
ATOM     20  C21 ZIN A   1      19.429  -4.056  11.554  0.00  0.00     0.003 C 
ATOM     21  C20 ZIN A   1      18.516  -2.809  11.667  0.00  0.00     0.039 C 
BRANCH  17  22
ATOM     22  O19 ZIN A   1      20.034  -1.289  10.490  0.00  0.00    -0.389 OA
ATOM     23  H39 ZIN A   1      20.254  -1.053  11.402  0.00  0.00     0.210 HD
ENDBRANCH  17  22
ENDBRANCH   1  17
TORSDOF 8
ENDMDL
MODEL 9
REMARK VINA RESULT:      -6.3      2.649      4.843
REMARK  8 active torsions:
REMARK  status: ('A' for Active; 'I' for Inactive)
REMARK    1  A    between atoms: N2_2  and  C5_5 
REMARK    2  A    between atoms: C5_5  and  C6_6 
REMARK    3  A    between atoms: C6_6  and  O7_7 
REMARK    4  A    between atoms: O7_7  and  C8_8 
REMARK    5  A    between atoms: C8_8  and  C10_10 
REMARK    6  A    between atoms: C10_10  and  C12_11 
REMARK    7  A    between atoms: C10_10  and  C18_17 
REMARK    8  A    between atoms: C18_17  and  O19_18 
ROOT
ATOM      1  C10 ZIN A   1      17.550   1.124  13.238  0.00  0.00     0.152 C 
ENDROOT
BRANCH   1   2
ATOM      2  C8  ZIN A   1      17.341   0.300  11.993  0.00  0.00     0.270 C 
ATOM      3  O9  ZIN A   1      16.225   0.126  11.563  0.00  0.00    -0.264 OA
BRANCH   2   4
ATOM      4  O7  ZIN A   1      18.395  -0.241  11.362  0.00  0.00    -0.319 OA
BRANCH   4   5
ATOM      5  C6  ZIN A   1      18.382  -0.209   9.910  0.00  0.00     0.206 C 
BRANCH   5   6
ATOM      6  C5  ZIN A   1      19.762  -0.599   9.379  0.00  0.00     0.260 C 
BRANCH   6   7
ATOM      7  N2  ZIN A   1      19.614  -1.614   8.326  0.00  0.00    -0.077 N 
ATOM      8  C1  ZIN A   1      18.854  -2.756   8.851  0.00  0.00     0.269 C 
ATOM      9  H3  ZIN A   1      20.526  -1.926   8.029  0.00  0.00     0.279 HD
ATOM     10  C4  ZIN A   1      18.898  -1.033   7.184  0.00  0.00     0.269 C 
ENDBRANCH   6   7
ENDBRANCH   5   6
ENDBRANCH   4   5
ENDBRANCH   2   4
ENDBRANCH   1   2
BRANCH   1  11
ATOM     11  C12 ZIN A   1      17.946   0.221  14.378  0.00  0.00    -0.042 A 
ATOM     12  C17 ZIN A   1      18.945  -0.717  14.201  0.00  0.00     0.008 A 
ATOM     13  C16 ZIN A   1      19.312  -1.542  15.249  0.00  0.00     0.001 A 
ATOM     14  C15 ZIN A   1      18.675  -1.432  16.470  0.00  0.00     0.000 A 
ATOM     15  C14 ZIN A   1      17.672  -0.496  16.646  0.00  0.00     0.001 A 
ATOM     16  C13 ZIN A   1      17.308   0.330  15.600  0.00  0.00     0.008 A 
ENDBRANCH   1  11
BRANCH   1  17
ATOM     17  C18 ZIN A   1      18.659   2.149  12.990  0.00  0.00     0.074 C 
ATOM     18  C23 ZIN A   1      18.764   3.128  14.179  0.00  0.00     0.039 C 
ATOM     19  C22 ZIN A   1      19.070   4.513  13.582  0.00  0.00     0.003 C 
ATOM     20  C21 ZIN A   1      19.141   4.327  12.053  0.00  0.00     0.003 C 
ATOM     21  C20 ZIN A   1      18.302   3.053  11.785  0.00  0.00     0.039 C 
BRANCH  17  22
ATOM     22  O19 ZIN A   1      19.908   1.491  12.773  0.00  0.00    -0.389 OA
ATOM     23  H39 ZIN A   1      19.957   1.005  11.939  0.00  0.00     0.210 HD
ENDBRANCH  17  22
ENDBRANCH   1  17
TORSDOF 8
ENDMDL
