MODEL 1
REMARK VINA RESULT:      -8.9      0.000      0.000
REMARK  1 active torsions:
REMARK  status: ('A' for Active; 'I' for Inactive)
REMARK    1  A    between atoms: N5_5  and  C6_6 
ROOT
ATOM      1  C6  <0> d   1      18.331  -1.530  11.371  0.00  0.00     0.139 C 
ATOM      2  N7  <0> d   1      18.430  -0.861  10.275  0.00  0.00    -0.228 NA
ATOM      3  C8  <0> d   1      18.433   0.494  10.140  0.00  0.00     0.093 A 
ATOM      4  C9  <0> d   1      19.307   1.080   9.220  0.00  0.00     0.034 A 
ATOM      5  C10 <0> d   1      19.309   2.449   9.039  0.00  0.00     0.002 A 
ATOM      6  C11 <0> d   1      18.446   3.247   9.766  0.00  0.00     0.003 A 
ATOM      7  C12 <0> d   1      17.585   2.679  10.688  0.00  0.00     0.040 A 
ATOM      8  C13 <0> d   1      17.582   1.309  10.890  0.00  0.00     0.104 A 
ATOM      9  O14 <0> d   1      16.777   0.788  11.852  0.00  0.00    -0.307 OA
ATOM     10  C15 <0> d   1      17.366   0.177  12.910  0.00  0.00     0.090 A 
ATOM     11  C16 <0> d   1      17.170   0.671  14.188  0.00  0.00     0.040 A 
ATOM     12  C17 <0> d   1      17.793   0.069  15.267  0.00  0.00     0.026 A 
ATOM     13  C18 <0> d   1      18.614  -1.029  15.076  0.00  0.00     0.035 A 
ATOM     14 Cl19 <0> d   1      19.402  -1.768  16.435  0.00  0.00    -0.084 Cl
ATOM     15  C20 <0> d   1      18.808  -1.539  13.807  0.00  0.00     0.042 A 
ATOM     16  C21 <0> d   1      18.169  -0.947  12.713  0.00  0.00     0.045 A 
ENDROOT
BRANCH   1  17
ATOM     17  N5  <0> d   1      18.376  -2.903  11.281  0.00  0.00    -0.362 N 
ATOM     18  C4  <0> d   1      17.150  -3.708  11.394  0.00  0.00     0.154 C 
ATOM     19  C3  <0> d   1      17.085  -4.666  10.199  0.00  0.00     0.291 C 
ATOM     20  N2  <0> d   1      18.332  -5.439  10.128  0.00  0.00     0.087 N 
ATOM     21  C1  <0> d   1      18.242  -6.489   9.103  0.00  0.00     0.310 C 
ATOM     22  C23 <0> d   1      19.489  -4.566   9.888  0.00  0.00     0.291 C 
ATOM     23  C22 <0> d   1      19.651  -3.603  11.069  0.00  0.00     0.154 C 
ENDBRANCH   1  17
TORSDOF 1
ENDMDL
MODEL 2
REMARK VINA RESULT:      -8.2      3.596      6.424
REMARK  1 active torsions:
REMARK  status: ('A' for Active; 'I' for Inactive)
REMARK    1  A    between atoms: N5_5  and  C6_6 
ROOT
ATOM      1  C6  <0> d   1      18.896   2.566  13.246  0.00  0.00     0.139 C 
ATOM      2  N7  <0> d   1      19.163   2.715  11.994  0.00  0.00    -0.228 NA
ATOM      3  C8  <0> d   1      19.376   1.728  11.080  0.00  0.00     0.093 A 
ATOM      4  C9  <0> d   1      18.844   1.872   9.795  0.00  0.00     0.034 A 
ATOM      5  C10 <0> d   1      19.070   0.903   8.838  0.00  0.00     0.002 A 
ATOM      6  C11 <0> d   1      19.825  -0.213   9.144  0.00  0.00     0.003 A 
ATOM      7  C12 <0> d   1      20.347  -0.371  10.416  0.00  0.00     0.040 A 
ATOM      8  C13 <0> d   1      20.115   0.585  11.390  0.00  0.00     0.104 A 
ATOM      9  O14 <0> d   1      20.579   0.369  12.648  0.00  0.00    -0.307 OA
ATOM     10  C15 <0> d   1      19.671   0.230  13.645  0.00  0.00     0.090 A 
ATOM     11  C16 <0> d   1      19.608  -0.952  14.363  0.00  0.00     0.040 A 
ATOM     12  C17 <0> d   1      18.662  -1.108  15.360  0.00  0.00     0.026 A 
ATOM     13  C18 <0> d   1      17.774  -0.085  15.647  0.00  0.00     0.035 A 
ATOM     14 Cl19 <0> d   1      16.582  -0.298  16.891  0.00  0.00    -0.084 Cl
ATOM     15  C20 <0> d   1      17.834   1.103  14.947  0.00  0.00     0.042 A 
ATOM     16  C21 <0> d   1      18.798   1.276  13.948  0.00  0.00     0.045 A 
ENDROOT
BRANCH   1  17
ATOM     17  N5  <0> d   1      18.691   3.706  13.988  0.00  0.00    -0.362 N 
ATOM     18  C4  <0> d   1      17.760   4.749  13.530  0.00  0.00     0.154 C 
ATOM     19  C3  <0> d   1      16.793   5.075  14.674  0.00  0.00     0.291 C 
ATOM     20  N2  <0> d   1      17.562   5.414  15.879  0.00  0.00     0.087 N 
ATOM     21  C1  <0> d   1      16.678   5.899  16.948  0.00  0.00     0.310 C 
ATOM     22  C23 <0> d   1      18.365   4.273  16.337  0.00  0.00     0.291 C 
ATOM     23  C22 <0> d   1      19.396   3.914  15.261  0.00  0.00     0.154 C 
ENDBRANCH   1  17
TORSDOF 1
ENDMDL
MODEL 3
REMARK VINA RESULT:      -8.2      3.626      6.594
REMARK  1 active torsions:
REMARK  status: ('A' for Active; 'I' for Inactive)
REMARK    1  A    between atoms: N5_5  and  C6_6 
ROOT
ATOM      1  C6  <0> d   1      18.580   2.553  13.284  0.00  0.00     0.139 C 
ATOM      2  N7  <0> d   1      18.785   2.786  12.034  0.00  0.00    -0.228 NA
ATOM      3  C8  <0> d   1      19.058   1.870  11.065  0.00  0.00     0.093 A 
ATOM      4  C9  <0> d   1      18.468   2.020   9.806  0.00  0.00     0.034 A 
ATOM      5  C10 <0> d   1      18.751   1.125   8.794  0.00  0.00     0.002 A 
ATOM      6  C11 <0> d   1      19.621   0.075   9.020  0.00  0.00     0.003 A 
ATOM      7  C12 <0> d   1      20.202  -0.091  10.265  0.00  0.00     0.040 A 
ATOM      8  C13 <0> d   1      19.915   0.791  11.293  0.00  0.00     0.104 A 
ATOM      9  O14 <0> d   1      20.444   0.562  12.522  0.00  0.00    -0.307 OA
ATOM     10  C15 <0> d   1      19.590   0.288  13.540  0.00  0.00     0.090 A 
ATOM     11  C16 <0> d   1      19.668  -0.927  14.199  0.00  0.00     0.040 A 
ATOM     12  C17 <0> d   1      18.779  -1.222  15.217  0.00  0.00     0.026 A 
ATOM     13  C18 <0> d   1      17.808  -0.306  15.583  0.00  0.00     0.035 A 
ATOM     14 Cl19 <0> d   1      16.689  -0.693  16.852  0.00  0.00    -0.084 Cl
ATOM     15  C20 <0> d   1      17.727   0.914  14.942  0.00  0.00     0.042 A 
ATOM     16  C21 <0> d   1      18.632   1.228  13.923  0.00  0.00     0.045 A 
ENDROOT
BRANCH   1  17
ATOM     17  N5  <0> d   1      18.293   3.631  14.090  0.00  0.00    -0.362 N 
ATOM     18  C4  <0> d   1      19.242   4.076  15.122  0.00  0.00     0.154 C 
ATOM     19  C3  <0> d   1      19.475   5.582  14.953  0.00  0.00     0.291 C 
ATOM     20  N2  <0> d   1      18.181   6.277  14.956  0.00  0.00     0.087 N 
ATOM     21  C1  <0> d   1      18.367   7.735  14.970  0.00  0.00     0.310 C 
ATOM     22  C23 <0> d   1      17.349   5.863  13.819  0.00  0.00     0.291 C 
ATOM     23  C22 <0> d   1      17.030   4.369  13.942  0.00  0.00     0.154 C 
ENDBRANCH   1  17
TORSDOF 1
ENDMDL
MODEL 4
REMARK VINA RESULT:      -8.2      2.428      4.270
REMARK  1 active torsions:
REMARK  status: ('A' for Active; 'I' for Inactive)
REMARK    1  A    between atoms: N5_5  and  C6_6 
ROOT
ATOM      1  C6  <0> d   1      18.692  -2.123  12.396  0.00  0.00     0.139 C 
ATOM      2  N7  <0> d   1      18.687  -2.008  13.679  0.00  0.00    -0.228 NA
ATOM      3  C8  <0> d   1      18.642  -0.852  14.398  0.00  0.00     0.093 A 
ATOM      4  C9  <0> d   1      17.850  -0.802  15.549  0.00  0.00     0.034 A 
ATOM      5  C10 <0> d   1      17.810   0.346  16.314  0.00  0.00     0.002 A 
ATOM      6  C11 <0> d   1      18.554   1.452  15.948  0.00  0.00     0.003 A 
ATOM      7  C12 <0> d   1      19.331   1.418  14.803  0.00  0.00     0.040 A 
ATOM      8  C13 <0> d   1      19.369   0.278  14.018  0.00  0.00     0.104 A 
ATOM      9  O14 <0> d   1      20.085   0.298  12.865  0.00  0.00    -0.307 OA
ATOM     10  C15 <0> d   1      19.410   0.159  11.696  0.00  0.00     0.090 A 
ATOM     11  C16 <0> d   1      19.443   1.174  10.755  0.00  0.00     0.040 A 
ATOM     12  C17 <0> d   1      18.731   1.050   9.576  0.00  0.00     0.026 A 
ATOM     13  C18 <0> d   1      17.983  -0.089   9.328  0.00  0.00     0.035 A 
ATOM     14 Cl19 <0> d   1      17.083  -0.228   7.851  0.00  0.00    -0.084 Cl
ATOM     15  C20 <0> d   1      17.952  -1.113  10.253  0.00  0.00     0.042 A 
ATOM     16  C21 <0> d   1      18.682  -1.003  11.441  0.00  0.00     0.045 A 
ENDROOT
BRANCH   1  17
ATOM     17  N5  <0> d   1      18.715  -3.397  11.875  0.00  0.00    -0.362 N 
ATOM     18  C4  <0> d   1      17.504  -4.231  11.866  0.00  0.00     0.154 C 
ATOM     19  C3  <0> d   1      17.294  -4.769  10.446  0.00  0.00     0.291 C 
ATOM     20  N2  <0> d   1      18.518  -5.445   9.997  0.00  0.00     0.087 N 
ATOM     21  C1  <0> d   1      18.302  -6.124   8.711  0.00  0.00     0.310 C 
ATOM     22  C23 <0> d   1      19.646  -4.508   9.915  0.00  0.00     0.291 C 
ATOM     23  C22 <0> d   1      19.951  -3.959  11.313  0.00  0.00     0.154 C 
ENDBRANCH   1  17
TORSDOF 1
ENDMDL
MODEL 5
REMARK VINA RESULT:      -8.1      2.968      4.729
REMARK  1 active torsions:
REMARK  status: ('A' for Active; 'I' for Inactive)
REMARK    1  A    between atoms: N5_5  and  C6_6 
ROOT
ATOM      1  C6  <0> d   1      18.712  -2.667  10.291  0.00  0.00     0.139 C 
ATOM      2  N7  <0> d   1      18.941  -2.693  11.558  0.00  0.00    -0.228 NA
ATOM      3  C8  <0> d   1      19.195  -1.628  12.367  0.00  0.00     0.093 A 
ATOM      4  C9  <0> d   1      18.627  -1.597  13.644  0.00  0.00     0.034 A 
ATOM      5  C10 <0> d   1      18.891  -0.545  14.498  0.00  0.00     0.002 A 
ATOM      6  C11 <0> d   1      19.721   0.484  14.094  0.00  0.00     0.003 A 
ATOM      7  C12 <0> d   1      20.280   0.471  12.828  0.00  0.00     0.040 A 
ATOM      8  C13 <0> d   1      20.011  -0.571  11.957  0.00  0.00     0.104 A 
ATOM      9  O14 <0> d   1      20.515  -0.521  10.697  0.00  0.00    -0.307 OA
ATOM     10  C15 <0> d   1      19.639  -0.439   9.665  0.00  0.00     0.090 A 
ATOM     11  C16 <0> d   1      19.665   0.659   8.822  0.00  0.00     0.040 A 
ATOM     12  C17 <0> d   1      18.753   0.761   7.787  0.00  0.00     0.026 A 
ATOM     13  C18 <0> d   1      17.810  -0.232   7.587  0.00  0.00     0.035 A 
ATOM     14 Cl19 <0> d   1      16.662  -0.087   6.294  0.00  0.00    -0.084 Cl
ATOM     15  C20 <0> d   1      17.781  -1.338   8.413  0.00  0.00     0.042 A 
ATOM     16  C21 <0> d   1      18.710  -1.458   9.452  0.00  0.00     0.045 A 
ENDROOT
BRANCH   1  17
ATOM     17  N5  <0> d   1      18.453  -3.867   9.670  0.00  0.00    -0.362 N 
ATOM     18  C4  <0> d   1      17.291  -4.682  10.057  0.00  0.00     0.154 C 
ATOM     19  C3  <0> d   1      16.504  -5.041   8.791  0.00  0.00     0.291 C 
ATOM     20  N2  <0> d   1      17.408  -5.669   7.818  0.00  0.00     0.087 N 
ATOM     21  C1  <0> d   1      16.661  -6.182   6.662  0.00  0.00     0.310 C 
ATOM     22  C23 <0> d   1      18.463  -4.739   7.393  0.00  0.00     0.291 C 
ATOM     23  C22 <0> d   1      19.329  -4.369   8.602  0.00  0.00     0.154 C 
ENDBRANCH   1  17
TORSDOF 1
ENDMDL
MODEL 6
REMARK VINA RESULT:      -8.0      3.395      5.481
REMARK  1 active torsions:
REMARK  status: ('A' for Active; 'I' for Inactive)
REMARK    1  A    between atoms: N5_5  and  C6_6 
ROOT
ATOM      1  C6  <0> d   1      18.503   0.495  12.683  0.00  0.00     0.139 C 
ATOM      2  N7  <0> d   1      18.499  -0.345  13.660  0.00  0.00    -0.228 NA
ATOM      3  C8  <0> d   1      18.324  -0.063  14.981  0.00  0.00     0.093 A 
ATOM      4  C9  <0> d   1      17.546  -0.924  15.760  0.00  0.00     0.034 A 
ATOM      5  C10 <0> d   1      17.377  -0.681  17.108  0.00  0.00     0.002 A 
ATOM      6  C11 <0> d   1      17.979   0.415  17.696  0.00  0.00     0.003 A 
ATOM      7  C12 <0> d   1      18.742   1.282  16.933  0.00  0.00     0.040 A 
ATOM      8  C13 <0> d   1      18.907   1.058  15.577  0.00  0.00     0.104 A 
ATOM      9  O14 <0> d   1      19.602   1.963  14.841  0.00  0.00    -0.307 OA
ATOM     10  C15 <0> d   1      18.935   2.641  13.874  0.00  0.00     0.090 A 
ATOM     11  C16 <0> d   1      18.836   4.021  13.942  0.00  0.00     0.040 A 
ATOM     12  C17 <0> d   1      18.131   4.714  12.974  0.00  0.00     0.026 A 
ATOM     13  C18 <0> d   1      17.521   4.034  11.934  0.00  0.00     0.035 A 
ATOM     14 Cl19 <0> d   1      16.627   4.912  10.733  0.00  0.00    -0.084 Cl
ATOM     15  C20 <0> d   1      17.623   2.660  11.848  0.00  0.00     0.042 A 
ATOM     16  C21 <0> d   1      18.348   1.953  12.813  0.00  0.00     0.045 A 
ENDROOT
BRANCH   1  17
ATOM     17  N5  <0> d   1      18.672  -0.012  11.415  0.00  0.00    -0.362 N 
ATOM     18  C4  <0> d   1      17.587  -0.744  10.744  0.00  0.00     0.154 C 
ATOM     19  C3  <0> d   1      17.377  -0.135   9.352  0.00  0.00     0.291 C 
ATOM     20  N2  <0> d   1      18.656  -0.120   8.630  0.00  0.00     0.087 N 
ATOM     21  C1  <0> d   1      18.467   0.296   7.234  0.00  0.00     0.310 C 
ATOM     22  C23 <0> d   1      19.640   0.737   9.306  0.00  0.00     0.291 C 
ATOM     23  C22 <0> d   1      19.942   0.164  10.695  0.00  0.00     0.154 C 
ENDBRANCH   1  17
TORSDOF 1
ENDMDL
MODEL 7
REMARK VINA RESULT:      -7.6      2.533      5.070
REMARK  1 active torsions:
REMARK  status: ('A' for Active; 'I' for Inactive)
REMARK    1  A    between atoms: N5_5  and  C6_6 
ROOT
ATOM      1  C6  <0> d   1      18.327  -0.162  12.858  0.00  0.00     0.139 C 
ATOM      2  N7  <0> d   1      18.460   1.089  12.581  0.00  0.00    -0.228 NA
ATOM      3  C8  <0> d   1      18.595   1.644  11.344  0.00  0.00     0.093 A 
ATOM      4  C9  <0> d   1      17.930   2.841  11.064  0.00  0.00     0.034 A 
ATOM      5  C10 <0> d   1      18.073   3.443   9.830  0.00  0.00     0.002 A 
ATOM      6  C11 <0> d   1      18.877   2.865   8.865  0.00  0.00     0.003 A 
ATOM      7  C12 <0> d   1      19.530   1.674   9.127  0.00  0.00     0.040 A 
ATOM      8  C13 <0> d   1      19.383   1.052  10.355  0.00  0.00     0.104 A 
ATOM      9  O14 <0> d   1      19.979  -0.151  10.558  0.00  0.00    -0.307 OA
ATOM     10  C15 <0> d   1      19.181  -1.227  10.773  0.00  0.00     0.090 A 
ATOM     11  C16 <0> d   1      19.215  -2.297   9.895  0.00  0.00     0.040 A 
ATOM     12  C17 <0> d   1      18.381  -3.383  10.093  0.00  0.00     0.026 A 
ATOM     13  C18 <0> d   1      17.509  -3.407  11.168  0.00  0.00     0.035 A 
ATOM     14 Cl19 <0> d   1      16.457  -4.767  11.399  0.00  0.00    -0.084 Cl
ATOM     15  C20 <0> d   1      17.474  -2.351  12.058  0.00  0.00     0.042 A 
ATOM     16  C21 <0> d   1      18.326  -1.257  11.874  0.00  0.00     0.045 A 
ENDROOT
BRANCH   1  17
ATOM     17  N5  <0> d   1      18.179  -0.503  14.183  0.00  0.00    -0.362 N 
ATOM     18  C4  <0> d   1      18.922  -1.635  14.759  0.00  0.00     0.154 C 
ATOM     19  C3  <0> d   1      19.628  -1.157  16.033  0.00  0.00     0.291 C 
ATOM     20  N2  <0> d   1      18.643  -0.538  16.931  0.00  0.00     0.087 N 
ATOM     21  C1  <0> d   1      19.245  -0.222  18.233  0.00  0.00     0.310 C 
ATOM     22  C23 <0> d   1      18.044   0.657  16.323  0.00  0.00     0.291 C 
ATOM     23  C22 <0> d   1      17.275   0.253  15.061  0.00  0.00     0.154 C 
ENDBRANCH   1  17
TORSDOF 1
ENDMDL
MODEL 8
REMARK VINA RESULT:      -7.5      2.825      5.189
REMARK  1 active torsions:
REMARK  status: ('A' for Active; 'I' for Inactive)
REMARK    1  A    between atoms: N5_5  and  C6_6 
ROOT
ATOM      1  C6  <0> d   1      18.175  -0.087   9.970  0.00  0.00     0.139 C 
ATOM      2  N7  <0> d   1      18.239   0.819  10.884  0.00  0.00    -0.228 NA
ATOM      3  C8  <0> d   1      18.380   0.622  12.224  0.00  0.00     0.093 A 
ATOM      4  C9  <0> d   1      19.219   1.474  12.948  0.00  0.00     0.034 A 
ATOM      5  C10 <0> d   1      19.357   1.317  14.313  0.00  0.00     0.002 A 
ATOM      6  C11 <0> d   1      18.665   0.318  14.971  0.00  0.00     0.003 A 
ATOM      7  C12 <0> d   1      17.841  -0.539  14.263  0.00  0.00     0.040 A 
ATOM      8  C13 <0> d   1      17.705  -0.403  12.892  0.00  0.00     0.104 A 
ATOM      9  O14 <0> d   1      16.946  -1.301  12.214  0.00  0.00    -0.307 OA
ATOM     10  C15 <0> d   1      17.564  -2.100  11.308  0.00  0.00     0.090 A 
ATOM     11  C16 <0> d   1      17.552  -3.474  11.477  0.00  0.00     0.040 A 
ATOM     12  C17 <0> d   1      18.207  -4.289  10.572  0.00  0.00     0.026 A 
ATOM     13  C18 <0> d   1      18.877  -3.738   9.493  0.00  0.00     0.035 A 
ATOM     14 Cl19 <0> d   1      19.707  -4.770   8.371  0.00  0.00    -0.084 Cl
ATOM     15  C20 <0> d   1      18.886  -2.370   9.306  0.00  0.00     0.042 A 
ATOM     16  C21 <0> d   1      18.212  -1.539  10.207  0.00  0.00     0.045 A 
ENDROOT
BRANCH   1  17
ATOM     17  N5  <0> d   1      18.057   0.337   8.667  0.00  0.00    -0.362 N 
ATOM     18  C4  <0> d   1      18.975   1.345   8.114  0.00  0.00     0.154 C 
ATOM     19  C3  <0> d   1      19.551   0.810   6.798  0.00  0.00     0.291 C 
ATOM     20  N2  <0> d   1      18.450   0.418   5.909  0.00  0.00     0.087 N 
ATOM     21  C1  <0> d   1      18.953   0.062   4.575  0.00  0.00     0.310 C 
ATOM     22  C23 <0> d   1      17.663  -0.680   6.486  0.00  0.00     0.291 C 
ATOM     23  C22 <0> d   1      17.010  -0.205   7.789  0.00  0.00     0.154 C 
ENDBRANCH   1  17
TORSDOF 1
ENDMDL
MODEL 9
REMARK VINA RESULT:      -7.4      4.425      6.766
REMARK  1 active torsions:
REMARK  status: ('A' for Active; 'I' for Inactive)
REMARK    1  A    between atoms: N5_5  and  C6_6 
ROOT
ATOM      1  C6  <0> d   1      18.631   2.473  13.934  0.00  0.00     0.139 C 
ATOM      2  N7  <0> d   1      18.623   1.287  14.436  0.00  0.00    -0.228 NA
ATOM      3  C8  <0> d   1      18.552   0.957  15.756  0.00  0.00     0.093 A 
ATOM      4  C9  <0> d   1      17.760  -0.130  16.140  0.00  0.00     0.034 A 
ATOM      5  C10 <0> d   1      17.694  -0.507  17.466  0.00  0.00     0.002 A 
ATOM      6  C11 <0> d   1      18.413   0.186  18.421  0.00  0.00     0.003 A 
ATOM      7  C12 <0> d   1      19.191   1.270  18.055  0.00  0.00     0.040 A 
ATOM      8  C13 <0> d   1      19.254   1.669  16.731  0.00  0.00     0.104 A 
ATOM      9  O14 <0> d   1      19.969   2.778  16.411  0.00  0.00    -0.307 OA
ATOM     10  C15 <0> d   1      19.297   3.843  15.907  0.00  0.00     0.090 A 
ATOM     11  C16 <0> d   1      19.308   5.050  16.585  0.00  0.00     0.040 A 
ATOM     12  C17 <0> d   1      18.598   6.130  16.090  0.00  0.00     0.026 A 
ATOM     13  C18 <0> d   1      17.876   6.011  14.915  0.00  0.00     0.035 A 
ATOM     14 Cl19 <0> d   1      16.978   7.368  14.311  0.00  0.00    -0.084 Cl
ATOM     15  C20 <0> d   1      17.867   4.817  14.223  0.00  0.00     0.042 A 
ATOM     16  C21 <0> d   1      18.595   3.725  14.707  0.00  0.00     0.045 A 
ENDROOT
BRANCH   1  17
ATOM     17  N5  <0> d   1      18.682   2.579  12.563  0.00  0.00    -0.362 N 
ATOM     18  C4  <0> d   1      19.968   2.535  11.850  0.00  0.00     0.154 C 
ATOM     19  C3  <0> d   1      19.868   1.493  10.730  0.00  0.00     0.291 C 
ATOM     20  N2  <0> d   1      18.701   1.793   9.890  0.00  0.00     0.087 N 
ATOM     21  C1  <0> d   1      18.668   0.922   8.706  0.00  0.00     0.310 C 
ATOM     22  C23 <0> d   1      17.452   1.689  10.655  0.00  0.00     0.291 C 
ATOM     23  C22 <0> d   1      17.453   2.738  11.772  0.00  0.00     0.154 C 
ENDBRANCH   1  17
TORSDOF 1
ENDMDL
