MODEL 1
REMARK VINA RESULT:      -7.9      0.000      0.000
REMARK  5 active torsions:
REMARK  status: ('A' for Active; 'I' for Inactive)
REMARK    1  A    between atoms: C7_6  and  N9_7 
REMARK       I    between atoms: N9_7  and  C10_8 
REMARK    2  A    between atoms: C10_8  and  C12_10 
REMARK    3  A    between atoms: C12_10  and  N14_11 
REMARK    4  A    between atoms: C12_10  and  C18_15 
REMARK    5  A    between atoms: C27_24  and  C29_25 
ROOT
ATOM      1  N9  <0> d   1      18.822  -1.592  10.694  0.00  0.00    -0.344 N 
ATOM      2  C10 <0> d   1      18.254  -1.093  11.809  0.00  0.00     0.253 C 
ATOM      3  O11 <0> d   1      17.127  -1.420  12.114  0.00  0.00    -0.271 OA
ATOM      4  H38 <0> d   1      19.724  -1.330  10.449  0.00  0.00     0.163 HD
ENDROOT
BRANCH   1   5
ATOM      5  C7  <0> d   1      18.078  -2.529   9.849  0.00  0.00     0.199 C 
ATOM      6  C5  <0> d   1      17.284  -1.872   8.726  0.00  0.00     0.160 C 
ATOM      7  S4  <0> d   1      17.431  -0.046   8.670  0.00  0.00    -0.135 SA
ATOM      8  N26 <0> d   1      18.230  -2.366   7.716  0.00  0.00    -0.219 NA
ATOM      9  C2  <0> d   1      18.169  -0.005   6.982  0.00  0.00     0.029 C 
ATOM     10  C1  <0> d   1      17.088  -0.051   5.900  0.00  0.00     0.029 C 
ATOM     11  C27 <0> d   1      18.989  -1.324   7.019  0.00  0.00     0.186 C 
ATOM     12  C3  <0> d   1      19.080   1.210   6.800  0.00  0.00     0.029 C 
ATOM     13  C24 <0> d   1      18.865  -3.084   8.691  0.00  0.00     0.227 C 
ATOM     14  O25 <0> d   1      19.759  -3.901   8.639  0.00  0.00    -0.277 OA
BRANCH  11  15
ATOM     15  C29 <0> d   1      19.289  -1.779   5.613  0.00  0.00     0.193 C 
ATOM     16  O30 <0> d   1      18.852  -2.844   5.212  0.00  0.00    -0.647 OA
ATOM     17  O31 <0> d   1      19.969  -1.083   4.879  0.00  0.00    -0.647 OA
ENDBRANCH  11  15
ENDBRANCH   1   5
BRANCH   2  18
ATOM     18  C12 <0> d   1      19.020  -0.129  12.678  0.00  0.00     0.307 C 
BRANCH  18  19
ATOM     19  N14 <0> d   1      20.461  -0.321  12.470  0.00  0.00    -0.062 N 
ATOM     20  H15 <0> d   1      20.936  -0.292  13.360  0.00  0.00     0.275 HD
ATOM     21  H16 <0> d   1      20.623  -1.215  12.033  0.00  0.00     0.275 HD
ATOM     22  H17 <0> d   1      20.815   0.414  11.876  0.00  0.00     0.275 HD
ENDBRANCH  18  19
BRANCH  18  23
ATOM     23  C18 <0> d   1      18.684  -0.382  14.125  0.00  0.00    -0.019 A 
ATOM     24  C23 <0> d   1      19.343  -1.377  14.824  0.00  0.00     0.010 A 
ATOM     25  C22 <0> d   1      19.039  -1.606  16.152  0.00  0.00     0.001 A 
ATOM     26  C21 <0> d   1      18.068  -0.848  16.780  0.00  0.00     0.000 A 
ATOM     27  C20 <0> d   1      17.405   0.143  16.081  0.00  0.00     0.001 A 
ATOM     28  C19 <0> d   1      17.713   0.375  14.753  0.00  0.00     0.010 A 
ENDBRANCH  18  23
ENDBRANCH   2  18
TORSDOF 5
ENDMDL
MODEL 2
REMARK VINA RESULT:      -7.8      2.522      3.921
REMARK  5 active torsions:
REMARK  status: ('A' for Active; 'I' for Inactive)
REMARK    1  A    between atoms: C7_6  and  N9_7 
REMARK       I    between atoms: N9_7  and  C10_8 
REMARK    2  A    between atoms: C10_8  and  C12_10 
REMARK    3  A    between atoms: C12_10  and  N14_11 
REMARK    4  A    between atoms: C12_10  and  C18_15 
REMARK    5  A    between atoms: C27_24  and  C29_25 
ROOT
ATOM      1  N9  <0> d   1      18.162   0.191  12.049  0.00  0.00    -0.344 N 
ATOM      2  C10 <0> d   1      18.567   0.985  13.059  0.00  0.00     0.253 C 
ATOM      3  O11 <0> d   1      19.650   1.530  13.004  0.00  0.00    -0.271 OA
ATOM      4  H38 <0> d   1      17.296  -0.245  12.092  0.00  0.00     0.163 HD
ENDROOT
BRANCH   1   5
ATOM      5  C7  <0> d   1      19.028  -0.017  10.886  0.00  0.00     0.199 C 
ATOM      6  C5  <0> d   1      19.716  -1.376  10.846  0.00  0.00     0.160 C 
ATOM      7  S4  <0> d   1      19.310  -2.466  12.264  0.00  0.00    -0.135 SA
ATOM      8  N26 <0> d   1      18.846  -1.828   9.752  0.00  0.00    -0.219 NA
ATOM      9  C2  <0> d   1      18.567  -3.794  11.225  0.00  0.00     0.029 C 
ATOM     10  C1  <0> d   1      19.639  -4.738  10.678  0.00  0.00     0.029 C 
ATOM     11  C27 <0> d   1      17.944  -2.930  10.096  0.00  0.00     0.186 C 
ATOM     12  C3  <0> d   1      17.491  -4.565  11.993  0.00  0.00     0.029 C 
ATOM     13  C24 <0> d   1      18.324  -0.566   9.674  0.00  0.00     0.227 C 
ATOM     14  O25 <0> d   1      17.556  -0.058   8.886  0.00  0.00    -0.277 OA
BRANCH  11  15
ATOM     15  C29 <0> d   1      17.705  -3.781   8.873  0.00  0.00     0.193 C 
ATOM     16  O30 <0> d   1      18.424  -3.658   7.897  0.00  0.00    -0.647 OA
ATOM     17  O31 <0> d   1      16.794  -4.590   8.862  0.00  0.00    -0.647 OA
ENDBRANCH  11  15
ENDBRANCH   1   5
BRANCH   2  18
ATOM     18  C12 <0> d   1      17.676   1.199  14.254  0.00  0.00     0.307 C 
BRANCH  18  19
ATOM     19  N14 <0> d   1      17.575   2.636  14.540  0.00  0.00    -0.062 N 
ATOM     20  H15 <0> d   1      16.746   2.813  15.087  0.00  0.00     0.275 HD
ATOM     21  H16 <0> d   1      18.388   2.935  15.056  0.00  0.00     0.275 HD
ATOM     22  H17 <0> d   1      17.520   3.148  13.672  0.00  0.00     0.275 HD
ENDBRANCH  18  19
BRANCH  18  23
ATOM     23  C18 <0> d   1      18.261   0.490  15.449  0.00  0.00    -0.019 A 
ATOM     24  C23 <0> d   1      18.341  -0.890  15.463  0.00  0.00     0.010 A 
ATOM     25  C22 <0> d   1      18.882  -1.540  16.557  0.00  0.00     0.001 A 
ATOM     26  C21 <0> d   1      19.334  -0.810  17.641  0.00  0.00     0.000 A 
ATOM     27  C20 <0> d   1      19.249   0.569  17.629  0.00  0.00     0.001 A 
ATOM     28  C19 <0> d   1      18.712   1.219  16.533  0.00  0.00     0.010 A 
ENDBRANCH  18  23
ENDBRANCH   2  18
TORSDOF 5
ENDMDL
MODEL 3
REMARK VINA RESULT:      -7.8      4.006      8.016
REMARK  5 active torsions:
REMARK  status: ('A' for Active; 'I' for Inactive)
REMARK    1  A    between atoms: C7_6  and  N9_7 
REMARK       I    between atoms: N9_7  and  C10_8 
REMARK    2  A    between atoms: C10_8  and  C12_10 
REMARK    3  A    between atoms: C12_10  and  N14_11 
REMARK    4  A    between atoms: C12_10  and  C18_15 
REMARK    5  A    between atoms: C27_24  and  C29_25 
ROOT
ATOM      1  N9  <0> d   1      18.739  -0.809  13.223  0.00  0.00    -0.344 N 
ATOM      2  C10 <0> d   1      18.706  -1.623  12.149  0.00  0.00     0.253 C 
ATOM      3  O11 <0> d   1      17.913  -1.416  11.256  0.00  0.00    -0.271 OA
ATOM      4  H38 <0> d   1      19.374  -0.974  13.938  0.00  0.00     0.163 HD
ENDROOT
BRANCH   1   5
ATOM      5  C7  <0> d   1      17.816   0.324  13.311  0.00  0.00     0.199 C 
ATOM      6  C5  <0> d   1      17.155   0.495  14.674  0.00  0.00     0.160 C 
ATOM      7  S4  <0> d   1      17.659  -0.756  15.915  0.00  0.00    -0.135 SA
ATOM      8  N26 <0> d   1      17.973   1.679  14.966  0.00  0.00    -0.219 NA
ATOM      9  C2  <0> d   1      18.372   0.474  17.088  0.00  0.00     0.029 C 
ATOM     10  C1  <0> d   1      17.291   1.077  17.988  0.00  0.00     0.029 C 
ATOM     11  C27 <0> d   1      18.915   1.520  16.077  0.00  0.00     0.186 C 
ATOM     12  C3  <0> d   1      19.503  -0.137  17.917  0.00  0.00     0.029 C 
ATOM     13  C24 <0> d   1      18.465   1.629  13.691  0.00  0.00     0.227 C 
ATOM     14  O25 <0> d   1      19.179   2.387  13.071  0.00  0.00    -0.277 OA
BRANCH  11  15
ATOM     15  C29 <0> d   1      19.104   2.847  16.767  0.00  0.00     0.193 C 
ATOM     16  O30 <0> d   1      19.922   2.956  17.665  0.00  0.00    -0.647 OA
ATOM     17  O31 <0> d   1      18.440   3.811  16.428  0.00  0.00    -0.647 OA
ENDBRANCH  11  15
ENDBRANCH   1   5
BRANCH   2  18
ATOM     18  C12 <0> d   1      19.656  -2.789  12.058  0.00  0.00     0.307 C 
BRANCH  18  19
ATOM     19  N14 <0> d   1      20.836  -2.399  11.275  0.00  0.00    -0.062 N 
ATOM     20  H15 <0> d   1      21.614  -2.995  11.518  0.00  0.00     0.275 HD
ATOM     21  H16 <0> d   1      20.635  -2.495  10.291  0.00  0.00     0.275 HD
ATOM     22  H17 <0> d   1      21.072  -1.440  11.478  0.00  0.00     0.275 HD
ENDBRANCH  18  19
BRANCH  18  23
ATOM     23  C18 <0> d   1      18.967  -3.947  11.384  0.00  0.00    -0.019 A 
ATOM     24  C23 <0> d   1      19.441  -4.425  10.176  0.00  0.00     0.010 A 
ATOM     25  C22 <0> d   1      18.812  -5.491   9.560  0.00  0.00     0.001 A 
ATOM     26  C21 <0> d   1      17.703  -6.072  10.146  0.00  0.00     0.000 A 
ATOM     27  C20 <0> d   1      17.225  -5.590  11.350  0.00  0.00     0.001 A 
ATOM     28  C19 <0> d   1      17.857  -4.527  11.969  0.00  0.00     0.010 A 
ENDBRANCH  18  23
ENDBRANCH   2  18
TORSDOF 5
ENDMDL
MODEL 4
REMARK VINA RESULT:      -7.8      2.905      7.487
REMARK  5 active torsions:
REMARK  status: ('A' for Active; 'I' for Inactive)
REMARK    1  A    between atoms: C7_6  and  N9_7 
REMARK       I    between atoms: N9_7  and  C10_8 
REMARK    2  A    between atoms: C10_8  and  C12_10 
REMARK    3  A    between atoms: C12_10  and  N14_11 
REMARK    4  A    between atoms: C12_10  and  C18_15 
REMARK    5  A    between atoms: C27_24  and  C29_25 
ROOT
ATOM      1  N9  <0> d   1      18.385  -0.342  10.871  0.00  0.00    -0.344 N 
ATOM      2  C10 <0> d   1      18.710  -1.198   9.882  0.00  0.00     0.253 C 
ATOM      3  O11 <0> d   1      19.768  -1.791   9.916  0.00  0.00    -0.271 OA
ATOM      4  H38 <0> d   1      17.539   0.132  10.844  0.00  0.00     0.163 HD
ENDROOT
BRANCH   1   5
ATOM      5  C7  <0> d   1      19.311  -0.125  11.985  0.00  0.00     0.199 C 
ATOM      6  C5  <0> d   1      19.933   1.266  12.027  0.00  0.00     0.160 C 
ATOM      7  S4  <0> d   1      19.388   2.374  10.673  0.00  0.00    -0.135 SA
ATOM      8  N26 <0> d   1      19.111   1.641  13.186  0.00  0.00    -0.219 NA
ATOM      9  C2  <0> d   1      18.646   3.633  11.796  0.00  0.00     0.029 C 
ATOM     10  C1  <0> d   1      19.703   4.614  12.308  0.00  0.00     0.029 C 
ATOM     11  C27 <0> d   1      18.137   2.706  12.933  0.00  0.00     0.186 C 
ATOM     12  C3  <0> d   1      17.489   4.371  11.120  0.00  0.00     0.029 C 
ATOM     13  C24 <0> d   1      18.657   0.353  13.254  0.00  0.00     0.227 C 
ATOM     14  O25 <0> d   1      17.964  -0.216  14.070  0.00  0.00    -0.277 OA
BRANCH  11  15
ATOM     15  C29 <0> d   1      17.933   3.508  14.194  0.00  0.00     0.193 C 
ATOM     16  O30 <0> d   1      17.084   4.381  14.229  0.00  0.00    -0.647 OA
ATOM     17  O31 <0> d   1      18.618   3.283  15.177  0.00  0.00    -0.647 OA
ENDBRANCH  11  15
ENDBRANCH   1   5
BRANCH   2  18
ATOM     18  C12 <0> d   1      17.758  -1.422   8.736  0.00  0.00     0.307 C 
BRANCH  18  19
ATOM     19  N14 <0> d   1      17.576  -2.864   8.524  0.00  0.00    -0.062 N 
ATOM     20  H15 <0> d   1      16.609  -3.108   8.683  0.00  0.00     0.275 HD
ATOM     21  H16 <0> d   1      17.830  -3.100   7.577  0.00  0.00     0.275 HD
ATOM     22  H17 <0> d   1      18.161  -3.374   9.168  0.00  0.00     0.275 HD
ENDBRANCH  18  19
BRANCH  18  23
ATOM     23  C18 <0> d   1      18.323  -0.799   7.486  0.00  0.00    -0.019 A 
ATOM     24  C23 <0> d   1      18.411   0.577   7.378  0.00  0.00     0.010 A 
ATOM     25  C22 <0> d   1      18.934   1.149   6.233  0.00  0.00     0.001 A 
ATOM     26  C21 <0> d   1      19.360   0.345   5.192  0.00  0.00     0.000 A 
ATOM     27  C20 <0> d   1      19.267  -1.030   5.297  0.00  0.00     0.001 A 
ATOM     28  C19 <0> d   1      18.748  -1.601   6.444  0.00  0.00     0.010 A 
ENDBRANCH  18  23
ENDBRANCH   2  18
TORSDOF 5
ENDMDL
MODEL 5
REMARK VINA RESULT:      -7.6      3.393      7.949
REMARK  5 active torsions:
REMARK  status: ('A' for Active; 'I' for Inactive)
REMARK    1  A    between atoms: C7_6  and  N9_7 
REMARK       I    between atoms: N9_7  and  C10_8 
REMARK    2  A    between atoms: C10_8  and  C12_10 
REMARK    3  A    between atoms: C12_10  and  N14_11 
REMARK    4  A    between atoms: C12_10  and  C18_15 
REMARK    5  A    between atoms: C27_24  and  C29_25 
ROOT
ATOM      1  N9  <0> d   1      19.240   1.063  12.544  0.00  0.00    -0.344 N 
ATOM      2  C10 <0> d   1      19.026   0.649  11.280  0.00  0.00     0.253 C 
ATOM      3  O11 <0> d   1      17.994   0.940  10.713  0.00  0.00    -0.271 OA
ATOM      4  H38 <0> d   1      20.066   0.831  12.998  0.00  0.00     0.163 HD
ENDROOT
BRANCH   1   5
ATOM      5  C7  <0> d   1      18.226   1.863  13.235  0.00  0.00     0.199 C 
ATOM      6  C5  <0> d   1      17.423   1.097  14.279  0.00  0.00     0.160 C 
ATOM      7  S4  <0> d   1      17.898  -0.665  14.450  0.00  0.00    -0.135 SA
ATOM      8  N26 <0> d   1      18.112   1.790  15.376  0.00  0.00    -0.219 NA
ATOM      9  C2  <0> d   1      18.393  -0.517  16.219  0.00  0.00     0.029 C 
ATOM     10  C1  <0> d   1      17.185  -0.650  17.148  0.00  0.00     0.029 C 
ATOM     11  C27 <0> d   1      18.950   0.932  16.219  0.00  0.00     0.186 C 
ATOM     12  C3  <0> d   1      19.481  -1.530  16.580  0.00  0.00     0.029 C 
ATOM     13  C24 <0> d   1      18.730   2.590  14.454  0.00  0.00     0.227 C 
ATOM     14  O25 <0> d   1      19.440   3.564  14.578  0.00  0.00    -0.277 OA
BRANCH  11  15
ATOM     15  C29 <0> d   1      18.965   1.475  17.626  0.00  0.00     0.193 C 
ATOM     16  O30 <0> d   1      18.106   2.262  17.984  0.00  0.00    -0.647 OA
ATOM     17  O31 <0> d   1      19.836   1.128  18.404  0.00  0.00    -0.647 OA
ENDBRANCH  11  15
ENDBRANCH   1   5
BRANCH   2  18
ATOM     18  C12 <0> d   1      20.069  -0.173  10.569  0.00  0.00     0.307 C 
BRANCH  18  19
ATOM     19  N14 <0> d   1      20.240   0.330   9.199  0.00  0.00    -0.062 N 
ATOM     20  H15 <0> d   1      21.197   0.198   8.909  0.00  0.00     0.275 HD
ATOM     21  H16 <0> d   1      19.628  -0.176   8.576  0.00  0.00     0.275 HD
ATOM     22  H17 <0> d   1      20.012   1.312   9.172  0.00  0.00     0.275 HD
ENDBRANCH  18  19
BRANCH  18  23
ATOM     23  C18 <0> d   1      19.627  -1.613  10.523  0.00  0.00    -0.019 A 
ATOM     24  C23 <0> d   1      19.804  -2.426  11.628  0.00  0.00     0.010 A 
ATOM     25  C22 <0> d   1      19.394  -3.746  11.587  0.00  0.00     0.001 A 
ATOM     26  C21 <0> d   1      18.816  -4.255  10.440  0.00  0.00     0.000 A 
ATOM     27  C20 <0> d   1      18.644  -3.445   9.334  0.00  0.00     0.001 A 
ATOM     28  C19 <0> d   1      19.051  -2.124   9.375  0.00  0.00     0.010 A 
ENDBRANCH  18  23
ENDBRANCH   2  18
TORSDOF 5
ENDMDL
MODEL 6
REMARK VINA RESULT:      -7.6      3.300      6.345
REMARK  5 active torsions:
REMARK  status: ('A' for Active; 'I' for Inactive)
REMARK    1  A    between atoms: C7_6  and  N9_7 
REMARK       I    between atoms: N9_7  and  C10_8 
REMARK    2  A    between atoms: C10_8  and  C12_10 
REMARK    3  A    between atoms: C12_10  and  N14_11 
REMARK    4  A    between atoms: C12_10  and  C18_15 
REMARK    5  A    between atoms: C27_24  and  C29_25 
ROOT
ATOM      1  N9  <0> d   1      17.884  -2.867   6.531  0.00  0.00    -0.344 N 
ATOM      2  C10 <0> d   1      18.611  -2.016   5.782  0.00  0.00     0.253 C 
ATOM      3  O11 <0> d   1      19.670  -2.375   5.310  0.00  0.00    -0.271 OA
ATOM      4  H38 <0> d   1      17.037  -2.580   6.908  0.00  0.00     0.163 HD
ENDROOT
BRANCH   1   5
ATOM      5  C7  <0> d   1      18.371  -4.226   6.778  0.00  0.00     0.199 C 
ATOM      6  C5  <0> d   1      19.171  -4.386   8.065  0.00  0.00     0.160 C 
ATOM      7  S4  <0> d   1      19.351  -2.840   9.034  0.00  0.00    -0.135 SA
ATOM      8  N26 <0> d   1      18.068  -5.115   8.706  0.00  0.00    -0.219 NA
ATOM      9  C2  <0> d   1      18.490  -3.495  10.526  0.00  0.00     0.029 C 
ATOM     10  C1  <0> d   1      19.448  -4.285  11.420  0.00  0.00     0.029 C 
ATOM     11  C27 <0> d   1      17.452  -4.428   9.845  0.00  0.00     0.186 C 
ATOM     12  C3  <0> d   1      17.801  -2.376  11.308  0.00  0.00     0.029 C 
ATOM     13  C24 <0> d   1      17.400  -5.112   7.512  0.00  0.00     0.227 C 
ATOM     14  O25 <0> d   1      16.373  -5.651   7.161  0.00  0.00    -0.277 OA
BRANCH  11  15
ATOM     15  C29 <0> d   1      16.955  -5.450  10.836  0.00  0.00     0.193 C 
ATOM     16  O30 <0> d   1      17.250  -6.624  10.699  0.00  0.00    -0.647 OA
ATOM     17  O31 <0> d   1      16.256  -5.102  11.772  0.00  0.00    -0.647 OA
ENDBRANCH  11  15
ENDBRANCH   1   5
BRANCH   2  18
ATOM     18  C12 <0> d   1      18.110  -0.618   5.528  0.00  0.00     0.307 C 
BRANCH  18  19
ATOM     19  N14 <0> d   1      18.924   0.011   4.478  0.00  0.00    -0.062 N 
ATOM     20  H15 <0> d   1      18.723  -0.425   3.590  0.00  0.00     0.275 HD
ATOM     21  H16 <0> d   1      18.705   0.994   4.426  0.00  0.00     0.275 HD
ATOM     22  H17 <0> d   1      19.902  -0.106   4.696  0.00  0.00     0.275 HD
ENDBRANCH  18  19
BRANCH  18  23
ATOM     23  C18 <0> d   1      18.215   0.191   6.795  0.00  0.00    -0.019 A 
ATOM     24  C23 <0> d   1      19.145   1.210   6.890  0.00  0.00     0.010 A 
ATOM     25  C22 <0> d   1      19.237   1.955   8.051  0.00  0.00     0.001 A 
ATOM     26  C21 <0> d   1      18.406   1.676   9.120  0.00  0.00     0.000 A 
ATOM     27  C20 <0> d   1      17.480   0.654   9.027  0.00  0.00     0.001 A 
ATOM     28  C19 <0> d   1      17.385  -0.089   7.865  0.00  0.00     0.010 A 
ENDBRANCH  18  23
ENDBRANCH   2  18
TORSDOF 5
ENDMDL
MODEL 7
REMARK VINA RESULT:      -7.6      3.209      8.443
REMARK  5 active torsions:
REMARK  status: ('A' for Active; 'I' for Inactive)
REMARK    1  A    between atoms: C7_6  and  N9_7 
REMARK       I    between atoms: N9_7  and  C10_8 
REMARK    2  A    between atoms: C10_8  and  C12_10 
REMARK    3  A    between atoms: C12_10  and  N14_11 
REMARK    4  A    between atoms: C12_10  and  C18_15 
REMARK    5  A    between atoms: C27_24  and  C29_25 
ROOT
ATOM      1  N9  <0> d   1      19.025   1.210  12.511  0.00  0.00    -0.344 N 
ATOM      2  C10 <0> d   1      18.623   0.692  11.334  0.00  0.00     0.253 C 
ATOM      3  O11 <0> d   1      17.492   0.885  10.941  0.00  0.00    -0.271 OA
ATOM      4  H38 <0> d   1      19.930   1.057  12.826  0.00  0.00     0.163 HD
ENDROOT
BRANCH   1   5
ATOM      5  C7  <0> d   1      18.095   2.005  13.317  0.00  0.00     0.199 C 
ATOM      6  C5  <0> d   1      17.330   1.208  14.367  0.00  0.00     0.160 C 
ATOM      7  S4  <0> d   1      17.739  -0.578  14.400  0.00  0.00    -0.135 SA
ATOM      8  N26 <0> d   1      18.122   1.804  15.452  0.00  0.00    -0.219 NA
ATOM      9  C2  <0> d   1      18.357  -0.561  16.136  0.00  0.00     0.029 C 
ATOM     10  C1  <0> d   1      17.209  -0.703  17.137  0.00  0.00     0.029 C 
ATOM     11  C27 <0> d   1      18.975   0.863  16.183  0.00  0.00     0.186 C 
ATOM     12  C3  <0> d   1      19.422  -1.636  16.360  0.00  0.00     0.029 C 
ATOM     13  C24 <0> d   1      18.711   2.635  14.539  0.00  0.00     0.227 C 
ATOM     14  O25 <0> d   1      19.469   3.571  14.671  0.00  0.00    -0.277 OA
BRANCH  11  15
ATOM     15  C29 <0> d   1      19.108   1.316  17.615  0.00  0.00     0.193 C 
ATOM     16  O30 <0> d   1      20.000   0.868  18.315  0.00  0.00    -0.647 OA
ATOM     17  O31 <0> d   1      18.324   2.129  18.073  0.00  0.00    -0.647 OA
ENDBRANCH  11  15
ENDBRANCH   1   5
BRANCH   2  18
ATOM     18  C12 <0> d   1      19.579  -0.125  10.505  0.00  0.00     0.307 C 
BRANCH  18  19
ATOM     19  N14 <0> d   1      20.961   0.225  10.863  0.00  0.00    -0.062 N 
ATOM     20  H15 <0> d   1      21.017   0.401  11.855  0.00  0.00     0.275 HD
ATOM     21  H16 <0> d   1      21.575  -0.538  10.622  0.00  0.00     0.275 HD
ATOM     22  H17 <0> d   1      21.238   1.053  10.359  0.00  0.00     0.275 HD
ENDBRANCH  18  19
BRANCH  18  23
ATOM     23  C18 <0> d   1      19.351   0.165   9.044  0.00  0.00    -0.019 A 
ATOM     24  C23 <0> d   1      19.446   1.462   8.573  0.00  0.00     0.010 A 
ATOM     25  C22 <0> d   1      19.242   1.728   7.233  0.00  0.00     0.001 A 
ATOM     26  C21 <0> d   1      18.933   0.698   6.363  0.00  0.00     0.000 A 
ATOM     27  C20 <0> d   1      18.833  -0.598   6.834  0.00  0.00     0.001 A 
ATOM     28  C19 <0> d   1      19.042  -0.864   8.174  0.00  0.00     0.010 A 
ENDBRANCH  18  23
ENDBRANCH   2  18
TORSDOF 5
ENDMDL
MODEL 8
REMARK VINA RESULT:      -7.5      2.046      2.818
REMARK  5 active torsions:
REMARK  status: ('A' for Active; 'I' for Inactive)
REMARK    1  A    between atoms: C7_6  and  N9_7 
REMARK       I    between atoms: N9_7  and  C10_8 
REMARK    2  A    between atoms: C10_8  and  C12_10 
REMARK    3  A    between atoms: C12_10  and  N14_11 
REMARK    4  A    between atoms: C12_10  and  C18_15 
REMARK    5  A    between atoms: C27_24  and  C29_25 
ROOT
ATOM      1  N9  <0> d   1      19.386  -0.926  10.372  0.00  0.00    -0.344 N 
ATOM      2  C10 <0> d   1      19.226  -0.393  11.599  0.00  0.00     0.253 C 
ATOM      3  O11 <0> d   1      18.298  -0.745  12.297  0.00  0.00    -0.271 OA
ATOM      4  H38 <0> d   1      20.128  -0.645   9.813  0.00  0.00     0.163 HD
ENDROOT
BRANCH   1   5
ATOM      5  C7  <0> d   1      18.440  -1.931   9.880  0.00  0.00     0.199 C 
ATOM      6  C5  <0> d   1      17.527  -1.443   8.761  0.00  0.00     0.160 C 
ATOM      7  S4  <0> d   1      17.810   0.299   8.266  0.00  0.00    -0.135 SA
ATOM      8  N26 <0> d   1      18.251  -2.248   7.768  0.00  0.00    -0.219 NA
ATOM      9  C2  <0> d   1      18.261  -0.110   6.526  0.00  0.00     0.029 C 
ATOM     10  C1  <0> d   1      17.016  -0.261   5.650  0.00  0.00     0.029 C 
ATOM     11  C27 <0> d   1      18.966  -1.475   6.749  0.00  0.00     0.186 C 
ATOM     12  C3  <0> d   1      19.225   0.925   5.943  0.00  0.00     0.029 C 
ATOM     13  C24 <0> d   1      18.978  -2.809   8.782  0.00  0.00     0.227 C 
ATOM     14  O25 <0> d   1      19.782  -3.716   8.792  0.00  0.00    -0.277 OA
BRANCH  11  15
ATOM     15  C29 <0> d   1      18.993  -2.253   5.458  0.00  0.00     0.193 C 
ATOM     16  O30 <0> d   1      18.304  -3.251   5.333  0.00  0.00    -0.647 OA
ATOM     17  O31 <0> d   1      19.705  -1.886   4.539  0.00  0.00    -0.647 OA
ENDBRANCH  11  15
ENDBRANCH   1   5
BRANCH   2  18
ATOM     18  C12 <0> d   1      20.199   0.640  12.105  0.00  0.00     0.307 C 
BRANCH  18  19
ATOM     19  N14 <0> d   1      20.634   0.280  13.461  0.00  0.00    -0.062 N 
ATOM     20  H15 <0> d   1      21.016  -0.654  13.455  0.00  0.00     0.275 HD
ATOM     21  H16 <0> d   1      21.340   0.930  13.772  0.00  0.00     0.275 HD
ATOM     22  H17 <0> d   1      19.844   0.316  14.087  0.00  0.00     0.275 HD
ENDBRANCH  18  19
BRANCH  18  23
ATOM     23  C18 <0> d   1      19.528   1.990  12.134  0.00  0.00    -0.019 A 
ATOM     24  C23 <0> d   1      19.114   2.529  13.338  0.00  0.00     0.010 A 
ATOM     25  C22 <0> d   1      18.503   3.769  13.366  0.00  0.00     0.001 A 
ATOM     26  C21 <0> d   1      18.299   4.466  12.189  0.00  0.00     0.000 A 
ATOM     27  C20 <0> d   1      18.709   3.924  10.986  0.00  0.00     0.001 A 
ATOM     28  C19 <0> d   1      19.323   2.686  10.958  0.00  0.00     0.010 A 
ENDBRANCH  18  23
ENDBRANCH   2  18
TORSDOF 5
ENDMDL
MODEL 9
REMARK VINA RESULT:      -7.5      3.185      4.083
REMARK  5 active torsions:
REMARK  status: ('A' for Active; 'I' for Inactive)
REMARK    1  A    between atoms: C7_6  and  N9_7 
REMARK       I    between atoms: N9_7  and  C10_8 
REMARK    2  A    between atoms: C10_8  and  C12_10 
REMARK    3  A    between atoms: C12_10  and  N14_11 
REMARK    4  A    between atoms: C12_10  and  C18_15 
REMARK    5  A    between atoms: C27_24  and  C29_25 
ROOT
ATOM      1  N9  <0> d   1      19.290  -1.531  10.617  0.00  0.00    -0.344 N 
ATOM      2  C10 <0> d   1      19.663  -0.721  11.628  0.00  0.00     0.253 C 
ATOM      3  O11 <0> d   1      19.359  -0.996  12.769  0.00  0.00    -0.271 OA
ATOM      4  H38 <0> d   1      19.533  -1.311   9.704  0.00  0.00     0.163 HD
ENDROOT
BRANCH   1   5
ATOM      5  C7  <0> d   1      18.514  -2.742  10.897  0.00  0.00     0.199 C 
ATOM      6  C5  <0> d   1      17.784  -3.316   9.689  0.00  0.00     0.160 C 
ATOM      7  S4  <0> d   1      18.033  -2.369   8.139  0.00  0.00    -0.135 SA
ATOM      8  N26 <0> d   1      18.724  -4.442   9.607  0.00  0.00    -0.219 NA
ATOM      9  C2  <0> d   1      18.812  -3.770   7.229  0.00  0.00     0.029 C 
ATOM     10  C1  <0> d   1      17.754  -4.689   6.614  0.00  0.00     0.029 C 
ATOM     11  C27 <0> d   1      19.555  -4.466   8.400  0.00  0.00     0.186 C 
ATOM     12  C3  <0> d   1      19.792  -3.269   6.168  0.00  0.00     0.029 C 
ATOM     13  C24 <0> d   1      19.295  -4.023  10.777  0.00  0.00     0.227 C 
ATOM     14  O25 <0> d   1      20.143  -4.522  11.485  0.00  0.00    -0.277 OA
BRANCH  11  15
ATOM     15  C29 <0> d   1      19.862  -5.896   8.033  0.00  0.00     0.193 C 
ATOM     16  O30 <0> d   1      20.775  -6.145   7.265  0.00  0.00    -0.647 OA
ATOM     17  O31 <0> d   1      19.197  -6.803   8.503  0.00  0.00    -0.647 OA
ENDBRANCH  11  15
ENDBRANCH   1   5
BRANCH   2  18
ATOM     18  C12 <0> d   1      20.461   0.524  11.340  0.00  0.00     0.307 C 
BRANCH  18  19
ATOM     19  N14 <0> d   1      21.494   0.693  12.371  0.00  0.00    -0.062 N 
ATOM     20  H15 <0> d   1      21.617  -0.176  12.869  0.00  0.00     0.275 HD
ATOM     21  H16 <0> d   1      22.365   0.956  11.935  0.00  0.00     0.275 HD
ATOM     22  H17 <0> d   1      21.209   1.413  13.017  0.00  0.00     0.275 HD
ENDBRANCH  18  19
BRANCH  18  23
ATOM     23  C18 <0> d   1      19.544   1.720  11.349  0.00  0.00    -0.019 A 
ATOM     24  C23 <0> d   1      19.231   2.343  12.543  0.00  0.00     0.010 A 
ATOM     25  C22 <0> d   1      18.395   3.443  12.551  0.00  0.00     0.001 A 
ATOM     26  C21 <0> d   1      17.863   3.915  11.365  0.00  0.00     0.000 A 
ATOM     27  C20 <0> d   1      18.171   3.290  10.172  0.00  0.00     0.001 A 
ATOM     28  C19 <0> d   1      19.011   2.192  10.164  0.00  0.00     0.010 A 
ENDBRANCH  18  23
ENDBRANCH   2  18
TORSDOF 5
ENDMDL
