MODEL 1
REMARK VINA RESULT:      -4.0      0.000      0.000
REMARK  9 active torsions:
REMARK  status: ('A' for Active; 'I' for Inactive)
REMARK    1  A    between atoms: N1_1  and  C5_5 
REMARK    2  A    between atoms: C5_5  and  C6_6 
REMARK    3  A    between atoms: C6_6  and  N7_7 
REMARK    4  A    between atoms: N7_7  and  C8_8 
REMARK    5  A    between atoms: C8_8  and  C9_9 
REMARK    6  A    between atoms: C9_9  and  N10_10 
REMARK    7  A    between atoms: N10_10  and  C11_11 
REMARK    8  A    between atoms: C11_11  and  C12_12 
REMARK    9  A    between atoms: C12_12  and  N13_13 
ROOT
ATOM      1  C8  <0> d   1      19.479  -2.799  11.687  0.00  0.00     0.299 C 
ENDROOT
BRANCH   1   2
ATOM      2  N7  <0> d   1      20.666  -2.059  11.237  0.00  0.00     0.086 N 
ATOM      3  H21 <0> d   1      21.180  -2.585  10.547  0.00  0.00     0.315 HD
BRANCH   2   4
ATOM      4  C6  <0> d   1      20.296  -0.734  10.722  0.00  0.00     0.296 C 
BRANCH   4   5
ATOM      5  C5  <0> d   1      20.216   0.260  11.883  0.00  0.00     0.259 C 
BRANCH   5   6
ATOM      6  N1  <0> d   1      21.571   0.684  12.258  0.00  0.00    -0.078 N 
ATOM      7  H2  <0> d   1      21.896   1.387  11.612  0.00  0.00     0.274 HD
ATOM      8  H3  <0> d   1      22.192  -0.111  12.230  0.00  0.00     0.274 HD
ATOM      9  H4  <0> d   1      21.557   1.066  13.192  0.00  0.00     0.274 HD
ENDBRANCH   5   6
ENDBRANCH   4   5
ENDBRANCH   2   4
ENDBRANCH   1   2
BRANCH   1  10
ATOM     10  C9  <0> d   1      19.502  -4.209  11.096  0.00  0.00     0.299 C 
BRANCH  10  11
ATOM     11  N10 <0> d   1      20.051  -4.161   9.734  0.00  0.00     0.086 N 
ATOM     12  H26 <0> d   1      19.533  -3.514   9.158  0.00  0.00     0.315 HD
BRANCH  11  13
ATOM     13  C11 <0> d   1      20.080  -5.500   9.131  0.00  0.00     0.296 C 
BRANCH  13  14
ATOM     14  C12 <0> d   1      20.365  -5.377   7.632  0.00  0.00     0.259 C 
BRANCH  14  15
ATOM     15  N13 <0> d   1      21.814  -5.452   7.401  0.00  0.00    -0.078 N 
ATOM     16  H14 <0> d   1      22.289  -4.839   8.045  0.00  0.00     0.274 HD
ATOM     17  H15 <0> d   1      22.128  -6.401   7.545  0.00  0.00     0.274 HD
ATOM     18  H16 <0> d   1      22.018  -5.171   6.454  0.00  0.00     0.274 HD
ENDBRANCH  14  15
ENDBRANCH  13  14
ENDBRANCH  11  13
ENDBRANCH  10  11
ENDBRANCH   1  10
TORSDOF 9
ENDMDL
MODEL 2
REMARK VINA RESULT:      -4.0      2.832      4.209
REMARK  9 active torsions:
REMARK  status: ('A' for Active; 'I' for Inactive)
REMARK    1  A    between atoms: N1_1  and  C5_5 
REMARK    2  A    between atoms: C5_5  and  C6_6 
REMARK    3  A    between atoms: C6_6  and  N7_7 
REMARK    4  A    between atoms: N7_7  and  C8_8 
REMARK    5  A    between atoms: C8_8  and  C9_9 
REMARK    6  A    between atoms: C9_9  and  N10_10 
REMARK    7  A    between atoms: N10_10  and  C11_11 
REMARK    8  A    between atoms: C11_11  and  C12_12 
REMARK    9  A    between atoms: C12_12  and  N13_13 
ROOT
ATOM      1  C8  <0> d   1      18.845   0.751   8.757  0.00  0.00     0.299 C 
ENDROOT
BRANCH   1   2
ATOM      2  N7  <0> d   1      19.685   1.897   9.128  0.00  0.00     0.086 N 
ATOM      3  H21 <0> d   1      20.072   2.342   8.310  0.00  0.00     0.315 HD
BRANCH   2   4
ATOM      4  C6  <0> d   1      18.932   2.858   9.945  0.00  0.00     0.296 C 
BRANCH   4   5
ATOM      5  C5  <0> d   1      19.339   2.710  11.413  0.00  0.00     0.259 C 
BRANCH   5   6
ATOM      6  N1  <0> d   1      20.745   3.103  11.573  0.00  0.00    -0.078 N 
ATOM      7  H2  <0> d   1      20.793   4.062  11.884  0.00  0.00     0.274 HD
ATOM      8  H3  <0> d   1      21.223   3.012  10.689  0.00  0.00     0.274 HD
ATOM      9  H4  <0> d   1      21.186   2.505  12.257  0.00  0.00     0.274 HD
ENDBRANCH   5   6
ENDBRANCH   4   5
ENDBRANCH   2   4
ENDBRANCH   1   2
BRANCH   1  10
ATOM     10  C9  <0> d   1      19.639  -0.544   8.940  0.00  0.00     0.299 C 
BRANCH  10  11
ATOM     11  N10 <0> d   1      20.793  -0.292   9.813  0.00  0.00     0.086 N 
ATOM     12  H26 <0> d   1      21.635  -0.692   9.424  0.00  0.00     0.315 HD
BRANCH  11  13
ATOM     13  C11 <0> d   1      20.548  -0.799  11.169  0.00  0.00     0.296 C 
BRANCH  13  14
ATOM     14  C12 <0> d   1      19.811  -2.138  11.087  0.00  0.00     0.259 C 
BRANCH  14  15
ATOM     15  N13 <0> d   1      20.735  -3.228  11.430  0.00  0.00    -0.078 N 
ATOM     16  H14 <0> d   1      20.414  -3.691  12.265  0.00  0.00     0.274 HD
ATOM     17  H15 <0> d   1      20.770  -3.890  10.669  0.00  0.00     0.274 HD
ATOM     18  H16 <0> d   1      21.657  -2.849  11.588  0.00  0.00     0.274 HD
ENDBRANCH  14  15
ENDBRANCH  13  14
ENDBRANCH  11  13
ENDBRANCH  10  11
ENDBRANCH   1  10
TORSDOF 9
ENDMDL
MODEL 3
REMARK VINA RESULT:      -3.9      3.950      6.947
REMARK  9 active torsions:
REMARK  status: ('A' for Active; 'I' for Inactive)
REMARK    1  A    between atoms: N1_1  and  C5_5 
REMARK    2  A    between atoms: C5_5  and  C6_6 
REMARK    3  A    between atoms: C6_6  and  N7_7 
REMARK    4  A    between atoms: N7_7  and  C8_8 
REMARK    5  A    between atoms: C8_8  and  C9_9 
REMARK    6  A    between atoms: C9_9  and  N10_10 
REMARK    7  A    between atoms: N10_10  and  C11_11 
REMARK    8  A    between atoms: C11_11  and  C12_12 
REMARK    9  A    between atoms: C12_12  and  N13_13 
ROOT
ATOM      1  C8  <0> d   1      19.547   0.251  14.361  0.00  0.00     0.299 C 
ENDROOT
BRANCH   1   2
ATOM      2  N7  <0> d   1      20.653   0.401  13.405  0.00  0.00     0.086 N 
ATOM      3  H21 <0> d   1      21.133  -0.475  13.267  0.00  0.00     0.315 HD
BRANCH   2   4
ATOM      4  C6  <0> d   1      20.175   0.948  12.129  0.00  0.00     0.296 C 
BRANCH   4   5
ATOM      5  C5  <0> d   1      20.225  -0.143  11.057  0.00  0.00     0.259 C 
BRANCH   5   6
ATOM      6  N1  <0> d   1      21.601  -0.637  10.925  0.00  0.00    -0.078 N 
ATOM      7  H2  <0> d   1      22.146  -0.333  11.718  0.00  0.00     0.274 HD
ATOM      8  H3  <0> d   1      22.010  -0.273  10.077  0.00  0.00     0.274 HD
ATOM      9  H4  <0> d   1      21.595  -1.646  10.888  0.00  0.00     0.274 HD
ENDBRANCH   5   6
ENDBRANCH   4   5
ENDBRANCH   2   4
ENDBRANCH   1   2
BRANCH   1  10
ATOM     10  C9  <0> d   1      19.368  -1.228  14.707  0.00  0.00     0.299 C 
BRANCH  10  11
ATOM     11  N10 <0> d   1      18.711  -1.350  16.015  0.00  0.00     0.086 N 
ATOM     12  H26 <0> d   1      18.072  -2.131  16.027  0.00  0.00     0.315 HD
BRANCH  11  13
ATOM     13  C11 <0> d   1      18.027  -0.102  16.378  0.00  0.00     0.296 C 
BRANCH  13  14
ATOM     14  C12 <0> d   1      18.266   0.197  17.860  0.00  0.00     0.259 C 
BRANCH  14  15
ATOM     15  N13 <0> d   1      19.564  -0.355  18.269  0.00  0.00    -0.078 N 
ATOM     16  H14 <0> d   1      19.875   0.106  19.110  0.00  0.00     0.274 HD
ATOM     17  H15 <0> d   1      19.468  -1.345  18.443  0.00  0.00     0.274 HD
ATOM     18  H16 <0> d   1      20.239  -0.206  17.534  0.00  0.00     0.274 HD
ENDBRANCH  14  15
ENDBRANCH  13  14
ENDBRANCH  11  13
ENDBRANCH  10  11
ENDBRANCH   1  10
TORSDOF 9
ENDMDL
MODEL 4
REMARK VINA RESULT:      -3.9      1.822      2.286
REMARK  9 active torsions:
REMARK  status: ('A' for Active; 'I' for Inactive)
REMARK    1  A    between atoms: N1_1  and  C5_5 
REMARK    2  A    between atoms: C5_5  and  C6_6 
REMARK    3  A    between atoms: C6_6  and  N7_7 
REMARK    4  A    between atoms: N7_7  and  C8_8 
REMARK    5  A    between atoms: C8_8  and  C9_9 
REMARK    6  A    between atoms: C9_9  and  N10_10 
REMARK    7  A    between atoms: N10_10  and  C11_11 
REMARK    8  A    between atoms: C11_11  and  C12_12 
REMARK    9  A    between atoms: C12_12  and  N13_13 
ROOT
ATOM      1  C8  <0> d   1      19.652  -0.481   8.721  0.00  0.00     0.299 C 
ENDROOT
BRANCH   1   2
ATOM      2  N7  <0> d   1      20.685  -0.476   9.766  0.00  0.00     0.086 N 
ATOM      3  H21 <0> d   1      21.114   0.434   9.845  0.00  0.00     0.315 HD
BRANCH   2   4
ATOM      4  C6  <0> d   1      20.132  -0.911  11.054  0.00  0.00     0.296 C 
BRANCH   4   5
ATOM      5  C5  <0> d   1      20.225   0.236  12.063  0.00  0.00     0.259 C 
BRANCH   5   6
ATOM      6  N1  <0> d   1      21.625   0.656  12.199  0.00  0.00    -0.078 N 
ATOM      7  H2  <0> d   1      21.765   1.072  13.107  0.00  0.00     0.274 HD
ATOM      8  H3  <0> d   1      21.845   1.332  11.482  0.00  0.00     0.274 HD
ATOM      9  H4  <0> d   1      22.229  -0.147  12.100  0.00  0.00     0.274 HD
ENDBRANCH   5   6
ENDBRANCH   4   5
ENDBRANCH   2   4
ENDBRANCH   1   2
BRANCH   1  10
ATOM     10  C9  <0> d   1      19.213  -1.920   8.444  0.00  0.00     0.299 C 
BRANCH  10  11
ATOM     11  N10 <0> d   1      19.806  -2.379   7.181  0.00  0.00     0.086 N 
ATOM     12  H26 <0> d   1      19.712  -1.678   6.462  0.00  0.00     0.315 HD
BRANCH  11  13
ATOM     13  C11 <0> d   1      19.214  -3.654   6.755  0.00  0.00     0.296 C 
BRANCH  13  14
ATOM     14  C12 <0> d   1      19.807  -4.795   7.585  0.00  0.00     0.259 C 
BRANCH  14  15
ATOM     15  N13 <0> d   1      21.225  -4.965   7.241  0.00  0.00    -0.078 N 
ATOM     16  H14 <0> d   1      21.630  -4.066   7.032  0.00  0.00     0.274 HD
ATOM     17  H15 <0> d   1      21.712  -5.381   8.022  0.00  0.00     0.274 HD
ATOM     18  H16 <0> d   1      21.306  -5.567   6.436  0.00  0.00     0.274 HD
ENDBRANCH  14  15
ENDBRANCH  13  14
ENDBRANCH  11  13
ENDBRANCH  10  11
ENDBRANCH   1  10
TORSDOF 9
ENDMDL
MODEL 5
REMARK VINA RESULT:      -3.9      3.931      6.269
REMARK  9 active torsions:
REMARK  status: ('A' for Active; 'I' for Inactive)
REMARK    1  A    between atoms: N1_1  and  C5_5 
REMARK    2  A    between atoms: C5_5  and  C6_6 
REMARK    3  A    between atoms: C6_6  and  N7_7 
REMARK    4  A    between atoms: N7_7  and  C8_8 
REMARK    5  A    between atoms: C8_8  and  C9_9 
REMARK    6  A    between atoms: C9_9  and  N10_10 
REMARK    7  A    between atoms: N10_10  and  C11_11 
REMARK    8  A    between atoms: C11_11  and  C12_12 
REMARK    9  A    between atoms: C12_12  and  N13_13 
ROOT
ATOM      1  C8  <0> d   1      18.543   0.217   8.024  0.00  0.00     0.299 C 
ENDROOT
BRANCH   1   2
ATOM      2  N7  <0> d   1      18.807   1.008   6.815  0.00  0.00     0.086 N 
ATOM      3  H21 <0> d   1      19.794   1.188   6.709  0.00  0.00     0.315 HD
BRANCH   2   4
ATOM      4  C6  <0> d   1      18.263   0.344   5.623  0.00  0.00     0.296 C 
BRANCH   4   5
ATOM      5  C5  <0> d   1      19.397  -0.344   4.860  0.00  0.00     0.259 C 
BRANCH   5   6
ATOM      6  N1  <0> d   1      18.881  -1.550   4.200  0.00  0.00    -0.078 N 
ATOM      7  H2  <0> d   1      19.278  -1.624   3.274  0.00  0.00     0.274 HD
ATOM      8  H3  <0> d   1      17.876  -1.493   4.131  0.00  0.00     0.274 HD
ATOM      9  H4  <0> d   1      19.135  -2.364   4.739  0.00  0.00     0.274 HD
ENDBRANCH   5   6
ENDBRANCH   4   5
ENDBRANCH   2   4
ENDBRANCH   1   2
BRANCH   1  10
ATOM     10  C9  <0> d   1      19.479   0.671   9.145  0.00  0.00     0.299 C 
BRANCH  10  11
ATOM     11  N10 <0> d   1      20.490  -0.367   9.391  0.00  0.00     0.086 N 
ATOM     12  H26 <0> d   1      20.385  -1.134   8.743  0.00  0.00     0.315 HD
BRANCH  11  13
ATOM     13  C11 <0> d   1      20.434  -0.838  10.780  0.00  0.00     0.296 C 
BRANCH  13  14
ATOM     14  C12 <0> d   1      20.285   0.361  11.720  0.00  0.00     0.259 C 
BRANCH  14  15
ATOM     15  N13 <0> d   1      21.594   0.697  12.297  0.00  0.00    -0.078 N 
ATOM     16  H14 <0> d   1      22.316   0.187  11.811  0.00  0.00     0.274 HD
ATOM     17  H15 <0> d   1      21.759   1.688  12.200  0.00  0.00     0.274 HD
ATOM     18  H16 <0> d   1      21.604   0.448  13.274  0.00  0.00     0.274 HD
ENDBRANCH  14  15
ENDBRANCH  13  14
ENDBRANCH  11  13
ENDBRANCH  10  11
ENDBRANCH   1  10
TORSDOF 9
ENDMDL
MODEL 6
REMARK VINA RESULT:      -3.9      2.910      4.773
REMARK  9 active torsions:
REMARK  status: ('A' for Active; 'I' for Inactive)
REMARK    1  A    between atoms: N1_1  and  C5_5 
REMARK    2  A    between atoms: C5_5  and  C6_6 
REMARK    3  A    between atoms: C6_6  and  N7_7 
REMARK    4  A    between atoms: N7_7  and  C8_8 
REMARK    5  A    between atoms: C8_8  and  C9_9 
REMARK    6  A    between atoms: C9_9  and  N10_10 
REMARK    7  A    between atoms: N10_10  and  C11_11 
REMARK    8  A    between atoms: C11_11  and  C12_12 
REMARK    9  A    between atoms: C12_12  and  N13_13 
ROOT
ATOM      1  C8  <0> d   1      18.899  -2.048  12.902  0.00  0.00     0.299 C 
ENDROOT
BRANCH   1   2
ATOM      2  N7  <0> d   1      19.755  -1.691  14.042  0.00  0.00     0.086 N 
ATOM      3  H21 <0> d   1      20.719  -1.607  13.758  0.00  0.00     0.315 HD
BRANCH   2   4
ATOM      4  C6  <0> d   1      19.286  -0.457  14.686  0.00  0.00     0.296 C 
BRANCH   4   5
ATOM      5  C5  <0> d   1      18.000  -0.746  15.464  0.00  0.00     0.259 C 
BRANCH   5   6
ATOM      6  N1  <0> d   1      17.267   0.508  15.681  0.00  0.00    -0.078 N 
ATOM      7  H2  <0> d   1      17.809   1.281  15.325  0.00  0.00     0.274 HD
ATOM      8  H3  <0> d   1      17.106   0.638  16.668  0.00  0.00     0.274 HD
ATOM      9  H4  <0> d   1      16.382   0.468  15.198  0.00  0.00     0.274 HD
ENDBRANCH   5   6
ENDBRANCH   4   5
ENDBRANCH   2   4
ENDBRANCH   1   2
BRANCH   1  10
ATOM     10  C9  <0> d   1      19.759  -2.643  11.785  0.00  0.00     0.299 C 
BRANCH  10  11
ATOM     11  N10 <0> d   1      20.662  -1.611  11.259  0.00  0.00     0.086 N 
ATOM     12  H26 <0> d   1      21.292  -1.283  11.976  0.00  0.00     0.315 HD
BRANCH  11  13
ATOM     13  C11 <0> d   1      19.905  -0.498  10.672  0.00  0.00     0.296 C 
BRANCH  13  14
ATOM     14  C12 <0> d   1      20.290   0.806  11.375  0.00  0.00     0.259 C 
BRANCH  14  15
ATOM     15  N13 <0> d   1      21.564   0.624  12.083  0.00  0.00    -0.078 N 
ATOM     16  H14 <0> d   1      21.598   1.245  12.877  0.00  0.00     0.274 HD
ATOM     17  H15 <0> d   1      21.638  -0.331  12.400  0.00  0.00     0.274 HD
ATOM     18  H16 <0> d   1      22.328   0.832  11.458  0.00  0.00     0.274 HD
ENDBRANCH  14  15
ENDBRANCH  13  14
ENDBRANCH  11  13
ENDBRANCH  10  11
ENDBRANCH   1  10
TORSDOF 9
ENDMDL
MODEL 7
REMARK VINA RESULT:      -3.8      2.054      5.292
REMARK  9 active torsions:
REMARK  status: ('A' for Active; 'I' for Inactive)
REMARK    1  A    between atoms: N1_1  and  C5_5 
REMARK    2  A    between atoms: C5_5  and  C6_6 
REMARK    3  A    between atoms: C6_6  and  N7_7 
REMARK    4  A    between atoms: N7_7  and  C8_8 
REMARK    5  A    between atoms: C8_8  and  C9_9 
REMARK    6  A    between atoms: C9_9  and  N10_10 
REMARK    7  A    between atoms: N10_10  and  C11_11 
REMARK    8  A    between atoms: C11_11  and  C12_12 
REMARK    9  A    between atoms: C12_12  and  N13_13 
ROOT
ATOM      1  C8  <0> d   1      18.301  -0.948   9.169  0.00  0.00     0.299 C 
ENDROOT
BRANCH   1   2
ATOM      2  N7  <0> d   1      17.832  -1.883   8.137  0.00  0.00     0.086 N 
ATOM      3  H21 <0> d   1      17.701  -1.413   7.255  0.00  0.00     0.315 HD
BRANCH   2   4
ATOM      4  C6  <0> d   1      18.755  -3.018   7.998  0.00  0.00     0.296 C 
BRANCH   4   5
ATOM      5  C5  <0> d   1      18.677  -3.895   9.250  0.00  0.00     0.259 C 
BRANCH   5   6
ATOM      6  N1  <0> d   1      19.934  -4.638   9.406  0.00  0.00    -0.078 N 
ATOM      7  H2  <0> d   1      19.737  -5.563   9.757  0.00  0.00     0.274 HD
ATOM      8  H3  <0> d   1      20.534  -4.153  10.057  0.00  0.00     0.274 HD
ATOM      9  H4  <0> d   1      20.396  -4.709   8.512  0.00  0.00     0.274 HD
ENDBRANCH   5   6
ENDBRANCH   4   5
ENDBRANCH   2   4
ENDBRANCH   1   2
BRANCH   1  10
ATOM     10  C9  <0> d   1      19.571  -0.247   8.683  0.00  0.00     0.299 C 
BRANCH  10  11
ATOM     11  N10 <0> d   1      20.628  -0.390   9.693  0.00  0.00     0.086 N 
ATOM     12  H26 <0> d   1      21.366  -0.992   9.360  0.00  0.00     0.315 HD
BRANCH  11  13
ATOM     13  C11 <0> d   1      20.078  -0.883  10.963  0.00  0.00     0.296 C 
BRANCH  13  14
ATOM     14  C12 <0> d   1      20.221   0.200  12.035  0.00  0.00     0.259 C 
BRANCH  14  15
ATOM     15  N13 <0> d   1      21.624   0.629  12.115  0.00  0.00    -0.078 N 
ATOM     16  H14 <0> d   1      21.664   1.630  12.225  0.00  0.00     0.274 HD
ATOM     17  H15 <0> d   1      22.066   0.185  12.907  0.00  0.00     0.274 HD
ATOM     18  H16 <0> d   1      22.105   0.363  11.269  0.00  0.00     0.274 HD
ENDBRANCH  14  15
ENDBRANCH  13  14
ENDBRANCH  11  13
ENDBRANCH  10  11
ENDBRANCH   1  10
TORSDOF 9
ENDMDL
MODEL 8
REMARK VINA RESULT:      -3.8      3.003      5.934
REMARK  9 active torsions:
REMARK  status: ('A' for Active; 'I' for Inactive)
REMARK    1  A    between atoms: N1_1  and  C5_5 
REMARK    2  A    between atoms: C5_5  and  C6_6 
REMARK    3  A    between atoms: C6_6  and  N7_7 
REMARK    4  A    between atoms: N7_7  and  C8_8 
REMARK    5  A    between atoms: C8_8  and  C9_9 
REMARK    6  A    between atoms: C9_9  and  N10_10 
REMARK    7  A    between atoms: N10_10  and  C11_11 
REMARK    8  A    between atoms: C11_11  and  C12_12 
REMARK    9  A    between atoms: C12_12  and  N13_13 
ROOT
ATOM      1  C8  <0> d   1      19.942  -0.428   9.189  0.00  0.00     0.299 C 
ENDROOT
BRANCH   1   2
ATOM      2  N7  <0> d   1      19.595  -1.581   8.346  0.00  0.00     0.086 N 
ATOM      3  H21 <0> d   1      20.041  -2.421   8.681  0.00  0.00     0.315 HD
BRANCH   2   4
ATOM      4  C6  <0> d   1      18.138  -1.753   8.266  0.00  0.00     0.296 C 
BRANCH   4   5
ATOM      5  C5  <0> d   1      17.475  -0.392   8.045  0.00  0.00     0.259 C 
BRANCH   5   6
ATOM      6  N1  <0> d   1      16.838  -0.367   6.723  0.00  0.00    -0.078 N 
ATOM      7  H2  <0> d   1      15.868  -0.631   6.811  0.00  0.00     0.274 HD
ATOM      8  H3  <0> d   1      17.308  -1.016   6.109  0.00  0.00     0.274 HD
ATOM      9  H4  <0> d   1      16.899   0.564   6.337  0.00  0.00     0.274 HD
ENDBRANCH   5   6
ENDBRANCH   4   5
ENDBRANCH   2   4
ENDBRANCH   1   2
BRANCH   1  10
ATOM     10  C9  <0> d   1      20.167  -0.896  10.627  0.00  0.00     0.299 C 
BRANCH  10  11
ATOM     11  N10 <0> d   1      21.194  -0.059  11.261  0.00  0.00     0.086 N 
ATOM     12  H26 <0> d   1      22.013  -0.603  11.490  0.00  0.00     0.315 HD
BRANCH  11  13
ATOM     13  C11 <0> d   1      20.660   0.618  12.450  0.00  0.00     0.296 C 
BRANCH  13  14
ATOM     14  C12 <0> d   1      19.848   1.841  12.019  0.00  0.00     0.259 C 
BRANCH  14  15
ATOM     15  N13 <0> d   1      20.761   2.928  11.640  0.00  0.00    -0.078 N 
ATOM     16  H14 <0> d   1      21.713   2.642  11.810  0.00  0.00     0.274 HD
ATOM     17  H15 <0> d   1      20.643   3.139  10.660  0.00  0.00     0.274 HD
ATOM     18  H16 <0> d   1      20.552   3.749  12.189  0.00  0.00     0.274 HD
ENDBRANCH  14  15
ENDBRANCH  13  14
ENDBRANCH  11  13
ENDBRANCH  10  11
ENDBRANCH   1  10
TORSDOF 9
ENDMDL
MODEL 9
REMARK VINA RESULT:      -3.7      1.491      4.691
REMARK  9 active torsions:
REMARK  status: ('A' for Active; 'I' for Inactive)
REMARK    1  A    between atoms: N1_1  and  C5_5 
REMARK    2  A    between atoms: C5_5  and  C6_6 
REMARK    3  A    between atoms: C6_6  and  N7_7 
REMARK    4  A    between atoms: N7_7  and  C8_8 
REMARK    5  A    between atoms: C8_8  and  C9_9 
REMARK    6  A    between atoms: C9_9  and  N10_10 
REMARK    7  A    between atoms: N10_10  and  C11_11 
REMARK    8  A    between atoms: C11_11  and  C12_12 
REMARK    9  A    between atoms: C12_12  and  N13_13 
ROOT
ATOM      1  C8  <0> d   1      19.764  -4.402  11.195  0.00  0.00     0.299 C 
ENDROOT
BRANCH   1   2
ATOM      2  N7  <0> d   1      20.023  -4.192   9.764  0.00  0.00     0.086 N 
ATOM      3  H21 <0> d   1      20.345  -5.042   9.327  0.00  0.00     0.315 HD
BRANCH   2   4
ATOM      4  C6  <0> d   1      18.830  -3.668   9.086  0.00  0.00     0.296 C 
BRANCH   4   5
ATOM      5  C5  <0> d   1      19.126  -3.498   7.594  0.00  0.00     0.259 C 
BRANCH   5   6
ATOM      6  N1  <0> d   1      20.366  -4.209   7.257  0.00  0.00    -0.078 N 
ATOM      7  H2  <0> d   1      20.695  -3.903   6.353  0.00  0.00     0.274 HD
ATOM      8  H3  <0> d   1      20.188  -5.203   7.231  0.00  0.00     0.274 HD
ATOM      9  H4  <0> d   1      21.068  -4.012   7.954  0.00  0.00     0.274 HD
ENDBRANCH   5   6
ENDBRANCH   4   5
ENDBRANCH   2   4
ENDBRANCH   1   2
BRANCH   1  10
ATOM     10  C9  <0> d   1      18.929  -3.241  11.738  0.00  0.00     0.299 C 
BRANCH  10  11
ATOM     11  N10 <0> d   1      19.781  -2.363  12.552  0.00  0.00     0.086 N 
ATOM     12  H26 <0> d   1      19.647  -2.541  13.537  0.00  0.00     0.315 HD
BRANCH  11  13
ATOM     13  C11 <0> d   1      19.536  -0.950  12.234  0.00  0.00     0.296 C 
BRANCH  13  14
ATOM     14  C12 <0> d   1      20.113  -0.631  10.853  0.00  0.00     0.259 C 
BRANCH  14  15
ATOM     15  N13 <0> d   1      21.580  -0.610  10.928  0.00  0.00    -0.078 N 
ATOM     16  H14 <0> d   1      21.876  -0.954  11.828  0.00  0.00     0.274 HD
ATOM     17  H15 <0> d   1      21.962  -1.197  10.201  0.00  0.00     0.274 HD
ATOM     18  H16 <0> d   1      21.909   0.336  10.804  0.00  0.00     0.274 HD
ENDBRANCH  14  15
ENDBRANCH  13  14
ENDBRANCH  11  13
ENDBRANCH  10  11
ENDBRANCH   1  10
TORSDOF 9
ENDMDL
