MODEL 1
REMARK VINA RESULT:      -8.8      0.000      0.000
REMARK  6 active torsions:
REMARK  status: ('A' for Active; 'I' for Inactive)
REMARK    1  A    between atoms: C2_2  and  C4_3 
REMARK    2  A    between atoms: C2_2  and  C9_8 
REMARK    3  A    between atoms: C4_3  and  C5_4 
REMARK    4  A    between atoms: C5_4  and  C6_5 
REMARK    5  A    between atoms: C17_13  and  O19_14 
REMARK    6  A    between atoms: C24_18  and  O26_19 
ROOT
ATOM      1  C9  ZIN A   1      18.164   1.571  11.038  0.00  0.00    -0.002 C 
ATOM      2  C11 ZIN A   1      18.646   1.916   9.606  0.00  0.00     0.006 C 
ATOM      3  C12 ZIN A   1      19.109   0.580   8.966  0.00  0.00     0.006 C 
ATOM      4  C13 ZIN A   1      18.327  -0.471   9.762  0.00  0.00     0.001 C 
ATOM      5  C15 ZIN A   1      18.908  -1.873   9.755  0.00  0.00     0.024 C 
ATOM      6  C17 ZIN A   1      18.913  -2.441   8.336  0.00  0.00     0.123 C 
ATOM      7  C20 ZIN A   1      19.460  -3.870   8.363  0.00  0.00     0.037 C 
ATOM      8  C21 ZIN A   1      18.575  -4.740   9.255  0.00  0.00    -0.001 C 
ATOM      9  C23 ZIN A   1      17.150  -4.757   8.697  0.00  0.00     0.037 C 
ATOM     10  C24 ZIN A   1      16.264  -5.629   9.589  0.00  0.00     0.118 C 
ATOM     11  C27 ZIN A   1      16.248  -5.060  11.008  0.00  0.00     0.032 C 
ATOM     12  C28 ZIN A   1      17.673  -5.042  11.566  0.00  0.00     0.012 C 
ATOM     13  C29 ZIN A   1      18.559  -4.169  10.675  0.00  0.00    -0.036 C 
ATOM     14  C30 ZIN A   1      19.983  -4.152  11.233  0.00  0.00     0.016 C 
ATOM     15  C31 ZIN A   1      18.021  -2.739  10.664  0.00  0.00     0.001 C 
ATOM     16  C33 ZIN A   1      17.964  -2.191  12.086  0.00  0.00     0.007 C 
ATOM     17  C34 ZIN A   1      17.520  -0.719  12.103  0.00  0.00     0.010 C 
ATOM     18  C35 ZIN A   1      18.441   0.081  11.209  0.00  0.00    -0.036 C 
ATOM     19  C36 ZIN A   1      19.893  -0.130  11.643  0.00  0.00     0.016 C 
ENDROOT
BRANCH   1  20
ATOM     20  C2  ZIN A   1      18.951   2.379  12.071  0.00  0.00    -0.013 C 
ATOM     21  C1  ZIN A   1      18.099   2.568  13.327  0.00  0.00     0.010 C 
BRANCH  20  22
ATOM     22  C4  ZIN A   1      19.306   3.747  11.486  0.00  0.00     0.015 C 
BRANCH  22  23
ATOM     23  C5  ZIN A   1      18.304   4.791  11.983  0.00  0.00     0.113 C 
BRANCH  23  24
ATOM     24  C6  ZIN A   1      17.265   5.037  10.919  0.00  0.00     0.172 C 
ATOM     25  O7  ZIN A   1      16.102   4.732  11.119  0.00  0.00    -0.648 OA
ATOM     26  O8  ZIN A   1      17.589   5.541   9.856  0.00  0.00    -0.648 OA
ENDBRANCH  23  24
ENDBRANCH  22  23
ENDBRANCH  20  22
ENDBRANCH   1  20
BRANCH   6  27
ATOM     27  O19 ZIN A   1      19.740  -1.629   7.500  0.00  0.00    -0.395 OA
ATOM     28  H48 ZIN A   1      19.851  -1.973   6.604  0.00  0.00     0.210 HD
ENDBRANCH   6  27
BRANCH  10  29
ATOM     29  O26 ZIN A   1      14.932  -5.646   9.067  0.00  0.00    -0.396 OA
ATOM     30  H53 ZIN A   1      14.888  -5.755   8.108  0.00  0.00     0.210 HD
ENDBRANCH  10  29
TORSDOF 6
ENDMDL
MODEL 2
REMARK VINA RESULT:      -8.2      2.086      8.067
REMARK  6 active torsions:
REMARK  status: ('A' for Active; 'I' for Inactive)
REMARK    1  A    between atoms: C2_2  and  C4_3 
REMARK    2  A    between atoms: C2_2  and  C9_8 
REMARK    3  A    between atoms: C4_3  and  C5_4 
REMARK    4  A    between atoms: C5_4  and  C6_5 
REMARK    5  A    between atoms: C17_13  and  O19_14 
REMARK    6  A    between atoms: C24_18  and  O26_19 
ROOT
ATOM      1  C9  ZIN A   1      18.024  -1.584  11.812  0.00  0.00    -0.002 C 
ATOM      2  C11 ZIN A   1      18.316  -1.980  13.281  0.00  0.00     0.006 C 
ATOM      3  C12 ZIN A   1      18.748  -0.677  14.007  0.00  0.00     0.006 C 
ATOM      4  C13 ZIN A   1      18.107   0.422  13.151  0.00  0.00     0.001 C 
ATOM      5  C15 ZIN A   1      18.735   1.799  13.264  0.00  0.00     0.024 C 
ATOM      6  C17 ZIN A   1      18.590   2.336  14.688  0.00  0.00     0.123 C 
ATOM      7  C20 ZIN A   1      19.189   3.741  14.764  0.00  0.00     0.037 C 
ATOM      8  C21 ZIN A   1      18.451   4.666  13.795  0.00  0.00    -0.001 C 
ATOM      9  C23 ZIN A   1      16.970   4.727  14.179  0.00  0.00     0.037 C 
ATOM     10  C24 ZIN A   1      16.231   5.654  13.211  0.00  0.00     0.118 C 
ATOM     11  C27 ZIN A   1      16.366   5.116  11.785  0.00  0.00     0.032 C 
ATOM     12  C28 ZIN A   1      17.847   5.053  11.402  0.00  0.00     0.012 C 
ATOM     13  C29 ZIN A   1      18.585   4.126  12.369  0.00  0.00    -0.036 C 
ATOM     14  C30 ZIN A   1      20.065   4.064  11.987  0.00  0.00     0.016 C 
ATOM     15  C31 ZIN A   1      17.997   2.718  12.279  0.00  0.00     0.001 C 
ATOM     16  C33 ZIN A   1      18.092   2.204  10.846  0.00  0.00     0.007 C 
ATOM     17  C34 ZIN A   1      17.599   0.752  10.737  0.00  0.00     0.010 C 
ATOM     18  C35 ZIN A   1      18.375  -0.104  11.714  0.00  0.00    -0.036 C 
ATOM     19  C36 ZIN A   1      19.875   0.058  11.463  0.00  0.00     0.016 C 
ENDROOT
BRANCH   1  20
ATOM     20  C2  ZIN A   1      18.900  -2.401  10.859  0.00  0.00    -0.013 C 
ATOM     21  C1  ZIN A   1      18.142  -2.644   9.553  0.00  0.00     0.010 C 
BRANCH  20  22
ATOM     22  C4  ZIN A   1      19.243  -3.744  11.507  0.00  0.00     0.015 C 
BRANCH  22  23
ATOM     23  C5  ZIN A   1      18.439  -4.856  10.831  0.00  0.00     0.113 C 
BRANCH  23  24
ATOM     24  C6  ZIN A   1      17.308  -5.278  11.733  0.00  0.00     0.172 C 
ATOM     25  O7  ZIN A   1      16.227  -4.718  11.659  0.00  0.00    -0.648 OA
ATOM     26  O8  ZIN A   1      17.473  -6.180  12.538  0.00  0.00    -0.648 OA
ENDBRANCH  23  24
ENDBRANCH  22  23
ENDBRANCH  20  22
ENDBRANCH   1  20
BRANCH   6  27
ATOM     27  O19 ZIN A   1      19.279   1.473  15.595  0.00  0.00    -0.395 OA
ATOM     28  H48 ZIN A   1      19.316   0.551  15.309  0.00  0.00     0.210 HD
ENDBRANCH   6  27
BRANCH  10  29
ATOM     29  O26 ZIN A   1      14.848   5.712  13.569  0.00  0.00    -0.396 OA
ATOM     30  H53 ZIN A   1      14.445   4.846  13.718  0.00  0.00     0.210 HD
ENDBRANCH  10  29
TORSDOF 6
ENDMDL
MODEL 3
REMARK VINA RESULT:      -8.1      2.195      3.346
REMARK  6 active torsions:
REMARK  status: ('A' for Active; 'I' for Inactive)
REMARK    1  A    between atoms: C2_2  and  C4_3 
REMARK    2  A    between atoms: C2_2  and  C9_8 
REMARK    3  A    between atoms: C4_3  and  C5_4 
REMARK    4  A    between atoms: C5_4  and  C6_5 
REMARK    5  A    between atoms: C17_13  and  O19_14 
REMARK    6  A    between atoms: C24_18  and  O26_19 
ROOT
ATOM      1  C9  ZIN A   1      19.061   1.478  10.357  0.00  0.00    -0.002 C 
ATOM      2  C11 ZIN A   1      19.799   1.325  11.711  0.00  0.00     0.006 C 
ATOM      3  C12 ZIN A   1      19.752  -0.185  12.066  0.00  0.00     0.006 C 
ATOM      4  C13 ZIN A   1      19.576  -0.854  10.698  0.00  0.00     0.001 C 
ATOM      5  C15 ZIN A   1      18.987  -2.253  10.716  0.00  0.00     0.024 C 
ATOM      6  C17 ZIN A   1      19.916  -3.213  11.458  0.00  0.00     0.123 C 
ATOM      7  C20 ZIN A   1      19.323  -4.623  11.424  0.00  0.00     0.037 C 
ATOM      8  C21 ZIN A   1      19.175  -5.080   9.972  0.00  0.00    -0.001 C 
ATOM      9  C23 ZIN A   1      20.550  -5.095   9.300  0.00  0.00     0.037 C 
ATOM     10  C24 ZIN A   1      20.402  -5.555   7.848  0.00  0.00     0.118 C 
ATOM     11  C27 ZIN A   1      19.480  -4.592   7.099  0.00  0.00     0.032 C 
ATOM     12  C28 ZIN A   1      18.105  -4.576   7.771  0.00  0.00     0.012 C 
ATOM     13  C29 ZIN A   1      18.252  -4.115   9.222  0.00  0.00    -0.036 C 
ATOM     14  C30 ZIN A   1      16.879  -4.100   9.895  0.00  0.00     0.016 C 
ATOM     15  C31 ZIN A   1      18.829  -2.700   9.255  0.00  0.00     0.001 C 
ATOM     16  C33 ZIN A   1      17.929  -1.753   8.468  0.00  0.00     0.007 C 
ATOM     17  C34 ZIN A   1      18.427  -0.300   8.560  0.00  0.00     0.010 C 
ATOM     18  C35 ZIN A   1      18.542   0.085  10.019  0.00  0.00    -0.036 C 
ATOM     19  C36 ZIN A   1      17.206  -0.155  10.723  0.00  0.00     0.016 C 
ENDROOT
BRANCH   1  20
ATOM     20  C2  ZIN A   1      17.895   2.460  10.496  0.00  0.00    -0.013 C 
ATOM     21  C1  ZIN A   1      18.151   3.684   9.616  0.00  0.00     0.010 C 
BRANCH  20  22
ATOM     22  C4  ZIN A   1      17.771   2.899  11.956  0.00  0.00     0.015 C 
BRANCH  22  23
ATOM     23  C5  ZIN A   1      17.770   4.428  12.031  0.00  0.00     0.113 C 
BRANCH  23  24
ATOM     24  C6  ZIN A   1      18.881   4.886  12.940  0.00  0.00     0.172 C 
ATOM     25  O7  ZIN A   1      20.043   4.773  12.589  0.00  0.00    -0.648 OA
ATOM     26  O8  ZIN A   1      18.618   5.372  14.028  0.00  0.00    -0.648 OA
ENDBRANCH  23  24
ENDBRANCH  22  23
ENDBRANCH  20  22
ENDBRANCH   1  20
BRANCH   6  27
ATOM     27  O19 ZIN A   1      20.057  -2.787  12.816  0.00  0.00    -0.395 OA
ATOM     28  H48 ZIN A   1      20.402  -1.890  12.912  0.00  0.00     0.210 HD
ENDBRANCH   6  27
BRANCH  10  29
ATOM     29  O26 ZIN A   1      21.686  -5.569   7.220  0.00  0.00    -0.396 OA
ATOM     30  H53 ZIN A   1      21.686  -5.957   6.335  0.00  0.00     0.210 HD
ENDBRANCH  10  29
TORSDOF 6
ENDMDL
MODEL 4
REMARK VINA RESULT:      -7.8      2.084      3.011
REMARK  6 active torsions:
REMARK  status: ('A' for Active; 'I' for Inactive)
REMARK    1  A    between atoms: C2_2  and  C4_3 
REMARK    2  A    between atoms: C2_2  and  C9_8 
REMARK    3  A    between atoms: C4_3  and  C5_4 
REMARK    4  A    between atoms: C5_4  and  C6_5 
REMARK    5  A    between atoms: C17_13  and  O19_14 
REMARK    6  A    between atoms: C24_18  and  O26_19 
ROOT
ATOM      1  C9  ZIN A   1      18.478  -1.199  12.164  0.00  0.00    -0.002 C 
ATOM      2  C11 ZIN A   1      18.982  -0.134  11.159  0.00  0.00     0.006 C 
ATOM      3  C12 ZIN A   1      19.380  -0.903   9.870  0.00  0.00     0.006 C 
ATOM      4  C13 ZIN A   1      18.543  -2.184   9.962  0.00  0.00     0.001 C 
ATOM      5  C15 ZIN A   1      19.052  -3.366   9.160  0.00  0.00     0.024 C 
ATOM      6  C17 ZIN A   1      19.034  -3.044   7.666  0.00  0.00     0.123 C 
ATOM      7  C20 ZIN A   1      19.508  -4.266   6.877  0.00  0.00     0.037 C 
ATOM      8  C21 ZIN A   1      18.577  -5.446   7.152  0.00  0.00    -0.001 C 
ATOM      9  C23 ZIN A   1      17.154  -5.085   6.716  0.00  0.00     0.037 C 
ATOM     10  C24 ZIN A   1      16.222  -6.267   6.990  0.00  0.00     0.118 C 
ATOM     11  C27 ZIN A   1      16.230  -6.588   8.485  0.00  0.00     0.032 C 
ATOM     12  C28 ZIN A   1      17.652  -6.948   8.922  0.00  0.00     0.012 C 
ATOM     13  C29 ZIN A   1      18.584  -5.766   8.649  0.00  0.00    -0.036 C 
ATOM     14  C30 ZIN A   1      20.005  -6.126   9.085  0.00  0.00     0.016 C 
ATOM     15  C31 ZIN A   1      18.119  -4.552   9.451  0.00  0.00     0.001 C 
ATOM     16  C33 ZIN A   1      18.084  -4.891  10.938  0.00  0.00     0.007 C 
ATOM     17  C34 ZIN A   1      17.714  -3.662  11.786  0.00  0.00     0.010 C 
ATOM     18  C35 ZIN A   1      18.678  -2.540  11.468  0.00  0.00    -0.036 C 
ATOM     19  C36 ZIN A   1      20.116  -3.021  11.674  0.00  0.00     0.016 C 
ENDROOT
BRANCH   1  20
ATOM     20  C2  ZIN A   1      19.300  -1.142  13.454  0.00  0.00    -0.013 C 
ATOM     21  C1  ZIN A   1      18.380  -1.362  14.655  0.00  0.00     0.010 C 
BRANCH  20  22
ATOM     22  C4  ZIN A   1      19.972   0.227  13.570  0.00  0.00     0.015 C 
BRANCH  22  23
ATOM     23  C5  ZIN A   1      19.300   1.033  14.683  0.00  0.00     0.113 C 
BRANCH  23  24
ATOM     24  C6  ZIN A   1      18.801   2.341  14.125  0.00  0.00     0.172 C 
ATOM     25  O7  ZIN A   1      17.984   2.998  14.749  0.00  0.00    -0.648 OA
ATOM     26  O8  ZIN A   1      19.214   2.743  13.050  0.00  0.00    -0.648 OA
ENDBRANCH  23  24
ENDBRANCH  22  23
ENDBRANCH  20  22
ENDBRANCH   1  20
BRANCH   6  27
ATOM     27  O19 ZIN A   1      19.904  -1.940   7.405  0.00  0.00    -0.395 OA
ATOM     28  H48 ZIN A   1      20.008  -1.734   6.467  0.00  0.00     0.210 HD
ENDBRANCH   6  27
BRANCH  10  29
ATOM     29  O26 ZIN A   1      14.894  -5.930   6.582  0.00  0.00    -0.396 OA
ATOM     30  H53 ZIN A   1      14.854  -5.387   5.783  0.00  0.00     0.210 HD
ENDBRANCH  10  29
TORSDOF 6
ENDMDL
MODEL 5
REMARK VINA RESULT:      -7.3      2.910      8.579
REMARK  6 active torsions:
REMARK  status: ('A' for Active; 'I' for Inactive)
REMARK    1  A    between atoms: C2_2  and  C4_3 
REMARK    2  A    between atoms: C2_2  and  C9_8 
REMARK    3  A    between atoms: C4_3  and  C5_4 
REMARK    4  A    between atoms: C5_4  and  C6_5 
REMARK    5  A    between atoms: C17_13  and  O19_14 
REMARK    6  A    between atoms: C24_18  and  O26_19 
ROOT
ATOM      1  C9  ZIN A   1      18.367   1.267  11.077  0.00  0.00    -0.002 C 
ATOM      2  C11 ZIN A   1      18.892   0.211  12.082  0.00  0.00     0.006 C 
ATOM      3  C12 ZIN A   1      19.285   0.988  13.368  0.00  0.00     0.006 C 
ATOM      4  C13 ZIN A   1      18.430   2.257  13.277  0.00  0.00     0.001 C 
ATOM      5  C15 ZIN A   1      18.926   3.448  14.075  0.00  0.00     0.024 C 
ATOM      6  C17 ZIN A   1      18.921   3.128  15.570  0.00  0.00     0.123 C 
ATOM      7  C20 ZIN A   1      19.382   4.358  16.354  0.00  0.00     0.037 C 
ATOM      8  C21 ZIN A   1      18.432   5.525  16.081  0.00  0.00    -0.001 C 
ATOM      9  C23 ZIN A   1      17.018   5.145  16.526  0.00  0.00     0.037 C 
ATOM     10  C24 ZIN A   1      16.068   6.313  16.255  0.00  0.00     0.118 C 
ATOM     11  C27 ZIN A   1      16.063   6.632  14.759  0.00  0.00     0.032 C 
ATOM     12  C28 ZIN A   1      17.478   7.010  14.314  0.00  0.00     0.012 C 
ATOM     13  C29 ZIN A   1      18.427   5.842  14.584  0.00  0.00    -0.036 C 
ATOM     14  C30 ZIN A   1      19.841   6.221  14.140  0.00  0.00     0.016 C 
ATOM     15  C31 ZIN A   1      17.975   4.620  13.786  0.00  0.00     0.001 C 
ATOM     16  C33 ZIN A   1      17.928   4.956  12.299  0.00  0.00     0.007 C 
ATOM     17  C34 ZIN A   1      17.571   3.720  11.455  0.00  0.00     0.010 C 
ATOM     18  C35 ZIN A   1      18.553   2.613  11.770  0.00  0.00    -0.036 C 
ATOM     19  C36 ZIN A   1      19.982   3.113  11.556  0.00  0.00     0.016 C 
ENDROOT
BRANCH   1  20
ATOM     20  C2  ZIN A   1      19.184   1.219   9.784  0.00  0.00    -0.013 C 
ATOM     21  C1  ZIN A   1      18.243   1.320   8.583  0.00  0.00     0.010 C 
BRANCH  20  22
ATOM     22  C4  ZIN A   1      19.956  -0.100   9.717  0.00  0.00     0.015 C 
BRANCH  22  23
ATOM     23  C5  ZIN A   1      19.384  -0.970   8.596  0.00  0.00     0.113 C 
BRANCH  23  24
ATOM     24  C6  ZIN A   1      18.793  -2.225   9.186  0.00  0.00     0.172 C 
ATOM     25  O7  ZIN A   1      17.798  -2.723   8.689  0.00  0.00    -0.648 OA
ATOM     26  O8  ZIN A   1      19.311  -2.742  10.162  0.00  0.00    -0.648 OA
ENDBRANCH  23  24
ENDBRANCH  22  23
ENDBRANCH  20  22
ENDBRANCH   1  20
BRANCH   6  27
ATOM     27  O19 ZIN A   1      19.808   2.037  15.827  0.00  0.00    -0.395 OA
ATOM     28  H48 ZIN A   1      20.403   1.834  15.094  0.00  0.00     0.210 HD
ENDBRANCH   6  27
BRANCH  10  29
ATOM     29  O26 ZIN A   1      14.746   5.959  16.670  0.00  0.00    -0.396 OA
ATOM     30  H53 ZIN A   1      14.706   5.550  17.545  0.00  0.00     0.210 HD
ENDBRANCH  10  29
TORSDOF 6
ENDMDL
MODEL 6
REMARK VINA RESULT:      -7.2      4.265      8.784
REMARK  6 active torsions:
REMARK  status: ('A' for Active; 'I' for Inactive)
REMARK    1  A    between atoms: C2_2  and  C4_3 
REMARK    2  A    between atoms: C2_2  and  C9_8 
REMARK    3  A    between atoms: C4_3  and  C5_4 
REMARK    4  A    between atoms: C5_4  and  C6_5 
REMARK    5  A    between atoms: C17_13  and  O19_14 
REMARK    6  A    between atoms: C24_18  and  O26_19 
ROOT
ATOM      1  C9  ZIN A   1      17.832   2.582  11.588  0.00  0.00    -0.002 C 
ATOM      2  C11 ZIN A   1      18.187   1.183  12.153  0.00  0.00     0.006 C 
ATOM      3  C12 ZIN A   1      18.666   1.409  13.612  0.00  0.00     0.006 C 
ATOM      4  C13 ZIN A   1      17.999   2.736  13.991  0.00  0.00     0.001 C 
ATOM      5  C15 ZIN A   1      18.646   3.501  15.131  0.00  0.00     0.024 C 
ATOM      6  C17 ZIN A   1      18.572   2.691  16.425  0.00  0.00     0.123 C 
ATOM      7  C20 ZIN A   1      19.189   3.500  17.567  0.00  0.00     0.037 C 
ATOM      8  C21 ZIN A   1      18.418   4.809  17.743  0.00  0.00    -0.001 C 
ATOM      9  C23 ZIN A   1      16.957   4.497  18.078  0.00  0.00     0.037 C 
ATOM     10  C24 ZIN A   1      16.185   5.805  18.255  0.00  0.00     0.118 C 
ATOM     11  C27 ZIN A   1      16.248   6.616  16.960  0.00  0.00     0.032 C 
ATOM     12  C28 ZIN A   1      17.708   6.927  16.624  0.00  0.00     0.012 C 
ATOM     13  C29 ZIN A   1      18.480   5.619  16.445  0.00  0.00    -0.036 C 
ATOM     14  C30 ZIN A   1      19.940   5.929  16.110  0.00  0.00     0.016 C 
ATOM     15  C31 ZIN A   1      17.873   4.819  15.293  0.00  0.00     0.001 C 
ATOM     16  C33 ZIN A   1      17.897   5.649  14.013  0.00  0.00     0.007 C 
ATOM     17  C34 ZIN A   1      17.383   4.840  12.810  0.00  0.00     0.010 C 
ATOM     18  C35 ZIN A   1      18.194   3.568  12.693  0.00  0.00    -0.036 C 
ATOM     19  C36 ZIN A   1      19.683   3.911  12.615  0.00  0.00     0.016 C 
ENDROOT
BRANCH   1  20
ATOM     20  C2  ZIN A   1      18.654   2.869  10.330  0.00  0.00    -0.013 C 
ATOM     21  C1  ZIN A   1      17.966   3.963   9.512  0.00  0.00     0.010 C 
BRANCH  20  22
ATOM     22  C4  ZIN A   1      18.762   1.596   9.490  0.00  0.00     0.015 C 
BRANCH  22  23
ATOM     23  C5  ZIN A   1      19.278   1.949   8.093  0.00  0.00     0.113 C 
BRANCH  23  24
ATOM     24  C6  ZIN A   1      18.829   0.898   7.111  0.00  0.00     0.172 C 
ATOM     25  O7  ZIN A   1      18.331  -0.140   7.514  0.00  0.00    -0.648 OA
ATOM     26  O8  ZIN A   1      18.963   1.084   5.913  0.00  0.00    -0.648 OA
ENDBRANCH  23  24
ENDBRANCH  22  23
ENDBRANCH  20  22
ENDBRANCH   1  20
BRANCH   6  27
ATOM     27  O19 ZIN A   1      19.293   1.467  16.264  0.00  0.00    -0.395 OA
ATOM     28  H48 ZIN A   1      18.749   0.728  15.960  0.00  0.00     0.210 HD
ENDBRANCH   6  27
BRANCH  10  29
ATOM     29  O26 ZIN A   1      14.820   5.515  18.569  0.00  0.00    -0.396 OA
ATOM     30  H53 ZIN A   1      14.183   5.929  17.972  0.00  0.00     0.210 HD
ENDBRANCH  10  29
TORSDOF 6
ENDMDL
MODEL 7
REMARK VINA RESULT:      -7.1      2.848      4.056
REMARK  6 active torsions:
REMARK  status: ('A' for Active; 'I' for Inactive)
REMARK    1  A    between atoms: C2_2  and  C4_3 
REMARK    2  A    between atoms: C2_2  and  C9_8 
REMARK    3  A    between atoms: C4_3  and  C5_4 
REMARK    4  A    between atoms: C5_4  and  C6_5 
REMARK    5  A    between atoms: C17_13  and  O19_14 
REMARK    6  A    between atoms: C24_18  and  O26_19 
ROOT
ATOM      1  C9  ZIN A   1      17.608  -0.568  10.775  0.00  0.00    -0.002 C 
ATOM      2  C11 ZIN A   1      17.631   0.819  10.084  0.00  0.00     0.006 C 
ATOM      3  C12 ZIN A   1      18.136   0.578   8.636  0.00  0.00     0.006 C 
ATOM      4  C13 ZIN A   1      17.785  -0.894   8.390  0.00  0.00     0.001 C 
ATOM      5  C15 ZIN A   1      18.579  -1.590   7.300  0.00  0.00     0.024 C 
ATOM      6  C17 ZIN A   1      18.312  -0.935   5.945  0.00  0.00     0.123 C 
ATOM      7  C20 ZIN A   1      19.088  -1.683   4.859  0.00  0.00     0.037 C 
ATOM      8  C21 ZIN A   1      18.633  -3.142   4.816  0.00  0.00    -0.001 C 
ATOM      9  C23 ZIN A   1      17.137  -3.199   4.497  0.00  0.00     0.037 C 
ATOM     10  C24 ZIN A   1      16.681  -4.659   4.453  0.00  0.00     0.118 C 
ATOM     11  C27 ZIN A   1      16.938  -5.316   5.810  0.00  0.00     0.032 C 
ATOM     12  C28 ZIN A   1      18.434  -5.258   6.129  0.00  0.00     0.012 C 
ATOM     13  C29 ZIN A   1      18.889  -3.798   6.175  0.00  0.00    -0.036 C 
ATOM     14  C30 ZIN A   1      20.384  -3.740   6.494  0.00  0.00     0.016 C 
ATOM     15  C31 ZIN A   1      18.126  -3.058   7.272  0.00  0.00     0.001 C 
ATOM     16  C33 ZIN A   1      18.349  -3.744   8.617  0.00  0.00     0.007 C 
ATOM     17  C34 ZIN A   1      17.674  -2.969   9.761  0.00  0.00     0.010 C 
ATOM     18  C35 ZIN A   1      18.176  -1.541   9.747  0.00  0.00    -0.036 C 
ATOM     19  C36 ZIN A   1      19.704  -1.530   9.811  0.00  0.00     0.016 C 
ENDROOT
BRANCH   1  20
ATOM     20  C2  ZIN A   1      18.485  -0.550  12.029  0.00  0.00    -0.013 C 
ATOM     21  C1  ZIN A   1      17.978  -1.600  13.019  0.00  0.00     0.010 C 
BRANCH  20  22
ATOM     22  C4  ZIN A   1      18.420   0.834  12.676  0.00  0.00     0.015 C 
BRANCH  22  23
ATOM     23  C5  ZIN A   1      17.623   0.752  13.979  0.00  0.00     0.113 C 
BRANCH  23  24
ATOM     24  C6  ZIN A   1      18.345   1.517  15.059  0.00  0.00     0.172 C 
ATOM     25  O7  ZIN A   1      18.327   1.113  16.209  0.00  0.00    -0.648 OA
ATOM     26  O8  ZIN A   1      18.948   2.541  14.782  0.00  0.00    -0.648 OA
ENDBRANCH  23  24
ENDBRANCH  22  23
ENDBRANCH  20  22
ENDBRANCH   1  20
BRANCH   6  27
ATOM     27  O19 ZIN A   1      18.737   0.429   5.982  0.00  0.00    -0.395 OA
ATOM     28  H48 ZIN A   1      18.017   1.067   5.892  0.00  0.00     0.210 HD
ENDBRANCH   6  27
BRANCH  10  29
ATOM     29  O26 ZIN A   1      15.284  -4.713   4.155  0.00  0.00    -0.396 OA
ATOM     30  H53 ZIN A   1      15.047  -5.385   3.502  0.00  0.00     0.210 HD
ENDBRANCH  10  29
TORSDOF 6
ENDMDL
MODEL 8
REMARK VINA RESULT:      -7.0      3.965      9.060
REMARK  6 active torsions:
REMARK  status: ('A' for Active; 'I' for Inactive)
REMARK    1  A    between atoms: C2_2  and  C4_3 
REMARK    2  A    between atoms: C2_2  and  C9_8 
REMARK    3  A    between atoms: C4_3  and  C5_4 
REMARK    4  A    between atoms: C5_4  and  C6_5 
REMARK    5  A    between atoms: C17_13  and  O19_14 
REMARK    6  A    between atoms: C24_18  and  O26_19 
ROOT
ATOM      1  C9  ZIN A   1      17.985  -0.536  13.453  0.00  0.00    -0.002 C 
ATOM      2  C11 ZIN A   1      18.158  -1.601  14.565  0.00  0.00     0.006 C 
ATOM      3  C12 ZIN A   1      18.614  -0.836  15.836  0.00  0.00     0.006 C 
ATOM      4  C13 ZIN A   1      18.094   0.585  15.587  0.00  0.00     0.001 C 
ATOM      5  C15 ZIN A   1      18.789   1.689  16.361  0.00  0.00     0.024 C 
ATOM      6  C17 ZIN A   1      18.582   1.499  17.864  0.00  0.00     0.123 C 
ATOM      7  C20 ZIN A   1      19.253   2.649  18.618  0.00  0.00     0.037 C 
ATOM      8  C21 ZIN A   1      18.634   3.977  18.184  0.00  0.00    -0.001 C 
ATOM      9  C23 ZIN A   1      17.137   3.970  18.505  0.00  0.00     0.037 C 
ATOM     10  C24 ZIN A   1      16.517   5.300  18.072  0.00  0.00     0.118 C 
ATOM     11  C27 ZIN A   1      16.714   5.491  16.567  0.00  0.00     0.032 C 
ATOM     12  C28 ZIN A   1      18.211   5.497  16.247  0.00  0.00     0.012 C 
ATOM     13  C29 ZIN A   1      18.830   4.167  16.678  0.00  0.00    -0.036 C 
ATOM     14  C30 ZIN A   1      20.326   4.173  16.357  0.00  0.00     0.016 C 
ATOM     15  C31 ZIN A   1      18.171   3.021  15.910  0.00  0.00     0.001 C 
ATOM     16  C33 ZIN A   1      18.331   3.240  14.409  0.00  0.00     0.007 C 
ATOM     17  C34 ZIN A   1      17.764   2.056  13.607  0.00  0.00     0.010 C 
ATOM     18  C35 ZIN A   1      18.425   0.781  14.082  0.00  0.00    -0.036 C 
ATOM     19  C36 ZIN A   1      19.945   0.921  13.985  0.00  0.00     0.016 C 
ENDROOT
BRANCH   1  20
ATOM     20  C2  ZIN A   1      18.874  -0.874  12.253  0.00  0.00    -0.013 C 
ATOM     21  C1  ZIN A   1      18.130  -0.543  10.959  0.00  0.00     0.010 C 
BRANCH  20  22
ATOM     22  C4  ZIN A   1      19.217  -2.364  12.277  0.00  0.00     0.015 C 
BRANCH  22  23
ATOM     23  C5  ZIN A   1      18.337  -3.107  11.269  0.00  0.00     0.113 C 
BRANCH  23  24
ATOM     24  C6  ZIN A   1      19.202  -3.968  10.386  0.00  0.00     0.172 C 
ATOM     25  O7  ZIN A   1      19.116  -3.879   9.173  0.00  0.00    -0.648 OA
ATOM     26  O8  ZIN A   1      19.989  -4.756  10.884  0.00  0.00    -0.648 OA
ENDBRANCH  23  24
ENDBRANCH  22  23
ENDBRANCH  20  22
ENDBRANCH   1  20
BRANCH   6  27
ATOM     27  O19 ZIN A   1      19.160   0.258  18.272  0.00  0.00    -0.395 OA
ATOM     28  H48 ZIN A   1      20.008   0.063  17.852  0.00  0.00     0.210 HD
ENDBRANCH   6  27
BRANCH  10  29
ATOM     29  O26 ZIN A   1      15.119   5.294  18.372  0.00  0.00    -0.396 OA
ATOM     30  H53 ZIN A   1      14.833   4.534  18.897  0.00  0.00     0.210 HD
ENDBRANCH  10  29
TORSDOF 6
ENDMDL
MODEL 9
REMARK VINA RESULT:      -6.9      2.771      4.318
REMARK  6 active torsions:
REMARK  status: ('A' for Active; 'I' for Inactive)
REMARK    1  A    between atoms: C2_2  and  C4_3 
REMARK    2  A    between atoms: C2_2  and  C9_8 
REMARK    3  A    between atoms: C4_3  and  C5_4 
REMARK    4  A    between atoms: C5_4  and  C6_5 
REMARK    5  A    between atoms: C17_13  and  O19_14 
REMARK    6  A    between atoms: C24_18  and  O26_19 
ROOT
ATOM      1  C9  ZIN A   1      19.274  -0.058  12.515  0.00  0.00    -0.002 C 
ATOM      2  C11 ZIN A   1      19.188  -0.992  13.748  0.00  0.00     0.006 C 
ATOM      3  C12 ZIN A   1      18.754  -2.383  13.214  0.00  0.00     0.006 C 
ATOM      4  C13 ZIN A   1      19.207  -2.345  11.750  0.00  0.00     0.001 C 
ATOM      5  C15 ZIN A   1      18.500  -3.307  10.813  0.00  0.00     0.024 C 
ATOM      6  C17 ZIN A   1      18.774  -4.753  11.227  0.00  0.00     0.123 C 
ATOM      7  C20 ZIN A   1      18.089  -5.702  10.243  0.00  0.00     0.037 C 
ATOM      8  C21 ZIN A   1      18.638  -5.464   8.836  0.00  0.00    -0.001 C 
ATOM      9  C23 ZIN A   1      20.146  -5.730   8.826  0.00  0.00     0.037 C 
ATOM     10  C24 ZIN A   1      20.695  -5.493   7.417  0.00  0.00     0.118 C 
ATOM     11  C27 ZIN A   1      20.430  -4.045   7.002  0.00  0.00     0.032 C 
ATOM     12  C28 ZIN A   1      18.923  -3.780   7.013  0.00  0.00     0.012 C 
ATOM     13  C29 ZIN A   1      18.374  -4.015   8.421  0.00  0.00    -0.036 C 
ATOM     14  C30 ZIN A   1      16.868  -3.749   8.432  0.00  0.00     0.016 C 
ATOM     15  C31 ZIN A   1      19.047  -3.054   9.400  0.00  0.00     0.001 C 
ATOM     16  C33 ZIN A   1      18.819  -1.612   8.956  0.00  0.00     0.007 C 
ATOM     17  C34 ZIN A   1      19.399  -0.614   9.972  0.00  0.00     0.010 C 
ATOM     18  C35 ZIN A   1      18.808  -0.902  11.334  0.00  0.00    -0.036 C 
ATOM     19  C36 ZIN A   1      17.281  -0.879  11.250  0.00  0.00     0.016 C 
ENDROOT
BRANCH   1  20
ATOM     20  C2  ZIN A   1      18.352   1.150  12.700  0.00  0.00    -0.013 C 
ATOM     21  C1  ZIN A   1      19.034   2.401  12.144  0.00  0.00     0.010 C 
BRANCH  20  22
ATOM     22  C4  ZIN A   1      18.062   1.346  14.189  0.00  0.00     0.015 C 
BRANCH  22  23
ATOM     23  C5  ZIN A   1      19.003   2.411  14.756  0.00  0.00     0.113 C 
BRANCH  23  24
ATOM     24  C6  ZIN A   1      19.318   2.088  16.194  0.00  0.00     0.172 C 
ATOM     25  O7  ZIN A   1      19.274   0.934  16.584  0.00  0.00    -0.648 OA
ATOM     26  O8  ZIN A   1      19.616   2.982  16.969  0.00  0.00    -0.648 OA
ENDBRANCH  23  24
ENDBRANCH  22  23
ENDBRANCH  20  22
ENDBRANCH   1  20
BRANCH   6  27
ATOM     27  O19 ZIN A   1      18.262  -4.978  12.543  0.00  0.00    -0.395 OA
ATOM     28  H48 ZIN A   1      18.674  -4.429  13.223  0.00  0.00     0.210 HD
ENDBRANCH   6  27
BRANCH  10  29
ATOM     29  O26 ZIN A   1      22.103  -5.742   7.407  0.00  0.00    -0.396 OA
ATOM     30  H53 ZIN A   1      22.580  -5.325   8.137  0.00  0.00     0.210 HD
ENDBRANCH  10  29
TORSDOF 6
ENDMDL
