MODEL 1
REMARK VINA RESULT:      -7.4      0.000      0.000
REMARK  4 active torsions:
REMARK  status: ('A' for Active; 'I' for Inactive)
REMARK    1  A    between atoms: O2_2  and  C3_3 
REMARK    2  A    between atoms: C8_8  and  O9_9 
REMARK    3  A    between atoms: C16_15  and  C18_16 
REMARK    4  A    between atoms: C18_16  and  C19_17 
ROOT
ATOM      1  C3  ZIN A   1      16.993   5.117  14.464  0.00  0.00     0.102 A 
ATOM      2  C4  ZIN A   1      16.676   5.369  13.142  0.00  0.00     0.047 A 
ATOM      3  C5  ZIN A   1      17.287   4.652  12.125  0.00  0.00    -0.045 A 
ATOM      4  C6  ZIN A   1      18.218   3.681  12.427  0.00  0.00    -0.018 A 
ATOM      5  C7  ZIN A   1      18.539   3.423  13.754  0.00  0.00     0.049 A 
ATOM      6  C8  ZIN A   1      17.935   4.139  14.771  0.00  0.00     0.102 A 
ATOM      7  C11 ZIN A   1      18.910   2.883  11.356  0.00  0.00     0.228 C 
ATOM      8  C13 ZIN A   1      18.993   1.414  11.793  0.00  0.00     0.116 C 
ATOM      9  C14 ZIN A   1      19.611   0.619  10.662  0.00  0.00     0.135 C 
ATOM     10  O15 ZIN A   1      20.514  -0.157  10.864  0.00  0.00    -0.297 OA
ATOM     11  C16 ZIN A   1      19.056   0.832   9.269  0.00  0.00     0.081 C 
ATOM     12  C22 ZIN A   1      18.971   2.341   9.013  0.00  0.00     0.247 C 
ATOM     13  N23 ZIN A   1      18.181   2.959  10.090  0.00  0.00    -0.061 N 
ATOM     14  H24 ZIN A   1      17.294   2.483  10.169  0.00  0.00     0.280 HD
ATOM     15  C25 ZIN A   1      17.948   4.375   9.771  0.00  0.00     0.240 C 
ATOM     16  C26 ZIN A   1      16.909   4.957  10.698  0.00  0.00     0.067 C 
ENDROOT
BRANCH  11  17
ATOM     17  C18 ZIN A   1      17.662   0.211   9.168  0.00  0.00     0.017 C 
BRANCH  17  18
ATOM     18  C19 ZIN A   1      17.623  -0.767   7.990  0.00  0.00    -0.022 C 
ATOM     19  C20 ZIN A   1      17.206  -0.022   6.721  0.00  0.00     0.009 C 
ATOM     20  C21 ZIN A   1      19.011  -1.380   7.791  0.00  0.00     0.009 C 
ENDBRANCH  17  18
ENDBRANCH  11  17
BRANCH   6  21
ATOM     21  O9  ZIN A   1      18.254   3.882  16.068  0.00  0.00    -0.353 OA
ATOM     22  C10 ZIN A   1      19.639   3.927  16.417  0.00  0.00     0.210 C 
ENDBRANCH   6  21
BRANCH   1  23
ATOM     23  O2  ZIN A   1      16.392   5.823  15.458  0.00  0.00    -0.353 OA
ATOM     24  C1  ZIN A   1      15.032   6.210  15.249  0.00  0.00     0.210 C 
ENDBRANCH   1  23
TORSDOF 4
ENDMDL
MODEL 2
REMARK VINA RESULT:      -7.4      2.391      3.912
REMARK  4 active torsions:
REMARK  status: ('A' for Active; 'I' for Inactive)
REMARK    1  A    between atoms: O2_2  and  C3_3 
REMARK    2  A    between atoms: C8_8  and  O9_9 
REMARK    3  A    between atoms: C16_15  and  C18_16 
REMARK    4  A    between atoms: C18_16  and  C19_17 
ROOT
ATOM      1  C3  ZIN A   1      19.132   1.490  16.548  0.00  0.00     0.102 A 
ATOM      2  C4  ZIN A   1      18.815   0.359  15.817  0.00  0.00     0.047 A 
ATOM      3  C5  ZIN A   1      18.393   0.470  14.501  0.00  0.00    -0.045 A 
ATOM      4  C6  ZIN A   1      18.286   1.712  13.912  0.00  0.00    -0.018 A 
ATOM      5  C7  ZIN A   1      18.605   2.850  14.641  0.00  0.00     0.049 A 
ATOM      6  C8  ZIN A   1      19.022   2.745  15.955  0.00  0.00     0.102 A 
ATOM      7  C11 ZIN A   1      17.827   1.879  12.489  0.00  0.00     0.228 C 
ATOM      8  C13 ZIN A   1      18.691   2.944  11.800  0.00  0.00     0.116 C 
ATOM      9  C14 ZIN A   1      18.269   3.028  10.349  0.00  0.00     0.135 C 
ATOM     10  O15 ZIN A   1      18.047   4.093   9.823  0.00  0.00    -0.297 OA
ATOM     11  C16 ZIN A   1      18.135   1.730   9.579  0.00  0.00     0.081 C 
ATOM     12  C22 ZIN A   1      17.310   0.755  10.426  0.00  0.00     0.247 C 
ATOM     13  N23 ZIN A   1      17.943   0.623  11.748  0.00  0.00    -0.061 N 
ATOM     14  H24 ZIN A   1      18.916   0.377  11.629  0.00  0.00     0.280 HD
ATOM     15  C25 ZIN A   1      17.263  -0.433  12.510  0.00  0.00     0.240 C 
ATOM     16  C26 ZIN A   1      18.061  -0.789  13.740  0.00  0.00     0.067 C 
ENDROOT
BRANCH  11  17
ATOM     17  C18 ZIN A   1      19.522   1.140   9.316  0.00  0.00     0.017 C 
BRANCH  17  18
ATOM     18  C19 ZIN A   1      19.596   0.633   7.873  0.00  0.00    -0.022 C 
ATOM     19  C20 ZIN A   1      19.163  -0.833   7.825  0.00  0.00     0.009 C 
ATOM     20  C21 ZIN A   1      18.665   1.469   6.991  0.00  0.00     0.009 C 
ENDBRANCH  17  18
ENDBRANCH  11  17
BRANCH   6  21
ATOM     21  O9  ZIN A   1      19.331   3.864  16.664  0.00  0.00    -0.353 OA
ATOM     22  C10 ZIN A   1      19.981   4.921  15.956  0.00  0.00     0.210 C 
ENDBRANCH   6  21
BRANCH   1  23
ATOM     23  O2  ZIN A   1      19.544   1.377  17.838  0.00  0.00    -0.353 OA
ATOM     24  C1  ZIN A   1      19.089   0.235  18.567  0.00  0.00     0.210 C 
ENDBRANCH   1  23
TORSDOF 4
ENDMDL
MODEL 3
REMARK VINA RESULT:      -7.1      4.171      6.025
REMARK  4 active torsions:
REMARK  status: ('A' for Active; 'I' for Inactive)
REMARK    1  A    between atoms: O2_2  and  C3_3 
REMARK    2  A    between atoms: C8_8  and  O9_9 
REMARK    3  A    between atoms: C16_15  and  C18_16 
REMARK    4  A    between atoms: C18_16  and  C19_17 
ROOT
ATOM      1  C3  ZIN A   1      17.470   1.248  10.994  0.00  0.00     0.102 A 
ATOM      2  C4  ZIN A   1      17.580   0.742   9.712  0.00  0.00     0.047 A 
ATOM      3  C5  ZIN A   1      17.770  -0.616   9.507  0.00  0.00    -0.045 A 
ATOM      4  C6  ZIN A   1      17.852  -1.472  10.585  0.00  0.00    -0.018 A 
ATOM      5  C7  ZIN A   1      17.740  -0.969  11.875  0.00  0.00     0.049 A 
ATOM      6  C8  ZIN A   1      17.555   0.386  12.084  0.00  0.00     0.102 A 
ATOM      7  C11 ZIN A   1      18.064  -2.952  10.411  0.00  0.00     0.228 C 
ATOM      8  C13 ZIN A   1      17.163  -3.711  11.394  0.00  0.00     0.116 C 
ATOM      9  C14 ZIN A   1      17.327  -5.193  11.136  0.00  0.00     0.135 C 
ATOM     10  O15 ZIN A   1      17.522  -5.968  12.042  0.00  0.00    -0.297 OA
ATOM     11  C16 ZIN A   1      17.240  -5.671   9.701  0.00  0.00     0.081 C 
ATOM     12  C22 ZIN A   1      18.137  -4.774   8.842  0.00  0.00     0.247 C 
ATOM     13  N23 ZIN A   1      17.738  -3.372   9.048  0.00  0.00    -0.061 N 
ATOM     14  H24 ZIN A   1      16.746  -3.279   8.882  0.00  0.00     0.280 HD
ATOM     15  C25 ZIN A   1      18.473  -2.514   8.107  0.00  0.00     0.240 C 
ATOM     16  C26 ZIN A   1      17.882  -1.125   8.093  0.00  0.00     0.067 C 
ENDROOT
BRANCH  11  17
ATOM     17  C18 ZIN A   1      15.794  -5.577   9.212  0.00  0.00     0.017 C 
BRANCH  17  18
ATOM     18  C19 ZIN A   1      15.658  -6.307   7.873  0.00  0.00    -0.022 C 
ATOM     19  C20 ZIN A   1      16.172  -7.740   8.019  0.00  0.00     0.009 C 
ATOM     20  C21 ZIN A   1      14.187  -6.332   7.453  0.00  0.00     0.009 C 
ENDBRANCH  17  18
ENDBRANCH  11  17
BRANCH   6  21
ATOM     21  O9  ZIN A   1      17.447   0.872  13.349  0.00  0.00    -0.353 OA
ATOM     22  C10 ZIN A   1      18.657   1.008  14.097  0.00  0.00     0.210 C 
ENDBRANCH   6  21
BRANCH   1  23
ATOM     23  O2  ZIN A   1      17.284   2.581  11.190  0.00  0.00    -0.353 OA
ATOM     24  C1  ZIN A   1      18.375   3.443  10.860  0.00  0.00     0.210 C 
ENDBRANCH   1  23
TORSDOF 4
ENDMDL
MODEL 4
REMARK VINA RESULT:      -7.1      3.130      7.619
REMARK  4 active torsions:
REMARK  status: ('A' for Active; 'I' for Inactive)
REMARK    1  A    between atoms: O2_2  and  C3_3 
REMARK    2  A    between atoms: C8_8  and  O9_9 
REMARK    3  A    between atoms: C16_15  and  C18_16 
REMARK    4  A    between atoms: C18_16  and  C19_17 
ROOT
ATOM      1  C3  ZIN A   1      18.753  -4.129  10.297  0.00  0.00     0.102 A 
ATOM      2  C4  ZIN A   1      18.931  -3.462  11.495  0.00  0.00     0.047 A 
ATOM      3  C5  ZIN A   1      19.179  -2.098  11.508  0.00  0.00    -0.045 A 
ATOM      4  C6  ZIN A   1      19.253  -1.398  10.322  0.00  0.00    -0.018 A 
ATOM      5  C7  ZIN A   1      19.073  -2.063   9.117  0.00  0.00     0.049 A 
ATOM      6  C8  ZIN A   1      18.830  -3.425   9.099  0.00  0.00     0.102 A 
ATOM      7  C11 ZIN A   1      19.526   0.082  10.289  0.00  0.00     0.228 C 
ATOM      8  C13 ZIN A   1      18.617   0.740   9.242  0.00  0.00     0.116 C 
ATOM      9  C14 ZIN A   1      18.847   2.236   9.293  0.00  0.00     0.135 C 
ATOM     10  O15 ZIN A   1      19.035   2.874   8.284  0.00  0.00    -0.297 OA
ATOM     11  C16 ZIN A   1      18.832   2.904  10.652  0.00  0.00     0.081 C 
ATOM     12  C22 ZIN A   1      19.726   2.092  11.595  0.00  0.00     0.247 C 
ATOM     13  N23 ZIN A   1      19.268   0.693  11.593  0.00  0.00    -0.061 N 
ATOM     14  H24 ZIN A   1      18.280   0.665  11.802  0.00  0.00     0.280 HD
ATOM     15  C25 ZIN A   1      20.005  -0.061  12.616  0.00  0.00     0.240 C 
ATOM     16  C26 ZIN A   1      19.363  -1.409  12.836  0.00  0.00     0.067 C 
ENDROOT
BRANCH  11  17
ATOM     17  C18 ZIN A   1      17.402   2.937  11.196  0.00  0.00     0.017 C 
BRANCH  17  18
ATOM     18  C19 ZIN A   1      17.006   4.384  11.503  0.00  0.00    -0.022 C 
ATOM     19  C20 ZIN A   1      17.695   4.839  12.790  0.00  0.00     0.009 C 
ATOM     20  C21 ZIN A   1      17.436   5.287  10.345  0.00  0.00     0.009 C 
ENDBRANCH  17  18
ENDBRANCH  11  17
BRANCH   6  21
ATOM     21  O9  ZIN A   1      18.656  -4.071   7.915  0.00  0.00    -0.353 OA
ATOM     22  C10 ZIN A   1      19.645  -3.854   6.906  0.00  0.00     0.210 C 
ENDBRANCH   6  21
BRANCH   1  23
ATOM     23  O2  ZIN A   1      18.511  -5.467  10.288  0.00  0.00    -0.353 OA
ATOM     24  C1  ZIN A   1      17.293  -5.910  10.892  0.00  0.00     0.210 C 
ENDBRANCH   1  23
TORSDOF 4
ENDMDL
MODEL 5
REMARK VINA RESULT:      -7.0      3.081      4.813
REMARK  4 active torsions:
REMARK  status: ('A' for Active; 'I' for Inactive)
REMARK    1  A    between atoms: O2_2  and  C3_3 
REMARK    2  A    between atoms: C8_8  and  O9_9 
REMARK    3  A    between atoms: C16_15  and  C18_16 
REMARK    4  A    between atoms: C18_16  and  C19_17 
ROOT
ATOM      1  C3  ZIN A   1      18.749   2.859  10.545  0.00  0.00     0.102 A 
ATOM      2  C4  ZIN A   1      18.501   2.368   9.275  0.00  0.00     0.047 A 
ATOM      3  C5  ZIN A   1      18.742   1.035   8.978  0.00  0.00    -0.045 A 
ATOM      4  C6  ZIN A   1      19.233   0.189   9.950  0.00  0.00    -0.018 A 
ATOM      5  C7  ZIN A   1      19.481   0.676  11.227  0.00  0.00     0.049 A 
ATOM      6  C8  ZIN A   1      19.247   2.006  11.526  0.00  0.00     0.102 A 
ATOM      7  C11 ZIN A   1      19.514  -1.263   9.672  0.00  0.00     0.228 C 
ATOM      8  C13 ZIN A   1      19.036  -2.108  10.860  0.00  0.00     0.116 C 
ATOM      9  C14 ZIN A   1      19.248  -3.567  10.516  0.00  0.00     0.135 C 
ATOM     10  O15 ZIN A   1      19.784  -4.321  11.293  0.00  0.00    -0.297 OA
ATOM     11  C16 ZIN A   1      18.763  -4.048   9.164  0.00  0.00     0.081 C 
ATOM     12  C22 ZIN A   1      19.262  -3.066   8.099  0.00  0.00     0.247 C 
ATOM     13  N23 ZIN A   1      18.820  -1.710   8.463  0.00  0.00    -0.061 N 
ATOM     14  H24 ZIN A   1      17.822  -1.713   8.615  0.00  0.00     0.280 HD
ATOM     15  C25 ZIN A   1      19.145  -0.783   7.370  0.00  0.00     0.240 C 
ATOM     16  C26 ZIN A   1      18.454   0.542   7.584  0.00  0.00     0.067 C 
ENDROOT
BRANCH  11  17
ATOM     17  C18 ZIN A   1      17.234  -4.093   9.150  0.00  0.00     0.017 C 
BRANCH  17  18
ATOM     18  C19 ZIN A   1      16.763  -5.533   9.374  0.00  0.00    -0.022 C 
ATOM     19  C20 ZIN A   1      15.443  -5.759   8.635  0.00  0.00     0.009 C 
ATOM     20  C21 ZIN A   1      17.820  -6.503   8.840  0.00  0.00     0.009 C 
ENDBRANCH  17  18
ENDBRANCH  11  17
BRANCH   6  21
ATOM     21  O9  ZIN A   1      19.494   2.478  12.777  0.00  0.00    -0.353 OA
ATOM     22  C10 ZIN A   1      18.874   1.788  13.865  0.00  0.00     0.210 C 
ENDBRANCH   6  21
BRANCH   1  23
ATOM     23  O2  ZIN A   1      18.513   4.166  10.830  0.00  0.00    -0.353 OA
ATOM     24  C1  ZIN A   1      17.152   4.548  11.047  0.00  0.00     0.210 C 
ENDBRANCH   1  23
TORSDOF 4
ENDMDL
MODEL 6
REMARK VINA RESULT:      -6.9      1.804      6.898
REMARK  4 active torsions:
REMARK  status: ('A' for Active; 'I' for Inactive)
REMARK    1  A    between atoms: O2_2  and  C3_3 
REMARK    2  A    between atoms: C8_8  and  O9_9 
REMARK    3  A    between atoms: C16_15  and  C18_16 
REMARK    4  A    between atoms: C18_16  and  C19_17 
ROOT
ATOM      1  C3  ZIN A   1      19.262  -0.453   9.029  0.00  0.00     0.102 A 
ATOM      2  C4  ZIN A   1      19.056   0.861   8.646  0.00  0.00     0.047 A 
ATOM      3  C5  ZIN A   1      18.673   1.812   9.580  0.00  0.00    -0.045 A 
ATOM      4  C6  ZIN A   1      18.492   1.451  10.898  0.00  0.00    -0.018 A 
ATOM      5  C7  ZIN A   1      18.698   0.134  11.288  0.00  0.00     0.049 A 
ATOM      6  C8  ZIN A   1      19.077  -0.819  10.359  0.00  0.00     0.102 A 
ATOM      7  C11 ZIN A   1      18.071   2.448  11.944  0.00  0.00     0.228 C 
ATOM      8  C13 ZIN A   1      18.875   2.205  13.228  0.00  0.00     0.116 C 
ATOM      9  C14 ZIN A   1      18.498   3.275  14.231  0.00  0.00     0.135 C 
ATOM     10  O15 ZIN A   1      18.214   2.992  15.370  0.00  0.00    -0.297 OA
ATOM     11  C16 ZIN A   1      18.489   4.713  13.754  0.00  0.00     0.081 C 
ATOM     12  C22 ZIN A   1      17.712   4.776  12.436  0.00  0.00     0.247 C 
ATOM     13  N23 ZIN A   1      18.308   3.818  11.489  0.00  0.00    -0.061 N 
ATOM     14  H24 ZIN A   1      19.300   3.995  11.416  0.00  0.00     0.280 HD
ATOM     15  C25 ZIN A   1      17.683   3.986  10.169  0.00  0.00     0.240 C 
ATOM     16  C26 ZIN A   1      18.464   3.232   9.121  0.00  0.00     0.067 C 
ENDROOT
BRANCH  11  17
ATOM     17  C18 ZIN A   1      19.925   5.191  13.532  0.00  0.00     0.017 C 
BRANCH  17  18
ATOM     18  C19 ZIN A   1      20.239   6.333  14.502  0.00  0.00    -0.022 C 
ATOM     19  C20 ZIN A   1      18.947   6.802  15.174  0.00  0.00     0.009 C 
ATOM     20  C21 ZIN A   1      21.220   5.840  15.568  0.00  0.00     0.009 C 
ENDBRANCH  17  18
ENDBRANCH  11  17
BRANCH   6  21
ATOM     21  O9  ZIN A   1      19.276  -2.107  10.746  0.00  0.00    -0.353 OA
ATOM     22  C10 ZIN A   1      19.291  -2.367  12.151  0.00  0.00     0.210 C 
ENDBRANCH   6  21
BRANCH   1  23
ATOM     23  O2  ZIN A   1      19.636  -1.382   8.110  0.00  0.00    -0.353 OA
ATOM     24  C1  ZIN A   1      18.985  -1.336   6.839  0.00  0.00     0.210 C 
ENDBRANCH   1  23
TORSDOF 4
ENDMDL
MODEL 7
REMARK VINA RESULT:      -6.8      3.581      6.375
REMARK  4 active torsions:
REMARK  status: ('A' for Active; 'I' for Inactive)
REMARK    1  A    between atoms: O2_2  and  C3_3 
REMARK    2  A    between atoms: C8_8  and  O9_9 
REMARK    3  A    between atoms: C16_15  and  C18_16 
REMARK    4  A    between atoms: C18_16  and  C19_17 
ROOT
ATOM      1  C3  ZIN A   1      18.658   1.244   9.898  0.00  0.00     0.102 A 
ATOM      2  C4  ZIN A   1      18.678   1.680   8.585  0.00  0.00     0.047 A 
ATOM      3  C5  ZIN A   1      18.874   0.778   7.550  0.00  0.00    -0.045 A 
ATOM      4  C6  ZIN A   1      19.051  -0.561   7.825  0.00  0.00    -0.018 A 
ATOM      5  C7  ZIN A   1      19.030  -1.003   9.141  0.00  0.00     0.049 A 
ATOM      6  C8  ZIN A   1      18.840  -0.107  10.177  0.00  0.00     0.102 A 
ATOM      7  C11 ZIN A   1      19.272  -1.574   6.734  0.00  0.00     0.228 C 
ATOM      8  C13 ZIN A   1      18.461  -2.838   7.045  0.00  0.00     0.116 C 
ATOM      9  C14 ZIN A   1      18.629  -3.802   5.890  0.00  0.00     0.135 C 
ATOM     10  O15 ZIN A   1      18.904  -4.964   6.080  0.00  0.00    -0.297 OA
ATOM     11  C16 ZIN A   1      18.440  -3.260   4.488  0.00  0.00     0.081 C 
ATOM     12  C22 ZIN A   1      19.254  -1.969   4.361  0.00  0.00     0.247 C 
ATOM     13  N23 ZIN A   1      18.850  -1.047   5.435  0.00  0.00    -0.061 N 
ATOM     14  H24 ZIN A   1      17.847  -0.931   5.416  0.00  0.00     0.280 HD
ATOM     15  C25 ZIN A   1      19.497   0.256   5.227  0.00  0.00     0.240 C 
ATOM     16  C26 ZIN A   1      18.885   1.295   6.134  0.00  0.00     0.067 C 
ENDROOT
BRANCH  11  17
ATOM     17  C18 ZIN A   1      16.959  -2.965   4.244  0.00  0.00     0.017 C 
BRANCH  17  18
ATOM     18  C19 ZIN A   1      16.373  -4.026   3.308  0.00  0.00    -0.022 C 
ATOM     19  C20 ZIN A   1      17.508  -4.729   2.562  0.00  0.00     0.009 C 
ATOM     20  C21 ZIN A   1      15.589  -5.052   4.129  0.00  0.00     0.009 C 
ENDBRANCH  17  18
ENDBRANCH  11  17
BRANCH   6  21
ATOM     21  O9  ZIN A   1      18.822  -0.547  11.464  0.00  0.00    -0.353 OA
ATOM     22  C10 ZIN A   1      19.585  -1.718  11.761  0.00  0.00     0.210 C 
ENDBRANCH   6  21
BRANCH   1  23
ATOM     23  O2  ZIN A   1      18.467   2.132  10.910  0.00  0.00    -0.353 OA
ATOM     24  C1  ZIN A   1      19.609   2.872  11.347  0.00  0.00     0.210 C 
ENDBRANCH   1  23
TORSDOF 4
ENDMDL
MODEL 8
REMARK VINA RESULT:      -6.8      2.840      3.757
REMARK  4 active torsions:
REMARK  status: ('A' for Active; 'I' for Inactive)
REMARK    1  A    between atoms: O2_2  and  C3_3 
REMARK    2  A    between atoms: C8_8  and  O9_9 
REMARK    3  A    between atoms: C16_15  and  C18_16 
REMARK    4  A    between atoms: C18_16  and  C19_17 
ROOT
ATOM      1  C3  ZIN A   1      18.188   2.758  13.879  0.00  0.00     0.102 A 
ATOM      2  C4  ZIN A   1      17.774   2.673  12.562  0.00  0.00     0.047 A 
ATOM      3  C5  ZIN A   1      18.166   1.604  11.770  0.00  0.00    -0.045 A 
ATOM      4  C6  ZIN A   1      18.974   0.618  12.294  0.00  0.00    -0.018 A 
ATOM      5  C7  ZIN A   1      19.391   0.697  13.616  0.00  0.00     0.049 A 
ATOM      6  C8  ZIN A   1      19.007   1.764  14.408  0.00  0.00     0.102 A 
ATOM      7  C11 ZIN A   1      19.429  -0.558  11.470  0.00  0.00     0.228 C 
ATOM      8  C13 ZIN A   1      19.345  -1.833  12.319  0.00  0.00     0.116 C 
ATOM      9  C14 ZIN A   1      19.720  -3.009  11.442  0.00  0.00     0.135 C 
ATOM     10  O15 ZIN A   1      20.518  -3.836  11.813  0.00  0.00    -0.297 OA
ATOM     11  C16 ZIN A   1      19.059  -3.111  10.082  0.00  0.00     0.081 C 
ATOM     12  C22 ZIN A   1      19.165  -1.746   9.395  0.00  0.00     0.247 C 
ATOM     13  N23 ZIN A   1      18.589  -0.723  10.283  0.00  0.00    -0.061 N 
ATOM     14  H24 ZIN A   1      17.656  -1.001  10.552  0.00  0.00     0.280 HD
ATOM     15  C25 ZIN A   1      18.530   0.562   9.571  0.00  0.00     0.240 C 
ATOM     16  C26 ZIN A   1      17.688   1.549  10.342  0.00  0.00     0.067 C 
ENDROOT
BRANCH  11  17
ATOM     17  C18 ZIN A   1      17.587  -3.491  10.252  0.00  0.00     0.017 C 
BRANCH  17  18
ATOM     18  C19 ZIN A   1      17.424  -5.001  10.057  0.00  0.00    -0.022 C 
ATOM     19  C20 ZIN A   1      18.637  -5.552   9.305  0.00  0.00     0.009 C 
ATOM     20  C21 ZIN A   1      17.319  -5.683  11.424  0.00  0.00     0.009 C 
ENDBRANCH  17  18
ENDBRANCH  11  17
BRANCH   6  21
ATOM     21  O9  ZIN A   1      19.420   1.836  15.701  0.00  0.00    -0.353 OA
ATOM     22  C10 ZIN A   1      19.042   0.762  16.565  0.00  0.00     0.210 C 
ENDBRANCH   6  21
BRANCH   1  23
ATOM     23  O2  ZIN A   1      17.803   3.808  14.651  0.00  0.00    -0.353 OA
ATOM     24  C1  ZIN A   1      18.495   5.043  14.459  0.00  0.00     0.210 C 
ENDBRANCH   1  23
TORSDOF 4
ENDMDL
MODEL 9
REMARK VINA RESULT:      -6.8      2.409      7.053
REMARK  4 active torsions:
REMARK  status: ('A' for Active; 'I' for Inactive)
REMARK    1  A    between atoms: O2_2  and  C3_3 
REMARK    2  A    between atoms: C8_8  and  O9_9 
REMARK    3  A    between atoms: C16_15  and  C18_16 
REMARK    4  A    between atoms: C18_16  and  C19_17 
ROOT
ATOM      1  C3  ZIN A   1      17.604  -1.372  11.672  0.00  0.00     0.102 A 
ATOM      2  C4  ZIN A   1      17.812  -0.797  12.913  0.00  0.00     0.047 A 
ATOM      3  C5  ZIN A   1      17.986   0.574  13.030  0.00  0.00    -0.045 A 
ATOM      4  C6  ZIN A   1      17.953   1.373  11.907  0.00  0.00    -0.018 A 
ATOM      5  C7  ZIN A   1      17.742   0.801  10.660  0.00  0.00     0.049 A 
ATOM      6  C8  ZIN A   1      17.573  -0.567  10.537  0.00  0.00     0.102 A 
ATOM      7  C11 ZIN A   1      18.142   2.864  11.987  0.00  0.00     0.228 C 
ATOM      8  C13 ZIN A   1      17.140   3.552  11.050  0.00  0.00     0.116 C 
ATOM      9  C14 ZIN A   1      17.290   5.049  11.217  0.00  0.00     0.135 C 
ATOM     10  O15 ZIN A   1      17.386   5.779  10.259  0.00  0.00    -0.297 OA
ATOM     11  C16 ZIN A   1      17.316   5.601  12.628  0.00  0.00     0.081 C 
ATOM     12  C22 ZIN A   1      18.306   4.768  13.449  0.00  0.00     0.247 C 
ATOM     13  N23 ZIN A   1      17.925   3.349  13.351  0.00  0.00    -0.061 N 
ATOM     14  H24 ZIN A   1      16.954   3.245  13.607  0.00  0.00     0.280 HD
ATOM     15  C25 ZIN A   1      18.760   2.557  14.265  0.00  0.00     0.240 C 
ATOM     16  C26 ZIN A   1      18.207   1.159  14.401  0.00  0.00     0.067 C 
ENDROOT
BRANCH  11  17
ATOM     17  C18 ZIN A   1      15.920   5.503  13.246  0.00  0.00     0.017 C 
BRANCH  17  18
ATOM     18  C19 ZIN A   1      15.923   6.172  14.623  0.00  0.00    -0.022 C 
ATOM     19  C20 ZIN A   1      16.520   7.576  14.506  0.00  0.00     0.009 C 
ATOM     20  C21 ZIN A   1      14.488   6.269  15.146  0.00  0.00     0.009 C 
ENDBRANCH  17  18
ENDBRANCH  11  17
BRANCH   6  21
ATOM     21  O9  ZIN A   1      17.368  -1.121   9.312  0.00  0.00    -0.353 OA
ATOM     22  C10 ZIN A   1      17.519  -0.265   8.178  0.00  0.00     0.210 C 
ENDBRANCH   6  21
BRANCH   1  23
ATOM     23  O2  ZIN A   1      17.435  -2.716  11.561  0.00  0.00    -0.353 OA
ATOM     24  C1  ZIN A   1      18.603  -3.529  11.695  0.00  0.00     0.210 C 
ENDBRANCH   1  23
TORSDOF 4
ENDMDL
