MODEL 1
REMARK VINA RESULT:      -8.6      0.000      0.000
REMARK  11 active torsions:
REMARK  status: ('A' for Active; 'I' for Inactive)
REMARK    1  A    between atoms: C2_2  and  C3_3 
REMARK    2  A    between atoms: C3_3  and  C4_4 
REMARK    3  A    between atoms: C4_4  and  N5_5 
REMARK    4  A    between atoms: N5_5  and  C7_7 
REMARK    5  A    between atoms: N5_5  and  C11_11 
REMARK    6  A    between atoms: C7_7  and  C8_8 
REMARK    7  A    between atoms: C8_8  and  C9_9 
REMARK    8  A    between atoms: C11_11  and  C12_12 
REMARK    9  A    between atoms: C12_12  and  O14_13 
REMARK   10  A    between atoms: C12_12  and  C15_14 
REMARK   11  A    between atoms: C30_29  and  C31_30 
ROOT
ATOM      1  C15 ZIN A   1      17.570  -1.558  11.251  0.00  0.00    -0.014 A 
ATOM      2  C16 ZIN A   1      17.400  -1.238  12.583  0.00  0.00     0.034 A 
ATOM      3  C17 ZIN A   1      17.504   0.077  13.010  0.00  0.00     0.035 A 
ATOM      4 Cl18 ZIN A   1      17.289   0.458  14.690  0.00  0.00    -0.084 Cl
ATOM      5  C19 ZIN A   1      17.777   1.084  12.106  0.00  0.00     0.037 A 
ATOM      6  C20 ZIN A   1      17.950   0.778  10.757  0.00  0.00    -0.012 A 
ATOM      7  C21 ZIN A   1      17.852  -0.556  10.324  0.00  0.00    -0.005 A 
ATOM      8  C22 ZIN A   1      18.076  -0.596   8.864  0.00  0.00    -0.013 A 
ATOM      9  C23 ZIN A   1      18.087  -1.651   7.952  0.00  0.00     0.015 A 
ATOM     10  C24 ZIN A   1      18.328  -1.406   6.616  0.00  0.00     0.024 A 
ATOM     11  C25 ZIN A   1      18.559  -0.115   6.168  0.00  0.00     0.035 A 
ATOM     12 Cl26 ZIN A   1      18.861   0.174   4.483  0.00  0.00    -0.084 Cl
ATOM     13  C27 ZIN A   1      18.551   0.944   7.056  0.00  0.00     0.037 A 
ATOM     14  C28 ZIN A   1      18.311   0.713   8.408  0.00  0.00    -0.012 A 
ATOM     15  C29 ZIN A   1      18.246   1.616   9.576  0.00  0.00    -0.013 A 
ATOM     16  C30 ZIN A   1      18.421   2.964   9.566  0.00  0.00     0.024 C 
ENDROOT
BRANCH   1  17
ATOM     17  C12 ZIN A   1      17.455  -2.991  10.800  0.00  0.00     0.178 C 
BRANCH  17  18
ATOM     18  C11 ZIN A   1      18.851  -3.613  10.718  0.00  0.00     0.271 C 
BRANCH  18  19
ATOM     19  N5  ZIN A   1      18.828  -4.744   9.780  0.00  0.00    -0.068 N 
ATOM     20  H6  ZIN A   1      18.416  -4.449   8.908  0.00  0.00     0.280 HD
BRANCH  19  21
ATOM     21  C4  ZIN A   1      20.201  -5.209   9.540  0.00  0.00     0.235 C 
BRANCH  21  22
ATOM     22  C3  ZIN A   1      20.315  -5.747   8.113  0.00  0.00     0.027 C 
BRANCH  22  23
ATOM     23  C2  ZIN A   1      19.929  -4.647   7.121  0.00  0.00    -0.003 C 
ATOM     24  C1  ZIN A   1      18.871  -5.181   6.154  0.00  0.00     0.005 C 
ENDBRANCH  22  23
ENDBRANCH  21  22
ENDBRANCH  19  21
BRANCH  19  25
ATOM     25  C7  ZIN A   1      18.034  -5.838  10.352  0.00  0.00     0.235 C 
BRANCH  25  26
ATOM     26  C8  ZIN A   1      17.182  -6.478   9.254  0.00  0.00     0.027 C 
BRANCH  26  27
ATOM     27  C9  ZIN A   1      16.191  -5.447   8.710  0.00  0.00    -0.003 C 
ATOM     28  C10 ZIN A   1      15.084  -6.163   7.935  0.00  0.00     0.005 C 
ENDBRANCH  26  27
ENDBRANCH  25  26
ENDBRANCH  19  25
ENDBRANCH  18  19
ENDBRANCH  17  18
BRANCH  17  29
ATOM     29  O14 ZIN A   1      16.662  -3.724  11.737  0.00  0.00    -0.389 OA
ATOM     30  H58 ZIN A   1      16.246  -4.515  11.367  0.00  0.00     0.210 HD
ENDBRANCH  17  29
ENDBRANCH   1  17
BRANCH  16  31
ATOM     31  C31 ZIN A   1      18.617   3.689  10.830  0.00  0.00    -0.035 A 
ATOM     32  C37 ZIN A   1      19.870   3.684  11.455  0.00  0.00     0.013 A 
ATOM     33  C36 ZIN A   1      20.047   4.370  12.637  0.00  0.00     0.024 A 
ATOM     34  C34 ZIN A   1      18.987   5.054  13.211  0.00  0.00     0.034 A 
ATOM     35  C33 ZIN A   1      17.745   5.058  12.601  0.00  0.00     0.024 A 
ATOM     36 Cl35 ZIN A   1      19.219   5.909  14.704  0.00  0.00    -0.084 Cl
ATOM     37  C32 ZIN A   1      17.552   4.381  11.416  0.00  0.00     0.013 A 
ENDBRANCH  16  31
TORSDOF 11
ENDMDL
MODEL 2
REMARK VINA RESULT:      -8.6      0.388      1.950
REMARK  11 active torsions:
REMARK  status: ('A' for Active; 'I' for Inactive)
REMARK    1  A    between atoms: C2_2  and  C3_3 
REMARK    2  A    between atoms: C3_3  and  C4_4 
REMARK    3  A    between atoms: C4_4  and  N5_5 
REMARK    4  A    between atoms: N5_5  and  C7_7 
REMARK    5  A    between atoms: N5_5  and  C11_11 
REMARK    6  A    between atoms: C7_7  and  C8_8 
REMARK    7  A    between atoms: C8_8  and  C9_9 
REMARK    8  A    between atoms: C11_11  and  C12_12 
REMARK    9  A    between atoms: C12_12  and  O14_13 
REMARK   10  A    between atoms: C12_12  and  C15_14 
REMARK   11  A    between atoms: C30_29  and  C31_30 
ROOT
ATOM      1  C15 ZIN A   1      17.639  -1.589  11.395  0.00  0.00    -0.014 A 
ATOM      2  C16 ZIN A   1      17.436  -1.234  12.713  0.00  0.00     0.034 A 
ATOM      3  C17 ZIN A   1      17.485   0.097  13.099  0.00  0.00     0.035 A 
ATOM      4 Cl18 ZIN A   1      17.227   0.522  14.763  0.00  0.00    -0.084 Cl
ATOM      5  C19 ZIN A   1      17.737   1.085  12.169  0.00  0.00     0.037 A 
ATOM      6  C20 ZIN A   1      17.944   0.743  10.833  0.00  0.00    -0.012 A 
ATOM      7  C21 ZIN A   1      17.901  -0.606  10.441  0.00  0.00    -0.005 A 
ATOM      8  C22 ZIN A   1      18.151  -0.683   8.986  0.00  0.00    -0.013 A 
ATOM      9  C23 ZIN A   1      18.216  -1.764   8.109  0.00  0.00     0.015 A 
ATOM     10  C24 ZIN A   1      18.470  -1.552   6.769  0.00  0.00     0.024 A 
ATOM     11  C25 ZIN A   1      18.663  -0.268   6.285  0.00  0.00     0.035 A 
ATOM     12 Cl26 ZIN A   1      18.982  -0.020   4.597  0.00  0.00    -0.084 Cl
ATOM     13  C27 ZIN A   1      18.601   0.817   7.138  0.00  0.00     0.037 A 
ATOM     14  C28 ZIN A   1      18.347   0.620   8.493  0.00  0.00    -0.012 A 
ATOM     15  C29 ZIN A   1      18.229   1.555   9.631  0.00  0.00    -0.013 A 
ATOM     16  C30 ZIN A   1      18.355   2.907   9.581  0.00  0.00     0.024 C 
ENDROOT
BRANCH   1  17
ATOM     17  C12 ZIN A   1      17.585  -3.038  10.987  0.00  0.00     0.178 C 
BRANCH  17  18
ATOM     18  C11 ZIN A   1      18.946  -3.690  11.240  0.00  0.00     0.271 C 
BRANCH  18  19
ATOM     19  N5  ZIN A   1      19.093  -4.866  10.371  0.00  0.00    -0.068 N 
ATOM     20  H6  ZIN A   1      19.294  -5.678  10.934  0.00  0.00     0.280 HD
BRANCH  19  21
ATOM     21  C4  ZIN A   1      17.846  -5.084   9.626  0.00  0.00     0.235 C 
BRANCH  21  22
ATOM     22  C3  ZIN A   1      17.342  -6.506   9.880  0.00  0.00     0.027 C 
BRANCH  22  23
ATOM     23  C2  ZIN A   1      16.466  -6.954   8.708  0.00  0.00    -0.003 C 
ATOM     24  C1  ZIN A   1      15.525  -5.815   8.310  0.00  0.00     0.005 C 
ENDBRANCH  22  23
ENDBRANCH  21  22
ENDBRANCH  19  21
BRANCH  19  25
ATOM     25  C7  ZIN A   1      20.195  -4.642   9.426  0.00  0.00     0.235 C 
BRANCH  25  26
ATOM     26  C8  ZIN A   1      20.155  -5.710   8.332  0.00  0.00     0.027 C 
BRANCH  26  27
ATOM     27  C9  ZIN A   1      20.134  -5.035   6.960  0.00  0.00    -0.003 C 
ATOM     28  C10 ZIN A   1      18.909  -5.510   6.176  0.00  0.00     0.005 C 
ENDBRANCH  26  27
ENDBRANCH  25  26
ENDBRANCH  19  25
ENDBRANCH  18  19
ENDBRANCH  17  18
BRANCH  17  29
ATOM     29  O14 ZIN A   1      16.584  -3.711  11.755  0.00  0.00    -0.389 OA
ATOM     30  H58 ZIN A   1      15.734  -3.251  11.783  0.00  0.00     0.210 HD
ENDBRANCH  17  29
ENDBRANCH   1  17
BRANCH  16  31
ATOM     31  C31 ZIN A   1      18.503   3.678  10.824  0.00  0.00    -0.035 A 
ATOM     32  C37 ZIN A   1      17.405   4.361  11.362  0.00  0.00     0.013 A 
ATOM     33  C36 ZIN A   1      17.550   5.077  12.530  0.00  0.00     0.024 A 
ATOM     34  C34 ZIN A   1      18.780   5.130  13.166  0.00  0.00     0.034 A 
ATOM     35  C33 ZIN A   1      19.871   4.462  12.637  0.00  0.00     0.024 A 
ATOM     36 Cl35 ZIN A   1      18.954   6.042  14.634  0.00  0.00    -0.084 Cl
ATOM     37  C32 ZIN A   1      19.741   3.737  11.472  0.00  0.00     0.013 A 
ENDBRANCH  16  31
TORSDOF 11
ENDMDL
MODEL 3
REMARK VINA RESULT:      -8.3      3.131      9.467
REMARK  11 active torsions:
REMARK  status: ('A' for Active; 'I' for Inactive)
REMARK    1  A    between atoms: C2_2  and  C3_3 
REMARK    2  A    between atoms: C3_3  and  C4_4 
REMARK    3  A    between atoms: C4_4  and  N5_5 
REMARK    4  A    between atoms: N5_5  and  C7_7 
REMARK    5  A    between atoms: N5_5  and  C11_11 
REMARK    6  A    between atoms: C7_7  and  C8_8 
REMARK    7  A    between atoms: C8_8  and  C9_9 
REMARK    8  A    between atoms: C11_11  and  C12_12 
REMARK    9  A    between atoms: C12_12  and  O14_13 
REMARK   10  A    between atoms: C12_12  and  C15_14 
REMARK   11  A    between atoms: C30_29  and  C31_30 
ROOT
ATOM      1  C15 ZIN A   1      17.604   1.585  11.324  0.00  0.00    -0.014 A 
ATOM      2  C16 ZIN A   1      17.449   1.288   9.985  0.00  0.00     0.034 A 
ATOM      3  C17 ZIN A   1      17.516  -0.025   9.543  0.00  0.00     0.035 A 
ATOM      4 Cl18 ZIN A   1      17.320  -0.377   7.855  0.00  0.00    -0.084 Cl
ATOM      5  C19 ZIN A   1      17.739  -1.052  10.438  0.00  0.00     0.037 A 
ATOM      6  C20 ZIN A   1      17.898  -0.769  11.794  0.00  0.00    -0.012 A 
ATOM      7  C21 ZIN A   1      17.836   0.562  12.242  0.00  0.00    -0.005 A 
ATOM      8  C22 ZIN A   1      18.034   0.576  13.707  0.00  0.00    -0.013 A 
ATOM      9  C23 ZIN A   1      18.063   1.618  14.633  0.00  0.00     0.015 A 
ATOM     10  C24 ZIN A   1      18.271   1.348  15.970  0.00  0.00     0.024 A 
ATOM     11  C25 ZIN A   1      18.451   0.044  16.404  0.00  0.00     0.035 A 
ATOM     12 Cl26 ZIN A   1      18.711  -0.276  18.090  0.00  0.00    -0.084 Cl
ATOM     13  C27 ZIN A   1      18.424  -1.002  15.502  0.00  0.00     0.037 A 
ATOM     14  C28 ZIN A   1      18.217  -0.746  14.149  0.00  0.00    -0.012 A 
ATOM     15  C29 ZIN A   1      18.143  -1.632  12.968  0.00  0.00    -0.013 A 
ATOM     16  C30 ZIN A   1      18.274  -2.984  12.964  0.00  0.00     0.024 C 
ENDROOT
BRANCH   1  17
ATOM     17  C12 ZIN A   1      17.529   3.015  11.792  0.00  0.00     0.178 C 
BRANCH  17  18
ATOM     18  C11 ZIN A   1      18.943   3.585  11.918  0.00  0.00     0.271 C 
BRANCH  18  19
ATOM     19  N5  ZIN A   1      18.917   4.774  12.781  0.00  0.00    -0.068 N 
ATOM     20  H6  ZIN A   1      18.996   5.604  12.213  0.00  0.00     0.280 HD
BRANCH  19  21
ATOM     21  C4  ZIN A   1      17.651   4.810  13.525  0.00  0.00     0.235 C 
BRANCH  21  22
ATOM     22  C3  ZIN A   1      16.962   6.157  13.295  0.00  0.00     0.027 C 
BRANCH  22  23
ATOM     23  C2  ZIN A   1      16.122   6.517  14.523  0.00  0.00    -0.003 C 
ATOM     24  C1  ZIN A   1      16.690   5.809  15.754  0.00  0.00     0.005 C 
ENDBRANCH  22  23
ENDBRANCH  21  22
ENDBRANCH  19  21
BRANCH  19  25
ATOM     25  C7  ZIN A   1      20.039   4.718  13.726  0.00  0.00     0.235 C 
BRANCH  25  26
ATOM     26  C8  ZIN A   1      20.227   6.090  14.377  0.00  0.00     0.027 C 
BRANCH  26  27
ATOM     27  C9  ZIN A   1      20.449   5.916  15.880  0.00  0.00    -0.003 C 
ATOM     28  C10 ZIN A   1      20.140   4.471  16.278  0.00  0.00     0.005 C 
ENDBRANCH  26  27
ENDBRANCH  25  26
ENDBRANCH  19  25
ENDBRANCH  18  19
ENDBRANCH  17  18
BRANCH  17  29
ATOM     29  O14 ZIN A   1      16.787   3.788  10.846  0.00  0.00    -0.389 OA
ATOM     30  H58 ZIN A   1      16.540   4.668  11.163  0.00  0.00     0.210 HD
ENDBRANCH  17  29
ENDBRANCH   1  17
BRANCH  16  31
ATOM     31  C31 ZIN A   1      18.468  -3.699  11.694  0.00  0.00    -0.035 A 
ATOM     32  C37 ZIN A   1      17.365  -4.209  10.999  0.00  0.00     0.013 A 
ATOM     33  C36 ZIN A   1      17.554  -4.874   9.808  0.00  0.00     0.024 A 
ATOM     34  C34 ZIN A   1      18.833  -5.047   9.302  0.00  0.00     0.034 A 
ATOM     35  C33 ZIN A   1      19.929  -4.550   9.987  0.00  0.00     0.024 A 
ATOM     36 Cl35 ZIN A   1      19.062  -5.893   7.803  0.00  0.00    -0.084 Cl
ATOM     37  C32 ZIN A   1      19.756  -3.878  11.178  0.00  0.00     0.013 A 
ENDBRANCH  16  31
TORSDOF 11
ENDMDL
MODEL 4
REMARK VINA RESULT:      -8.2      2.879      5.914
REMARK  11 active torsions:
REMARK  status: ('A' for Active; 'I' for Inactive)
REMARK    1  A    between atoms: C2_2  and  C3_3 
REMARK    2  A    between atoms: C3_3  and  C4_4 
REMARK    3  A    between atoms: C4_4  and  N5_5 
REMARK    4  A    between atoms: N5_5  and  C7_7 
REMARK    5  A    between atoms: N5_5  and  C11_11 
REMARK    6  A    between atoms: C7_7  and  C8_8 
REMARK    7  A    between atoms: C8_8  and  C9_9 
REMARK    8  A    between atoms: C11_11  and  C12_12 
REMARK    9  A    between atoms: C12_12  and  O14_13 
REMARK   10  A    between atoms: C12_12  and  C15_14 
REMARK   11  A    between atoms: C30_29  and  C31_30 
ROOT
ATOM      1  C15 ZIN A   1      18.485   1.947  11.091  0.00  0.00    -0.014 A 
ATOM      2  C16 ZIN A   1      18.253   3.115  10.392  0.00  0.00     0.034 A 
ATOM      3  C17 ZIN A   1      18.094   4.317  11.064  0.00  0.00     0.035 A 
ATOM      4 Cl18 ZIN A   1      17.802   5.774  10.167  0.00  0.00    -0.084 Cl
ATOM      5  C19 ZIN A   1      18.166   4.361  12.442  0.00  0.00     0.037 A 
ATOM      6  C20 ZIN A   1      18.400   3.191  13.162  0.00  0.00    -0.012 A 
ATOM      7  C21 ZIN A   1      18.556   1.970  12.483  0.00  0.00    -0.005 A 
ATOM      8  C22 ZIN A   1      18.791   0.903  13.478  0.00  0.00    -0.013 A 
ATOM      9  C23 ZIN A   1      19.004  -0.468  13.339  0.00  0.00     0.015 A 
ATOM     10  C24 ZIN A   1      19.200  -1.252  14.458  0.00  0.00     0.024 A 
ATOM     11  C25 ZIN A   1      19.186  -0.688  15.723  0.00  0.00     0.035 A 
ATOM     12 Cl26 ZIN A   1      19.434  -1.691  17.118  0.00  0.00    -0.084 Cl
ATOM     13  C27 ZIN A   1      18.977   0.668  15.881  0.00  0.00     0.037 A 
ATOM     14  C28 ZIN A   1      18.777   1.474  14.763  0.00  0.00    -0.012 A 
ATOM     15  C29 ZIN A   1      18.528   2.923  14.610  0.00  0.00    -0.013 A 
ATOM     16  C30 ZIN A   1      18.436   3.835  15.612  0.00  0.00     0.024 C 
ENDROOT
BRANCH   1  17
ATOM     17  C12 ZIN A   1      18.656   0.647  10.349  0.00  0.00     0.178 C 
BRANCH  17  18
ATOM     18  C11 ZIN A   1      17.752   0.641   9.114  0.00  0.00     0.271 C 
BRANCH  18  19
ATOM     19  N5  ZIN A   1      18.258  -0.337   8.142  0.00  0.00    -0.068 N 
ATOM     20  H6  ZIN A   1      19.265  -0.358   8.179  0.00  0.00     0.280 HD
BRANCH  19  21
ATOM     21  C4  ZIN A   1      17.729  -1.669   8.468  0.00  0.00     0.235 C 
BRANCH  21  22
ATOM     22  C3  ZIN A   1      18.890  -2.649   8.646  0.00  0.00     0.027 C 
BRANCH  22  23
ATOM     23  C2  ZIN A   1      19.044  -2.992  10.130  0.00  0.00    -0.003 C 
ATOM     24  C1  ZIN A   1      17.679  -2.908  10.817  0.00  0.00     0.005 C 
ENDBRANCH  22  23
ENDBRANCH  21  22
ENDBRANCH  19  21
BRANCH  19  25
ATOM     25  C7  ZIN A   1      17.825   0.045   6.792  0.00  0.00     0.235 C 
BRANCH  25  26
ATOM     26  C8  ZIN A   1      18.975   0.748   6.067  0.00  0.00     0.027 C 
BRANCH  26  27
ATOM     27  C9  ZIN A   1      19.196   0.091   4.704  0.00  0.00    -0.003 C 
ATOM     28  C10 ZIN A   1      19.150  -1.431   4.856  0.00  0.00     0.005 C 
ENDBRANCH  26  27
ENDBRANCH  25  26
ENDBRANCH  19  25
ENDBRANCH  18  19
ENDBRANCH  17  18
BRANCH  17  29
ATOM     29  O14 ZIN A   1      20.019   0.507   9.942  0.00  0.00    -0.389 OA
ATOM     30  H58 ZIN A   1      20.659   0.645  10.653  0.00  0.00     0.210 HD
ENDBRANCH  17  29
ENDBRANCH   1  17
BRANCH  16  31
ATOM     31  C31 ZIN A   1      17.900   5.176  15.337  0.00  0.00    -0.035 A 
ATOM     32  C37 ZIN A   1      16.522   5.361  15.168  0.00  0.00     0.013 A 
ATOM     33  C36 ZIN A   1      16.026   6.621  14.916  0.00  0.00     0.024 A 
ATOM     34  C34 ZIN A   1      16.888   7.702  14.819  0.00  0.00     0.034 A 
ATOM     35  C33 ZIN A   1      18.252   7.526  14.980  0.00  0.00     0.024 A 
ATOM     36 Cl35 ZIN A   1      16.254   9.285  14.493  0.00  0.00    -0.084 Cl
ATOM     37  C32 ZIN A   1      18.763   6.272  15.238  0.00  0.00     0.013 A 
ENDBRANCH  16  31
TORSDOF 11
ENDMDL
MODEL 5
REMARK VINA RESULT:      -8.0      3.112      8.147
REMARK  11 active torsions:
REMARK  status: ('A' for Active; 'I' for Inactive)
REMARK    1  A    between atoms: C2_2  and  C3_3 
REMARK    2  A    between atoms: C3_3  and  C4_4 
REMARK    3  A    between atoms: C4_4  and  N5_5 
REMARK    4  A    between atoms: N5_5  and  C7_7 
REMARK    5  A    between atoms: N5_5  and  C11_11 
REMARK    6  A    between atoms: C7_7  and  C8_8 
REMARK    7  A    between atoms: C8_8  and  C9_9 
REMARK    8  A    between atoms: C11_11  and  C12_12 
REMARK    9  A    between atoms: C12_12  and  O14_13 
REMARK   10  A    between atoms: C12_12  and  C15_14 
REMARK   11  A    between atoms: C30_29  and  C31_30 
ROOT
ATOM      1  C15 ZIN A   1      18.567  -2.792  10.650  0.00  0.00    -0.014 A 
ATOM      2  C16 ZIN A   1      18.288  -3.874  11.462  0.00  0.00     0.034 A 
ATOM      3  C17 ZIN A   1      17.905  -5.087  10.911  0.00  0.00     0.035 A 
ATOM      4 Cl18 ZIN A   1      17.557  -6.434  11.949  0.00  0.00    -0.084 Cl
ATOM      5  C19 ZIN A   1      17.798  -5.229   9.542  0.00  0.00     0.037 A 
ATOM      6  C20 ZIN A   1      18.077  -4.147   8.708  0.00  0.00    -0.012 A 
ATOM      7  C21 ZIN A   1      18.459  -2.915   9.266  0.00  0.00    -0.005 A 
ATOM      8  C22 ZIN A   1      18.693  -1.952   8.168  0.00  0.00    -0.013 A 
ATOM      9  C23 ZIN A   1      19.082  -0.613   8.171  0.00  0.00     0.015 A 
ATOM     10  C24 ZIN A   1      19.228   0.065   6.979  0.00  0.00     0.024 A 
ATOM     11  C25 ZIN A   1      18.990  -0.573   5.772  0.00  0.00     0.035 A 
ATOM     12 Cl26 ZIN A   1      19.178   0.297   4.282  0.00  0.00    -0.084 Cl
ATOM     13  C27 ZIN A   1      18.604  -1.900   5.749  0.00  0.00     0.037 A 
ATOM     14  C28 ZIN A   1      18.451  -2.599   6.943  0.00  0.00    -0.012 A 
ATOM     15  C29 ZIN A   1      18.054  -3.991   7.239  0.00  0.00    -0.013 A 
ATOM     16  C30 ZIN A   1      17.730  -4.948   6.330  0.00  0.00     0.024 C 
ENDROOT
BRANCH   1  17
ATOM     17  C12 ZIN A   1      18.981  -1.479  11.261  0.00  0.00     0.178 C 
BRANCH  17  18
ATOM     18  C11 ZIN A   1      18.317  -1.321  12.630  0.00  0.00     0.271 C 
BRANCH  18  19
ATOM     19  N5  ZIN A   1      18.496   0.058  13.105  0.00  0.00    -0.068 N 
ATOM     20  H6  ZIN A   1      19.307   0.463  12.662  0.00  0.00     0.280 HD
BRANCH  19  21
ATOM     21  C4  ZIN A   1      17.307   0.851  12.767  0.00  0.00     0.235 C 
BRANCH  21  22
ATOM     22  C3  ZIN A   1      17.738   2.154  12.091  0.00  0.00     0.027 C 
BRANCH  22  23
ATOM     23  C2  ZIN A   1      17.698   1.978  10.571  0.00  0.00    -0.003 C 
ATOM     24  C1  ZIN A   1      18.951   2.602   9.953  0.00  0.00     0.005 C 
ENDBRANCH  22  23
ENDBRANCH  21  22
ENDBRANCH  19  21
BRANCH  19  25
ATOM     25  C7  ZIN A   1      18.685   0.054  14.561  0.00  0.00     0.235 C 
BRANCH  25  26
ATOM     26  C8  ZIN A   1      18.908  -1.381  15.043  0.00  0.00     0.027 C 
BRANCH  26  27
ATOM     27  C9  ZIN A   1      18.490  -1.499  16.509  0.00  0.00    -0.003 C 
ATOM     28  C10 ZIN A   1      17.159  -0.774  16.720  0.00  0.00     0.005 C 
ENDBRANCH  26  27
ENDBRANCH  25  26
ENDBRANCH  19  25
ENDBRANCH  18  19
ENDBRANCH  17  18
BRANCH  17  29
ATOM     29  O14 ZIN A   1      20.402  -1.453  11.416  0.00  0.00    -0.389 OA
ATOM     30  H58 ZIN A   1      20.737  -2.068  12.084  0.00  0.00     0.210 HD
ENDBRANCH  17  29
ENDBRANCH   1  17
BRANCH  16  31
ATOM     31  C31 ZIN A   1      17.078  -6.190   6.771  0.00  0.00    -0.035 A 
ATOM     32  C37 ZIN A   1      15.706  -6.202   7.049  0.00  0.00     0.013 A 
ATOM     33  C36 ZIN A   1      15.100  -7.370   7.457  0.00  0.00     0.024 A 
ATOM     34  C34 ZIN A   1      15.848  -8.528   7.603  0.00  0.00     0.034 A 
ATOM     35  C33 ZIN A   1      17.206  -8.522   7.336  0.00  0.00     0.024 A 
ATOM     36 Cl35 ZIN A   1      15.077  -9.993   8.126  0.00  0.00    -0.084 Cl
ATOM     37  C32 ZIN A   1      17.826  -7.362   6.921  0.00  0.00     0.013 A 
ENDBRANCH  16  31
TORSDOF 11
ENDMDL
MODEL 6
REMARK VINA RESULT:      -7.9      2.745      5.547
REMARK  11 active torsions:
REMARK  status: ('A' for Active; 'I' for Inactive)
REMARK    1  A    between atoms: C2_2  and  C3_3 
REMARK    2  A    between atoms: C3_3  and  C4_4 
REMARK    3  A    between atoms: C4_4  and  N5_5 
REMARK    4  A    between atoms: N5_5  and  C7_7 
REMARK    5  A    between atoms: N5_5  and  C11_11 
REMARK    6  A    between atoms: C7_7  and  C8_8 
REMARK    7  A    between atoms: C8_8  and  C9_9 
REMARK    8  A    between atoms: C11_11  and  C12_12 
REMARK    9  A    between atoms: C12_12  and  O14_13 
REMARK   10  A    between atoms: C12_12  and  C15_14 
REMARK   11  A    between atoms: C30_29  and  C31_30 
ROOT
ATOM      1  C15 ZIN A   1      18.466   1.906  10.913  0.00  0.00    -0.014 A 
ATOM      2  C16 ZIN A   1      18.244   3.085  10.230  0.00  0.00     0.034 A 
ATOM      3  C17 ZIN A   1      18.099   4.280  10.917  0.00  0.00     0.035 A 
ATOM      4 Cl18 ZIN A   1      17.820   5.751  10.040  0.00  0.00    -0.084 Cl
ATOM      5  C19 ZIN A   1      18.174   4.306  12.296  0.00  0.00     0.037 A 
ATOM      6  C20 ZIN A   1      18.398   3.124  13.001  0.00  0.00    -0.012 A 
ATOM      7  C21 ZIN A   1      18.539   1.911  12.306  0.00  0.00    -0.005 A 
ATOM      8  C22 ZIN A   1      18.766   0.828  13.286  0.00  0.00    -0.013 A 
ATOM      9  C23 ZIN A   1      18.965  -0.543  13.130  0.00  0.00     0.015 A 
ATOM     10  C24 ZIN A   1      19.154  -1.343  14.238  0.00  0.00     0.024 A 
ATOM     11  C25 ZIN A   1      19.150  -0.795  15.511  0.00  0.00     0.035 A 
ATOM     12 Cl26 ZIN A   1      19.390  -1.818  16.893  0.00  0.00    -0.084 Cl
ATOM     13  C27 ZIN A   1      18.955   0.562  15.686  0.00  0.00     0.037 A 
ATOM     14  C28 ZIN A   1      18.760   1.383  14.578  0.00  0.00    -0.012 A 
ATOM     15  C29 ZIN A   1      18.526   2.836  14.445  0.00  0.00    -0.013 A 
ATOM     16  C30 ZIN A   1      18.446   3.737  15.459  0.00  0.00     0.024 C 
ENDROOT
BRANCH   1  17
ATOM     17  C12 ZIN A   1      18.622   0.613  10.155  0.00  0.00     0.178 C 
BRANCH  17  18
ATOM     18  C11 ZIN A   1      17.808   0.680   8.861  0.00  0.00     0.271 C 
BRANCH  18  19
ATOM     19  N5  ZIN A   1      17.574  -0.681   8.360  0.00  0.00    -0.068 N 
ATOM     20  H6  ZIN A   1      16.600  -0.790   8.122  0.00  0.00     0.280 HD
BRANCH  19  21
ATOM     21  C4  ZIN A   1      18.398  -0.913   7.166  0.00  0.00     0.235 C 
BRANCH  21  22
ATOM     22  C3  ZIN A   1      18.625   0.414   6.439  0.00  0.00     0.027 C 
BRANCH  22  23
ATOM     23  C2  ZIN A   1      19.222   0.141   5.056  0.00  0.00    -0.003 C 
ATOM     24  C1  ZIN A   1      19.138  -1.355   4.750  0.00  0.00     0.005 C 
ENDBRANCH  22  23
ENDBRANCH  21  22
ENDBRANCH  19  21
BRANCH  19  25
ATOM     25  C7  ZIN A   1      17.934  -1.654   9.400  0.00  0.00     0.235 C 
BRANCH  25  26
ATOM     26  C8  ZIN A   1      18.708  -2.813   8.768  0.00  0.00     0.027 C 
BRANCH  26  27
ATOM     27  C9  ZIN A   1      18.853  -3.945   9.786  0.00  0.00    -0.003 C 
ATOM     28  C10 ZIN A   1      19.618  -3.436  11.010  0.00  0.00     0.005 C 
ENDBRANCH  26  27
ENDBRANCH  25  26
ENDBRANCH  19  25
ENDBRANCH  18  19
ENDBRANCH  17  18
BRANCH  17  29
ATOM     29  O14 ZIN A   1      20.001   0.409   9.840  0.00  0.00    -0.389 OA
ATOM     30  H58 ZIN A   1      20.251  -0.521   9.750  0.00  0.00     0.210 HD
ENDBRANCH  17  29
ENDBRANCH   1  17
BRANCH  16  31
ATOM     31  C31 ZIN A   1      17.923   5.087  15.202  0.00  0.00    -0.035 A 
ATOM     32  C37 ZIN A   1      18.795   6.182  15.160  0.00  0.00     0.013 A 
ATOM     33  C36 ZIN A   1      18.298   7.443  14.914  0.00  0.00     0.024 A 
ATOM     34  C34 ZIN A   1      16.939   7.631  14.718  0.00  0.00     0.034 A 
ATOM     35  C33 ZIN A   1      16.071   6.554  14.764  0.00  0.00     0.024 A 
ATOM     36 Cl35 ZIN A   1      16.323   9.226  14.417  0.00  0.00    -0.084 Cl
ATOM     37  C32 ZIN A   1      16.552   5.285  15.004  0.00  0.00     0.013 A 
ENDBRANCH  16  31
TORSDOF 11
ENDMDL
MODEL 7
REMARK VINA RESULT:      -7.9      3.042      8.232
REMARK  11 active torsions:
REMARK  status: ('A' for Active; 'I' for Inactive)
REMARK    1  A    between atoms: C2_2  and  C3_3 
REMARK    2  A    between atoms: C3_3  and  C4_4 
REMARK    3  A    between atoms: C4_4  and  N5_5 
REMARK    4  A    between atoms: N5_5  and  C7_7 
REMARK    5  A    between atoms: N5_5  and  C11_11 
REMARK    6  A    between atoms: C7_7  and  C8_8 
REMARK    7  A    between atoms: C8_8  and  C9_9 
REMARK    8  A    between atoms: C11_11  and  C12_12 
REMARK    9  A    between atoms: C12_12  and  O14_13 
REMARK   10  A    between atoms: C12_12  and  C15_14 
REMARK   11  A    between atoms: C30_29  and  C31_30 
ROOT
ATOM      1  C15 ZIN A   1      18.439  -2.677  10.989  0.00  0.00    -0.014 A 
ATOM      2  C16 ZIN A   1      18.145  -3.787  11.754  0.00  0.00     0.034 A 
ATOM      3  C17 ZIN A   1      17.819  -4.992  11.151  0.00  0.00     0.035 A 
ATOM      4 Cl18 ZIN A   1      17.451  -6.376  12.131  0.00  0.00    -0.084 Cl
ATOM      5  C19 ZIN A   1      17.785  -5.096   9.775  0.00  0.00     0.037 A 
ATOM      6  C20 ZIN A   1      18.081  -3.984   8.987  0.00  0.00    -0.012 A 
ATOM      7  C21 ZIN A   1      18.405  -2.761   9.598  0.00  0.00    -0.005 A 
ATOM      8  C22 ZIN A   1      18.671  -1.762   8.541  0.00  0.00    -0.013 A 
ATOM      9  C23 ZIN A   1      19.028  -0.415   8.601  0.00  0.00     0.015 A 
ATOM     10  C24 ZIN A   1      19.218   0.301   7.437  0.00  0.00     0.024 A 
ATOM     11  C25 ZIN A   1      19.056  -0.307   6.203  0.00  0.00     0.035 A 
ATOM     12 Cl26 ZIN A   1      19.299   0.611   4.749  0.00  0.00    -0.084 Cl
ATOM     13  C27 ZIN A   1      18.703  -1.641   6.122  0.00  0.00     0.037 A 
ATOM     14  C28 ZIN A   1      18.507  -2.378   7.288  0.00  0.00    -0.012 A 
ATOM     15  C29 ZIN A   1      18.128  -3.786   7.523  0.00  0.00    -0.013 A 
ATOM     16  C30 ZIN A   1      17.874  -4.723   6.572  0.00  0.00     0.024 C 
ENDROOT
BRANCH   1  17
ATOM     17  C12 ZIN A   1      18.792  -1.373  11.657  0.00  0.00     0.178 C 
BRANCH  17  18
ATOM     18  C11 ZIN A   1      18.153  -1.323  13.046  0.00  0.00     0.271 C 
BRANCH  18  19
ATOM     19  N5  ZIN A   1      17.419  -0.059  13.202  0.00  0.00    -0.068 N 
ATOM     20  H6  ZIN A   1      16.519  -0.242  13.618  0.00  0.00     0.280 HD
BRANCH  19  21
ATOM     21  C4  ZIN A   1      18.184   0.848  14.068  0.00  0.00     0.235 C 
BRANCH  21  22
ATOM     22  C3  ZIN A   1      18.877   0.040  15.167  0.00  0.00     0.027 C 
BRANCH  22  23
ATOM     23  C2  ZIN A   1      18.144   0.251  16.494  0.00  0.00    -0.003 C 
ATOM     24  C1  ZIN A   1      17.215  -0.935  16.758  0.00  0.00     0.005 C 
ENDBRANCH  22  23
ENDBRANCH  21  22
ENDBRANCH  19  21
BRANCH  19  25
ATOM     25  C7  ZIN A   1      17.232   0.564  11.885  0.00  0.00     0.235 C 
BRANCH  25  26
ATOM     26  C8  ZIN A   1      17.598   2.047  11.965  0.00  0.00     0.027 C 
BRANCH  26  27
ATOM     27  C9  ZIN A   1      17.725   2.619  10.552  0.00  0.00    -0.003 C 
ATOM     28  C10 ZIN A   1      19.202   2.845  10.224  0.00  0.00     0.005 C 
ENDBRANCH  26  27
ENDBRANCH  25  26
ENDBRANCH  19  25
ENDBRANCH  18  19
ENDBRANCH  17  18
BRANCH  17  29
ATOM     29  O14 ZIN A   1      20.212  -1.270  11.781  0.00  0.00    -0.389 OA
ATOM     30  H58 ZIN A   1      20.633  -2.058  12.152  0.00  0.00     0.210 HD
ENDBRANCH  17  29
ENDBRANCH   1  17
BRANCH  16  31
ATOM     31  C31 ZIN A   1      17.229  -5.991   6.945  0.00  0.00    -0.035 A 
ATOM     32  C37 ZIN A   1      15.851  -6.034   7.187  0.00  0.00     0.013 A 
ATOM     33  C36 ZIN A   1      15.253  -7.226   7.531  0.00  0.00     0.024 A 
ATOM     34  C34 ZIN A   1      16.013  -8.379   7.647  0.00  0.00     0.034 A 
ATOM     35  C33 ZIN A   1      17.378  -8.343   7.414  0.00  0.00     0.024 A 
ATOM     36 Cl35 ZIN A   1      15.252  -9.876   8.088  0.00  0.00    -0.084 Cl
ATOM     37  C32 ZIN A   1      17.990  -7.159   7.064  0.00  0.00     0.013 A 
ENDBRANCH  16  31
TORSDOF 11
ENDMDL
MODEL 8
REMARK VINA RESULT:      -7.7      4.131      9.644
REMARK  11 active torsions:
REMARK  status: ('A' for Active; 'I' for Inactive)
REMARK    1  A    between atoms: C2_2  and  C3_3 
REMARK    2  A    between atoms: C3_3  and  C4_4 
REMARK    3  A    between atoms: C4_4  and  N5_5 
REMARK    4  A    between atoms: N5_5  and  C7_7 
REMARK    5  A    between atoms: N5_5  and  C11_11 
REMARK    6  A    between atoms: C7_7  and  C8_8 
REMARK    7  A    between atoms: C8_8  and  C9_9 
REMARK    8  A    between atoms: C11_11  and  C12_12 
REMARK    9  A    between atoms: C12_12  and  O14_13 
REMARK   10  A    between atoms: C12_12  and  C15_14 
REMARK   11  A    between atoms: C30_29  and  C31_30 
ROOT
ATOM      1  C15 ZIN A   1      17.755   3.859  13.162  0.00  0.00    -0.014 A 
ATOM      2  C16 ZIN A   1      17.729   4.599  11.997  0.00  0.00     0.034 A 
ATOM      3  C17 ZIN A   1      17.774   3.970  10.762  0.00  0.00     0.035 A 
ATOM      4 Cl18 ZIN A   1      17.742   4.919   9.309  0.00  0.00    -0.084 Cl
ATOM      5  C19 ZIN A   1      17.845   2.594  10.682  0.00  0.00     0.037 A 
ATOM      6  C20 ZIN A   1      17.872   1.832  11.850  0.00  0.00    -0.012 A 
ATOM      7  C21 ZIN A   1      17.833   2.469  13.102  0.00  0.00    -0.005 A 
ATOM      8  C22 ZIN A   1      17.872   1.436  14.158  0.00  0.00    -0.013 A 
ATOM      9  C23 ZIN A   1      17.857   1.526  15.550  0.00  0.00     0.015 A 
ATOM     10  C24 ZIN A   1      17.906   0.379  16.316  0.00  0.00     0.024 A 
ATOM     11  C25 ZIN A   1      17.969  -0.867  15.714  0.00  0.00     0.035 A 
ATOM     12 Cl26 ZIN A   1      18.029  -2.298  16.695  0.00  0.00    -0.084 Cl
ATOM     13  C27 ZIN A   1      17.984  -0.977  14.336  0.00  0.00     0.037 A 
ATOM     14  C28 ZIN A   1      17.937   0.170  13.548  0.00  0.00    -0.012 A 
ATOM     15  C29 ZIN A   1      17.944   0.374  12.085  0.00  0.00    -0.013 A 
ATOM     16  C30 ZIN A   1      18.003  -0.596  11.135  0.00  0.00     0.024 C 
ENDROOT
BRANCH   1  17
ATOM     17  C12 ZIN A   1      17.706   4.555  14.497  0.00  0.00     0.178 C 
BRANCH  17  18
ATOM     18  C11 ZIN A   1      18.624   5.778  14.469  0.00  0.00     0.271 C 
BRANCH  18  19
ATOM     19  N5  ZIN A   1      18.999   6.140  15.843  0.00  0.00    -0.068 N 
ATOM     20  H6  ZIN A   1      19.970   6.413  15.866  0.00  0.00     0.280 HD
BRANCH  19  21
ATOM     21  C4  ZIN A   1      18.165   7.258  16.301  0.00  0.00     0.235 C 
BRANCH  21  22
ATOM     22  C3  ZIN A   1      17.832   8.166  15.115  0.00  0.00     0.027 C 
BRANCH  22  23
ATOM     23  C2  ZIN A   1      16.427   8.745  15.294  0.00  0.00    -0.003 C 
ATOM     24  C1  ZIN A   1      15.698   7.983  16.402  0.00  0.00     0.005 C 
ENDBRANCH  22  23
ENDBRANCH  21  22
ENDBRANCH  19  21
BRANCH  19  25
ATOM     25  C7  ZIN A   1      18.796   4.984  16.726  0.00  0.00     0.235 C 
BRANCH  25  26
ATOM     26  C8  ZIN A   1      17.862   5.376  17.872  0.00  0.00     0.027 C 
BRANCH  26  27
ATOM     27  C9  ZIN A   1      17.768   4.221  18.872  0.00  0.00    -0.003 C 
ATOM     28  C10 ZIN A   1      18.873   3.203  18.581  0.00  0.00     0.005 C 
ENDBRANCH  26  27
ENDBRANCH  25  26
ENDBRANCH  19  25
ENDBRANCH  18  19
ENDBRANCH  17  18
BRANCH  17  29
ATOM     29  O14 ZIN A   1      16.366   4.971  14.768  0.00  0.00    -0.389 OA
ATOM     30  H58 ZIN A   1      16.081   5.741  14.256  0.00  0.00     0.210 HD
ENDBRANCH  17  29
ENDBRANCH   1  17
BRANCH  16  31
ATOM     31  C31 ZIN A   1      18.295  -0.240   9.739  0.00  0.00    -0.035 A 
ATOM     32  C37 ZIN A   1      17.279  -0.282   8.776  0.00  0.00     0.013 A 
ATOM     33  C36 ZIN A   1      17.559   0.057   7.470  0.00  0.00     0.024 A 
ATOM     34  C34 ZIN A   1      18.843   0.431   7.108  0.00  0.00     0.034 A 
ATOM     35  C33 ZIN A   1      19.853   0.470   8.054  0.00  0.00     0.024 A 
ATOM     36 Cl35 ZIN A   1      19.187   0.850   5.459  0.00  0.00    -0.084 Cl
ATOM     37  C32 ZIN A   1      19.589   0.138   9.365  0.00  0.00     0.013 A 
ENDBRANCH  16  31
TORSDOF 11
ENDMDL
MODEL 9
REMARK VINA RESULT:      -7.6      4.341      9.978
REMARK  11 active torsions:
REMARK  status: ('A' for Active; 'I' for Inactive)
REMARK    1  A    between atoms: C2_2  and  C3_3 
REMARK    2  A    between atoms: C3_3  and  C4_4 
REMARK    3  A    between atoms: C4_4  and  N5_5 
REMARK    4  A    between atoms: N5_5  and  C7_7 
REMARK    5  A    between atoms: N5_5  and  C11_11 
REMARK    6  A    between atoms: C7_7  and  C8_8 
REMARK    7  A    between atoms: C8_8  and  C9_9 
REMARK    8  A    between atoms: C11_11  and  C12_12 
REMARK    9  A    between atoms: C12_12  and  O14_13 
REMARK   10  A    between atoms: C12_12  and  C15_14 
REMARK   11  A    between atoms: C30_29  and  C31_30 
ROOT
ATOM      1  C15 ZIN A   1      18.150   4.075  13.956  0.00  0.00    -0.014 A 
ATOM      2  C16 ZIN A   1      17.872   4.783  12.805  0.00  0.00     0.034 A 
ATOM      3  C17 ZIN A   1      17.765   4.131  11.586  0.00  0.00     0.035 A 
ATOM      4 Cl18 ZIN A   1      17.416   5.040  10.149  0.00  0.00    -0.084 Cl
ATOM      5  C19 ZIN A   1      17.936   2.763  11.509  0.00  0.00     0.037 A 
ATOM      6  C20 ZIN A   1      18.217   2.033  12.663  0.00  0.00    -0.012 A 
ATOM      7  C21 ZIN A   1      18.331   2.694  13.898  0.00  0.00    -0.005 A 
ATOM      8  C22 ZIN A   1      18.629   1.692  14.943  0.00  0.00    -0.013 A 
ATOM      9  C23 ZIN A   1      18.835   1.813  16.317  0.00  0.00     0.015 A 
ATOM     10  C24 ZIN A   1      19.103   0.692  17.076  0.00  0.00     0.024 A 
ATOM     11  C25 ZIN A   1      19.170  -0.559  16.483  0.00  0.00     0.035 A 
ATOM     12 Cl26 ZIN A   1      19.509  -1.958  17.454  0.00  0.00    -0.084 Cl
ATOM     13  C27 ZIN A   1      18.968  -0.700  15.124  0.00  0.00     0.037 A 
ATOM     14  C28 ZIN A   1      18.697   0.422  14.343  0.00  0.00    -0.012 A 
ATOM     15  C29 ZIN A   1      18.447   0.592  12.897  0.00  0.00    -0.013 A 
ATOM     16  C30 ZIN A   1      18.429  -0.392  11.960  0.00  0.00     0.024 C 
ENDROOT
BRANCH   1  17
ATOM     17  C12 ZIN A   1      18.263   4.795  15.275  0.00  0.00     0.178 C 
BRANCH  17  18
ATOM     18  C11 ZIN A   1      18.318   6.304  15.028  0.00  0.00     0.271 C 
BRANCH  18  19
ATOM     19  N5  ZIN A   1      17.199   6.954  15.723  0.00  0.00    -0.068 N 
ATOM     20  H6  ZIN A   1      16.603   6.251  16.134  0.00  0.00     0.280 HD
BRANCH  19  21
ATOM     21  C4  ZIN A   1      17.720   7.832  16.779  0.00  0.00     0.235 C 
BRANCH  21  22
ATOM     22  C3  ZIN A   1      17.467   7.193  18.145  0.00  0.00     0.027 C 
BRANCH  22  23
ATOM     23  C2  ZIN A   1      15.985   7.330  18.506  0.00  0.00    -0.003 C 
ATOM     24  C1  ZIN A   1      15.384   5.941  18.728  0.00  0.00     0.005 C 
ENDBRANCH  22  23
ENDBRANCH  21  22
ENDBRANCH  19  21
BRANCH  19  25
ATOM     25  C7  ZIN A   1      16.423   7.751  14.763  0.00  0.00     0.235 C 
BRANCH  25  26
ATOM     26  C8  ZIN A   1      14.935   7.651  15.101  0.00  0.00     0.027 C 
BRANCH  26  27
ATOM     27  C9  ZIN A   1      14.445   6.226  14.833  0.00  0.00    -0.003 C 
ATOM     28  C10 ZIN A   1      12.919   6.184  14.931  0.00  0.00     0.005 C 
ENDBRANCH  26  27
ENDBRANCH  25  26
ENDBRANCH  19  25
ENDBRANCH  18  19
ENDBRANCH  17  18
BRANCH  17  29
ATOM     29  O14 ZIN A   1      17.127   4.486  16.085  0.00  0.00    -0.389 OA
ATOM     30  H58 ZIN A   1      17.191   4.813  16.994  0.00  0.00     0.210 HD
ENDBRANCH  17  29
ENDBRANCH   1  17
BRANCH  16  31
ATOM     31  C31 ZIN A   1      18.457  -0.046  10.532  0.00  0.00    -0.035 A 
ATOM     32  C37 ZIN A   1      17.295  -0.160   9.758  0.00  0.00     0.013 A 
ATOM     33  C36 ZIN A   1      17.328   0.170   8.421  0.00  0.00     0.024 A 
ATOM     34  C34 ZIN A   1      18.508   0.605   7.839  0.00  0.00     0.034 A 
ATOM     35  C33 ZIN A   1      19.662   0.715   8.597  0.00  0.00     0.024 A 
ATOM     36 Cl35 ZIN A   1      18.541   1.011   6.152  0.00  0.00    -0.084 Cl
ATOM     37  C32 ZIN A   1      19.645   0.393   9.937  0.00  0.00     0.013 A 
ENDBRANCH  16  31
TORSDOF 11
ENDMDL
