MODEL 1
REMARK VINA RESULT:      -6.0      0.000      0.000
REMARK  5 active torsions:
REMARK  status: ('A' for Active; 'I' for Inactive)
REMARK    1  A    between atoms: C2_2  and  C3_3 
REMARK    2  A    between atoms: C3_3  and  C4_4 
REMARK    3  A    between atoms: C4_4  and  C5_5 
REMARK    4  A    between atoms: C5_5  and  C8_7 
REMARK    5  A    between atoms: C8_7  and  C9_8 
ROOT
ATOM      1  C4  ZIN A   1      18.369   1.796  11.206  0.00  0.00     0.129 A 
ATOM      2  C11 ZIN A   1      19.558   2.365  11.954  0.00  0.00     0.244 A 
ATOM      3  O12 ZIN A   1      20.405   3.019  11.385  0.00  0.00    -0.272 OA
ATOM      4  N13 ZIN A   1      19.640   2.115  13.278  0.00  0.00    -0.278 N 
ATOM      5  C14 ZIN A   1      18.714   1.396  13.922  0.00  0.00     0.329 A 
ATOM      6  O15 ZIN A   1      18.866   1.219  15.115  0.00  0.00    -0.247 OA
ATOM      7  N16 ZIN A   1      17.634   0.854  13.349  0.00  0.00    -0.278 N 
ATOM      8  C17 ZIN A   1      17.378   0.995  12.030  0.00  0.00     0.244 A 
ATOM      9  O18 ZIN A   1      16.395   0.499  11.524  0.00  0.00    -0.272 OA
ATOM     10  H34 ZIN A   1      20.392   2.469  13.779  0.00  0.00     0.173 HD
ATOM     11  H35 ZIN A   1      17.015   0.347  13.896  0.00  0.00     0.173 HD
ENDROOT
BRANCH   1  12
ATOM     12  C3  ZIN A   1      17.615   2.958  10.555  0.00  0.00     0.056 C 
BRANCH  12  13
ATOM     13  C2  ZIN A   1      17.229   3.961  11.611  0.00  0.00    -0.035 C 
ATOM     14  C1  ZIN A   1      16.770   5.137  11.261  0.00  0.00     0.007 C 
ENDBRANCH  12  13
ENDBRANCH   1  12
BRANCH   1  15
ATOM     15  C5  ZIN A   1      18.900   0.894  10.090  0.00  0.00     0.009 C 
ATOM     16  C7  ZIN A   1      20.100   0.097  10.607  0.00  0.00     0.011 C 
BRANCH  15  17
ATOM     17  C8  ZIN A   1      19.332   1.753   8.901  0.00  0.00     0.005 C 
BRANCH  17  18
ATOM     18  C9  ZIN A   1      18.888   1.083   7.599  0.00  0.00    -0.004 C 
ATOM     19  C10 ZIN A   1      17.689   0.174   7.876  0.00  0.00     0.005 C 
ENDBRANCH  17  18
ENDBRANCH  15  17
ENDBRANCH   1  15
TORSDOF 5
ENDMDL
MODEL 2
REMARK VINA RESULT:      -5.9      2.811      4.757
REMARK  5 active torsions:
REMARK  status: ('A' for Active; 'I' for Inactive)
REMARK    1  A    between atoms: C2_2  and  C3_3 
REMARK    2  A    between atoms: C3_3  and  C4_4 
REMARK    3  A    between atoms: C4_4  and  C5_5 
REMARK    4  A    between atoms: C5_5  and  C8_7 
REMARK    5  A    between atoms: C8_7  and  C9_8 
ROOT
ATOM      1  C4  ZIN A   1      19.085  -0.961  12.219  0.00  0.00     0.129 A 
ATOM      2  C11 ZIN A   1      17.611  -0.983  11.866  0.00  0.00     0.244 A 
ATOM      3  O12 ZIN A   1      16.988  -2.023  11.833  0.00  0.00    -0.272 OA
ATOM      4  N13 ZIN A   1      17.017   0.197  11.590  0.00  0.00    -0.278 N 
ATOM      5  C14 ZIN A   1      17.689   1.353  11.622  0.00  0.00     0.329 A 
ATOM      6  O15 ZIN A   1      17.077   2.369  11.360  0.00  0.00    -0.247 OA
ATOM      7  N16 ZIN A   1      18.988   1.472  11.921  0.00  0.00    -0.278 N 
ATOM      8  C17 ZIN A   1      19.753   0.401  12.226  0.00  0.00     0.244 A 
ATOM      9  O18 ZIN A   1      20.928   0.524  12.496  0.00  0.00    -0.272 OA
ATOM     10  H34 ZIN A   1      16.074   0.208  11.361  0.00  0.00     0.173 HD
ATOM     11  H35 ZIN A   1      19.393   2.353  11.920  0.00  0.00     0.173 HD
ENDROOT
BRANCH   1  12
ATOM     12  C3  ZIN A   1      19.252  -1.580  13.609  0.00  0.00     0.056 C 
BRANCH  12  13
ATOM     13  C2  ZIN A   1      18.502  -0.753  14.621  0.00  0.00    -0.035 C 
ATOM     14  C1  ZIN A   1      18.255  -1.239  15.811  0.00  0.00     0.007 C 
ENDBRANCH  12  13
ENDBRANCH   1  12
BRANCH   1  15
ATOM     15  C5  ZIN A   1      19.825  -1.848  11.216  0.00  0.00     0.009 C 
ATOM     16  C7  ZIN A   1      19.125  -1.773   9.857  0.00  0.00     0.011 C 
BRANCH  15  17
ATOM     17  C8  ZIN A   1      19.819  -3.295  11.712  0.00  0.00     0.005 C 
BRANCH  17  18
ATOM     18  C9  ZIN A   1      19.425  -4.227  10.564  0.00  0.00    -0.004 C 
ATOM     19  C10 ZIN A   1      18.285  -5.140  11.017  0.00  0.00     0.005 C 
ENDBRANCH  17  18
ENDBRANCH  15  17
ENDBRANCH   1  15
TORSDOF 5
ENDMDL
MODEL 3
REMARK VINA RESULT:      -5.9      2.174      4.319
REMARK  5 active torsions:
REMARK  status: ('A' for Active; 'I' for Inactive)
REMARK    1  A    between atoms: C2_2  and  C3_3 
REMARK    2  A    between atoms: C3_3  and  C4_4 
REMARK    3  A    between atoms: C4_4  and  C5_5 
REMARK    4  A    between atoms: C5_5  and  C8_7 
REMARK    5  A    between atoms: C8_7  and  C9_8 
ROOT
ATOM      1  C4  ZIN A   1      18.472  -0.438  11.070  0.00  0.00     0.129 A 
ATOM      2  C11 ZIN A   1      19.854   0.181  10.990  0.00  0.00     0.244 A 
ATOM      3  O12 ZIN A   1      20.828  -0.490  10.724  0.00  0.00    -0.272 OA
ATOM      4  N13 ZIN A   1      19.960   1.505  11.227  0.00  0.00    -0.278 N 
ATOM      5  C14 ZIN A   1      18.895   2.260  11.521  0.00  0.00     0.329 A 
ATOM      6  O15 ZIN A   1      19.080   3.444  11.720  0.00  0.00    -0.247 OA
ATOM      7  N16 ZIN A   1      17.640   1.805  11.615  0.00  0.00    -0.278 N 
ATOM      8  C17 ZIN A   1      17.333   0.506  11.412  0.00  0.00     0.244 A 
ATOM      9  O18 ZIN A   1      16.192   0.107  11.500  0.00  0.00    -0.272 OA
ATOM     10  H34 ZIN A   1      20.834   1.924  11.181  0.00  0.00     0.173 HD
ATOM     11  H35 ZIN A   1      16.929   2.427  11.834  0.00  0.00     0.173 HD
ENDROOT
BRANCH   1  12
ATOM     12  C3  ZIN A   1      18.162  -1.088   9.720  0.00  0.00     0.056 C 
BRANCH  12  13
ATOM     13  C2  ZIN A   1      18.077  -0.023   8.657  0.00  0.00    -0.035 C 
ATOM     14  C1  ZIN A   1      17.258  -0.170   7.646  0.00  0.00     0.007 C 
ENDBRANCH  12  13
ENDBRANCH   1  12
BRANCH   1  15
ATOM     15  C5  ZIN A   1      18.509  -1.542  12.129  0.00  0.00     0.009 C 
ATOM     16  C7  ZIN A   1      17.542  -2.660  11.732  0.00  0.00     0.011 C 
BRANCH  15  17
ATOM     17  C8  ZIN A   1      18.093  -0.965  13.483  0.00  0.00     0.005 C 
BRANCH  17  18
ATOM     18  C9  ZIN A   1      19.177  -1.264  14.520  0.00  0.00    -0.004 C 
ATOM     19  C10 ZIN A   1      18.539  -1.383  15.905  0.00  0.00     0.005 C 
ENDBRANCH  17  18
ENDBRANCH  15  17
ENDBRANCH   1  15
TORSDOF 5
ENDMDL
MODEL 4
REMARK VINA RESULT:      -5.9      2.270      3.873
REMARK  5 active torsions:
REMARK  status: ('A' for Active; 'I' for Inactive)
REMARK    1  A    between atoms: C2_2  and  C3_3 
REMARK    2  A    between atoms: C3_3  and  C4_4 
REMARK    3  A    between atoms: C4_4  and  C5_5 
REMARK    4  A    between atoms: C5_5  and  C8_7 
REMARK    5  A    between atoms: C8_7  and  C9_8 
ROOT
ATOM      1  C4  ZIN A   1      18.539   0.455  11.956  0.00  0.00     0.129 A 
ATOM      2  C11 ZIN A   1      19.913  -0.098  11.634  0.00  0.00     0.244 A 
ATOM      3  O12 ZIN A   1      20.918   0.414  12.080  0.00  0.00    -0.272 OA
ATOM      4  N13 ZIN A   1      19.977  -1.182  10.832  0.00  0.00    -0.278 N 
ATOM      5  C14 ZIN A   1      18.879  -1.760  10.333  0.00  0.00     0.329 A 
ATOM      6  O15 ZIN A   1      19.029  -2.733   9.620  0.00  0.00    -0.247 OA
ATOM      7  N16 ZIN A   1      17.628  -1.345  10.559  0.00  0.00    -0.278 N 
ATOM      8  C17 ZIN A   1      17.360  -0.274  11.338  0.00  0.00     0.244 A 
ATOM      9  O18 ZIN A   1      16.222   0.091  11.535  0.00  0.00    -0.272 OA
ATOM     10  H34 ZIN A   1      20.846  -1.554  10.613  0.00  0.00     0.173 HD
ATOM     11  H35 ZIN A   1      16.891  -1.827  10.154  0.00  0.00     0.173 HD
ENDROOT
BRANCH   1  12
ATOM     12  C3  ZIN A   1      18.363   0.440  13.476  0.00  0.00     0.056 C 
BRANCH  12  13
ATOM     13  C2  ZIN A   1      18.413  -0.982  13.974  0.00  0.00    -0.035 C 
ATOM     14  C1  ZIN A   1      18.888  -1.242  15.166  0.00  0.00     0.007 C 
ENDBRANCH  12  13
ENDBRANCH   1  12
BRANCH   1  15
ATOM     15  C5  ZIN A   1      18.495   1.912  11.490  0.00  0.00     0.009 C 
ATOM     16  C7  ZIN A   1      17.645   2.732  12.463  0.00  0.00     0.011 C 
BRANCH  15  17
ATOM     17  C8  ZIN A   1      17.879   1.981  10.091  0.00  0.00     0.005 C 
BRANCH  17  18
ATOM     18  C9  ZIN A   1      18.944   2.425   9.087  0.00  0.00    -0.004 C 
ATOM     19  C10 ZIN A   1      19.260   1.271   8.134  0.00  0.00     0.005 C 
ENDBRANCH  17  18
ENDBRANCH  15  17
ENDBRANCH   1  15
TORSDOF 5
ENDMDL
MODEL 5
REMARK VINA RESULT:      -5.9      2.302      5.322
REMARK  5 active torsions:
REMARK  status: ('A' for Active; 'I' for Inactive)
REMARK    1  A    between atoms: C2_2  and  C3_3 
REMARK    2  A    between atoms: C3_3  and  C4_4 
REMARK    3  A    between atoms: C4_4  and  C5_5 
REMARK    4  A    between atoms: C5_5  and  C8_7 
REMARK    5  A    between atoms: C8_7  and  C9_8 
ROOT
ATOM      1  C4  ZIN A   1      18.192   0.008  12.791  0.00  0.00     0.129 A 
ATOM      2  C11 ZIN A   1      19.612   0.527  12.684  0.00  0.00     0.244 A 
ATOM      3  O12 ZIN A   1      20.443   0.264  13.527  0.00  0.00    -0.272 OA
ATOM      4  N13 ZIN A   1      19.918   1.293  11.615  0.00  0.00    -0.278 N 
ATOM      5  C14 ZIN A   1      19.014   1.592  10.675  0.00  0.00     0.329 A 
ATOM      6  O15 ZIN A   1      19.375   2.288   9.747  0.00  0.00    -0.247 OA
ATOM      7  N16 ZIN A   1      17.740   1.183  10.685  0.00  0.00    -0.278 N 
ATOM      8  C17 ZIN A   1      17.246   0.407  11.673  0.00  0.00     0.244 A 
ATOM      9  O18 ZIN A   1      16.090   0.043  11.669  0.00  0.00    -0.272 OA
ATOM     10  H34 ZIN A   1      20.821   1.636  11.525  0.00  0.00     0.173 HD
ATOM     11  H35 ZIN A   1      17.155   1.450   9.959  0.00  0.00     0.173 HD
ENDROOT
BRANCH   1  12
ATOM     12  C3  ZIN A   1      18.245  -1.520  12.847  0.00  0.00     0.056 C 
BRANCH  12  13
ATOM     13  C2  ZIN A   1      18.947  -2.043  11.620  0.00  0.00    -0.035 C 
ATOM     14  C1  ZIN A   1      19.745  -3.077  11.713  0.00  0.00     0.007 C 
ENDBRANCH  12  13
ENDBRANCH   1  12
BRANCH   1  15
ATOM     15  C5  ZIN A   1      17.605   0.509  14.112  0.00  0.00     0.009 C 
ATOM     16  C7  ZIN A   1      18.046   1.955  14.350  0.00  0.00     0.011 C 
BRANCH  15  17
ATOM     17  C8  ZIN A   1      18.104  -0.372  15.259  0.00  0.00     0.005 C 
BRANCH  17  18
ATOM     18  C9  ZIN A   1      17.162  -0.234  16.456  0.00  0.00    -0.004 C 
ATOM     19  C10 ZIN A   1      17.970   0.128  17.703  0.00  0.00     0.005 C 
ENDBRANCH  17  18
ENDBRANCH  15  17
ENDBRANCH   1  15
TORSDOF 5
ENDMDL
MODEL 6
REMARK VINA RESULT:      -5.9      2.138      4.092
REMARK  5 active torsions:
REMARK  status: ('A' for Active; 'I' for Inactive)
REMARK    1  A    between atoms: C2_2  and  C3_3 
REMARK    2  A    between atoms: C3_3  and  C4_4 
REMARK    3  A    between atoms: C4_4  and  C5_5 
REMARK    4  A    between atoms: C5_5  and  C8_7 
REMARK    5  A    between atoms: C8_7  and  C9_8 
ROOT
ATOM      1  C4  ZIN A   1      18.225  -0.249  10.578  0.00  0.00     0.129 A 
ATOM      2  C11 ZIN A   1      17.427   0.050  11.833  0.00  0.00     0.244 A 
ATOM      3  O12 ZIN A   1      16.215   0.078  11.815  0.00  0.00    -0.272 OA
ATOM      4  N13 ZIN A   1      18.116   0.285  12.969  0.00  0.00    -0.278 N 
ATOM      5  C14 ZIN A   1      19.453   0.258  13.006  0.00  0.00     0.329 A 
ATOM      6  O15 ZIN A   1      19.992   0.481  14.072  0.00  0.00    -0.247 OA
ATOM      7  N16 ZIN A   1      20.240   0.005  11.955  0.00  0.00    -0.278 N 
ATOM      8  C17 ZIN A   1      19.735  -0.254  10.729  0.00  0.00     0.244 A 
ATOM      9  O18 ZIN A   1      20.460  -0.483   9.786  0.00  0.00    -0.272 OA
ATOM     10  H34 ZIN A   1      17.627   0.478  13.784  0.00  0.00     0.173 HD
ATOM     11  H35 ZIN A   1      21.202   0.006  12.076  0.00  0.00     0.173 HD
ENDROOT
BRANCH   1  12
ATOM     12  C3  ZIN A   1      17.794  -1.621  10.055  0.00  0.00     0.056 C 
BRANCH  12  13
ATOM     13  C2  ZIN A   1      18.114  -2.674  11.084  0.00  0.00    -0.035 C 
ATOM     14  C1  ZIN A   1      17.282  -3.665  11.288  0.00  0.00     0.007 C 
ENDBRANCH  12  13
ENDBRANCH   1  12
BRANCH   1  15
ATOM     15  C5  ZIN A   1      17.856   0.796   9.523  0.00  0.00     0.009 C 
ATOM     16  C7  ZIN A   1      17.767   0.124   8.151  0.00  0.00     0.011 C 
BRANCH  15  17
ATOM     17  C8  ZIN A   1      18.928   1.886   9.488  0.00  0.00     0.005 C 
BRANCH  17  18
ATOM     18  C9  ZIN A   1      18.351   3.187  10.050  0.00  0.00    -0.004 C 
ATOM     19  C10 ZIN A   1      19.085   3.556  11.340  0.00  0.00     0.005 C 
ENDBRANCH  17  18
ENDBRANCH  15  17
ENDBRANCH   1  15
TORSDOF 5
ENDMDL
MODEL 7
REMARK VINA RESULT:      -5.8      2.126      4.649
REMARK  5 active torsions:
REMARK  status: ('A' for Active; 'I' for Inactive)
REMARK    1  A    between atoms: C2_2  and  C3_3 
REMARK    2  A    between atoms: C3_3  and  C4_4 
REMARK    3  A    between atoms: C4_4  and  C5_5 
REMARK    4  A    between atoms: C5_5  and  C8_7 
REMARK    5  A    between atoms: C8_7  and  C9_8 
ROOT
ATOM      1  C4  ZIN A   1      18.269   0.747  11.916  0.00  0.00     0.129 A 
ATOM      2  C11 ZIN A   1      17.188  -0.298  11.722  0.00  0.00     0.244 A 
ATOM      3  O12 ZIN A   1      16.021   0.015  11.623  0.00  0.00    -0.272 OA
ATOM      4  N13 ZIN A   1      17.573  -1.590  11.663  0.00  0.00    -0.278 N 
ATOM      5  C14 ZIN A   1      18.856  -1.953  11.770  0.00  0.00     0.329 A 
ATOM      6  O15 ZIN A   1      19.114  -3.139  11.706  0.00  0.00    -0.247 OA
ATOM      7  N16 ZIN A   1      19.877  -1.106  11.943  0.00  0.00    -0.278 N 
ATOM      8  C17 ZIN A   1      19.691   0.229  12.026  0.00  0.00     0.244 A 
ATOM      9  O18 ZIN A   1      20.625   0.986  12.183  0.00  0.00    -0.272 OA
ATOM     10  H34 ZIN A   1      16.899  -2.277  11.539  0.00  0.00     0.173 HD
ATOM     11  H35 ZIN A   1      20.777  -1.460  12.011  0.00  0.00     0.173 HD
ENDROOT
BRANCH   1  12
ATOM     12  C3  ZIN A   1      18.208   1.722  10.737  0.00  0.00     0.056 C 
BRANCH  12  13
ATOM     13  C2  ZIN A   1      18.604   1.005   9.472  0.00  0.00    -0.035 C 
ATOM     14  C1  ZIN A   1      19.204   1.659   8.509  0.00  0.00     0.007 C 
ENDBRANCH  12  13
ENDBRANCH   1  12
BRANCH   1  15
ATOM     15  C5  ZIN A   1      17.948   1.529  13.191  0.00  0.00     0.009 C 
ATOM     16  C7  ZIN A   1      18.338   2.996  13.002  0.00  0.00     0.011 C 
BRANCH  15  17
ATOM     17  C8  ZIN A   1      18.735   0.939  14.363  0.00  0.00     0.005 C 
BRANCH  17  18
ATOM     18  C9  ZIN A   1      17.798   0.102  15.237  0.00  0.00    -0.004 C 
ATOM     19  C10 ZIN A   1      18.405  -1.286  15.450  0.00  0.00     0.005 C 
ENDBRANCH  17  18
ENDBRANCH  15  17
ENDBRANCH   1  15
TORSDOF 5
ENDMDL
MODEL 8
REMARK VINA RESULT:      -5.8      2.061      3.832
REMARK  5 active torsions:
REMARK  status: ('A' for Active; 'I' for Inactive)
REMARK    1  A    between atoms: C2_2  and  C3_3 
REMARK    2  A    between atoms: C3_3  and  C4_4 
REMARK    3  A    between atoms: C4_4  and  C5_5 
REMARK    4  A    between atoms: C5_5  and  C8_7 
REMARK    5  A    between atoms: C8_7  and  C9_8 
ROOT
ATOM      1  C4  ZIN A   1      18.433  -0.547  11.176  0.00  0.00     0.129 A 
ATOM      2  C11 ZIN A   1      17.330   0.469  11.401  0.00  0.00     0.244 A 
ATOM      3  O12 ZIN A   1      16.164   0.136  11.431  0.00  0.00    -0.272 OA
ATOM      4  N13 ZIN A   1      17.694   1.758  11.567  0.00  0.00    -0.278 N 
ATOM      5  C14 ZIN A   1      18.975   2.143  11.538  0.00  0.00     0.329 A 
ATOM      6  O15 ZIN A   1      19.213   3.323  11.696  0.00  0.00    -0.247 OA
ATOM      7  N16 ZIN A   1      20.013   1.322  11.345  0.00  0.00    -0.278 N 
ATOM      8  C17 ZIN A   1      19.850  -0.006  11.159  0.00  0.00     0.244 A 
ATOM      9  O18 ZIN A   1      20.800  -0.738  10.986  0.00  0.00    -0.272 OA
ATOM     10  H34 ZIN A   1      17.006   2.426  11.713  0.00  0.00     0.173 HD
ATOM     11  H35 ZIN A   1      20.910   1.691  11.339  0.00  0.00     0.173 HD
ENDROOT
BRANCH   1  12
ATOM     12  C3  ZIN A   1      18.340  -1.604  12.278  0.00  0.00     0.056 C 
BRANCH  12  13
ATOM     13  C2  ZIN A   1      18.483  -0.941  13.623  0.00  0.00    -0.035 C 
ATOM     14  C1  ZIN A   1      19.408  -1.345  14.458  0.00  0.00     0.007 C 
ENDBRANCH  12  13
ENDBRANCH   1  12
BRANCH   1  15
ATOM     15  C5  ZIN A   1      18.172  -1.238   9.836  0.00  0.00     0.009 C 
ATOM     16  C7  ZIN A   1      18.428  -2.740   9.979  0.00  0.00     0.011 C 
BRANCH  15  17
ATOM     17  C8  ZIN A   1      19.109  -0.660   8.773  0.00  0.00     0.005 C 
BRANCH  17  18
ATOM     18  C9  ZIN A   1      18.337   0.325   7.893  0.00  0.00    -0.004 C 
ATOM     19  C10 ZIN A   1      19.092   1.654   7.832  0.00  0.00     0.005 C 
ENDBRANCH  17  18
ENDBRANCH  15  17
ENDBRANCH   1  15
TORSDOF 5
ENDMDL
MODEL 9
REMARK VINA RESULT:      -5.7      2.575      4.666
REMARK  5 active torsions:
REMARK  status: ('A' for Active; 'I' for Inactive)
REMARK    1  A    between atoms: C2_2  and  C3_3 
REMARK    2  A    between atoms: C3_3  and  C4_4 
REMARK    3  A    between atoms: C4_4  and  C5_5 
REMARK    4  A    between atoms: C5_5  and  C8_7 
REMARK    5  A    between atoms: C8_7  and  C9_8 
ROOT
ATOM      1  C4  ZIN A   1      18.378   0.096  10.413  0.00  0.00     0.129 A 
ATOM      2  C11 ZIN A   1      17.272  -0.621  11.163  0.00  0.00     0.244 A 
ATOM      3  O12 ZIN A   1      16.295  -0.024  11.564  0.00  0.00    -0.272 OA
ATOM      4  N13 ZIN A   1      17.416  -1.947  11.368  0.00  0.00    -0.278 N 
ATOM      5  C14 ZIN A   1      18.486  -2.620  10.932  0.00  0.00     0.329 A 
ATOM      6  O15 ZIN A   1      18.534  -3.812  11.160  0.00  0.00    -0.247 OA
ATOM      7  N16 ZIN A   1      19.510  -2.075  10.264  0.00  0.00    -0.278 N 
ATOM      8  C17 ZIN A   1      19.548  -0.759   9.963  0.00  0.00     0.244 A 
ATOM      9  O18 ZIN A   1      20.481  -0.279   9.357  0.00  0.00    -0.272 OA
ATOM     10  H34 ZIN A   1      16.721  -2.427  11.846  0.00  0.00     0.173 HD
ATOM     11  H35 ZIN A   1      20.246  -2.642   9.987  0.00  0.00     0.173 HD
ENDROOT
BRANCH   1  12
ATOM     12  C3  ZIN A   1      17.765   0.754   9.174  0.00  0.00     0.056 C 
BRANCH  12  13
ATOM     13  C2  ZIN A   1      17.293  -0.313   8.221  0.00  0.00    -0.035 C 
ATOM     14  C1  ZIN A   1      17.366  -0.117   6.929  0.00  0.00     0.007 C 
ENDBRANCH  12  13
ENDBRANCH   1  12
BRANCH   1  15
ATOM     15  C5  ZIN A   1      18.920   1.206  11.317  0.00  0.00     0.009 C 
ATOM     16  C7  ZIN A   1      19.219   2.448  10.475  0.00  0.00     0.011 C 
BRANCH  15  17
ATOM     17  C8  ZIN A   1      20.205   0.729  11.996  0.00  0.00     0.005 C 
BRANCH  17  18
ATOM     18  C9  ZIN A   1      19.912   0.386  13.458  0.00  0.00    -0.004 C 
ATOM     19  C10 ZIN A   1      18.843   1.336  14.001  0.00  0.00     0.005 C 
ENDBRANCH  17  18
ENDBRANCH  15  17
ENDBRANCH   1  15
TORSDOF 5
ENDMDL
