MODEL 1
REMARK VINA RESULT:      -8.5      0.000      0.000
REMARK  2 active torsions:
REMARK  status: ('A' for Active; 'I' for Inactive)
REMARK    1  A    between atoms: C3_3  and  O4_4 
REMARK    2  A    between atoms: C25_21  and  C26_22 
ROOT
ATOM      1  C1  ZIN A   1      20.267  -4.112  11.468  0.00  0.00     0.015 C 
ATOM      2  C2  ZIN A   1      20.001  -3.000  11.204  0.00  0.00    -0.078 C 
ATOM      3  C3  ZIN A   1      19.667  -1.605  10.872  0.00  0.00     0.128 C 
ATOM      4  C5  ZIN A   1      20.920  -0.717  10.996  0.00  0.00     0.052 C 
ATOM      5  C6  ZIN A   1      20.589   0.369  12.045  0.00  0.00     0.010 C 
ATOM      6  C7  ZIN A   1      19.050   0.427  12.028  0.00  0.00     0.002 C 
ATOM      7  C9  ZIN A   1      18.484   1.093  13.260  0.00  0.00    -0.005 C 
ATOM      8  C11 ZIN A   1      19.089   2.493  13.416  0.00  0.00     0.010 C 
ATOM      9  C12 ZIN A   1      18.379   3.228  14.553  0.00  0.00     0.035 C 
ATOM     10  C13 ZIN A   1      18.472   2.382  15.810  0.00  0.00    -0.072 C 
ATOM     11  C14 ZIN A   1      18.889   2.974  16.929  0.00  0.00     0.053 C 
ATOM     12  C15 ZIN A   1      18.982   2.205  18.174  0.00  0.00     0.149 C 
ATOM     13  O16 ZIN A   1      19.689   2.562  19.094  0.00  0.00    -0.293 OA
ATOM     14  C17 ZIN A   1      18.146   0.942  18.252  0.00  0.00     0.084 C 
ATOM     15  C18 ZIN A   1      18.412   0.139  16.981  0.00  0.00     0.017 C 
ATOM     16  C19 ZIN A   1      18.082   0.938  15.732  0.00  0.00     0.019 C 
ATOM     17  C21 ZIN A   1      18.773   0.288  14.524  0.00  0.00    -0.002 C 
ATOM     18  C23 ZIN A   1      18.194  -1.119  14.331  0.00  0.00     0.006 C 
ATOM     19  C24 ZIN A   1      18.922  -1.796  13.174  0.00  0.00     0.014 C 
ATOM     20  C25 ZIN A   1      18.636  -1.047  11.890  0.00  0.00     0.006 C 
ENDROOT
BRANCH   3  21
ATOM     21  O4  ZIN A   1      19.140  -1.529   9.547  0.00  0.00    -0.377 OA
ATOM     22  H29 ZIN A   1      18.287  -1.078   9.487  0.00  0.00     0.211 HD
ENDBRANCH   3  21
BRANCH  20  23
ATOM     23  C26 ZIN A   1      17.191  -1.243  11.425  0.00  0.00     0.009 C 
ATOM     24  C27 ZIN A   1      16.650   0.078  10.871  0.00  0.00     0.006 C 
ENDBRANCH  20  23
TORSDOF 2
ENDMDL
MODEL 2
REMARK VINA RESULT:      -8.2      2.497      7.169
REMARK  2 active torsions:
REMARK  status: ('A' for Active; 'I' for Inactive)
REMARK    1  A    between atoms: C3_3  and  O4_4 
REMARK    2  A    between atoms: C25_21  and  C26_22 
ROOT
ATOM      1  C1  ZIN A   1      20.756   5.865  15.337  0.00  0.00     0.015 C 
ATOM      2  C2  ZIN A   1      19.909   5.056  15.423  0.00  0.00    -0.078 C 
ATOM      3  C3  ZIN A   1      18.847   4.043  15.531  0.00  0.00     0.128 C 
ATOM      4  C5  ZIN A   1      19.462   2.660  15.814  0.00  0.00     0.052 C 
ATOM      5  C6  ZIN A   1      19.023   1.736  14.654  0.00  0.00     0.010 C 
ATOM      6  C7  ZIN A   1      17.752   2.418  14.114  0.00  0.00     0.002 C 
ATOM      7  C9  ZIN A   1      17.391   1.948  12.725  0.00  0.00    -0.005 C 
ATOM      8  C11 ZIN A   1      17.247   0.423  12.716  0.00  0.00     0.010 C 
ATOM      9  C12 ZIN A   1      16.704  -0.026  11.358  0.00  0.00     0.035 C 
ATOM     10  C13 ZIN A   1      17.619   0.504  10.270  0.00  0.00    -0.072 C 
ATOM     11  C14 ZIN A   1      18.046  -0.353   9.343  0.00  0.00     0.053 C 
ATOM     12  C15 ZIN A   1      18.920   0.112   8.261  0.00  0.00     0.149 C 
ATOM     13  O16 ZIN A   1      19.627  -0.653   7.638  0.00  0.00    -0.293 OA
ATOM     14  C17 ZIN A   1      18.893   1.598   7.962  0.00  0.00     0.084 C 
ATOM     15  C18 ZIN A   1      19.065   2.335   9.289  0.00  0.00     0.017 C 
ATOM     16  C19 ZIN A   1      17.985   1.956  10.287  0.00  0.00     0.019 C 
ATOM     17  C21 ZIN A   1      18.447   2.350  11.698  0.00  0.00    -0.002 C 
ATOM     18  C23 ZIN A   1      18.603   3.874  11.751  0.00  0.00     0.006 C 
ATOM     19  C24 ZIN A   1      19.125   4.267  13.130  0.00  0.00     0.014 C 
ATOM     20  C25 ZIN A   1      18.092   3.916  14.180  0.00  0.00     0.006 C 
ENDROOT
BRANCH   3  21
ATOM     21  O4  ZIN A   1      17.935   4.398  16.572  0.00  0.00    -0.377 OA
ATOM     22  H29 ZIN A   1      18.190   5.189  17.066  0.00  0.00     0.211 HD
ENDBRANCH   3  21
BRANCH  20  23
ATOM     23  C26 ZIN A   1      16.869   4.832  14.105  0.00  0.00     0.009 C 
ATOM     24  C27 ZIN A   1      17.315   6.248  13.733  0.00  0.00     0.006 C 
ENDBRANCH  20  23
TORSDOF 2
ENDMDL
MODEL 3
REMARK VINA RESULT:      -8.0      2.612      3.608
REMARK  2 active torsions:
REMARK  status: ('A' for Active; 'I' for Inactive)
REMARK    1  A    between atoms: C3_3  and  O4_4 
REMARK    2  A    between atoms: C25_21  and  C26_22 
ROOT
ATOM      1  C1  ZIN A   1      20.726  -0.869  10.268  0.00  0.00     0.015 C 
ATOM      2  C2  ZIN A   1      19.841  -0.155   9.974  0.00  0.00    -0.078 C 
ATOM      3  C3  ZIN A   1      18.732   0.739   9.606  0.00  0.00     0.128 C 
ATOM      4  C5  ZIN A   1      19.282   2.035   8.981  0.00  0.00     0.052 C 
ATOM      5  C6  ZIN A   1      18.777   3.199   9.864  0.00  0.00     0.010 C 
ATOM      6  C7  ZIN A   1      17.532   2.612  10.555  0.00  0.00     0.002 C 
ATOM      7  C9  ZIN A   1      17.123   3.401  11.776  0.00  0.00    -0.005 C 
ATOM      8  C11 ZIN A   1      16.903   4.869  11.394  0.00  0.00     0.010 C 
ATOM      9  C12 ZIN A   1      16.314   5.620  12.589  0.00  0.00     0.035 C 
ATOM     10  C13 ZIN A   1      17.235   5.434  13.780  0.00  0.00    -0.072 C 
ATOM     11  C14 ZIN A   1      17.602   6.521  14.459  0.00  0.00     0.053 C 
ATOM     12  C15 ZIN A   1      18.478   6.394  15.628  0.00  0.00     0.149 C 
ATOM     13  O16 ZIN A   1      19.135   7.328  16.038  0.00  0.00    -0.293 OA
ATOM     14  C17 ZIN A   1      18.519   5.034  16.298  0.00  0.00     0.084 C 
ATOM     15  C18 ZIN A   1      18.752   3.993  15.204  0.00  0.00     0.017 C 
ATOM     16  C19 ZIN A   1      17.673   4.047  14.137  0.00  0.00     0.019 C 
ATOM     17  C21 ZIN A   1      18.179   3.331  12.876  0.00  0.00    -0.002 C 
ATOM     18  C23 ZIN A   1      18.412   1.854  13.215  0.00  0.00     0.006 C 
ATOM     19  C24 ZIN A   1      18.977   1.150  11.986  0.00  0.00     0.014 C 
ATOM     20  C25 ZIN A   1      17.948   1.167  10.876  0.00  0.00     0.006 C 
ENDROOT
BRANCH   3  21
ATOM     21  O4  ZIN A   1      17.857   0.083   8.686  0.00  0.00    -0.377 OA
ATOM     22  H29 ZIN A   1      16.976  -0.097   9.040  0.00  0.00     0.211 HD
ENDBRANCH   3  21
BRANCH  20  23
ATOM     23  C26 ZIN A   1      16.770   0.237  11.177  0.00  0.00     0.009 C 
ATOM     24  C27 ZIN A   1      17.266  -0.970  11.977  0.00  0.00     0.006 C 
ENDBRANCH  20  23
TORSDOF 2
ENDMDL
MODEL 4
REMARK VINA RESULT:      -8.0      3.373      7.888
REMARK  2 active torsions:
REMARK  status: ('A' for Active; 'I' for Inactive)
REMARK    1  A    between atoms: C3_3  and  O4_4 
REMARK    2  A    between atoms: C25_21  and  C26_22 
ROOT
ATOM      1  C1  ZIN A   1      20.147   4.235  11.978  0.00  0.00     0.015 C 
ATOM      2  C2  ZIN A   1      19.926   3.100  12.181  0.00  0.00    -0.078 C 
ATOM      3  C3  ZIN A   1      19.648   1.676  12.436  0.00  0.00     0.128 C 
ATOM      4  C5  ZIN A   1      20.927   0.843  12.234  0.00  0.00     0.052 C 
ATOM      5  C6  ZIN A   1      20.610  -0.190  11.129  0.00  0.00     0.010 C 
ATOM      6  C7  ZIN A   1      19.075  -0.305  11.174  0.00  0.00     0.002 C 
ATOM      7  C9  ZIN A   1      18.505  -0.917   9.917  0.00  0.00    -0.005 C 
ATOM      8  C11 ZIN A   1      19.154  -2.283   9.666  0.00  0.00     0.010 C 
ATOM      9  C12 ZIN A   1      18.444  -2.975   8.502  0.00  0.00     0.035 C 
ATOM     10  C13 ZIN A   1      18.479  -2.054   7.296  0.00  0.00    -0.072 C 
ATOM     11  C14 ZIN A   1      18.891  -2.564   6.136  0.00  0.00     0.053 C 
ATOM     12  C15 ZIN A   1      18.929  -1.720   4.936  0.00  0.00     0.149 C 
ATOM     13  O16 ZIN A   1      19.627  -1.997   3.983  0.00  0.00    -0.293 OA
ATOM     14  C17 ZIN A   1      18.049  -0.486   4.950  0.00  0.00     0.084 C 
ATOM     15  C18 ZIN A   1      18.315   0.250   6.262  0.00  0.00     0.017 C 
ATOM     16  C19 ZIN A   1      18.042  -0.632   7.467  0.00  0.00     0.019 C 
ATOM     17  C21 ZIN A   1      18.737  -0.029   8.697  0.00  0.00    -0.002 C 
ATOM     18  C23 ZIN A   1      18.114   1.342   8.985  0.00  0.00     0.006 C 
ATOM     19  C24 ZIN A   1      18.844   1.976  10.165  0.00  0.00     0.014 C 
ATOM     20  C25 ZIN A   1      18.614   1.143  11.408  0.00  0.00     0.006 C 
ENDROOT
BRANCH   3  21
ATOM     21  O4  ZIN A   1      19.153   1.504  13.765  0.00  0.00    -0.377 OA
ATOM     22  H29 ZIN A   1      18.290   1.912  13.921  0.00  0.00     0.211 HD
ENDBRANCH   3  21
BRANCH  20  23
ATOM     23  C26 ZIN A   1      17.174   1.260  11.913  0.00  0.00     0.009 C 
ATOM     24  C27 ZIN A   1      16.628  -0.136  12.224  0.00  0.00     0.006 C 
ENDBRANCH  20  23
TORSDOF 2
ENDMDL
MODEL 5
REMARK VINA RESULT:      -7.9      2.468      3.939
REMARK  2 active torsions:
REMARK  status: ('A' for Active; 'I' for Inactive)
REMARK    1  A    between atoms: C3_3  and  O4_4 
REMARK    2  A    between atoms: C25_21  and  C26_22 
ROOT
ATOM      1  C1  ZIN A   1      20.710  -5.778   8.426  0.00  0.00     0.015 C 
ATOM      2  C2  ZIN A   1      19.835  -5.007   8.288  0.00  0.00    -0.078 C 
ATOM      3  C3  ZIN A   1      18.738  -4.041   8.114  0.00  0.00     0.128 C 
ATOM      4  C5  ZIN A   1      19.298  -2.680   7.659  0.00  0.00     0.052 C 
ATOM      5  C6  ZIN A   1      18.872  -1.649   8.729  0.00  0.00     0.010 C 
ATOM      6  C7  ZIN A   1      17.644  -2.303   9.390  0.00  0.00     0.002 C 
ATOM      7  C9  ZIN A   1      17.319  -1.695  10.734  0.00  0.00    -0.005 C 
ATOM      8  C11 ZIN A   1      17.127  -0.182  10.584  0.00  0.00     0.010 C 
ATOM      9  C12 ZIN A   1      16.620   0.397  11.906  0.00  0.00     0.035 C 
ATOM     10  C13 ZIN A   1      17.591   0.014  13.007  0.00  0.00    -0.072 C 
ATOM     11  C14 ZIN A   1      18.024   0.978  13.819  0.00  0.00     0.053 C 
ATOM     12  C15 ZIN A   1      18.951   0.658  14.909  0.00  0.00     0.149 C 
ATOM     13  O16 ZIN A   1      19.655   1.505  15.418  0.00  0.00    -0.293 OA
ATOM     14  C17 ZIN A   1      18.982  -0.787  15.368  0.00  0.00     0.084 C 
ATOM     15  C18 ZIN A   1      19.129  -1.659  14.122  0.00  0.00     0.017 C 
ATOM     16  C19 ZIN A   1      18.002  -1.421  13.133  0.00  0.00     0.019 C 
ATOM     17  C21 ZIN A   1      18.424  -1.953  11.755  0.00  0.00    -0.002 C 
ATOM     18  C23 ZIN A   1      18.626  -3.469  11.860  0.00  0.00     0.006 C 
ATOM     19  C24 ZIN A   1      19.110  -3.995  10.512  0.00  0.00     0.014 C 
ATOM     20  C25 ZIN A   1      18.029  -3.789   9.472  0.00  0.00     0.006 C 
ENDROOT
BRANCH   3  21
ATOM     21  O4  ZIN A   1      17.800  -4.532   7.154  0.00  0.00    -0.377 OA
ATOM     22  H29 ZIN A   1      17.972  -5.438   6.863  0.00  0.00     0.211 HD
ENDBRANCH   3  21
BRANCH  20  23
ATOM     23  C26 ZIN A   1      16.839  -4.725   9.693  0.00  0.00     0.009 C 
ATOM     24  C27 ZIN A   1      17.333  -6.044  10.294  0.00  0.00     0.006 C 
ENDBRANCH  20  23
TORSDOF 2
ENDMDL
MODEL 6
REMARK VINA RESULT:      -7.7      3.163      7.118
REMARK  2 active torsions:
REMARK  status: ('A' for Active; 'I' for Inactive)
REMARK    1  A    between atoms: C3_3  and  O4_4 
REMARK    2  A    between atoms: C25_21  and  C26_22 
ROOT
ATOM      1  C1  ZIN A   1      17.749   2.804  13.373  0.00  0.00     0.015 C 
ATOM      2  C2  ZIN A   1      18.350   2.513  12.407  0.00  0.00    -0.078 C 
ATOM      3  C3  ZIN A   1      19.103   2.149  11.196  0.00  0.00     0.128 C 
ATOM      4  C5  ZIN A   1      18.229   2.360   9.946  0.00  0.00     0.052 C 
ATOM      5  C6  ZIN A   1      18.129   0.987   9.242  0.00  0.00     0.010 C 
ATOM      6  C7  ZIN A   1      19.373   0.233   9.747  0.00  0.00     0.002 C 
ATOM      7  C9  ZIN A   1      19.265  -1.260   9.543  0.00  0.00    -0.005 C 
ATOM      8  C11 ZIN A   1      18.997  -1.562   8.064  0.00  0.00     0.010 C 
ATOM      9  C12 ZIN A   1      19.073  -3.072   7.835  0.00  0.00     0.035 C 
ATOM     10  C13 ZIN A   1      18.102  -3.756   8.780  0.00  0.00    -0.072 C 
ATOM     11  C14 ZIN A   1      17.262  -4.654   8.268  0.00  0.00     0.053 C 
ATOM     12  C15 ZIN A   1      16.315  -5.355   9.141  0.00  0.00     0.149 C 
ATOM     13  O16 ZIN A   1      15.308  -5.873   8.706  0.00  0.00    -0.293 OA
ATOM     14  C17 ZIN A   1      16.662  -5.399  10.617  0.00  0.00     0.084 C 
ATOM     15  C18 ZIN A   1      17.002  -3.974  11.049  0.00  0.00     0.017 C 
ATOM     16  C19 ZIN A   1      18.145  -3.397  10.234  0.00  0.00     0.019 C 
ATOM     17  C21 ZIN A   1      18.144  -1.867  10.381  0.00  0.00    -0.002 C 
ATOM     18  C23 ZIN A   1      18.411  -1.521  11.851  0.00  0.00     0.006 C 
ATOM     19  C24 ZIN A   1      18.345  -0.006  12.018  0.00  0.00     0.014 C 
ATOM     20  C25 ZIN A   1      19.463   0.639  11.227  0.00  0.00     0.006 C 
ENDROOT
BRANCH   3  21
ATOM     21  O4  ZIN A   1      20.292   2.936  11.104  0.00  0.00    -0.377 OA
ATOM     22  H29 ZIN A   1      20.761   2.845  10.263  0.00  0.00     0.211 HD
ENDBRANCH   3  21
BRANCH  20  23
ATOM     23  C26 ZIN A   1      20.832   0.377  11.858  0.00  0.00     0.009 C 
ATOM     24  C27 ZIN A   1      20.677   0.240  13.374  0.00  0.00     0.006 C 
ENDBRANCH  20  23
TORSDOF 2
ENDMDL
MODEL 7
REMARK VINA RESULT:      -7.6      3.520      7.875
REMARK  2 active torsions:
REMARK  status: ('A' for Active; 'I' for Inactive)
REMARK    1  A    between atoms: C3_3  and  O4_4 
REMARK    2  A    between atoms: C25_21  and  C26_22 
ROOT
ATOM      1  C1  ZIN A   1      20.479   5.100  12.648  0.00  0.00     0.015 C 
ATOM      2  C2  ZIN A   1      19.705   4.221  12.733  0.00  0.00    -0.078 C 
ATOM      3  C3  ZIN A   1      18.735   3.119  12.840  0.00  0.00     0.128 C 
ATOM      4  C5  ZIN A   1      19.466   1.798  13.140  0.00  0.00     0.052 C 
ATOM      5  C6  ZIN A   1      19.121   0.830  11.985  0.00  0.00     0.010 C 
ATOM      6  C7  ZIN A   1      17.800   1.394  11.427  0.00  0.00     0.002 C 
ATOM      7  C9  ZIN A   1      17.496   0.883  10.038  0.00  0.00    -0.005 C 
ATOM      8  C11 ZIN A   1      17.486  -0.649  10.041  0.00  0.00     0.010 C 
ATOM      9  C12 ZIN A   1      16.998  -1.154   8.682  0.00  0.00     0.035 C 
ATOM     10  C13 ZIN A   1      17.874  -0.554   7.598  0.00  0.00    -0.072 C 
ATOM     11  C14 ZIN A   1      18.384  -1.378   6.683  0.00  0.00     0.053 C 
ATOM     12  C15 ZIN A   1      19.224  -0.846   5.605  0.00  0.00     0.149 C 
ATOM     13  O16 ZIN A   1      20.001  -1.550   4.995  0.00  0.00    -0.293 OA
ATOM     14  C17 ZIN A   1      19.069   0.630   5.293  0.00  0.00     0.084 C 
ATOM     15  C18 ZIN A   1      19.163   1.389   6.615  0.00  0.00     0.017 C 
ATOM     16  C19 ZIN A   1      18.111   0.925   7.606  0.00  0.00     0.019 C 
ATOM     17  C21 ZIN A   1      18.523   1.368   9.018  0.00  0.00    -0.002 C 
ATOM     18  C23 ZIN A   1      18.544   2.901   9.059  0.00  0.00     0.006 C 
ATOM     19  C24 ZIN A   1      19.016   3.349  10.440  0.00  0.00     0.014 C 
ATOM     20  C25 ZIN A   1      18.008   2.916  11.483  0.00  0.00     0.006 C 
ENDROOT
BRANCH   3  21
ATOM     21  O4  ZIN A   1      17.785   3.401  13.869  0.00  0.00    -0.377 OA
ATOM     22  H29 ZIN A   1      17.795   4.318  14.175  0.00  0.00     0.211 HD
ENDBRANCH   3  21
BRANCH  20  23
ATOM     23  C26 ZIN A   1      16.709   3.721  11.389  0.00  0.00     0.009 C 
ATOM     24  C27 ZIN A   1      17.013   5.115  10.835  0.00  0.00     0.006 C 
ENDBRANCH  20  23
TORSDOF 2
ENDMDL
MODEL 8
REMARK VINA RESULT:      -7.6      2.755      7.293
REMARK  2 active torsions:
REMARK  status: ('A' for Active; 'I' for Inactive)
REMARK    1  A    between atoms: C3_3  and  O4_4 
REMARK    2  A    between atoms: C25_21  and  C26_22 
ROOT
ATOM      1  C1  ZIN A   1      18.188   3.360  10.424  0.00  0.00     0.015 C 
ATOM      2  C2  ZIN A   1      18.636   2.567  11.165  0.00  0.00    -0.078 C 
ATOM      3  C3  ZIN A   1      19.197   1.573  12.095  0.00  0.00     0.128 C 
ATOM      4  C5  ZIN A   1      20.664   1.279  11.732  0.00  0.00     0.052 C 
ATOM      5  C6  ZIN A   1      20.750  -0.236  11.434  0.00  0.00     0.010 C 
ATOM      6  C7  ZIN A   1      19.540  -0.818  12.188  0.00  0.00     0.002 C 
ATOM      7  C9  ZIN A   1      19.166  -2.198  11.701  0.00  0.00    -0.005 C 
ATOM      8  C11 ZIN A   1      20.380  -3.128  11.801  0.00  0.00     0.010 C 
ATOM      9  C12 ZIN A   1      19.948  -4.561  11.483  0.00  0.00     0.035 C 
ATOM     10  C13 ZIN A   1      19.282  -4.575  10.119  0.00  0.00    -0.072 C 
ATOM     11  C14 ZIN A   1      19.689  -5.487   9.237  0.00  0.00     0.053 C 
ATOM     12  C15 ZIN A   1      19.067  -5.553   7.911  0.00  0.00     0.149 C 
ATOM     13  O16 ZIN A   1      19.626  -6.075   6.969  0.00  0.00    -0.293 OA
ATOM     14  C17 ZIN A   1      17.688  -4.936   7.779  0.00  0.00     0.084 C 
ATOM     15  C18 ZIN A   1      17.753  -3.537   8.390  0.00  0.00     0.017 C 
ATOM     16  C19 ZIN A   1      18.200  -3.577   9.840  0.00  0.00     0.019 C 
ATOM     17  C21 ZIN A   1      18.679  -2.177  10.255  0.00  0.00    -0.002 C 
ATOM     18  C23 ZIN A   1      17.490  -1.212  10.171  0.00  0.00     0.006 C 
ATOM     19  C24 ZIN A   1      17.972   0.193  10.518  0.00  0.00     0.014 C 
ATOM     20  C25 ZIN A   1      18.436   0.227  11.958  0.00  0.00     0.006 C 
ENDROOT
BRANCH   3  21
ATOM     21  O4  ZIN A   1      19.109   2.054  13.437  0.00  0.00    -0.377 OA
ATOM     22  H29 ZIN A   1      19.716   1.619  14.052  0.00  0.00     0.211 HD
ENDBRANCH   3  21
BRANCH  20  23
ATOM     23  C26 ZIN A   1      17.265   0.116  12.937  0.00  0.00     0.009 C 
ATOM     24  C27 ZIN A   1      17.752  -0.510  14.246  0.00  0.00     0.006 C 
ENDBRANCH  20  23
TORSDOF 2
ENDMDL
MODEL 9
REMARK VINA RESULT:      -7.5      2.387      4.097
REMARK  2 active torsions:
REMARK  status: ('A' for Active; 'I' for Inactive)
REMARK    1  A    between atoms: C3_3  and  O4_4 
REMARK    2  A    between atoms: C25_21  and  C26_22 
ROOT
ATOM      1  C1  ZIN A   1      17.409  -1.993  11.694  0.00  0.00     0.015 C 
ATOM      2  C2  ZIN A   1      18.078  -1.642  12.593  0.00  0.00    -0.078 C 
ATOM      3  C3  ZIN A   1      18.917  -1.202  13.720  0.00  0.00     0.128 C 
ATOM      4  C5  ZIN A   1      18.142  -1.345  15.043  0.00  0.00     0.052 C 
ATOM      5  C6  ZIN A   1      18.080   0.066  15.672  0.00  0.00     0.010 C 
ATOM      6  C7  ZIN A   1      19.274   0.798  15.031  0.00  0.00     0.002 C 
ATOM      7  C9  ZIN A   1      19.165   2.299  15.155  0.00  0.00    -0.005 C 
ATOM      8  C11 ZIN A   1      19.007   2.686  16.630  0.00  0.00     0.010 C 
ATOM      9  C12 ZIN A   1      19.083   4.207  16.765  0.00  0.00     0.035 C 
ATOM     10  C13 ZIN A   1      18.036   4.828  15.858  0.00  0.00    -0.072 C 
ATOM     11  C14 ZIN A   1      17.227   5.749  16.380  0.00  0.00     0.053 C 
ATOM     12  C15 ZIN A   1      16.208   6.391  15.542  0.00  0.00     0.149 C 
ATOM     13  O16 ZIN A   1      15.231   6.926  16.022  0.00  0.00    -0.293 OA
ATOM     14  C17 ZIN A   1      16.442   6.350  14.044  0.00  0.00     0.084 C 
ATOM     15  C18 ZIN A   1      16.765   4.905  13.670  0.00  0.00     0.017 C 
ATOM     16  C19 ZIN A   1      17.973   4.384  14.429  0.00  0.00     0.019 C 
ATOM     17  C21 ZIN A   1      17.977   2.849  14.371  0.00  0.00    -0.002 C 
ATOM     18  C23 ZIN A   1      18.136   2.418  12.908  0.00  0.00     0.006 C 
ATOM     19  C24 ZIN A   1      18.075   0.895  12.834  0.00  0.00     0.014 C 
ATOM     20  C25 ZIN A   1      19.256   0.306  13.575  0.00  0.00     0.006 C 
ENDROOT
BRANCH   3  21
ATOM     21  O4  ZIN A   1      20.118  -1.974  13.767  0.00  0.00    -0.377 OA
ATOM     22  H29 ZIN A   1      20.608  -1.992  12.934  0.00  0.00     0.211 HD
ENDBRANCH   3  21
BRANCH  20  23
ATOM     23  C26 ZIN A   1      20.571   0.539  12.827  0.00  0.00     0.009 C 
ATOM     24  C27 ZIN A   1      20.341   0.363  11.324  0.00  0.00     0.006 C 
ENDBRANCH  20  23
TORSDOF 2
ENDMDL
