MODEL 1
REMARK VINA RESULT:      -8.9      0.000      0.000
REMARK  8 active torsions:
REMARK  status: ('A' for Active; 'I' for Inactive)
REMARK    1  A    between atoms: C2_2  and  O4_3 
REMARK    2  A    between atoms: C2_2  and  C5_4 
REMARK    3  A    between atoms: C10_8  and  C11_9 
REMARK    4  A    between atoms: C14_12  and  S15_13 
REMARK    5  A    between atoms: S15_13  and  C16_14 
REMARK    6  A    between atoms: C22_19  and  C24_20 
REMARK       I    between atoms: C24_20  and  N26_22 
REMARK    7  A    between atoms: N26_22  and  C27_23 
REMARK    8  A    between atoms: C31_27  and  C32_28 
ROOT
ATOM      1  C16 RES d   1      18.236   1.888  10.050  0.00  0.00     0.080 C 
ATOM      2  C18 RES d   1      19.636   1.536  10.612  0.00  0.00     0.248 C 
ATOM      3  N19 RES d   1      20.153   2.808  11.159  0.00  0.00    -0.061 N 
ATOM      4  H20 RES d   1      20.691   2.625  11.994  0.00  0.00     0.278 HD
ATOM      5  H21 RES d   1      20.738   3.261  10.472  0.00  0.00     0.278 HD
ATOM      6  C22 RES d   1      19.010   3.679  11.486  0.00  0.00     0.278 C 
ATOM      7  C36 RES d   1      17.726   2.914  11.097  0.00  0.00     0.060 C 
ENDROOT
BRANCH   1   8
ATOM      8  S15 RES d   1      17.170   0.426  10.004  0.00  0.00    -0.125 SA
BRANCH   8   9
ATOM      9  C14 RES d   1      18.061  -0.566   8.853  0.00  0.00     0.013 A 
ATOM     10  C10 RES d   1      18.591  -1.782   9.108  0.00  0.00     0.108 A 
ATOM     11  N9  RES d   1      19.230  -2.343   7.990  0.00  0.00    -0.206 NA
ATOM     12  C7  RES d   1      18.578  -3.320   7.299  0.00  0.00     0.213 A 
ATOM     13  C40 RES d   1      19.196  -1.365   6.881  0.00  0.00     0.095 A 
ATOM     14  C5  RES d   1      18.394  -2.413   6.099  0.00  0.00     0.120 A 
ATOM     15  O8  RES d   1      18.269  -4.466   7.546  0.00  0.00    -0.279 OA
ATOM     16  C37 RES d   1      18.359  -0.196   7.419  0.00  0.00     0.043 A 
ATOM     17  C39 RES d   1      17.060  -0.059   6.622  0.00  0.00     0.017 C 
BRANCH  10  18
ATOM     18  C11 RES d   1      18.511  -2.420  10.363  0.00  0.00     0.222 C 
ATOM     19  O12 RES d   1      17.442  -3.155  10.669  0.00  0.00    -0.643 OA
ATOM     20  O13 RES d   1      19.504  -2.289  11.241  0.00  0.00    -0.643 OA
ENDBRANCH  10  18
BRANCH  14  21
ATOM     21  C2  RES d   1      19.099  -2.911   4.836  0.00  0.00     0.128 C 
ATOM     22  C1  RES d   1      18.129  -3.760   4.012  0.00  0.00     0.040 C 
BRANCH  21  23
ATOM     23  O4  RES d   1      19.532  -1.793   4.060  0.00  0.00    -0.395 OA
ATOM     24  H45 RES d   1      20.029  -1.134   4.563  0.00  0.00     0.210 HD
ENDBRANCH  21  23
ENDBRANCH  14  21
ENDBRANCH   8   9
ENDBRANCH   1   8
BRANCH   6  25
ATOM     25  C24 RES d   1      19.003   3.983  12.963  0.00  0.00     0.253 C 
ATOM     26  O25 RES d   1      19.806   4.765  13.424  0.00  0.00    -0.271 OA
ATOM     27  N26 RES d   1      18.103   3.386  13.769  0.00  0.00    -0.325 N 
ATOM     28  H48 RES d   1      17.416   2.816  13.391  0.00  0.00     0.169 HD
BRANCH  27  29
ATOM     29  C27 RES d   1      18.160   3.591  15.152  0.00  0.00     0.035 A 
ATOM     30  C35 RES d   1      18.455   2.534  15.998  0.00  0.00     0.048 A 
ATOM     31  C31 RES d   1      18.515   2.744  17.377  0.00  0.00     0.043 A 
ATOM     32  C30 RES d   1      18.269   4.019  17.894  0.00  0.00     0.018 A 
ATOM     33  C29 RES d   1      17.973   5.064  17.044  0.00  0.00     0.003 A 
ATOM     34  C28 RES d   1      17.918   4.855  15.677  0.00  0.00     0.029 A 
BRANCH  31  35
ATOM     35  C32 RES d   1      18.832   1.625  18.285  0.00  0.00     0.209 C 
ATOM     36  O33 RES d   1      17.933   0.922  18.724  0.00  0.00    -0.644 OA
ATOM     37  O34 RES d   1      19.993   1.402  18.598  0.00  0.00    -0.644 OA
ENDBRANCH  31  35
ENDBRANCH  27  29
ENDBRANCH   6  25
TORSDOF 8
ENDMDL
MODEL 2
REMARK VINA RESULT:      -8.7      2.114     10.547
REMARK  8 active torsions:
REMARK  status: ('A' for Active; 'I' for Inactive)
REMARK    1  A    between atoms: C2_2  and  O4_3 
REMARK    2  A    between atoms: C2_2  and  C5_4 
REMARK    3  A    between atoms: C10_8  and  C11_9 
REMARK    4  A    between atoms: C14_12  and  S15_13 
REMARK    5  A    between atoms: S15_13  and  C16_14 
REMARK    6  A    between atoms: C22_19  and  C24_20 
REMARK       I    between atoms: C24_20  and  N26_22 
REMARK    7  A    between atoms: N26_22  and  C27_23 
REMARK    8  A    between atoms: C31_27  and  C32_28 
ROOT
ATOM      1  C16 RES d   1      18.721  -1.845  12.893  0.00  0.00     0.080 C 
ATOM      2  C18 RES d   1      19.911  -1.289  12.071  0.00  0.00     0.248 C 
ATOM      3  N19 RES d   1      20.552  -2.483  11.481  0.00  0.00    -0.061 N 
ATOM      4  H20 RES d   1      20.891  -2.264  10.556  0.00  0.00     0.278 HD
ATOM      5  H21 RES d   1      21.322  -2.779  12.063  0.00  0.00     0.278 HD
ATOM      6  C22 RES d   1      19.551  -3.562  11.400  0.00  0.00     0.278 C 
ATOM      7  C36 RES d   1      18.236  -3.012  11.993  0.00  0.00     0.060 C 
ENDROOT
BRANCH   1   8
ATOM      8  S15 RES d   1      17.427  -0.595  13.086  0.00  0.00    -0.125 SA
BRANCH   8   9
ATOM      9  C14 RES d   1      18.227   0.505  14.204  0.00  0.00     0.013 A 
ATOM     10  C10 RES d   1      18.642   1.758  13.914  0.00  0.00     0.108 A 
ATOM     11  N9  RES d   1      19.231   2.405  15.013  0.00  0.00    -0.206 NA
ATOM     12  C7  RES d   1      18.496   3.335  15.683  0.00  0.00     0.213 A 
ATOM     13  C40 RES d   1      19.294   1.457  16.147  0.00  0.00     0.095 A 
ATOM     14  C5  RES d   1      18.402   2.448  16.907  0.00  0.00     0.120 A 
ATOM     15  O8  RES d   1      18.081   4.441  15.408  0.00  0.00    -0.279 OA
ATOM     16  C37 RES d   1      18.565   0.203  15.646  0.00  0.00     0.043 A 
ATOM     17  C39 RES d   1      17.288  -0.032  16.455  0.00  0.00     0.017 C 
BRANCH  10  18
ATOM     18  C11 RES d   1      18.498   2.353  12.644  0.00  0.00     0.222 C 
ATOM     19  O12 RES d   1      19.522   2.358  11.791  0.00  0.00    -0.643 OA
ATOM     20  O13 RES d   1      17.338   2.909  12.296  0.00  0.00    -0.643 OA
ENDBRANCH  10  18
BRANCH  14  21
ATOM     21  C2  RES d   1      19.064   3.042  18.151  0.00  0.00     0.128 C 
ATOM     22  C1  RES d   1      18.014   3.782  18.983  0.00  0.00     0.040 C 
BRANCH  21  23
ATOM     23  O4  RES d   1      19.638   1.993  18.933  0.00  0.00    -0.395 OA
ATOM     24  H45 RES d   1      19.271   1.118  18.747  0.00  0.00     0.210 HD
ENDBRANCH  21  23
ENDBRANCH  14  21
ENDBRANCH   8   9
ENDBRANCH   1   8
BRANCH   6  25
ATOM     25  C24 RES d   1      19.342  -3.961   9.961  0.00  0.00     0.253 C 
ATOM     26  O25 RES d   1      20.058  -4.797   9.454  0.00  0.00    -0.271 OA
ATOM     27  N26 RES d   1      18.359  -3.387   9.240  0.00  0.00    -0.325 N 
ATOM     28  H48 RES d   1      17.742  -2.771   9.663  0.00  0.00     0.169 HD
BRANCH  27  29
ATOM     29  C27 RES d   1      18.229  -3.683   7.878  0.00  0.00     0.035 A 
ATOM     30  C35 RES d   1      18.480  -2.705   6.929  0.00  0.00     0.048 A 
ATOM     31  C31 RES d   1      18.353  -3.007   5.571  0.00  0.00     0.043 A 
ATOM     32  C30 RES d   1      17.964  -4.291   5.180  0.00  0.00     0.018 A 
ATOM     33  C29 RES d   1      17.712  -5.255   6.134  0.00  0.00     0.003 A 
ATOM     34  C28 RES d   1      17.843  -4.957   7.478  0.00  0.00     0.029 A 
BRANCH  31  35
ATOM     35  C32 RES d   1      18.623  -1.973   4.554  0.00  0.00     0.209 C 
ATOM     36  O33 RES d   1      17.697  -1.461   3.942  0.00  0.00    -0.644 OA
ATOM     37  O34 RES d   1      19.774  -1.629   4.322  0.00  0.00    -0.644 OA
ENDBRANCH  31  35
ENDBRANCH  27  29
ENDBRANCH   6  25
TORSDOF 8
ENDMDL
MODEL 3
REMARK VINA RESULT:      -8.6      2.497      3.371
REMARK  8 active torsions:
REMARK  status: ('A' for Active; 'I' for Inactive)
REMARK    1  A    between atoms: C2_2  and  O4_3 
REMARK    2  A    between atoms: C2_2  and  C5_4 
REMARK    3  A    between atoms: C10_8  and  C11_9 
REMARK    4  A    between atoms: C14_12  and  S15_13 
REMARK    5  A    between atoms: S15_13  and  C16_14 
REMARK    6  A    between atoms: C22_19  and  C24_20 
REMARK       I    between atoms: C24_20  and  N26_22 
REMARK    7  A    between atoms: N26_22  and  C27_23 
REMARK    8  A    between atoms: C31_27  and  C32_28 
ROOT
ATOM      1  C16 RES d   1      19.381  -1.458  11.758  0.00  0.00     0.080 C 
ATOM      2  C18 RES d   1      19.313  -1.553  13.303  0.00  0.00     0.248 C 
ATOM      3  N19 RES d   1      20.004  -0.339  13.786  0.00  0.00    -0.061 N 
ATOM      4  H20 RES d   1      19.547   0.002  14.619  0.00  0.00     0.278 HD
ATOM      5  H21 RES d   1      20.968  -0.556  13.992  0.00  0.00     0.278 HD
ATOM      6  C22 RES d   1      19.943   0.688  12.730  0.00  0.00     0.278 C 
ATOM      7  C36 RES d   1      19.200   0.066  11.528  0.00  0.00     0.060 C 
ENDROOT
BRANCH   1   8
ATOM      8  S15 RES d   1      18.035  -2.394  10.991  0.00  0.00    -0.125 SA
BRANCH   8   9
ATOM      9  C14 RES d   1      18.627  -2.482   9.335  0.00  0.00     0.013 A 
ATOM     10  C10 RES d   1      18.985  -3.611   8.687  0.00  0.00     0.108 A 
ATOM     11  N9  RES d   1      19.402  -3.373   7.366  0.00  0.00    -0.206 NA
ATOM     12  C7  RES d   1      18.533  -3.659   6.356  0.00  0.00     0.213 A 
ATOM     13  C40 RES d   1      19.400  -1.914   7.121  0.00  0.00     0.095 A 
ATOM     14  C5  RES d   1      18.362  -2.190   6.026  0.00  0.00     0.120 A 
ATOM     15  O8  RES d   1      18.078  -4.685   5.899  0.00  0.00    -0.279 OA
ATOM     16  C37 RES d   1      18.820  -1.306   8.406  0.00  0.00     0.043 A 
ATOM     17  C39 RES d   1      17.478  -0.629   8.117  0.00  0.00     0.017 C 
BRANCH  10  18
ATOM     18  C11 RES d   1      18.946  -4.893   9.273  0.00  0.00     0.222 C 
ATOM     19  O12 RES d   1      17.827  -5.616   9.218  0.00  0.00    -0.643 OA
ATOM     20  O13 RES d   1      20.026  -5.381   9.882  0.00  0.00    -0.643 OA
ENDBRANCH  10  18
BRANCH  14  21
ATOM     21  C2  RES d   1      18.838  -1.815   4.620  0.00  0.00     0.128 C 
ATOM     22  C1  RES d   1      17.722  -1.066   3.888  0.00  0.00     0.040 C 
BRANCH  21  23
ATOM     23  O4  RES d   1      19.991  -0.978   4.715  0.00  0.00    -0.395 OA
ATOM     24  H45 RES d   1      20.533  -0.964   3.914  0.00  0.00     0.210 HD
ENDBRANCH  21  23
ENDBRANCH  14  21
ENDBRANCH   8   9
ENDBRANCH   1   8
BRANCH   6  25
ATOM     25  C24 RES d   1      19.194   1.896  13.232  0.00  0.00     0.253 C 
ATOM     26  O25 RES d   1      18.442   1.793  14.178  0.00  0.00    -0.271 OA
ATOM     27  N26 RES d   1      19.359   3.089  12.628  0.00  0.00    -0.325 N 
ATOM     28  H48 RES d   1      20.011   3.188  11.917  0.00  0.00     0.169 HD
BRANCH  27  29
ATOM     29  C27 RES d   1      18.589   4.188  13.028  0.00  0.00     0.035 A 
ATOM     30  C35 RES d   1      19.025   5.002  14.060  0.00  0.00     0.048 A 
ATOM     31  C31 RES d   1      18.255   6.099  14.452  0.00  0.00     0.043 A 
ATOM     32  C30 RES d   1      17.044   6.361  13.806  0.00  0.00     0.018 A 
ATOM     33  C29 RES d   1      16.617   5.541  12.782  0.00  0.00     0.003 A 
ATOM     34  C28 RES d   1      17.383   4.458  12.391  0.00  0.00     0.029 A 
BRANCH  31  35
ATOM     35  C32 RES d   1      18.715   6.973  15.548  0.00  0.00     0.209 C 
ATOM     36  O33 RES d   1      18.261   8.103  15.660  0.00  0.00    -0.644 OA
ATOM     37  O34 RES d   1      19.550   6.568  16.344  0.00  0.00    -0.644 OA
ENDBRANCH  31  35
ENDBRANCH  27  29
ENDBRANCH   6  25
TORSDOF 8
ENDMDL
MODEL 4
REMARK VINA RESULT:      -8.5      2.551     10.577
REMARK  8 active torsions:
REMARK  status: ('A' for Active; 'I' for Inactive)
REMARK    1  A    between atoms: C2_2  and  O4_3 
REMARK    2  A    between atoms: C2_2  and  C5_4 
REMARK    3  A    between atoms: C10_8  and  C11_9 
REMARK    4  A    between atoms: C14_12  and  S15_13 
REMARK    5  A    between atoms: S15_13  and  C16_14 
REMARK    6  A    between atoms: C22_19  and  C24_20 
REMARK       I    between atoms: C24_20  and  N26_22 
REMARK    7  A    between atoms: N26_22  and  C27_23 
REMARK    8  A    between atoms: C31_27  and  C32_28 
ROOT
ATOM      1  C16 RES d   1      19.385  -0.414  12.549  0.00  0.00     0.080 C 
ATOM      2  C18 RES d   1      20.178  -0.509  11.221  0.00  0.00     0.248 C 
ATOM      3  N19 RES d   1      20.634  -1.913  11.154  0.00  0.00    -0.061 N 
ATOM      4  H20 RES d   1      20.613  -2.231  10.196  0.00  0.00     0.278 HD
ATOM      5  H21 RES d   1      21.574  -1.982  11.514  0.00  0.00     0.278 HD
ATOM      6  C22 RES d   1      19.729  -2.741  11.972  0.00  0.00     0.278 C 
ATOM      7  C36 RES d   1      18.679  -1.795  12.593  0.00  0.00     0.060 C 
ENDROOT
BRANCH   1   8
ATOM      8  S15 RES d   1      18.175   0.931  12.487  0.00  0.00    -0.125 SA
BRANCH   8   9
ATOM      9  C14 RES d   1      18.666   1.850  13.907  0.00  0.00     0.013 A 
ATOM     10  C10 RES d   1      18.759   3.195  13.980  0.00  0.00     0.108 A 
ATOM     11  N9  RES d   1      19.157   3.646  15.249  0.00  0.00    -0.206 NA
ATOM     12  C7  RES d   1      18.206   4.163  16.077  0.00  0.00     0.213 A 
ATOM     13  C40 RES d   1      19.440   2.473  16.105  0.00  0.00     0.095 A 
ATOM     14  C5  RES d   1      18.322   2.985  17.022  0.00  0.00     0.120 A 
ATOM     15  O8  RES d   1      17.533   5.171  16.063  0.00  0.00    -0.279 OA
ATOM     16  C37 RES d   1      19.052   1.262  15.245  0.00  0.00     0.043 A 
ATOM     17  C39 RES d   1      17.864   0.525  15.867  0.00  0.00     0.017 C 
BRANCH  10  18
ATOM     18  C11 RES d   1      18.485   4.056  12.897  0.00  0.00     0.222 C 
ATOM     19  O12 RES d   1      17.230   4.419  12.635  0.00  0.00    -0.643 OA
ATOM     20  O13 RES d   1      19.482   4.505  12.135  0.00  0.00    -0.643 OA
ENDBRANCH  10  18
BRANCH  14  21
ATOM     21  C2  RES d   1      18.803   3.365  18.424  0.00  0.00     0.128 C 
ATOM     22  C1  RES d   1      17.594   3.675  19.310  0.00  0.00     0.040 C 
BRANCH  21  23
ATOM     23  O4  RES d   1      19.539   2.278  18.987  0.00  0.00    -0.395 OA
ATOM     24  H45 RES d   1      20.485   2.300  18.789  0.00  0.00     0.210 HD
ENDBRANCH  21  23
ENDBRANCH  14  21
ENDBRANCH   8   9
ENDBRANCH   1   8
BRANCH   6  25
ATOM     25  C24 RES d   1      19.049  -3.769  11.104  0.00  0.00     0.253 C 
ATOM     26  O25 RES d   1      19.390  -4.931  11.160  0.00  0.00    -0.271 OA
ATOM     27  N26 RES d   1      18.063  -3.395  10.265  0.00  0.00    -0.325 N 
ATOM     28  H48 RES d   1      17.742  -2.481  10.270  0.00  0.00     0.169 HD
BRANCH  27  29
ATOM     29  C27 RES d   1      17.501  -4.330   9.387  0.00  0.00     0.035 A 
ATOM     30  C35 RES d   1      18.096  -4.574   8.160  0.00  0.00     0.048 A 
ATOM     31  C31 RES d   1      17.534  -5.511   7.290  0.00  0.00     0.043 A 
ATOM     32  C30 RES d   1      16.369  -6.188   7.661  0.00  0.00     0.018 A 
ATOM     33  C29 RES d   1      15.783  -5.934   8.883  0.00  0.00     0.003 A 
ATOM     34  C28 RES d   1      16.343  -5.010   9.746  0.00  0.00     0.029 A 
BRANCH  31  35
ATOM     35  C32 RES d   1      18.164  -5.780   5.984  0.00  0.00     0.209 C 
ATOM     36  O33 RES d   1      18.640  -6.881   5.749  0.00  0.00    -0.644 OA
ATOM     37  O34 RES d   1      18.210  -4.900   5.135  0.00  0.00    -0.644 OA
ENDBRANCH  31  35
ENDBRANCH  27  29
ENDBRANCH   6  25
TORSDOF 8
ENDMDL
MODEL 5
REMARK VINA RESULT:      -8.5      2.493     10.003
REMARK  8 active torsions:
REMARK  status: ('A' for Active; 'I' for Inactive)
REMARK    1  A    between atoms: C2_2  and  O4_3 
REMARK    2  A    between atoms: C2_2  and  C5_4 
REMARK    3  A    between atoms: C10_8  and  C11_9 
REMARK    4  A    between atoms: C14_12  and  S15_13 
REMARK    5  A    between atoms: S15_13  and  C16_14 
REMARK    6  A    between atoms: C22_19  and  C24_20 
REMARK       I    between atoms: C24_20  and  N26_22 
REMARK    7  A    between atoms: N26_22  and  C27_23 
REMARK    8  A    between atoms: C31_27  and  C32_28 
ROOT
ATOM      1  C16 RES d   1      19.402   1.776  11.323  0.00  0.00     0.080 C 
ATOM      2  C18 RES d   1      19.200   1.803   9.787  0.00  0.00     0.248 C 
ATOM      3  N19 RES d   1      19.929   0.617   9.290  0.00  0.00    -0.061 N 
ATOM      4  H20 RES d   1      19.429   0.214   8.512  0.00  0.00     0.278 HD
ATOM      5  H21 RES d   1      20.856   0.888   8.995  0.00  0.00     0.278 HD
ATOM      6  C22 RES d   1      20.026  -0.367  10.383  0.00  0.00     0.278 C 
ATOM      7  C36 RES d   1      19.344   0.254  11.621  0.00  0.00     0.060 C 
ENDROOT
BRANCH   1   8
ATOM      8  S15 RES d   1      18.064   2.653  12.169  0.00  0.00    -0.125 SA
BRANCH   8   9
ATOM      9  C14 RES d   1      18.620   2.528  13.835  0.00  0.00     0.013 A 
ATOM     10  C10 RES d   1      18.989   3.563  14.621  0.00  0.00     0.108 A 
ATOM     11  N9  RES d   1      19.370   3.159  15.911  0.00  0.00    -0.206 NA
ATOM     12  C7  RES d   1      18.486   3.344  16.931  0.00  0.00     0.213 A 
ATOM     13  C40 RES d   1      19.329   1.682  15.980  0.00  0.00     0.095 A 
ATOM     14  C5  RES d   1      18.273   1.851  17.080  0.00  0.00     0.120 A 
ATOM     15  O8  RES d   1      18.044   4.320  17.498  0.00  0.00    -0.279 OA
ATOM     16  C37 RES d   1      18.764   1.245  14.621  0.00  0.00     0.043 A 
ATOM     17  C39 RES d   1      17.401   0.573  14.799  0.00  0.00     0.017 C 
BRANCH  10  18
ATOM     18  C11 RES d   1      18.992   4.906  14.191  0.00  0.00     0.222 C 
ATOM     19  O12 RES d   1      17.895   5.651  14.327  0.00  0.00    -0.643 OA
ATOM     20  O13 RES d   1      20.091   5.429  13.650  0.00  0.00    -0.643 OA
ENDBRANCH  10  18
BRANCH  14  21
ATOM     21  C2  RES d   1      18.708   1.300  18.439  0.00  0.00     0.128 C 
ATOM     22  C1  RES d   1      19.221  -0.132  18.269  0.00  0.00     0.040 C 
BRANCH  21  23
ATOM     23  O4  RES d   1      19.749   2.118  18.975  0.00  0.00    -0.395 OA
ATOM     24  H45 RES d   1      20.310   1.668  19.620  0.00  0.00     0.210 HD
ENDBRANCH  21  23
ENDBRANCH  14  21
ENDBRANCH   8   9
ENDBRANCH   1   8
BRANCH   6  25
ATOM     25  C24 RES d   1      19.322  -1.640   9.990  0.00  0.00     0.253 C 
ATOM     26  O25 RES d   1      18.359  -1.598   9.254  0.00  0.00    -0.271 OA
ATOM     27  N26 RES d   1      19.762  -2.825  10.457  0.00  0.00    -0.325 N 
ATOM     28  H48 RES d   1      20.572  -2.867  10.988  0.00  0.00     0.169 HD
BRANCH  27  29
ATOM     29  C27 RES d   1      19.049  -3.996  10.175  0.00  0.00     0.035 A 
ATOM     30  C35 RES d   1      19.235  -4.648   8.967  0.00  0.00     0.048 A 
ATOM     31  C31 RES d   1      18.525  -5.818   8.692  0.00  0.00     0.043 A 
ATOM     32  C30 RES d   1      17.623  -6.318   9.636  0.00  0.00     0.018 A 
ATOM     33  C29 RES d   1      17.442  -5.660  10.834  0.00  0.00     0.003 A 
ATOM     34  C28 RES d   1      18.150  -4.503  11.107  0.00  0.00     0.029 A 
BRANCH  31  35
ATOM     35  C32 RES d   1      18.720  -6.520   7.410  0.00  0.00     0.209 C 
ATOM     36  O33 RES d   1      18.026  -7.487   7.130  0.00  0.00    -0.644 OA
ATOM     37  O34 RES d   1      19.576  -6.134   6.626  0.00  0.00    -0.644 OA
ENDBRANCH  31  35
ENDBRANCH  27  29
ENDBRANCH   6  25
TORSDOF 8
ENDMDL
MODEL 6
REMARK VINA RESULT:      -8.5      3.260      4.739
REMARK  8 active torsions:
REMARK  status: ('A' for Active; 'I' for Inactive)
REMARK    1  A    between atoms: C2_2  and  O4_3 
REMARK    2  A    between atoms: C2_2  and  C5_4 
REMARK    3  A    between atoms: C10_8  and  C11_9 
REMARK    4  A    between atoms: C14_12  and  S15_13 
REMARK    5  A    between atoms: S15_13  and  C16_14 
REMARK    6  A    between atoms: C22_19  and  C24_20 
REMARK       I    between atoms: C24_20  and  N26_22 
REMARK    7  A    between atoms: N26_22  and  C27_23 
REMARK    8  A    between atoms: C31_27  and  C32_28 
ROOT
ATOM      1  C16 RES d   1      18.583  -2.305  10.257  0.00  0.00     0.080 C 
ATOM      2  C18 RES d   1      19.525  -1.090  10.060  0.00  0.00     0.248 C 
ATOM      3  N19 RES d   1      18.921  -0.010  10.869  0.00  0.00    -0.061 N 
ATOM      4  H20 RES d   1      19.650   0.551  11.284  0.00  0.00     0.278 HD
ATOM      5  H21 RES d   1      18.340   0.571  10.281  0.00  0.00     0.278 HD
ATOM      6  C22 RES d   1      18.098  -0.620  11.928  0.00  0.00     0.278 C 
ATOM      7  C36 RES d   1      18.180  -2.151  11.747  0.00  0.00     0.060 C 
ENDROOT
BRANCH   1   8
ATOM      8  S15 RES d   1      19.466  -3.860   9.981  0.00  0.00    -0.125 SA
BRANCH   8   9
ATOM      9  C14 RES d   1      18.342  -4.659   8.885  0.00  0.00     0.013 A 
ATOM     10  C10 RES d   1      18.619  -5.046   7.620  0.00  0.00     0.108 A 
ATOM     11  N9  RES d   1      17.531  -5.677   6.994  0.00  0.00    -0.206 NA
ATOM     12  C7  RES d   1      17.548  -7.035   6.886  0.00  0.00     0.213 A 
ATOM     13  C40 RES d   1      16.368  -5.641   7.907  0.00  0.00     0.095 A 
ATOM     14  C5  RES d   1      16.405  -7.174   7.870  0.00  0.00     0.120 A 
ATOM     15  O8  RES d   1      18.215  -7.823   6.250  0.00  0.00    -0.279 OA
ATOM     16  C37 RES d   1      16.911  -5.024   9.204  0.00  0.00     0.043 A 
ATOM     17  C39 RES d   1      16.862  -6.045  10.342  0.00  0.00     0.017 C 
BRANCH  10  18
ATOM     18  C11 RES d   1      19.866  -4.839   6.996  0.00  0.00     0.222 C 
ATOM     19  O12 RES d   1      20.843  -5.733   7.148  0.00  0.00    -0.643 OA
ATOM     20  O13 RES d   1      20.067  -3.751   6.255  0.00  0.00    -0.643 OA
ENDBRANCH  10  18
BRANCH  14  21
ATOM     21  C2  RES d   1      15.148  -7.805   7.268  0.00  0.00     0.128 C 
ATOM     22  C1  RES d   1      15.211  -9.325   7.434  0.00  0.00     0.040 C 
BRANCH  21  23
ATOM     23  O4  RES d   1      13.993  -7.301   7.941  0.00  0.00    -0.395 OA
ATOM     24  H45 RES d   1      13.378  -7.987   8.234  0.00  0.00     0.210 HD
ENDBRANCH  21  23
ENDBRANCH  14  21
ENDBRANCH   8   9
ENDBRANCH   1   8
BRANCH   6  25
ATOM     25  C24 RES d   1      18.634  -0.230  13.282  0.00  0.00     0.253 C 
ATOM     26  O25 RES d   1      19.781   0.148  13.394  0.00  0.00    -0.271 OA
ATOM     27  N26 RES d   1      17.839  -0.304  14.368  0.00  0.00    -0.325 N 
ATOM     28  H48 RES d   1      16.904  -0.538  14.270  0.00  0.00     0.169 HD
BRANCH  27  29
ATOM     29  C27 RES d   1      18.365  -0.040  15.638  0.00  0.00     0.035 A 
ATOM     30  C35 RES d   1      18.552   1.269  16.053  0.00  0.00     0.048 A 
ATOM     31  C31 RES d   1      19.073   1.527  17.323  0.00  0.00     0.043 A 
ATOM     32  C30 RES d   1      19.409   0.461  18.162  0.00  0.00     0.018 A 
ATOM     33  C29 RES d   1      19.223  -0.837  17.738  0.00  0.00     0.003 A 
ATOM     34  C28 RES d   1      18.702  -1.092  16.481  0.00  0.00     0.029 A 
BRANCH  31  35
ATOM     35  C32 RES d   1      19.272   2.917  17.774  0.00  0.00     0.209 C 
ATOM     36  O33 RES d   1      19.968   3.679  17.118  0.00  0.00    -0.644 OA
ATOM     37  O34 RES d   1      18.741   3.307  18.804  0.00  0.00    -0.644 OA
ENDBRANCH  31  35
ENDBRANCH  27  29
ENDBRANCH   6  25
TORSDOF 8
ENDMDL
MODEL 7
REMARK VINA RESULT:      -8.4      2.309      2.862
REMARK  8 active torsions:
REMARK  status: ('A' for Active; 'I' for Inactive)
REMARK    1  A    between atoms: C2_2  and  O4_3 
REMARK    2  A    between atoms: C2_2  and  C5_4 
REMARK    3  A    between atoms: C10_8  and  C11_9 
REMARK    4  A    between atoms: C14_12  and  S15_13 
REMARK    5  A    between atoms: S15_13  and  C16_14 
REMARK    6  A    between atoms: C22_19  and  C24_20 
REMARK       I    between atoms: C24_20  and  N26_22 
REMARK    7  A    between atoms: N26_22  and  C27_23 
REMARK    8  A    between atoms: C31_27  and  C32_28 
ROOT
ATOM      1  C16 RES d   1      18.953   0.901  10.540  0.00  0.00     0.080 C 
ATOM      2  C18 RES d   1      20.068   0.800  11.612  0.00  0.00     0.248 C 
ATOM      3  N19 RES d   1      20.442   2.200  11.901  0.00  0.00    -0.061 N 
ATOM      4  H20 RES d   1      20.661   2.297  12.881  0.00  0.00     0.278 HD
ATOM      5  H21 RES d   1      21.244   2.459  11.346  0.00  0.00     0.278 HD
ATOM      6  C22 RES d   1      19.303   3.071  11.558  0.00  0.00     0.278 C 
ATOM      7  C36 RES d   1      18.181   2.164  11.008  0.00  0.00     0.060 C 
ENDROOT
BRANCH   1   8
ATOM      8  S15 RES d   1      17.886  -0.560  10.574  0.00  0.00    -0.125 SA
BRANCH   8   9
ATOM      9  C14 RES d   1      18.521  -1.435   9.184  0.00  0.00     0.013 A 
ATOM     10  C10 RES d   1      18.805  -2.755   9.148  0.00  0.00     0.108 A 
ATOM     11  N9  RES d   1      19.280  -3.176   7.895  0.00  0.00    -0.206 NA
ATOM     12  C7  RES d   1      18.424  -3.843   7.071  0.00  0.00     0.213 A 
ATOM     13  C40 RES d   1      19.407  -1.996   7.011  0.00  0.00     0.095 A 
ATOM     14  C5  RES d   1      18.385  -2.684   6.097  0.00  0.00     0.120 A 
ATOM     15  O8  RES d   1      17.900  -4.936   7.105  0.00  0.00    -0.279 OA
ATOM     16  C37 RES d   1      18.839  -0.832   7.835  0.00  0.00     0.043 A 
ATOM     17  C39 RES d   1      17.568  -0.286   7.182  0.00  0.00     0.017 C 
BRANCH  10  18
ATOM     18  C11 RES d   1      18.641  -3.618  10.250  0.00  0.00     0.222 C 
ATOM     19  O12 RES d   1      17.446  -4.152  10.506  0.00  0.00    -0.643 OA
ATOM     20  O13 RES d   1      19.679  -3.900  11.036  0.00  0.00    -0.643 OA
ENDBRANCH  10  18
BRANCH  14  21
ATOM     21  C2  RES d   1      18.934  -3.026   4.710  0.00  0.00     0.128 C 
ATOM     22  C1  RES d   1      17.792  -3.514   3.816  0.00  0.00     0.040 C 
BRANCH  21  23
ATOM     23  O4  RES d   1      19.528  -1.863   4.132  0.00  0.00    -0.395 OA
ATOM     24  H45 RES d   1      19.943  -2.020   3.272  0.00  0.00     0.210 HD
ENDBRANCH  21  23
ENDBRANCH  14  21
ENDBRANCH   8   9
ENDBRANCH   1   8
BRANCH   6  25
ATOM     25  C24 RES d   1      18.823   3.796  12.790  0.00  0.00     0.253 C 
ATOM     26  O25 RES d   1      18.894   3.260  13.875  0.00  0.00    -0.271 OA
ATOM     27  N26 RES d   1      18.315   5.040  12.685  0.00  0.00    -0.325 N 
ATOM     28  H48 RES d   1      18.323   5.496  11.830  0.00  0.00     0.169 HD
BRANCH  27  29
ATOM     29  C27 RES d   1      17.777   5.673  13.812  0.00  0.00     0.035 A 
ATOM     30  C35 RES d   1      16.415   5.613  14.057  0.00  0.00     0.048 A 
ATOM     31  C31 RES d   1      15.885   6.243  15.185  0.00  0.00     0.043 A 
ATOM     32  C30 RES d   1      16.732   6.936  16.053  0.00  0.00     0.018 A 
ATOM     33  C29 RES d   1      18.086   6.993  15.797  0.00  0.00     0.003 A 
ATOM     34  C28 RES d   1      18.611   6.365  14.682  0.00  0.00     0.029 A 
BRANCH  31  35
ATOM     35  C32 RES d   1      14.436   6.181  15.455  0.00  0.00     0.209 C 
ATOM     36  O33 RES d   1      13.661   5.855  14.567  0.00  0.00    -0.644 OA
ATOM     37  O34 RES d   1      14.010   6.455  16.568  0.00  0.00    -0.644 OA
ENDBRANCH  31  35
ENDBRANCH  27  29
ENDBRANCH   6  25
TORSDOF 8
ENDMDL
MODEL 8
REMARK VINA RESULT:      -8.3      2.969     10.673
REMARK  8 active torsions:
REMARK  status: ('A' for Active; 'I' for Inactive)
REMARK    1  A    between atoms: C2_2  and  O4_3 
REMARK    2  A    between atoms: C2_2  and  C5_4 
REMARK    3  A    between atoms: C10_8  and  C11_9 
REMARK    4  A    between atoms: C14_12  and  S15_13 
REMARK    5  A    between atoms: S15_13  and  C16_14 
REMARK    6  A    between atoms: C22_19  and  C24_20 
REMARK       I    between atoms: C24_20  and  N26_22 
REMARK    7  A    between atoms: N26_22  and  C27_23 
REMARK    8  A    between atoms: C31_27  and  C32_28 
ROOT
ATOM      1  C16 RES d   1      18.924  -1.090  12.548  0.00  0.00     0.080 C 
ATOM      2  C18 RES d   1      19.989  -0.931  11.434  0.00  0.00     0.248 C 
ATOM      3  N19 RES d   1      20.428  -2.310  11.133  0.00  0.00    -0.061 N 
ATOM      4  H20 RES d   1      20.615  -2.399  10.145  0.00  0.00     0.278 HD
ATOM      5  H21 RES d   1      21.265  -2.522  11.657  0.00  0.00     0.278 HD
ATOM      6  C22 RES d   1      19.354  -3.241  11.522  0.00  0.00     0.278 C 
ATOM      7  C36 RES d   1      18.206  -2.395  12.113  0.00  0.00     0.060 C 
ENDROOT
BRANCH   1   8
ATOM      8  S15 RES d   1      17.777   0.310  12.553  0.00  0.00    -0.125 SA
BRANCH   8   9
ATOM      9  C14 RES d   1      18.456   1.257  13.874  0.00  0.00     0.013 A 
ATOM     10  C10 RES d   1      18.735   2.578  13.831  0.00  0.00     0.108 A 
ATOM     11  N9  RES d   1      19.252   3.065  15.044  0.00  0.00    -0.206 NA
ATOM     12  C7  RES d   1      18.421   3.771  15.861  0.00  0.00     0.213 A 
ATOM     13  C40 RES d   1      19.412   1.932  15.983  0.00  0.00     0.095 A 
ATOM     14  C5  RES d   1      18.420   2.664  16.895  0.00  0.00     0.120 A 
ATOM     15  O8  RES d   1      17.892   4.860  15.789  0.00  0.00    -0.279 OA
ATOM     16  C37 RES d   1      18.821   0.726  15.240  0.00  0.00     0.043 A 
ATOM     17  C39 RES d   1      17.575   0.212  15.964  0.00  0.00     0.017 C 
BRANCH  10  18
ATOM     18  C11 RES d   1      18.531   3.383  12.692  0.00  0.00     0.222 C 
ATOM     19  O12 RES d   1      19.548   3.647  11.872  0.00  0.00    -0.643 OA
ATOM     20  O13 RES d   1      17.321   3.878  12.435  0.00  0.00    -0.643 OA
ENDBRANCH  10  18
BRANCH  14  21
ATOM     21  C2  RES d   1      19.014   3.080  18.242  0.00  0.00     0.128 C 
ATOM     22  C1  RES d   1      17.901   3.616  19.146  0.00  0.00     0.040 C 
BRANCH  21  23
ATOM     23  O4  RES d   1      19.627   1.948  18.862  0.00  0.00    -0.395 OA
ATOM     24  H45 RES d   1      20.495   1.724  18.500  0.00  0.00     0.210 HD
ENDBRANCH  21  23
ENDBRANCH  14  21
ENDBRANCH   8   9
ENDBRANCH   1   8
BRANCH   6  25
ATOM     25  C24 RES d   1      18.868  -3.997  10.311  0.00  0.00     0.253 C 
ATOM     26  O25 RES d   1      19.046  -3.543   9.202  0.00  0.00    -0.271 OA
ATOM     27  N26 RES d   1      18.234  -5.177  10.464  0.00  0.00    -0.325 N 
ATOM     28  H48 RES d   1      18.154  -5.574  11.344  0.00  0.00     0.169 HD
BRANCH  27  29
ATOM     29  C27 RES d   1      17.694  -5.829   9.349  0.00  0.00     0.035 A 
ATOM     30  C35 RES d   1      16.327  -5.800   9.123  0.00  0.00     0.048 A 
ATOM     31  C31 RES d   1      15.794  -6.448   8.008  0.00  0.00     0.043 A 
ATOM     32  C30 RES d   1      16.643  -7.130   7.132  0.00  0.00     0.018 A 
ATOM     33  C29 RES d   1      18.002  -7.157   7.368  0.00  0.00     0.003 A 
ATOM     34  C28 RES d   1      18.529  -6.510   8.472  0.00  0.00     0.029 A 
BRANCH  31  35
ATOM     35  C32 RES d   1      14.341  -6.418   7.757  0.00  0.00     0.209 C 
ATOM     36  O33 RES d   1      13.609  -5.760   8.483  0.00  0.00    -0.644 OA
ATOM     37  O34 RES d   1      13.868  -7.053   6.825  0.00  0.00    -0.644 OA
ENDBRANCH  31  35
ENDBRANCH  27  29
ENDBRANCH   6  25
TORSDOF 8
ENDMDL
MODEL 9
REMARK VINA RESULT:      -8.1      2.040     10.720
REMARK  8 active torsions:
REMARK  status: ('A' for Active; 'I' for Inactive)
REMARK    1  A    between atoms: C2_2  and  O4_3 
REMARK    2  A    between atoms: C2_2  and  C5_4 
REMARK    3  A    between atoms: C10_8  and  C11_9 
REMARK    4  A    between atoms: C14_12  and  S15_13 
REMARK    5  A    between atoms: S15_13  and  C16_14 
REMARK    6  A    between atoms: C22_19  and  C24_20 
REMARK       I    between atoms: C24_20  and  N26_22 
REMARK    7  A    between atoms: N26_22  and  C27_23 
REMARK    8  A    between atoms: C31_27  and  C32_28 
ROOT
ATOM      1  C16 RES d   1      18.897   0.030  12.252  0.00  0.00     0.080 C 
ATOM      2  C18 RES d   1      20.122   0.126  11.307  0.00  0.00     0.248 C 
ATOM      3  N19 RES d   1      20.374  -1.265  10.875  0.00  0.00    -0.061 N 
ATOM      4  H20 RES d   1      20.683  -1.270   9.914  0.00  0.00     0.278 HD
ATOM      5  H21 RES d   1      21.083  -1.680  11.462  0.00  0.00     0.278 HD
ATOM      6  C22 RES d   1      19.120  -2.029  10.997  0.00  0.00     0.278 C 
ATOM      7  C36 RES d   1      18.049  -1.068  11.557  0.00  0.00     0.060 C 
ENDROOT
BRANCH   1   8
ATOM      8  S15 RES d   1      18.000   1.601  12.311  0.00  0.00    -0.125 SA
BRANCH   8   9
ATOM      9  C14 RES d   1      18.580   2.227  13.852  0.00  0.00     0.013 A 
ATOM     10  C10 RES d   1      18.854   3.522  14.121  0.00  0.00     0.108 A 
ATOM     11  N9  RES d   1      19.282   3.724  15.444  0.00  0.00    -0.206 NA
ATOM     12  C7  RES d   1      18.393   4.241  16.337  0.00  0.00     0.213 A 
ATOM     13  C40 RES d   1      19.384   2.411  16.118  0.00  0.00     0.095 A 
ATOM     14  C5  RES d   1      18.326   2.934  17.099  0.00  0.00     0.120 A 
ATOM     15  O8  RES d   1      17.864   5.324  16.471  0.00  0.00    -0.279 OA
ATOM     16  C37 RES d   1      18.853   1.404  15.089  0.00  0.00     0.043 A 
ATOM     17  C39 RES d   1      17.563   0.755  15.594  0.00  0.00     0.017 C 
BRANCH  10  18
ATOM     18  C11 RES d   1      18.724   4.560  13.176  0.00  0.00     0.222 C 
ATOM     19  O12 RES d   1      19.772   4.919  12.434  0.00  0.00    -0.643 OA
ATOM     20  O13 RES d   1      17.556   5.181  13.025  0.00  0.00    -0.643 OA
ENDBRANCH  10  18
BRANCH  14  21
ATOM     21  C2  RES d   1      18.823   3.036  18.542  0.00  0.00     0.128 C 
ATOM     22  C1  RES d   1      17.624   3.088  19.492  0.00  0.00     0.040 C 
BRANCH  21  23
ATOM     23  O4  RES d   1      19.627   1.896  18.852  0.00  0.00    -0.395 OA
ATOM     24  H45 RES d   1      19.298   1.069  18.474  0.00  0.00     0.210 HD
ENDBRANCH  21  23
ENDBRANCH  14  21
ENDBRANCH   8   9
ENDBRANCH   1   8
BRANCH   6  25
ATOM     25  C24 RES d   1      18.698  -2.542   9.644  0.00  0.00     0.253 C 
ATOM     26  O25 RES d   1      17.563  -2.933   9.471  0.00  0.00    -0.271 OA
ATOM     27  N26 RES d   1      19.582  -2.566   8.627  0.00  0.00    -0.325 N 
ATOM     28  H48 RES d   1      20.467  -2.189   8.744  0.00  0.00     0.169 HD
BRANCH  27  29
ATOM     29  C27 RES d   1      19.220  -3.134   7.400  0.00  0.00     0.035 A 
ATOM     30  C35 RES d   1      19.000  -4.499   7.306  0.00  0.00     0.048 A 
ATOM     31  C31 RES d   1      18.635  -5.060   6.081  0.00  0.00     0.043 A 
ATOM     32  C30 RES d   1      18.503  -4.241   4.955  0.00  0.00     0.018 A 
ATOM     33  C29 RES d   1      18.729  -2.885   5.059  0.00  0.00     0.003 A 
ATOM     34  C28 RES d   1      19.086  -2.329   6.275  0.00  0.00     0.029 A 
BRANCH  31  35
ATOM     35  C32 RES d   1      18.395  -6.512   5.972  0.00  0.00     0.209 C 
ATOM     36  O33 RES d   1      18.088  -7.002   4.895  0.00  0.00    -0.644 OA
ATOM     37  O34 RES d   1      18.502  -7.224   6.961  0.00  0.00    -0.644 OA
ENDBRANCH  31  35
ENDBRANCH  27  29
ENDBRANCH   6  25
TORSDOF 8
ENDMDL
