MODEL 1
REMARK VINA RESULT:      -7.2      0.000      0.000
REMARK  12 active torsions:
REMARK  status: ('A' for Active; 'I' for Inactive)
REMARK    1  A    between atoms: C2_2  and  C4_4 
REMARK    2  A    between atoms: C4_4  and  N6_5 
REMARK    3  A    between atoms: C4_4  and  C7_6 
REMARK    4  A    between atoms: C7_6  and  O9_8 
REMARK    5  A    between atoms: O9_8  and  C10_9 
REMARK    6  A    between atoms: C10_9  and  C11_10 
REMARK    7  A    between atoms: C11_10  and  C13_11 
REMARK    8  A    between atoms: C11_10  and  O15_13 
REMARK    9  A    between atoms: C13_11  and  O14_12 
REMARK   10  A    between atoms: O15_13  and  C16_14 
REMARK   11  A    between atoms: C16_14  and  N17_15 
REMARK   12  A    between atoms: C23_21  and  N24_22 
ROOT
ATOM      1  O15 <0> d   1      18.912   4.066  14.769  0.00  0.00    -0.362 OA
ENDROOT
BRANCH   1   2
ATOM      2  C11 <0> d   1      19.061   4.803  15.983  0.00  0.00     0.171 C 
BRANCH   2   3
ATOM      3  C10 <0> d   1      19.040   3.840  17.171  0.00  0.00     0.213 C 
BRANCH   3   4
ATOM      4  O9  <0> d   1      19.585   2.558  16.764  0.00  0.00    -0.317 OA
BRANCH   4   5
ATOM      5  C7  <0> d   1      19.331   1.506  17.559  0.00  0.00     0.292 C 
ATOM      6  O8  <0> d   1      19.738   1.498  18.697  0.00  0.00    -0.263 OA
BRANCH   5   7
ATOM      7  C4  <0> d   1      18.540   0.337  17.034  0.00  0.00     0.319 C 
BRANCH   7   8
ATOM      8  C2  <0> d   1      18.747   0.220  15.522  0.00  0.00     0.020 C 
ATOM      9  C1  <0> d   1      19.177  -1.207  15.175  0.00  0.00     0.012 C 
ATOM     10  C3  <0> d   1      17.438   0.546  14.800  0.00  0.00     0.012 C 
ENDBRANCH   7   8
BRANCH   7  11
ATOM     11  N6  <0> d   1      17.113   0.544  17.318  0.00  0.00     0.092 N 
ATOM     12  H35 <0> d   1      16.555   0.403  16.489  0.00  0.00     0.313 HD
ATOM     13  H36 <0> d   1      16.804  -0.056  18.069  0.00  0.00     0.313 HD
ENDBRANCH   7  11
ENDBRANCH   5   7
ENDBRANCH   4   5
ENDBRANCH   3   4
ENDBRANCH   2   3
BRANCH   2  14
ATOM     14  C13 <0> d   1      20.391   5.558  15.962  0.00  0.00     0.198 C 
BRANCH  14  15
ATOM     15  O14 <0> d   1      21.447   4.673  16.347  0.00  0.00    -0.398 OA
ATOM     16  H41 <0> d   1      22.331   5.055  16.261  0.00  0.00     0.209 HD
ENDBRANCH  14  15
ENDBRANCH   2  14
ENDBRANCH   1   2
BRANCH   1  17
ATOM     17  C16 <0> d   1      17.628   4.207  14.156  0.00  0.00     0.301 C 
BRANCH  17  18
ATOM     18  N17 <0> d   1      17.742   3.952  12.718  0.00  0.00    -0.301 N 
ATOM     19  C21 <0> d   1      18.600   3.071  12.119  0.00  0.00     0.186 A 
ATOM     20  C20 <0> d   1      18.353   3.163  10.744  0.00  0.00     0.173 A 
ATOM     21  N22 <0> d   1      19.529   2.220  12.569  0.00  0.00    -0.044 NA
ATOM     22  N19 <0> d   1      17.378   4.089  10.572  0.00  0.00    -0.234 NA
ATOM     23  C26 <0> d   1      19.104   2.348   9.865  0.00  0.00     0.292 A 
ATOM     24  C18 <0> d   1      17.016   4.555  11.731  0.00  0.00     0.214 A 
ATOM     25  N25 <0> d   1      20.023   1.510  10.394  0.00  0.00    -0.152 N 
ATOM     26  O27 <0> d   1      18.922   2.396   8.660  0.00  0.00    -0.265 OA
ATOM     27  C23 <0> d   1      20.218   1.466  11.742  0.00  0.00     0.703 A 
ATOM     28  H47 <0> d   1      20.548   0.940   9.810  0.00  0.00     0.187 HD
BRANCH  27  29
ATOM     29  N24 <0> d   1      21.160   0.608  12.251  0.00  0.00    -0.233 N 
ATOM     30  H45 <0> d   1      20.891  -0.111  12.844  0.00  0.00     0.174 HD
ATOM     31  H46 <0> d   1      22.095   0.719  12.018  0.00  0.00     0.174 HD
ENDBRANCH  27  29
ENDBRANCH  17  18
ENDBRANCH   1  17
TORSDOF 12
ENDMDL
MODEL 2
REMARK VINA RESULT:      -6.9      2.836      4.297
REMARK  12 active torsions:
REMARK  status: ('A' for Active; 'I' for Inactive)
REMARK    1  A    between atoms: C2_2  and  C4_4 
REMARK    2  A    between atoms: C4_4  and  N6_5 
REMARK    3  A    between atoms: C4_4  and  C7_6 
REMARK    4  A    between atoms: C7_6  and  O9_8 
REMARK    5  A    between atoms: O9_8  and  C10_9 
REMARK    6  A    between atoms: C10_9  and  C11_10 
REMARK    7  A    between atoms: C11_10  and  C13_11 
REMARK    8  A    between atoms: C11_10  and  O15_13 
REMARK    9  A    between atoms: C13_11  and  O14_12 
REMARK   10  A    between atoms: O15_13  and  C16_14 
REMARK   11  A    between atoms: C16_14  and  N17_15 
REMARK   12  A    between atoms: C23_21  and  N24_22 
ROOT
ATOM      1  O15 <0> d   1      17.971   2.569  10.204  0.00  0.00    -0.362 OA
ENDROOT
BRANCH   1   2
ATOM      2  C11 <0> d   1      18.444   2.925  11.504  0.00  0.00     0.171 C 
BRANCH   2   3
ATOM      3  C10 <0> d   1      18.186   1.770  12.473  0.00  0.00     0.213 C 
BRANCH   3   4
ATOM      4  O9  <0> d   1      18.776   2.080  13.763  0.00  0.00    -0.317 OA
BRANCH   4   5
ATOM      5  C7  <0> d   1      19.302   1.058  14.455  0.00  0.00     0.292 C 
ATOM      6  O8  <0> d   1      20.116   0.332  13.934  0.00  0.00    -0.263 OA
BRANCH   5   7
ATOM      7  C4  <0> d   1      18.878   0.814  15.880  0.00  0.00     0.319 C 
BRANCH   7   8
ATOM      8  C2  <0> d   1      18.101  -0.502  15.964  0.00  0.00     0.020 C 
ATOM      9  C1  <0> d   1      19.009  -1.595  16.530  0.00  0.00     0.012 C 
ATOM     10  C3  <0> d   1      16.889  -0.321  16.879  0.00  0.00     0.012 C 
ENDBRANCH   7   8
BRANCH   7  11
ATOM     11  N6  <0> d   1      18.021   1.919  16.332  0.00  0.00     0.092 N 
ATOM     12  H35 <0> d   1      18.090   2.045  17.330  0.00  0.00     0.313 HD
ATOM     13  H36 <0> d   1      18.245   2.773  15.843  0.00  0.00     0.313 HD
ENDBRANCH   7  11
ENDBRANCH   5   7
ENDBRANCH   4   5
ENDBRANCH   3   4
ENDBRANCH   2   3
BRANCH   2  14
ATOM     14  C13 <0> d   1      19.944   3.213  11.441  0.00  0.00     0.198 C 
BRANCH  14  15
ATOM     15  O14 <0> d   1      20.672   2.024  11.758  0.00  0.00    -0.398 OA
ATOM     16  H41 <0> d   1      21.098   2.043  12.626  0.00  0.00     0.209 HD
ENDBRANCH  14  15
ENDBRANCH   2  14
ENDBRANCH   1   2
BRANCH   1  17
ATOM     17  C16 <0> d   1      18.995   2.508   9.208  0.00  0.00     0.301 C 
BRANCH  17  18
ATOM     18  N17 <0> d   1      18.960   1.199   8.551  0.00  0.00    -0.301 N 
ATOM     19  C21 <0> d   1      19.209  -0.010   9.141  0.00  0.00     0.186 A 
ATOM     20  C20 <0> d   1      19.057  -0.971   8.135  0.00  0.00     0.173 A 
ATOM     21  N22 <0> d   1      19.530  -0.394  10.382  0.00  0.00    -0.044 NA
ATOM     22  N19 <0> d   1      18.736  -0.313   6.995  0.00  0.00    -0.234 NA
ATOM     23  C26 <0> d   1      19.253  -2.333   8.465  0.00  0.00     0.292 A 
ATOM     24  C18 <0> d   1      18.678   0.964   7.236  0.00  0.00     0.214 A 
ATOM     25  N25 <0> d   1      19.572  -2.645   9.741  0.00  0.00    -0.152 N 
ATOM     26  O27 <0> d   1      19.130  -3.204   7.621  0.00  0.00    -0.265 OA
ATOM     27  C23 <0> d   1      19.706  -1.663  10.676  0.00  0.00     0.703 A 
ATOM     28  H47 <0> d   1      19.709  -3.572   9.991  0.00  0.00     0.187 HD
BRANCH  27  29
ATOM     29  N24 <0> d   1      20.034  -2.009  11.963  0.00  0.00    -0.233 N 
ATOM     30  H45 <0> d   1      20.924  -1.827  12.302  0.00  0.00     0.174 HD
ATOM     31  H46 <0> d   1      19.376  -2.436  12.533  0.00  0.00     0.174 HD
ENDBRANCH  27  29
ENDBRANCH  17  18
ENDBRANCH   1  17
TORSDOF 12
ENDMDL
MODEL 3
REMARK VINA RESULT:      -6.9      4.199      6.705
REMARK  12 active torsions:
REMARK  status: ('A' for Active; 'I' for Inactive)
REMARK    1  A    between atoms: C2_2  and  C4_4 
REMARK    2  A    between atoms: C4_4  and  N6_5 
REMARK    3  A    between atoms: C4_4  and  C7_6 
REMARK    4  A    between atoms: C7_6  and  O9_8 
REMARK    5  A    between atoms: O9_8  and  C10_9 
REMARK    6  A    between atoms: C10_9  and  C11_10 
REMARK    7  A    between atoms: C11_10  and  C13_11 
REMARK    8  A    between atoms: C11_10  and  O15_13 
REMARK    9  A    between atoms: C13_11  and  O14_12 
REMARK   10  A    between atoms: O15_13  and  C16_14 
REMARK   11  A    between atoms: C16_14  and  N17_15 
REMARK   12  A    between atoms: C23_21  and  N24_22 
ROOT
ATOM      1  O15 <0> d   1      19.029  -2.128  10.711  0.00  0.00    -0.362 OA
ENDROOT
BRANCH   1   2
ATOM      2  C11 <0> d   1      19.314  -0.767  11.038  0.00  0.00     0.171 C 
BRANCH   2   3
ATOM      3  C10 <0> d   1      19.563  -0.645  12.542  0.00  0.00     0.213 C 
BRANCH   3   4
ATOM      4  O9  <0> d   1      20.014   0.700  12.850  0.00  0.00    -0.317 OA
BRANCH   4   5
ATOM      5  C7  <0> d   1      19.069   1.638  13.017  0.00  0.00     0.292 C 
ATOM      6  O8  <0> d   1      18.151   1.441  13.778  0.00  0.00    -0.263 OA
BRANCH   5   7
ATOM      7  C4  <0> d   1      19.150   2.934  12.255  0.00  0.00     0.319 C 
BRANCH   7   8
ATOM      8  C2  <0> d   1      18.061   2.964  11.180  0.00  0.00     0.020 C 
ATOM      9  C1  <0> d   1      17.296   4.286  11.265  0.00  0.00     0.012 C 
ATOM     10  C3  <0> d   1      18.705   2.836   9.798  0.00  0.00     0.012 C 
ENDBRANCH   7   8
BRANCH   7  11
ATOM     11  N6  <0> d   1      20.470   3.046  11.619  0.00  0.00     0.092 N 
ATOM     12  H35 <0> d   1      20.450   2.679  10.679  0.00  0.00     0.313 HD
ATOM     13  H36 <0> d   1      20.795   4.002  11.627  0.00  0.00     0.313 HD
ENDBRANCH   7  11
ENDBRANCH   5   7
ENDBRANCH   4   5
ENDBRANCH   3   4
ENDBRANCH   2   3
BRANCH   2  14
ATOM     14  C13 <0> d   1      20.559  -0.309  10.276  0.00  0.00     0.198 C 
BRANCH  14  15
ATOM     15  O14 <0> d   1      21.728  -0.643  11.029  0.00  0.00    -0.398 OA
ATOM     16  H41 <0> d   1      21.561  -0.787  11.970  0.00  0.00     0.209 HD
ENDBRANCH  14  15
ENDBRANCH   2  14
ENDBRANCH   1   2
BRANCH   1  17
ATOM     17  C16 <0> d   1      17.870  -2.300   9.892  0.00  0.00     0.301 C 
BRANCH  17  18
ATOM     18  N17 <0> d   1      18.282  -2.586   8.516  0.00  0.00    -0.301 N 
ATOM     19  C21 <0> d   1      18.555  -1.662   7.544  0.00  0.00     0.186 A 
ATOM     20  C20 <0> d   1      18.907  -2.392   6.404  0.00  0.00     0.173 A 
ATOM     21  N22 <0> d   1      18.552  -0.324   7.501  0.00  0.00    -0.044 NA
ATOM     22  N19 <0> d   1      18.826  -3.706   6.725  0.00  0.00    -0.234 NA
ATOM     23  C26 <0> d   1      19.250  -1.685   5.226  0.00  0.00     0.292 A 
ATOM     24  C18 <0> d   1      18.458  -3.824   7.967  0.00  0.00     0.214 A 
ATOM     25  N25 <0> d   1      19.228  -0.334   5.260  0.00  0.00    -0.152 N 
ATOM     26  O27 <0> d   1      19.564  -2.280   4.210  0.00  0.00    -0.265 OA
ATOM     27  C23 <0> d   1      18.875   0.320   6.402  0.00  0.00     0.703 A 
ATOM     28  H47 <0> d   1      19.461   0.172   4.465  0.00  0.00     0.187 HD
BRANCH  27  29
ATOM     29  N24 <0> d   1      18.859   1.692   6.406  0.00  0.00    -0.233 N 
ATOM     30  H45 <0> d   1      18.022   2.167   6.529  0.00  0.00     0.174 HD
ATOM     31  H46 <0> d   1      19.684   2.188   6.285  0.00  0.00     0.174 HD
ENDBRANCH  27  29
ENDBRANCH  17  18
ENDBRANCH   1  17
TORSDOF 12
ENDMDL
MODEL 4
REMARK VINA RESULT:      -6.9      4.132      5.772
REMARK  12 active torsions:
REMARK  status: ('A' for Active; 'I' for Inactive)
REMARK    1  A    between atoms: C2_2  and  C4_4 
REMARK    2  A    between atoms: C4_4  and  N6_5 
REMARK    3  A    between atoms: C4_4  and  C7_6 
REMARK    4  A    between atoms: C7_6  and  O9_8 
REMARK    5  A    between atoms: O9_8  and  C10_9 
REMARK    6  A    between atoms: C10_9  and  C11_10 
REMARK    7  A    between atoms: C11_10  and  C13_11 
REMARK    8  A    between atoms: C11_10  and  O15_13 
REMARK    9  A    between atoms: C13_11  and  O14_12 
REMARK   10  A    between atoms: O15_13  and  C16_14 
REMARK   11  A    between atoms: C16_14  and  N17_15 
REMARK   12  A    between atoms: C23_21  and  N24_22 
ROOT
ATOM      1  O15 <0> d   1      18.808   1.766  10.078  0.00  0.00    -0.362 OA
ENDROOT
BRANCH   1   2
ATOM      2  C11 <0> d   1      18.469   2.111  11.422  0.00  0.00     0.171 C 
BRANCH   2   3
ATOM      3  C10 <0> d   1      17.925   0.878  12.144  0.00  0.00     0.213 C 
BRANCH   3   4
ATOM      4  O9  <0> d   1      18.892   0.428  13.129  0.00  0.00    -0.317 OA
BRANCH   4   5
ATOM      5  C7  <0> d   1      19.235  -0.870  13.098  0.00  0.00     0.292 C 
ATOM      6  O8  <0> d   1      19.479  -1.454  14.128  0.00  0.00    -0.263 OA
BRANCH   5   7
ATOM      7  C4  <0> d   1      19.317  -1.597  11.782  0.00  0.00     0.319 C 
BRANCH   7   8
ATOM      8  C2  <0> d   1      19.046  -3.087  12.004  0.00  0.00     0.020 C 
ATOM      9  C1  <0> d   1      17.644  -3.432  11.495  0.00  0.00     0.012 C 
ATOM     10  C3  <0> d   1      20.083  -3.914  11.242  0.00  0.00     0.012 C 
ENDBRANCH   7   8
BRANCH   7  11
ATOM     11  N6  <0> d   1      20.658  -1.423  11.208  0.00  0.00     0.092 N 
ATOM     12  H35 <0> d   1      21.340  -1.969  11.713  0.00  0.00     0.313 HD
ATOM     13  H36 <0> d   1      20.664  -1.657  10.226  0.00  0.00     0.313 HD
ENDBRANCH   7  11
ENDBRANCH   5   7
ENDBRANCH   4   5
ENDBRANCH   3   4
ENDBRANCH   2   3
BRANCH   2  14
ATOM     14  C13 <0> d   1      19.715   2.620  12.149  0.00  0.00     0.198 C 
BRANCH  14  15
ATOM     15  O14 <0> d   1      20.852   1.859  11.734  0.00  0.00    -0.398 OA
ATOM     16  H41 <0> d   1      20.672   0.917  11.611  0.00  0.00     0.209 HD
ENDBRANCH  14  15
ENDBRANCH   2  14
ENDBRANCH   1   2
BRANCH   1  17
ATOM     17  C16 <0> d   1      17.896   0.854   9.463  0.00  0.00     0.301 C 
BRANCH  17  18
ATOM     18  N17 <0> d   1      18.388   0.492   8.132  0.00  0.00    -0.301 N 
ATOM     19  C21 <0> d   1      18.555  -0.777   7.648  0.00  0.00     0.186 A 
ATOM     20  C20 <0> d   1      19.040  -0.634   6.343  0.00  0.00     0.173 A 
ATOM     21  N22 <0> d   1      18.349  -2.001   8.148  0.00  0.00    -0.044 NA
ATOM     22  N19 <0> d   1      19.153   0.695   6.099  0.00  0.00    -0.234 NA
ATOM     23  C26 <0> d   1      19.304  -1.800   5.587  0.00  0.00     0.292 A 
ATOM     24  C18 <0> d   1      18.771   1.360   7.150  0.00  0.00     0.214 A 
ATOM     25  N25 <0> d   1      19.068  -3.002   6.158  0.00  0.00    -0.152 N 
ATOM     26  O27 <0> d   1      19.727  -1.722   4.446  0.00  0.00    -0.265 OA
ATOM     27  C23 <0> d   1      18.595  -3.076   7.434  0.00  0.00     0.703 A 
ATOM     28  H47 <0> d   1      19.239  -3.816   5.658  0.00  0.00     0.187 HD
BRANCH  27  29
ATOM     29  N24 <0> d   1      18.368  -4.311   7.989  0.00  0.00    -0.233 N 
ATOM     30  H45 <0> d   1      17.965  -5.015   7.457  0.00  0.00     0.174 HD
ATOM     31  H46 <0> d   1      18.608  -4.479   8.913  0.00  0.00     0.174 HD
ENDBRANCH  27  29
ENDBRANCH  17  18
ENDBRANCH   1  17
TORSDOF 12
ENDMDL
MODEL 5
REMARK VINA RESULT:      -6.8      2.580      6.940
REMARK  12 active torsions:
REMARK  status: ('A' for Active; 'I' for Inactive)
REMARK    1  A    between atoms: C2_2  and  C4_4 
REMARK    2  A    between atoms: C4_4  and  N6_5 
REMARK    3  A    between atoms: C4_4  and  C7_6 
REMARK    4  A    between atoms: C7_6  and  O9_8 
REMARK    5  A    between atoms: O9_8  and  C10_9 
REMARK    6  A    between atoms: C10_9  and  C11_10 
REMARK    7  A    between atoms: C11_10  and  C13_11 
REMARK    8  A    between atoms: C11_10  and  O15_13 
REMARK    9  A    between atoms: C13_11  and  O14_12 
REMARK   10  A    between atoms: O15_13  and  C16_14 
REMARK   11  A    between atoms: C16_14  and  N17_15 
REMARK   12  A    between atoms: C23_21  and  N24_22 
ROOT
ATOM      1  O15 <0> d   1      18.879  -1.063  12.636  0.00  0.00    -0.362 OA
ENDROOT
BRANCH   1   2
ATOM      2  C11 <0> d   1      18.484  -1.793  11.473  0.00  0.00     0.171 C 
BRANCH   2   3
ATOM      3  C10 <0> d   1      18.370  -0.836  10.285  0.00  0.00     0.213 C 
BRANCH   3   4
ATOM      4  O9  <0> d   1      19.526   0.040  10.256  0.00  0.00    -0.317 OA
BRANCH   4   5
ATOM      5  C7  <0> d   1      19.290   1.360  10.177  0.00  0.00     0.292 C 
ATOM      6  O8  <0> d   1      19.335   1.917   9.105  0.00  0.00    -0.263 OA
BRANCH   5   7
ATOM      7  C4  <0> d   1      18.970   2.145  11.421  0.00  0.00     0.319 C 
BRANCH   7   8
ATOM      8  C2  <0> d   1      18.871   3.632  11.075  0.00  0.00     0.020 C 
ATOM      9  C1  <0> d   1      17.402   4.059  11.070  0.00  0.00     0.012 C 
ATOM     10  C3  <0> d   1      19.635   4.451  12.118  0.00  0.00     0.012 C 
ENDBRANCH   7   8
BRANCH   7  11
ATOM     11  N6  <0> d   1      20.034   1.943  12.415  0.00  0.00     0.092 N 
ATOM     12  H35 <0> d   1      20.837   2.515  12.205  0.00  0.00     0.313 HD
ATOM     13  H36 <0> d   1      19.695   2.124  13.349  0.00  0.00     0.313 HD
ENDBRANCH   7  11
ENDBRANCH   5   7
ENDBRANCH   4   5
ENDBRANCH   3   4
ENDBRANCH   2   3
BRANCH   2  14
ATOM     14  C13 <0> d   1      19.529  -2.866  11.165  0.00  0.00     0.198 C 
BRANCH  14  15
ATOM     15  O14 <0> d   1      20.838  -2.304  11.281  0.00  0.00    -0.398 OA
ATOM     16  H41 <0> d   1      21.260  -2.111  10.432  0.00  0.00     0.209 HD
ENDBRANCH  14  15
ENDBRANCH   2  14
ENDBRANCH   1   2
BRANCH   1  17
ATOM     17  C16 <0> d   1      17.793  -0.693  13.488  0.00  0.00     0.301 C 
BRANCH  17  18
ATOM     18  N17 <0> d   1      18.294  -0.450  14.843  0.00  0.00    -0.301 N 
ATOM     19  C21 <0> d   1      18.494   0.773  15.424  0.00  0.00     0.186 A 
ATOM     20  C20 <0> d   1      18.975   0.514  16.713  0.00  0.00     0.173 A 
ATOM     21  N22 <0> d   1      18.320   2.037  15.023  0.00  0.00    -0.044 NA
ATOM     22  N19 <0> d   1      19.054  -0.832  16.852  0.00  0.00    -0.234 NA
ATOM     23  C26 <0> d   1      19.269   1.611  17.558  0.00  0.00     0.292 A 
ATOM     24  C18 <0> d   1      18.654  -1.402  15.753  0.00  0.00     0.214 A 
ATOM     25  N25 <0> d   1      19.065   2.860  17.084  0.00  0.00    -0.152 N 
ATOM     26  O27 <0> d   1      19.690   1.433  18.689  0.00  0.00    -0.265 OA
ATOM     27  C23 <0> d   1      18.594   3.046  15.818  0.00  0.00     0.703 A 
ATOM     28  H47 <0> d   1      19.257   3.626  17.646  0.00  0.00     0.187 HD
BRANCH  27  29
ATOM     29  N24 <0> d   1      18.399   4.326  15.363  0.00  0.00    -0.233 N 
ATOM     30  H45 <0> d   1      17.647   4.846  15.685  0.00  0.00     0.174 HD
ATOM     31  H46 <0> d   1      19.012   4.710  14.717  0.00  0.00     0.174 HD
ENDBRANCH  27  29
ENDBRANCH  17  18
ENDBRANCH   1  17
TORSDOF 12
ENDMDL
MODEL 6
REMARK VINA RESULT:      -6.8      2.704      4.768
REMARK  12 active torsions:
REMARK  status: ('A' for Active; 'I' for Inactive)
REMARK    1  A    between atoms: C2_2  and  C4_4 
REMARK    2  A    between atoms: C4_4  and  N6_5 
REMARK    3  A    between atoms: C4_4  and  C7_6 
REMARK    4  A    between atoms: C7_6  and  O9_8 
REMARK    5  A    between atoms: O9_8  and  C10_9 
REMARK    6  A    between atoms: C10_9  and  C11_10 
REMARK    7  A    between atoms: C11_10  and  C13_11 
REMARK    8  A    between atoms: C11_10  and  O15_13 
REMARK    9  A    between atoms: C13_11  and  O14_12 
REMARK   10  A    between atoms: O15_13  and  C16_14 
REMARK   11  A    between atoms: C16_14  and  N17_15 
REMARK   12  A    between atoms: C23_21  and  N24_22 
ROOT
ATOM      1  O15 <0> d   1      17.638   1.065  14.879  0.00  0.00    -0.362 OA
ENDROOT
BRANCH   1   2
ATOM      2  C11 <0> d   1      18.752   1.707  15.501  0.00  0.00     0.171 C 
BRANCH   2   3
ATOM      3  C10 <0> d   1      18.871   3.140  14.979  0.00  0.00     0.213 C 
BRANCH   3   4
ATOM      4  O9  <0> d   1      18.453   3.186  13.590  0.00  0.00    -0.317 OA
BRANCH   4   5
ATOM      5  C7  <0> d   1      19.240   3.861  12.738  0.00  0.00     0.292 C 
ATOM      6  O8  <0> d   1      19.552   5.003  12.981  0.00  0.00    -0.263 OA
BRANCH   5   7
ATOM      7  C4  <0> d   1      19.734   3.197  11.480  0.00  0.00     0.319 C 
BRANCH   7   8
ATOM      8  C2  <0> d   1      18.546   2.896  10.562  0.00  0.00     0.020 C 
ATOM      9  C1  <0> d   1      17.905   4.210  10.110  0.00  0.00     0.012 C 
ATOM     10  C3  <0> d   1      19.032   2.119   9.337  0.00  0.00     0.012 C 
ENDBRANCH   7   8
BRANCH   7  11
ATOM     11  N6  <0> d   1      20.417   1.943  11.824  0.00  0.00     0.092 N 
ATOM     12  H35 <0> d   1      20.914   2.030  12.697  0.00  0.00     0.313 HD
ATOM     13  H36 <0> d   1      19.765   1.172  11.854  0.00  0.00     0.313 HD
ENDBRANCH   7  11
ENDBRANCH   5   7
ENDBRANCH   4   5
ENDBRANCH   3   4
ENDBRANCH   2   3
BRANCH   2  14
ATOM     14  C13 <0> d   1      18.548   1.731  17.016  0.00  0.00     0.198 C 
BRANCH  14  15
ATOM     15  O14 <0> d   1      19.695   2.311  17.642  0.00  0.00    -0.398 OA
ATOM     16  H41 <0> d   1      19.637   2.354  18.607  0.00  0.00     0.209 HD
ENDBRANCH  14  15
ENDBRANCH   2  14
ENDBRANCH   1   2
BRANCH   1  17
ATOM     17  C16 <0> d   1      17.885  -0.291  14.500  0.00  0.00     0.301 C 
BRANCH  17  18
ATOM     18  N17 <0> d   1      17.650  -0.447  13.062  0.00  0.00    -0.301 N 
ATOM     19  C21 <0> d   1      18.378  -1.225  12.203  0.00  0.00     0.186 A 
ATOM     20  C20 <0> d   1      17.791  -1.065  10.943  0.00  0.00     0.173 A 
ATOM     21  N22 <0> d   1      19.435  -2.034  12.344  0.00  0.00    -0.044 NA
ATOM     22  N19 <0> d   1      16.755  -0.203  11.088  0.00  0.00    -0.234 NA
ATOM     23  C26 <0> d   1      18.342  -1.767   9.845  0.00  0.00     0.292 A 
ATOM     24  C18 <0> d   1      16.670   0.162  12.333  0.00  0.00     0.214 A 
ATOM     25  N25 <0> d   1      19.408  -2.568  10.066  0.00  0.00    -0.152 N 
ATOM     26  O27 <0> d   1      17.862  -1.657   8.729  0.00  0.00    -0.265 OA
ATOM     27  C23 <0> d   1      19.935  -2.682  11.317  0.00  0.00     0.703 A 
ATOM     28  H47 <0> d   1      19.801  -3.061   9.328  0.00  0.00     0.187 HD
BRANCH  27  29
ATOM     29  N24 <0> d   1      21.019  -3.501  11.510  0.00  0.00    -0.233 N 
ATOM     30  H45 <0> d   1      21.818  -3.155  11.938  0.00  0.00     0.174 HD
ATOM     31  H46 <0> d   1      20.988  -4.426  11.219  0.00  0.00     0.174 HD
ENDBRANCH  27  29
ENDBRANCH  17  18
ENDBRANCH   1  17
TORSDOF 12
ENDMDL
MODEL 7
REMARK VINA RESULT:      -6.7      5.291      8.310
REMARK  12 active torsions:
REMARK  status: ('A' for Active; 'I' for Inactive)
REMARK    1  A    between atoms: C2_2  and  C4_4 
REMARK    2  A    between atoms: C4_4  and  N6_5 
REMARK    3  A    between atoms: C4_4  and  C7_6 
REMARK    4  A    between atoms: C7_6  and  O9_8 
REMARK    5  A    between atoms: O9_8  and  C10_9 
REMARK    6  A    between atoms: C10_9  and  C11_10 
REMARK    7  A    between atoms: C11_10  and  C13_11 
REMARK    8  A    between atoms: C11_10  and  O15_13 
REMARK    9  A    between atoms: C13_11  and  O14_12 
REMARK   10  A    between atoms: O15_13  and  C16_14 
REMARK   11  A    between atoms: C16_14  and  N17_15 
REMARK   12  A    between atoms: C23_21  and  N24_22 
ROOT
ATOM      1  O15 <0> d   1      17.660  -1.002  10.996  0.00  0.00    -0.362 OA
ENDROOT
BRANCH   1   2
ATOM      2  C11 <0> d   1      18.356   0.016  11.718  0.00  0.00     0.171 C 
BRANCH   2   3
ATOM      3  C10 <0> d   1      19.506   0.551  10.863  0.00  0.00     0.213 C 
BRANCH   3   4
ATOM      4  O9  <0> d   1      19.714  -0.328   9.727  0.00  0.00    -0.317 OA
BRANCH   4   5
ATOM      5  C7  <0> d   1      19.468   0.181   8.509  0.00  0.00     0.292 C 
ATOM      6  O8  <0> d   1      19.686   1.349   8.287  0.00  0.00    -0.263 OA
BRANCH   5   7
ATOM      7  C4  <0> d   1      18.918  -0.703   7.420  0.00  0.00     0.319 C 
BRANCH   7   8
ATOM      8  C2  <0> d   1      18.519   0.156   6.218  0.00  0.00     0.020 C 
ATOM      9  C1  <0> d   1      19.311  -0.290   4.987  0.00  0.00     0.012 C 
ATOM     10  C3  <0> d   1      17.022  -0.007   5.948  0.00  0.00     0.012 C 
ENDBRANCH   7   8
BRANCH   7  11
ATOM     11  N6  <0> d   1      17.739  -1.422   7.921  0.00  0.00     0.092 N 
ATOM     12  H35 <0> d   1      17.455  -1.067   8.822  0.00  0.00     0.313 HD
ATOM     13  H36 <0> d   1      16.979  -1.376   7.258  0.00  0.00     0.313 HD
ENDBRANCH   7  11
ENDBRANCH   5   7
ENDBRANCH   4   5
ENDBRANCH   3   4
ENDBRANCH   2   3
BRANCH   2  14
ATOM     14  C13 <0> d   1      17.393   1.156  12.050  0.00  0.00     0.198 C 
BRANCH  14  15
ATOM     15  O14 <0> d   1      17.307   2.047  10.935  0.00  0.00    -0.398 OA
ATOM     16  H41 <0> d   1      16.475   2.536  10.885  0.00  0.00     0.209 HD
ENDBRANCH  14  15
ENDBRANCH   2  14
ENDBRANCH   1   2
BRANCH   1  17
ATOM     17  C16 <0> d   1      17.496  -2.222  11.723  0.00  0.00     0.301 C 
BRANCH  17  18
ATOM     18  N17 <0> d   1      18.452  -3.217  11.230  0.00  0.00    -0.301 N 
ATOM     19  C21 <0> d   1      18.262  -4.069  10.176  0.00  0.00     0.186 A 
ATOM     20  C20 <0> d   1      19.434  -4.826  10.074  0.00  0.00     0.173 A 
ATOM     21  N22 <0> d   1      17.261  -4.276   9.312  0.00  0.00    -0.044 NA
ATOM     22  N19 <0> d   1      20.268  -4.414  11.060  0.00  0.00    -0.234 NA
ATOM     23  C26 <0> d   1      19.523  -5.801   9.052  0.00  0.00     0.292 A 
ATOM     24  C18 <0> d   1      19.692  -3.467  11.742  0.00  0.00     0.214 A 
ATOM     25  N25 <0> d   1      18.473  -5.951   8.215  0.00  0.00    -0.152 N 
ATOM     26  O27 <0> d   1      20.526  -6.483   8.926  0.00  0.00    -0.265 OA
ATOM     27  C23 <0> d   1      17.358  -5.183   8.366  0.00  0.00     0.703 A 
ATOM     28  H47 <0> d   1      18.513  -6.612   7.505  0.00  0.00     0.187 HD
BRANCH  27  29
ATOM     29  N24 <0> d   1      16.306  -5.359   7.503  0.00  0.00    -0.233 N 
ATOM     30  H45 <0> d   1      15.788  -4.594   7.206  0.00  0.00     0.174 HD
ATOM     31  H46 <0> d   1      16.079  -6.249   7.190  0.00  0.00     0.174 HD
ENDBRANCH  27  29
ENDBRANCH  17  18
ENDBRANCH   1  17
TORSDOF 12
ENDMDL
MODEL 8
REMARK VINA RESULT:      -6.7      3.164      5.073
REMARK  12 active torsions:
REMARK  status: ('A' for Active; 'I' for Inactive)
REMARK    1  A    between atoms: C2_2  and  C4_4 
REMARK    2  A    between atoms: C4_4  and  N6_5 
REMARK    3  A    between atoms: C4_4  and  C7_6 
REMARK    4  A    between atoms: C7_6  and  O9_8 
REMARK    5  A    between atoms: O9_8  and  C10_9 
REMARK    6  A    between atoms: C10_9  and  C11_10 
REMARK    7  A    between atoms: C11_10  and  C13_11 
REMARK    8  A    between atoms: C11_10  and  O15_13 
REMARK    9  A    between atoms: C13_11  and  O14_12 
REMARK   10  A    between atoms: O15_13  and  C16_14 
REMARK   11  A    between atoms: C16_14  and  N17_15 
REMARK   12  A    between atoms: C23_21  and  N24_22 
ROOT
ATOM      1  O15 <0> d   1      19.888  -1.390  10.264  0.00  0.00    -0.362 OA
ENDROOT
BRANCH   1   2
ATOM      2  C11 <0> d   1      19.476  -2.406  11.180  0.00  0.00     0.171 C 
BRANCH   2   3
ATOM      3  C10 <0> d   1      19.495  -1.848  12.604  0.00  0.00     0.213 C 
BRANCH   3   4
ATOM      4  O9  <0> d   1      18.133  -1.711  13.088  0.00  0.00    -0.317 OA
BRANCH   4   5
ATOM      5  C7  <0> d   1      17.743  -0.485  13.472  0.00  0.00     0.292 C 
ATOM      6  O8  <0> d   1      17.042   0.179  12.746  0.00  0.00    -0.263 OA
BRANCH   5   7
ATOM      7  C4  <0> d   1      18.179   0.061  14.806  0.00  0.00     0.319 C 
BRANCH   7   8
ATOM      8  C2  <0> d   1      17.825  -0.940  15.908  0.00  0.00     0.020 C 
ATOM      9  C1  <0> d   1      19.109  -1.438  16.576  0.00  0.00     0.012 C 
ATOM     10  C3  <0> d   1      16.939  -0.259  16.952  0.00  0.00     0.012 C 
ENDBRANCH   7   8
BRANCH   7  11
ATOM     11  N6  <0> d   1      17.491   1.334  15.062  0.00  0.00     0.092 N 
ATOM     12  H35 <0> d   1      16.491   1.227  14.983  0.00  0.00     0.313 HD
ATOM     13  H36 <0> d   1      17.745   1.706  15.966  0.00  0.00     0.313 HD
ENDBRANCH   7  11
ENDBRANCH   5   7
ENDBRANCH   4   5
ENDBRANCH   3   4
ENDBRANCH   2   3
BRANCH   2  14
ATOM     14  C13 <0> d   1      18.059  -2.865  10.830  0.00  0.00     0.198 C 
BRANCH  14  15
ATOM     15  O14 <0> d   1      17.321  -1.764  10.295  0.00  0.00    -0.398 OA
ATOM     16  H41 <0> d   1      16.513  -1.557  10.784  0.00  0.00     0.209 HD
ENDBRANCH  14  15
ENDBRANCH   2  14
ENDBRANCH   1   2
BRANCH   1  17
ATOM     17  C16 <0> d   1      20.359  -0.196  10.893  0.00  0.00     0.301 C 
BRANCH  17  18
ATOM     18  N17 <0> d   1      19.633   0.958  10.356  0.00  0.00    -0.301 N 
ATOM     19  C21 <0> d   1      19.327   2.108  11.033  0.00  0.00     0.186 A 
ATOM     20  C20 <0> d   1      18.638   2.920  10.125  0.00  0.00     0.173 A 
ATOM     21  N22 <0> d   1      19.555   2.548  12.276  0.00  0.00    -0.044 NA
ATOM     22  N19 <0> d   1      18.549   2.236   8.959  0.00  0.00    -0.234 NA
ATOM     23  C26 <0> d   1      18.196   4.193  10.557  0.00  0.00     0.292 A 
ATOM     24  C18 <0> d   1      19.134   1.081   9.092  0.00  0.00     0.214 A 
ATOM     25  N25 <0> d   1      18.466   4.571  11.826  0.00  0.00    -0.152 N 
ATOM     26  O27 <0> d   1      17.592   4.934   9.800  0.00  0.00    -0.265 OA
ATOM     27  C23 <0> d   1      19.142   3.733  12.663  0.00  0.00     0.703 A 
ATOM     28  H47 <0> d   1      18.175   5.440  12.143  0.00  0.00     0.187 HD
BRANCH  27  29
ATOM     29  N24 <0> d   1      19.400   4.142  13.948  0.00  0.00    -0.233 N 
ATOM     30  H45 <0> d   1      20.036   3.654  14.493  0.00  0.00     0.174 HD
ATOM     31  H46 <0> d   1      18.945   4.918  14.310  0.00  0.00     0.174 HD
ENDBRANCH  27  29
ENDBRANCH  17  18
ENDBRANCH   1  17
TORSDOF 12
ENDMDL
MODEL 9
REMARK VINA RESULT:      -6.6      3.461      6.539
REMARK  12 active torsions:
REMARK  status: ('A' for Active; 'I' for Inactive)
REMARK    1  A    between atoms: C2_2  and  C4_4 
REMARK    2  A    between atoms: C4_4  and  N6_5 
REMARK    3  A    between atoms: C4_4  and  C7_6 
REMARK    4  A    between atoms: C7_6  and  O9_8 
REMARK    5  A    between atoms: O9_8  and  C10_9 
REMARK    6  A    between atoms: C10_9  and  C11_10 
REMARK    7  A    between atoms: C11_10  and  C13_11 
REMARK    8  A    between atoms: C11_10  and  O15_13 
REMARK    9  A    between atoms: C13_11  and  O14_12 
REMARK   10  A    between atoms: O15_13  and  C16_14 
REMARK   11  A    between atoms: C16_14  and  N17_15 
REMARK   12  A    between atoms: C23_21  and  N24_22 
ROOT
ATOM      1  O15 <0> d   1      18.212   1.331   8.651  0.00  0.00    -0.362 OA
ENDROOT
BRANCH   1   2
ATOM      2  C11 <0> d   1      19.068   0.450   7.922  0.00  0.00     0.171 C 
BRANCH   2   3
ATOM      3  C10 <0> d   1      19.632  -0.611   8.868  0.00  0.00     0.213 C 
BRANCH   3   4
ATOM      4  O9  <0> d   1      18.615  -0.991   9.832  0.00  0.00    -0.317 OA
BRANCH   4   5
ATOM      5  C7  <0> d   1      18.822  -2.121  10.525  0.00  0.00     0.292 C 
ATOM      6  O8  <0> d   1      19.771  -2.208  11.268  0.00  0.00    -0.263 OA
BRANCH   5   7
ATOM      7  C4  <0> d   1      17.874  -3.282  10.376  0.00  0.00     0.319 C 
BRANCH   7   8
ATOM      8  C2  <0> d   1      18.547  -4.559  10.882  0.00  0.00     0.020 C 
ATOM      9  C1  <0> d   1      17.524  -5.411  11.637  0.00  0.00     0.012 C 
ATOM     10  C3  <0> d   1      19.094  -5.354   9.694  0.00  0.00     0.012 C 
ENDBRANCH   7   8
BRANCH   7  11
ATOM     11  N6  <0> d   1      17.517  -3.444   8.960  0.00  0.00     0.092 N 
ATOM     12  H35 <0> d   1      16.617  -3.031   8.765  0.00  0.00     0.313 HD
ATOM     13  H36 <0> d   1      18.231  -3.056   8.360  0.00  0.00     0.313 HD
ENDBRANCH   7  11
ENDBRANCH   5   7
ENDBRANCH   4   5
ENDBRANCH   3   4
ENDBRANCH   2   3
BRANCH   2  14
ATOM     14  C13 <0> d   1      18.271  -0.231   6.808  0.00  0.00     0.198 C 
BRANCH  14  15
ATOM     15  O14 <0> d   1      17.115  -0.862   7.367  0.00  0.00    -0.398 OA
ATOM     16  H41 <0> d   1      17.272  -1.763   7.681  0.00  0.00     0.209 HD
ENDBRANCH  14  15
ENDBRANCH   2  14
ENDBRANCH   1   2
BRANCH   1  17
ATOM     17  C16 <0> d   1      18.808   2.592   8.967  0.00  0.00     0.301 C 
BRANCH  17  18
ATOM     18  N17 <0> d   1      18.408   2.996  10.317  0.00  0.00    -0.301 N 
ATOM     19  C21 <0> d   1      18.843   2.441  11.490  0.00  0.00     0.186 A 
ATOM     20  C20 <0> d   1      18.201   3.146  12.513  0.00  0.00     0.173 A 
ATOM     21  N22 <0> d   1      19.691   1.452  11.796  0.00  0.00    -0.044 NA
ATOM     22  N19 <0> d   1      17.410   4.078  11.927  0.00  0.00    -0.234 NA
ATOM     23  C26 <0> d   1      18.468   2.785  13.856  0.00  0.00     0.292 A 
ATOM     24  C18 <0> d   1      17.530   3.992  10.634  0.00  0.00     0.214 A 
ATOM     25  N25 <0> d   1      19.340   1.778  14.087  0.00  0.00    -0.152 N 
ATOM     26  O27 <0> d   1      17.932   3.372  14.779  0.00  0.00    -0.265 OA
ATOM     27  C23 <0> d   1      19.933   1.128  13.046  0.00  0.00     0.703 A 
ATOM     28  H47 <0> d   1      19.540   1.514  14.999  0.00  0.00     0.187 HD
BRANCH  27  29
ATOM     29  N24 <0> d   1      20.811   0.108  13.312  0.00  0.00    -0.233 N 
ATOM     30  H45 <0> d   1      20.981  -0.159  14.229  0.00  0.00     0.174 HD
ATOM     31  H46 <0> d   1      21.261  -0.347  12.584  0.00  0.00     0.174 HD
ENDBRANCH  27  29
ENDBRANCH  17  18
ENDBRANCH   1  17
TORSDOF 12
ENDMDL
