MODEL 1
REMARK VINA RESULT:      -6.0      0.000      0.000
REMARK  5 active torsions:
REMARK  status: ('A' for Active; 'I' for Inactive)
REMARK    1  A    between atoms: C2_2  and  C4_3 
REMARK    2  A    between atoms: C2_2  and  N11_10 
REMARK    3  A    between atoms: C4_3  and  C5_4 
REMARK    4  A    between atoms: N11_10  and  C14_13 
REMARK    5  A    between atoms: C14_13  and  C15_14 
ROOT
ATOM      1  N11 ZIN A   1      18.699   2.676  11.696  0.00  0.00    -0.067 N 
ATOM      2  H12 ZIN A   1      19.533   2.127  11.554  0.00  0.00     0.280 HD
ATOM      3  C13 ZIN A   1      19.058   3.965  12.301  0.00  0.00     0.270 C 
ENDROOT
BRANCH   1   4
ATOM      4  C2  ZIN A   1      18.040   2.908  10.404  0.00  0.00     0.188 C 
ATOM      5  C1  ZIN A   1      17.676   4.390  10.276  0.00  0.00     0.040 C 
BRANCH   4   6
ATOM      6  C4  ZIN A   1      18.987   2.516   9.270  0.00  0.00     0.071 C 
BRANCH   6   7
ATOM      7  C5  ZIN A   1      18.825   1.050   8.963  0.00  0.00    -0.056 A 
ATOM      8  C10 ZIN A   1      19.872   0.176   9.188  0.00  0.00     0.007 A 
ATOM      9  C9  ZIN A   1      19.722  -1.170   8.909  0.00  0.00     0.001 A 
ATOM     10  C8  ZIN A   1      18.527  -1.640   8.399  0.00  0.00     0.000 A 
ATOM     11  C7  ZIN A   1      17.481  -0.766   8.169  0.00  0.00     0.001 A 
ATOM     12  C6  ZIN A   1      17.630   0.579   8.451  0.00  0.00     0.007 A 
ENDBRANCH   6   7
ENDBRANCH   4   6
ENDBRANCH   1   4
BRANCH   1  13
ATOM     13  C14 ZIN A   1      17.784   1.954  12.590  0.00  0.00     0.273 C 
BRANCH  13  14
ATOM     14  C15 ZIN A   1      18.026   0.472  12.466  0.00  0.00    -0.033 A 
ATOM     15  C20 ZIN A   1      19.238  -0.067  12.853  0.00  0.00     0.009 A 
ATOM     16  C19 ZIN A   1      19.457  -1.427  12.743  0.00  0.00     0.001 A 
ATOM     17  C18 ZIN A   1      18.468  -2.248  12.236  0.00  0.00     0.000 A 
ATOM     18  C17 ZIN A   1      17.257  -1.708  11.843  0.00  0.00     0.001 A 
ATOM     19  C16 ZIN A   1      17.036  -0.349  11.957  0.00  0.00     0.009 A 
ENDBRANCH  13  14
ENDBRANCH   1  13
TORSDOF 5
ENDMDL
MODEL 2
REMARK VINA RESULT:      -5.9      1.518      4.013
REMARK  5 active torsions:
REMARK  status: ('A' for Active; 'I' for Inactive)
REMARK    1  A    between atoms: C2_2  and  C4_3 
REMARK    2  A    between atoms: C2_2  and  N11_10 
REMARK    3  A    between atoms: C4_3  and  C5_4 
REMARK    4  A    between atoms: N11_10  and  C14_13 
REMARK    5  A    between atoms: C14_13  and  C15_14 
ROOT
ATOM      1  N11 ZIN A   1      18.690   1.224  12.344  0.00  0.00    -0.067 N 
ATOM      2  H12 ZIN A   1      17.765   1.010  12.004  0.00  0.00     0.280 HD
ATOM      3  C13 ZIN A   1      18.657   2.485  13.097  0.00  0.00     0.270 C 
ENDROOT
BRANCH   1   4
ATOM      4  C2  ZIN A   1      19.151   0.141  13.223  0.00  0.00     0.188 C 
ATOM      5  C1  ZIN A   1      19.424   0.700  14.621  0.00  0.00     0.040 C 
BRANCH   4   6
ATOM      6  C4  ZIN A   1      18.073  -0.941  13.308  0.00  0.00     0.071 C 
BRANCH   6   7
ATOM      7  C5  ZIN A   1      18.400  -2.053  12.346  0.00  0.00    -0.056 A 
ATOM      8  C10 ZIN A   1      17.428  -2.535  11.490  0.00  0.00     0.007 A 
ATOM      9  C9  ZIN A   1      17.728  -3.554  10.605  0.00  0.00     0.001 A 
ATOM     10  C8  ZIN A   1      19.000  -4.094  10.581  0.00  0.00     0.000 A 
ATOM     11  C7  ZIN A   1      19.971  -3.617  11.439  0.00  0.00     0.001 A 
ATOM     12  C6  ZIN A   1      19.671  -2.595  12.322  0.00  0.00     0.007 A 
ENDBRANCH   6   7
ENDBRANCH   4   6
ENDBRANCH   1   4
BRANCH   1  13
ATOM     13  C14 ZIN A   1      19.611   1.357  11.207  0.00  0.00     0.273 C 
BRANCH  13  14
ATOM     14  C15 ZIN A   1      19.103   0.538  10.050  0.00  0.00    -0.033 A 
ATOM     15  C20 ZIN A   1      19.955  -0.321   9.382  0.00  0.00     0.009 A 
ATOM     16  C19 ZIN A   1      19.486  -1.076   8.323  0.00  0.00     0.001 A 
ATOM     17  C18 ZIN A   1      18.167  -0.965   7.925  0.00  0.00     0.000 A 
ATOM     18  C17 ZIN A   1      17.316  -0.101   8.590  0.00  0.00     0.001 A 
ATOM     19  C16 ZIN A   1      17.783   0.650   9.651  0.00  0.00     0.009 A 
ENDBRANCH  13  14
ENDBRANCH   1  13
TORSDOF 5
ENDMDL
MODEL 3
REMARK VINA RESULT:      -5.9      1.701      2.788
REMARK  5 active torsions:
REMARK  status: ('A' for Active; 'I' for Inactive)
REMARK    1  A    between atoms: C2_2  and  C4_3 
REMARK    2  A    between atoms: C2_2  and  N11_10 
REMARK    3  A    between atoms: C4_3  and  C5_4 
REMARK    4  A    between atoms: N11_10  and  C14_13 
REMARK    5  A    between atoms: C14_13  and  C15_14 
ROOT
ATOM      1  N11 ZIN A   1      19.141   2.184  12.030  0.00  0.00    -0.067 N 
ATOM      2  H12 ZIN A   1      19.653   1.321  11.926  0.00  0.00     0.280 HD
ATOM      3  C13 ZIN A   1      19.958   3.301  11.539  0.00  0.00     0.270 C 
ENDROOT
BRANCH   1   4
ATOM      4  C2  ZIN A   1      17.895   2.111  11.256  0.00  0.00     0.188 C 
ATOM      5  C1  ZIN A   1      17.562   3.496  10.696  0.00  0.00     0.040 C 
BRANCH   4   6
ATOM      6  C4  ZIN A   1      18.067   1.122  10.103  0.00  0.00     0.071 C 
BRANCH   6   7
ATOM      7  C5  ZIN A   1      18.274  -0.264  10.656  0.00  0.00    -0.056 A 
ATOM      8  C10 ZIN A   1      17.268  -0.879  11.377  0.00  0.00     0.007 A 
ATOM      9  C9  ZIN A   1      17.457  -2.152  11.881  0.00  0.00     0.001 A 
ATOM     10  C8  ZIN A   1      18.657  -2.807  11.672  0.00  0.00     0.000 A 
ATOM     11  C7  ZIN A   1      19.665  -2.190  10.956  0.00  0.00     0.001 A 
ATOM     12  C6  ZIN A   1      19.474  -0.918  10.448  0.00  0.00     0.007 A 
ENDBRANCH   6   7
ENDBRANCH   4   6
ENDBRANCH   1   4
BRANCH   1  13
ATOM     13  C14 ZIN A   1      18.825   2.396  13.449  0.00  0.00     0.273 C 
BRANCH  13  14
ATOM     14  C15 ZIN A   1      18.742   1.064  14.150  0.00  0.00    -0.033 A 
ATOM     15  C20 ZIN A   1      17.646   0.763  14.937  0.00  0.00     0.009 A 
ATOM     16  C19 ZIN A   1      17.569  -0.460  15.575  0.00  0.00     0.001 A 
ATOM     17  C18 ZIN A   1      18.591  -1.379  15.436  0.00  0.00     0.000 A 
ATOM     18  C17 ZIN A   1      19.690  -1.076  14.652  0.00  0.00     0.001 A 
ATOM     19  C16 ZIN A   1      19.766   0.145  14.010  0.00  0.00     0.009 A 
ENDBRANCH  13  14
ENDBRANCH   1  13
TORSDOF 5
ENDMDL
MODEL 4
REMARK VINA RESULT:      -5.8      1.451      4.407
REMARK  5 active torsions:
REMARK  status: ('A' for Active; 'I' for Inactive)
REMARK    1  A    between atoms: C2_2  and  C4_3 
REMARK    2  A    between atoms: C2_2  and  N11_10 
REMARK    3  A    between atoms: C4_3  and  C5_4 
REMARK    4  A    between atoms: N11_10  and  C14_13 
REMARK    5  A    between atoms: C14_13  and  C15_14 
ROOT
ATOM      1  N11 ZIN A   1      17.807   0.492   9.754  0.00  0.00    -0.067 N 
ATOM      2  H12 ZIN A   1      17.101   1.069  10.184  0.00  0.00     0.280 HD
ATOM      3  C13 ZIN A   1      17.281  -0.079   8.507  0.00  0.00     0.270 C 
ENDROOT
BRANCH   1   4
ATOM      4  C2  ZIN A   1      18.993   1.306   9.458  0.00  0.00     0.188 C 
ATOM      5  C1  ZIN A   1      19.641   0.810   8.163  0.00  0.00     0.040 C 
BRANCH   4   6
ATOM      6  C4  ZIN A   1      18.580   2.769   9.293  0.00  0.00     0.071 C 
BRANCH   6   7
ATOM      7  C5  ZIN A   1      18.485   3.420  10.649  0.00  0.00    -0.056 A 
ATOM      8  C10 ZIN A   1      17.280   3.937  11.085  0.00  0.00     0.007 A 
ATOM      9  C9  ZIN A   1      17.192   4.531  12.331  0.00  0.00     0.001 A 
ATOM     10  C8  ZIN A   1      18.313   4.615  13.136  0.00  0.00     0.000 A 
ATOM     11  C7  ZIN A   1      19.519   4.104  12.698  0.00  0.00     0.001 A 
ATOM     12  C6  ZIN A   1      19.605   3.506  11.454  0.00  0.00     0.007 A 
ENDBRANCH   6   7
ENDBRANCH   4   6
ENDBRANCH   1   4
BRANCH   1  13
ATOM     13  C14 ZIN A   1      18.176  -0.595  10.672  0.00  0.00     0.273 C 
BRANCH  13  14
ATOM     14  C15 ZIN A   1      18.419  -0.029  12.047  0.00  0.00    -0.033 A 
ATOM     15  C20 ZIN A   1      17.376   0.532  12.759  0.00  0.00     0.009 A 
ATOM     16  C19 ZIN A   1      17.599   1.046  14.023  0.00  0.00     0.001 A 
ATOM     17  C18 ZIN A   1      18.867   1.008  14.571  0.00  0.00     0.000 A 
ATOM     18  C17 ZIN A   1      19.912   0.451  13.856  0.00  0.00     0.001 A 
ATOM     19  C16 ZIN A   1      19.689  -0.067  12.595  0.00  0.00     0.009 A 
ENDBRANCH  13  14
ENDBRANCH   1  13
TORSDOF 5
ENDMDL
MODEL 5
REMARK VINA RESULT:      -5.8      2.239      5.785
REMARK  5 active torsions:
REMARK  status: ('A' for Active; 'I' for Inactive)
REMARK    1  A    between atoms: C2_2  and  C4_3 
REMARK    2  A    between atoms: C2_2  and  N11_10 
REMARK    3  A    between atoms: C4_3  and  C5_4 
REMARK    4  A    between atoms: N11_10  and  C14_13 
REMARK    5  A    between atoms: C14_13  and  C15_14 
ROOT
ATOM      1  N11 ZIN A   1      17.587   1.013  10.983  0.00  0.00    -0.067 N 
ATOM      2  H12 ZIN A   1      16.774   0.881  10.401  0.00  0.00     0.280 HD
ATOM      3  C13 ZIN A   1      17.686   2.425  11.374  0.00  0.00     0.270 C 
ENDROOT
BRANCH   1   4
ATOM      4  C2  ZIN A   1      17.469   0.178  12.186  0.00  0.00     0.188 C 
ATOM      5  C1  ZIN A   1      17.292  -1.285  11.775  0.00  0.00     0.040 C 
BRANCH   4   6
ATOM      6  C4  ZIN A   1      18.735   0.321  13.032  0.00  0.00     0.071 C 
BRANCH   6   7
ATOM      7  C5  ZIN A   1      18.457  -0.150  14.436  0.00  0.00    -0.056 A 
ATOM      8  C10 ZIN A   1      17.451   0.440  15.177  0.00  0.00     0.007 A 
ATOM      9  C9  ZIN A   1      17.194   0.005  16.464  0.00  0.00     0.001 A 
ATOM     10  C8  ZIN A   1      17.949  -1.014  17.012  0.00  0.00     0.000 A 
ATOM     11  C7  ZIN A   1      18.959  -1.600  16.274  0.00  0.00     0.001 A 
ATOM     12  C6  ZIN A   1      19.213  -1.169  14.985  0.00  0.00     0.007 A 
ENDBRANCH   6   7
ENDBRANCH   4   6
ENDBRANCH   1   4
BRANCH   1  13
ATOM     13  C14 ZIN A   1      18.791   0.627  10.236  0.00  0.00     0.273 C 
BRANCH  13  14
ATOM     14  C15 ZIN A   1      18.482   0.604   8.761  0.00  0.00    -0.033 A 
ATOM     15  C20 ZIN A   1      17.421  -0.146   8.288  0.00  0.00     0.009 A 
ATOM     16  C19 ZIN A   1      17.135  -0.163   6.936  0.00  0.00     0.001 A 
ATOM     17  C18 ZIN A   1      17.915   0.561   6.055  0.00  0.00     0.000 A 
ATOM     18  C17 ZIN A   1      18.980   1.306   6.527  0.00  0.00     0.001 A 
ATOM     19  C16 ZIN A   1      19.263   1.328   7.879  0.00  0.00     0.009 A 
ENDBRANCH  13  14
ENDBRANCH   1  13
TORSDOF 5
ENDMDL
MODEL 6
REMARK VINA RESULT:      -5.8      2.312      3.469
REMARK  5 active torsions:
REMARK  status: ('A' for Active; 'I' for Inactive)
REMARK    1  A    between atoms: C2_2  and  C4_3 
REMARK    2  A    between atoms: C2_2  and  N11_10 
REMARK    3  A    between atoms: C4_3  and  C5_4 
REMARK    4  A    between atoms: N11_10  and  C14_13 
REMARK    5  A    between atoms: C14_13  and  C15_14 
ROOT
ATOM      1  N11 ZIN A   1      19.352  -0.420  12.226  0.00  0.00    -0.067 N 
ATOM      2  H12 ZIN A   1      19.581  -1.227  12.787  0.00  0.00     0.280 HD
ATOM      3  C13 ZIN A   1      20.589   0.211  11.748  0.00  0.00     0.270 C 
ENDROOT
BRANCH   1   4
ATOM      4  C2  ZIN A   1      18.538  -0.836  11.077  0.00  0.00     0.188 C 
ATOM      5  C1  ZIN A   1      17.574  -1.943  11.510  0.00  0.00     0.040 C 
BRANCH   4   6
ATOM      6  C4  ZIN A   1      17.740   0.360  10.557  0.00  0.00     0.071 C 
BRANCH   6   7
ATOM      7  C5  ZIN A   1      17.962   0.506   9.073  0.00  0.00    -0.056 A 
ATOM      8  C10 ZIN A   1      17.198  -0.226   8.185  0.00  0.00     0.007 A 
ATOM      9  C9  ZIN A   1      17.399  -0.090   6.824  0.00  0.00     0.001 A 
ATOM     10  C8  ZIN A   1      18.371   0.773   6.352  0.00  0.00     0.000 A 
ATOM     11  C7  ZIN A   1      19.139   1.500   7.241  0.00  0.00     0.001 A 
ATOM     12  C6  ZIN A   1      18.935   1.367   8.602  0.00  0.00     0.007 A 
ENDBRANCH   6   7
ENDBRANCH   4   6
ENDBRANCH   1   4
BRANCH   1  13
ATOM     13  C14 ZIN A   1      18.596   0.542  13.039  0.00  0.00     0.273 C 
BRANCH  13  14
ATOM     14  C15 ZIN A   1      18.380  -0.026  14.418  0.00  0.00    -0.033 A 
ATOM     15  C20 ZIN A   1      19.153  -1.082  14.861  0.00  0.00     0.009 A 
ATOM     16  C19 ZIN A   1      18.957  -1.599  16.128  0.00  0.00     0.001 A 
ATOM     17  C18 ZIN A   1      17.981  -1.067  16.949  0.00  0.00     0.000 A 
ATOM     18  C17 ZIN A   1      17.204  -0.014  16.504  0.00  0.00     0.001 A 
ATOM     19  C16 ZIN A   1      17.402   0.506  15.239  0.00  0.00     0.009 A 
ENDBRANCH  13  14
ENDBRANCH   1  13
TORSDOF 5
ENDMDL
MODEL 7
REMARK VINA RESULT:      -5.7      2.065      5.442
REMARK  5 active torsions:
REMARK  status: ('A' for Active; 'I' for Inactive)
REMARK    1  A    between atoms: C2_2  and  C4_3 
REMARK    2  A    between atoms: C2_2  and  N11_10 
REMARK    3  A    between atoms: C4_3  and  C5_4 
REMARK    4  A    between atoms: N11_10  and  C14_13 
REMARK    5  A    between atoms: C14_13  and  C15_14 
ROOT
ATOM      1  N11 ZIN A   1      18.846  -2.395   8.748  0.00  0.00    -0.067 N 
ATOM      2  H12 ZIN A   1      19.695  -1.865   8.879  0.00  0.00     0.280 HD
ATOM      3  C13 ZIN A   1      19.060  -3.417   7.716  0.00  0.00     0.270 C 
ENDROOT
BRANCH   1   4
ATOM      4  C2  ZIN A   1      18.475  -3.044  10.012  0.00  0.00     0.188 C 
ATOM      5  C1  ZIN A   1      18.076  -4.497   9.740  0.00  0.00     0.040 C 
BRANCH   4   6
ATOM      6  C4  ZIN A   1      19.666  -3.014  10.971  0.00  0.00     0.071 C 
BRANCH   6   7
ATOM      7  C5  ZIN A   1      19.686  -1.698  11.705  0.00  0.00    -0.056 A 
ATOM      8  C10 ZIN A   1      18.772  -1.454  12.712  0.00  0.00     0.007 A 
ATOM      9  C9  ZIN A   1      18.793  -0.248  13.388  0.00  0.00     0.001 A 
ATOM     10  C8  ZIN A   1      19.724   0.717  13.050  0.00  0.00     0.000 A 
ATOM     11  C7  ZIN A   1      20.635   0.475  12.040  0.00  0.00     0.001 A 
ATOM     12  C6  ZIN A   1      20.616  -0.733  11.367  0.00  0.00     0.007 A 
ENDBRANCH   6   7
ENDBRANCH   4   6
ENDBRANCH   1   4
BRANCH   1  13
ATOM     13  C14 ZIN A   1      17.766  -1.492   8.326  0.00  0.00     0.273 C 
BRANCH  13  14
ATOM     14  C15 ZIN A   1      18.086  -0.086   8.765  0.00  0.00    -0.033 A 
ATOM     15  C20 ZIN A   1      19.085   0.627   8.130  0.00  0.00     0.009 A 
ATOM     16  C19 ZIN A   1      19.374   1.918   8.531  0.00  0.00     0.001 A 
ATOM     17  C18 ZIN A   1      18.672   2.493   9.573  0.00  0.00     0.000 A 
ATOM     18  C17 ZIN A   1      17.676   1.777  10.211  0.00  0.00     0.001 A 
ATOM     19  C16 ZIN A   1      17.383   0.488   9.809  0.00  0.00     0.009 A 
ENDBRANCH  13  14
ENDBRANCH   1  13
TORSDOF 5
ENDMDL
MODEL 8
REMARK VINA RESULT:      -5.7      1.309      4.943
REMARK  5 active torsions:
REMARK  status: ('A' for Active; 'I' for Inactive)
REMARK    1  A    between atoms: C2_2  and  C4_3 
REMARK    2  A    between atoms: C2_2  and  N11_10 
REMARK    3  A    between atoms: C4_3  and  C5_4 
REMARK    4  A    between atoms: N11_10  and  C14_13 
REMARK    5  A    between atoms: C14_13  and  C15_14 
ROOT
ATOM      1  N11 ZIN A   1      19.115   0.551   9.892  0.00  0.00    -0.067 N 
ATOM      2  H12 ZIN A   1      19.470   0.536  10.835  0.00  0.00     0.280 HD
ATOM      3  C13 ZIN A   1      19.899  -0.369   9.058  0.00  0.00     0.270 C 
ENDROOT
BRANCH   1   4
ATOM      4  C2  ZIN A   1      17.706   0.134   9.891  0.00  0.00     0.188 C 
ATOM      5  C1  ZIN A   1      17.276  -0.207   8.462  0.00  0.00     0.040 C 
BRANCH   4   6
ATOM      6  C4  ZIN A   1      17.538  -1.098  10.782  0.00  0.00     0.071 C 
BRANCH   6   7
ATOM      7  C5  ZIN A   1      17.842  -0.730  12.211  0.00  0.00    -0.056 A 
ATOM      8  C10 ZIN A   1      17.284   0.406  12.766  0.00  0.00     0.007 A 
ATOM      9  C9  ZIN A   1      17.560   0.742  14.079  0.00  0.00     0.001 A 
ATOM     10  C8  ZIN A   1      18.401  -0.054  14.833  0.00  0.00     0.000 A 
ATOM     11  C7  ZIN A   1      18.964  -1.187  14.277  0.00  0.00     0.001 A 
ATOM     12  C6  ZIN A   1      18.684  -1.525  12.965  0.00  0.00     0.007 A 
ENDBRANCH   6   7
ENDBRANCH   4   6
ENDBRANCH   1   4
BRANCH   1  13
ATOM     13  C14 ZIN A   1      19.222   1.913   9.351  0.00  0.00     0.273 C 
BRANCH  13  14
ATOM     14  C15 ZIN A   1      18.886   2.910  10.429  0.00  0.00    -0.033 A 
ATOM     15  C20 ZIN A   1      19.669   2.990  11.566  0.00  0.00     0.009 A 
ATOM     16  C19 ZIN A   1      19.363   3.908  12.553  0.00  0.00     0.001 A 
ATOM     17  C18 ZIN A   1      18.268   4.740  12.408  0.00  0.00     0.000 A 
ATOM     18  C17 ZIN A   1      17.483   4.656  11.274  0.00  0.00     0.001 A 
ATOM     19  C16 ZIN A   1      17.790   3.741  10.285  0.00  0.00     0.009 A 
ENDBRANCH  13  14
ENDBRANCH   1  13
TORSDOF 5
ENDMDL
MODEL 9
REMARK VINA RESULT:      -5.6      1.797      2.824
REMARK  5 active torsions:
REMARK  status: ('A' for Active; 'I' for Inactive)
REMARK    1  A    between atoms: C2_2  and  C4_3 
REMARK    2  A    between atoms: C2_2  and  N11_10 
REMARK    3  A    between atoms: C4_3  and  C5_4 
REMARK    4  A    between atoms: N11_10  and  C14_13 
REMARK    5  A    between atoms: C14_13  and  C15_14 
ROOT
ATOM      1  N11 ZIN A   1      19.577  -0.213  11.663  0.00  0.00    -0.067 N 
ATOM      2  H12 ZIN A   1      19.841  -0.650  10.794  0.00  0.00     0.280 HD
ATOM      3  C13 ZIN A   1      20.692   0.605  12.158  0.00  0.00     0.270 C 
ENDROOT
BRANCH   1   4
ATOM      4  C2  ZIN A   1      18.402   0.641  11.447  0.00  0.00     0.188 C 
ATOM      5  C1  ZIN A   1      17.991   1.288  12.771  0.00  0.00     0.040 C 
BRANCH   4   6
ATOM      6  C4  ZIN A   1      18.743   1.731  10.430  0.00  0.00     0.071 C 
BRANCH   6   7
ATOM      7  C5  ZIN A   1      18.502   1.212   9.036  0.00  0.00    -0.056 A 
ATOM      8  C10 ZIN A   1      19.208   1.738   7.971  0.00  0.00     0.007 A 
ATOM      9  C9  ZIN A   1      18.989   1.259   6.692  0.00  0.00     0.001 A 
ATOM     10  C8  ZIN A   1      18.057   0.261   6.479  0.00  0.00     0.000 A 
ATOM     11  C7  ZIN A   1      17.346  -0.261   7.543  0.00  0.00     0.001 A 
ATOM     12  C6  ZIN A   1      17.569   0.215   8.822  0.00  0.00     0.007 A 
ENDBRANCH   6   7
ENDBRANCH   4   6
ENDBRANCH   1   4
BRANCH   1  13
ATOM     13  C14 ZIN A   1      19.254  -1.249  12.654  0.00  0.00     0.273 C 
BRANCH  13  14
ATOM     14  C15 ZIN A   1      18.949  -2.543  11.945  0.00  0.00    -0.033 A 
ATOM     15  C20 ZIN A   1      19.965  -3.443  11.680  0.00  0.00     0.009 A 
ATOM     16  C19 ZIN A   1      19.684  -4.632  11.034  0.00  0.00     0.001 A 
ATOM     17  C18 ZIN A   1      18.389  -4.918  10.644  0.00  0.00     0.000 A 
ATOM     18  C17 ZIN A   1      17.374  -4.016  10.905  0.00  0.00     0.001 A 
ATOM     19  C16 ZIN A   1      17.654  -2.829  11.554  0.00  0.00     0.009 A 
ENDBRANCH  13  14
ENDBRANCH   1  13
TORSDOF 5
ENDMDL
