MODEL 1
REMARK VINA RESULT:      -5.0      0.000      0.000
REMARK  1 active torsions:
REMARK  status: ('A' for Active; 'I' for Inactive)
REMARK    1  A    between atoms: N1_1  and  C2_2 
ROOT
ATOM      1  C2  <0> d   1      20.440  -0.784  10.175  0.00  0.00     0.701 A 
ATOM      2  N3  <0> d   1      20.098   0.103   9.270  0.00  0.00    -0.043 NA
ATOM      3  C4  <0> d   1      19.056  -0.116   8.443  0.00  0.00     0.199 A 
ATOM      4  C5  <0> d   1      18.333  -1.308   8.556  0.00  0.00     0.121 A 
ATOM      5  N6  <0> d   1      17.343  -1.250   7.595  0.00  0.00    -0.345 N 
ATOM      6  C7  <0> d   1      17.486  -0.073   6.950  0.00  0.00     0.210 A 
ATOM      7  N8  <0> d   1      18.493   0.591   7.450  0.00  0.00    -0.222 NA
ATOM      8  C9  <0> d   1      18.711  -2.246   9.530  0.00  0.00     0.147 A 
ATOM      9  S10 <0> d   1      17.856  -3.719   9.705  0.00  0.00    -0.057 SA
ATOM     10  N11 <0> d   1      19.770  -1.962  10.321  0.00  0.00    -0.178 N 
ATOM     11  H14 <0> d   1      16.673  -1.928   7.417  0.00  0.00     0.167 HD
ATOM     12  H16 <0> d   1      20.048  -2.596  11.000  0.00  0.00     0.185 HD
ENDROOT
BRANCH   1  13
ATOM     13  N1  <0> d   1      21.508  -0.519  10.997  0.00  0.00    -0.233 N 
ATOM     14  H12 <0> d   1      21.837  -1.204  11.600  0.00  0.00     0.174 HD
ATOM     15  H13 <0> d   1      21.937   0.351  10.970  0.00  0.00     0.174 HD
ENDBRANCH   1  13
TORSDOF 1
ENDMDL
MODEL 2
REMARK VINA RESULT:      -5.0      1.995      2.889
REMARK  1 active torsions:
REMARK  status: ('A' for Active; 'I' for Inactive)
REMARK    1  A    between atoms: N1_1  and  C2_2 
ROOT
ATOM      1  C2  <0> d   1      20.526  -0.519  10.687  0.00  0.00     0.701 A 
ATOM      2  N3  <0> d   1      20.012  -1.697  10.950  0.00  0.00    -0.043 NA
ATOM      3  C4  <0> d   1      19.123  -2.269  10.113  0.00  0.00     0.199 A 
ATOM      4  C5  <0> d   1      18.749  -1.592   8.948  0.00  0.00     0.121 A 
ATOM      5  N6  <0> d   1      17.843  -2.410   8.301  0.00  0.00    -0.345 N 
ATOM      6  C7  <0> d   1      17.697  -3.517   9.060  0.00  0.00     0.210 A 
ATOM      7  N8  <0> d   1      18.450  -3.432  10.123  0.00  0.00    -0.222 NA
ATOM      8  C9  <0> d   1      19.308  -0.332   8.680  0.00  0.00     0.147 A 
ATOM      9  S10 <0> d   1      18.880   0.534   7.267  0.00  0.00    -0.057 SA
ATOM     10  N11 <0> d   1      20.189   0.182   9.567  0.00  0.00    -0.178 N 
ATOM     11  H14 <0> d   1      17.396  -2.223   7.461  0.00  0.00     0.167 HD
ATOM     12  H16 <0> d   1      20.588   1.051   9.402  0.00  0.00     0.185 HD
ENDROOT
BRANCH   1  13
ATOM     13  N1  <0> d   1      21.428   0.026  11.568  0.00  0.00    -0.233 N 
ATOM     14  H12 <0> d   1      21.408   0.978  11.755  0.00  0.00     0.174 HD
ATOM     15  H13 <0> d   1      22.081  -0.541  12.007  0.00  0.00     0.174 HD
ENDBRANCH   1  13
TORSDOF 1
ENDMDL
MODEL 3
REMARK VINA RESULT:      -5.0      5.079      6.386
REMARK  1 active torsions:
REMARK  status: ('A' for Active; 'I' for Inactive)
REMARK    1  A    between atoms: N1_1  and  C2_2 
ROOT
ATOM      1  C2  <0> d   1      20.398   0.636  12.782  0.00  0.00     0.701 A 
ATOM      2  N3  <0> d   1      20.019  -0.293  13.628  0.00  0.00    -0.043 NA
ATOM      3  C4  <0> d   1      19.008  -0.073  14.494  0.00  0.00     0.199 A 
ATOM      4  C5  <0> d   1      18.359   1.166  14.485  0.00  0.00     0.121 A 
ATOM      5  N6  <0> d   1      17.386   1.098  15.463  0.00  0.00    -0.345 N 
ATOM      6  C7  <0> d   1      17.468  -0.130  16.017  0.00  0.00     0.210 A 
ATOM      7  N8  <0> d   1      18.421  -0.815  15.447  0.00  0.00    -0.222 NA
ATOM      8  C9  <0> d   1      18.776   2.149  13.573  0.00  0.00     0.147 A 
ATOM      9  S10 <0> d   1      18.011   3.680  13.525  0.00  0.00    -0.057 SA
ATOM     10  N11 <0> d   1      19.800   1.860  12.738  0.00  0.00    -0.178 N 
ATOM     11  H14 <0> d   1      16.763   1.801  15.705  0.00  0.00     0.167 HD
ATOM     12  H16 <0> d   1      20.104   2.524  12.100  0.00  0.00     0.185 HD
ENDROOT
BRANCH   1  13
ATOM     13  N1  <0> d   1      21.431   0.367  11.918  0.00  0.00    -0.233 N 
ATOM     14  H12 <0> d   1      22.334   0.639  12.144  0.00  0.00     0.174 HD
ATOM     15  H13 <0> d   1      21.259  -0.099  11.085  0.00  0.00     0.174 HD
ENDBRANCH   1  13
TORSDOF 1
ENDMDL
MODEL 4
REMARK VINA RESULT:      -4.9      2.928      3.538
REMARK  1 active torsions:
REMARK  status: ('A' for Active; 'I' for Inactive)
REMARK    1  A    between atoms: N1_1  and  C2_2 
ROOT
ATOM      1  C2  <0> d   1      19.869  -3.597   7.126  0.00  0.00     0.701 A 
ATOM      2  N3  <0> d   1      19.914  -3.178   5.883  0.00  0.00    -0.043 NA
ATOM      3  C4  <0> d   1      19.539  -1.924   5.559  0.00  0.00     0.199 A 
ATOM      4  C5  <0> d   1      19.095  -1.062   6.567  0.00  0.00     0.121 A 
ATOM      5  N6  <0> d   1      18.786   0.131   5.944  0.00  0.00    -0.345 N 
ATOM      6  C7  <0> d   1      19.038  -0.032   4.628  0.00  0.00     0.210 A 
ATOM      7  N8  <0> d   1      19.480  -1.239   4.405  0.00  0.00    -0.222 NA
ATOM      8  C9  <0> d   1      19.053  -1.525   7.892  0.00  0.00     0.147 A 
ATOM      9  S10 <0> d   1      18.518  -0.505   9.159  0.00  0.00    -0.057 SA
ATOM     10  N11 <0> d   1      19.440  -2.796   8.142  0.00  0.00    -0.178 N 
ATOM     11  H14 <0> d   1      18.449   0.934   6.372  0.00  0.00     0.167 HD
ATOM     12  H16 <0> d   1      19.419  -3.136   9.050  0.00  0.00     0.185 HD
ENDROOT
BRANCH   1  13
ATOM     13  N1  <0> d   1      20.262  -4.881   7.410  0.00  0.00    -0.233 N 
ATOM     14  H12 <0> d   1      21.205  -5.091   7.501  0.00  0.00     0.174 HD
ATOM     15  H13 <0> d   1      19.597  -5.578   7.525  0.00  0.00     0.174 HD
ENDBRANCH   1  13
TORSDOF 1
ENDMDL
MODEL 5
REMARK VINA RESULT:      -4.9      4.627      5.544
REMARK  1 active torsions:
REMARK  status: ('A' for Active; 'I' for Inactive)
REMARK    1  A    between atoms: N1_1  and  C2_2 
ROOT
ATOM      1  C2  <0> d   1      20.541   0.502  12.335  0.00  0.00     0.701 A 
ATOM      2  N3  <0> d   1      20.059   1.695  12.072  0.00  0.00    -0.043 NA
ATOM      3  C4  <0> d   1      19.183   2.289  12.907  0.00  0.00     0.199 A 
ATOM      4  C5  <0> d   1      18.784   1.619  14.068  0.00  0.00     0.121 A 
ATOM      5  N6  <0> d   1      17.898   2.460  14.713  0.00  0.00    -0.345 N 
ATOM      6  C7  <0> d   1      17.786   3.572  13.956  0.00  0.00     0.210 A 
ATOM      7  N8  <0> d   1      18.542   3.469  12.896  0.00  0.00    -0.222 NA
ATOM      8  C9  <0> d   1      19.309   0.344  14.335  0.00  0.00     0.147 A 
ATOM      9  S10 <0> d   1      18.850  -0.514  15.745  0.00  0.00    -0.057 SA
ATOM     10  N11 <0> d   1      20.179  -0.192  13.451  0.00  0.00    -0.178 N 
ATOM     11  H14 <0> d   1      17.442   2.283  15.550  0.00  0.00     0.167 HD
ATOM     12  H16 <0> d   1      20.554  -1.072  13.616  0.00  0.00     0.185 HD
ENDROOT
BRANCH   1  13
ATOM     13  N1  <0> d   1      21.432  -0.064  11.457  0.00  0.00    -0.233 N 
ATOM     14  H12 <0> d   1      22.382   0.108  11.553  0.00  0.00     0.174 HD
ATOM     15  H13 <0> d   1      21.112  -0.640  10.745  0.00  0.00     0.174 HD
ENDBRANCH   1  13
TORSDOF 1
ENDMDL
MODEL 6
REMARK VINA RESULT:      -4.6      2.737      3.187
REMARK  1 active torsions:
REMARK  status: ('A' for Active; 'I' for Inactive)
REMARK    1  A    between atoms: N1_1  and  C2_2 
ROOT
ATOM      1  C2  <0> d   1      20.599   0.577  11.418  0.00  0.00     0.701 A 
ATOM      2  N3  <0> d   1      20.275  -0.497  10.737  0.00  0.00    -0.043 NA
ATOM      3  C4  <0> d   1      19.250  -0.480   9.861  0.00  0.00     0.199 A 
ATOM      4  C5  <0> d   1      18.526   0.702   9.680  0.00  0.00     0.121 A 
ATOM      5  N6  <0> d   1      17.555   0.419   8.738  0.00  0.00    -0.345 N 
ATOM      6  C7  <0> d   1      17.710  -0.875   8.388  0.00  0.00     0.210 A 
ATOM      7  N8  <0> d   1      18.706  -1.401   9.048  0.00  0.00    -0.222 NA
ATOM      8  C9  <0> d   1      18.885   1.843  10.415  0.00  0.00     0.147 A 
ATOM      9  S10 <0> d   1      18.027   3.313  10.226  0.00  0.00    -0.057 SA
ATOM     10  N11 <0> d   1      19.920   1.752  11.280  0.00  0.00    -0.178 N 
ATOM     11  H14 <0> d   1      16.889   1.034   8.395  0.00  0.00     0.167 HD
ATOM     12  H16 <0> d   1      20.186   2.528  11.798  0.00  0.00     0.185 HD
ENDROOT
BRANCH   1  13
ATOM     13  N1  <0> d   1      21.651   0.515  12.299  0.00  0.00    -0.233 N 
ATOM     14  H12 <0> d   1      22.519   0.205  11.995  0.00  0.00     0.174 HD
ATOM     15  H13 <0> d   1      21.528   0.786  13.222  0.00  0.00     0.174 HD
ENDBRANCH   1  13
TORSDOF 1
ENDMDL
MODEL 7
REMARK VINA RESULT:      -4.5      2.936      3.707
REMARK  1 active torsions:
REMARK  status: ('A' for Active; 'I' for Inactive)
REMARK    1  A    between atoms: N1_1  and  C2_2 
ROOT
ATOM      1  C2  <0> d   1      20.328  -0.428  10.616  0.00  0.00     0.701 A 
ATOM      2  N3  <0> d   1      20.091   0.531  11.480  0.00  0.00    -0.043 NA
ATOM      3  C4  <0> d   1      19.489   1.676  11.097  0.00  0.00     0.199 A 
ATOM      4  C5  <0> d   1      19.115   1.836   9.759  0.00  0.00     0.121 A 
ATOM      5  N6  <0> d   1      18.532   3.085   9.670  0.00  0.00    -0.345 N 
ATOM      6  C7  <0> d   1      18.566   3.627  10.905  0.00  0.00     0.210 A 
ATOM      7  N8  <0> d   1      19.128   2.798  11.742  0.00  0.00    -0.222 NA
ATOM      8  C9  <0> d   1      19.377   0.801   8.848  0.00  0.00     0.147 A 
ATOM      9  S10 <0> d   1      18.937   0.953   7.200  0.00  0.00    -0.057 SA
ATOM     10  N11 <0> d   1      19.988  -0.316   9.301  0.00  0.00    -0.178 N 
ATOM     11  H14 <0> d   1      18.168   3.495   8.869  0.00  0.00     0.167 HD
ATOM     12  H16 <0> d   1      20.178  -1.044   8.689  0.00  0.00     0.185 HD
ENDROOT
BRANCH   1  13
ATOM     13  N1  <0> d   1      20.943  -1.577  11.050  0.00  0.00    -0.233 N 
ATOM     14  H12 <0> d   1      21.909  -1.659  10.997  0.00  0.00     0.174 HD
ATOM     15  H13 <0> d   1      20.414  -2.303  11.415  0.00  0.00     0.174 HD
ENDBRANCH   1  13
TORSDOF 1
ENDMDL
MODEL 8
REMARK VINA RESULT:      -4.4      3.044      4.204
REMARK  1 active torsions:
REMARK  status: ('A' for Active; 'I' for Inactive)
REMARK    1  A    between atoms: N1_1  and  C2_2 
ROOT
ATOM      1  C2  <0> d   1      19.702  -3.682  10.794  0.00  0.00     0.701 A 
ATOM      2  N3  <0> d   1      18.765  -4.543  11.118  0.00  0.00    -0.043 NA
ATOM      3  C4  <0> d   1      17.757  -4.824  10.268  0.00  0.00     0.199 A 
ATOM      4  C5  <0> d   1      17.715  -4.186   9.024  0.00  0.00     0.121 A 
ATOM      5  N6  <0> d   1      16.589  -4.667   8.383  0.00  0.00    -0.345 N 
ATOM      6  C7  <0> d   1      16.003  -5.548   9.221  0.00  0.00     0.210 A 
ATOM      7  N8  <0> d   1      16.690  -5.638  10.327  0.00  0.00    -0.222 NA
ATOM      8  C9  <0> d   1      18.724  -3.268   8.692  0.00  0.00     0.147 A 
ATOM      9  S10 <0> d   1      18.713  -2.463   7.181  0.00  0.00    -0.057 SA
ATOM     10  N11 <0> d   1      19.701  -3.031   9.596  0.00  0.00    -0.178 N 
ATOM     11  H14 <0> d   1      16.279  -4.417   7.499  0.00  0.00     0.167 HD
ATOM     12  H16 <0> d   1      20.408  -2.401   9.388  0.00  0.00     0.185 HD
ENDROOT
BRANCH   1  13
ATOM     13  N1  <0> d   1      20.710  -3.427  11.691  0.00  0.00    -0.233 N 
ATOM     14  H12 <0> d   1      21.622  -3.683  11.480  0.00  0.00     0.174 HD
ATOM     15  H13 <0> d   1      20.512  -2.986  12.531  0.00  0.00     0.174 HD
ENDBRANCH   1  13
TORSDOF 1
ENDMDL
MODEL 9
REMARK VINA RESULT:      -4.4      2.029      3.990
REMARK  1 active torsions:
REMARK  status: ('A' for Active; 'I' for Inactive)
REMARK    1  A    between atoms: N1_1  and  C2_2 
ROOT
ATOM      1  C2  <0> d   1      17.894  -3.045   8.569  0.00  0.00     0.701 A 
ATOM      2  N3  <0> d   1      18.549  -2.997   9.705  0.00  0.00    -0.043 NA
ATOM      3  C4  <0> d   1      19.318  -1.934  10.017  0.00  0.00     0.199 A 
ATOM      4  C5  <0> d   1      19.415  -0.872   9.114  0.00  0.00     0.121 A 
ATOM      5  N6  <0> d   1      20.257   0.055   9.698  0.00  0.00    -0.345 N 
ATOM      6  C7  <0> d   1      20.634  -0.450  10.891  0.00  0.00     0.210 A 
ATOM      7  N8  <0> d   1      20.082  -1.618  11.076  0.00  0.00    -0.222 NA
ATOM      8  C9  <0> d   1      18.707  -0.938   7.903  0.00  0.00     0.147 A 
ATOM      9  S10 <0> d   1      18.794   0.339   6.766  0.00  0.00    -0.057 SA
ATOM     10  N11 <0> d   1      17.960  -2.037   7.654  0.00  0.00    -0.178 N 
ATOM     11  H14 <0> d   1      20.526   0.906   9.319  0.00  0.00     0.167 HD
ATOM     12  H16 <0> d   1      17.462  -2.104   6.823  0.00  0.00     0.185 HD
ENDROOT
BRANCH   1  13
ATOM     13  N1  <0> d   1      17.122  -4.147   8.292  0.00  0.00    -0.233 N 
ATOM     14  H12 <0> d   1      17.442  -4.818   7.668  0.00  0.00     0.174 HD
ATOM     15  H13 <0> d   1      16.261  -4.257   8.724  0.00  0.00     0.174 HD
ENDBRANCH   1  13
TORSDOF 1
ENDMDL
