MODEL 1
REMARK VINA RESULT:      -9.3      0.000      0.000
REMARK  2 active torsions:
REMARK  status: ('A' for Active; 'I' for Inactive)
REMARK    1  A    between atoms: C2_2  and  N5_5 
REMARK       I    between atoms: N5_5  and  C6_6 
REMARK    2  A    between atoms: C6_6  and  C8_8 
ROOT
ATOM      1  C8  ZIN A   1      17.343   1.767  13.587  0.00  0.00     0.086 C 
ATOM      2  C10 ZIN A   1      17.898   3.205  13.437  0.00  0.00     0.015 C 
ATOM      3  C11 ZIN A   1      18.589   3.267  12.047  0.00  0.00     0.007 C 
ATOM      4  C12 ZIN A   1      17.889   2.150  11.267  0.00  0.00    -0.001 C 
ATOM      5  C14 ZIN A   1      18.649   1.596  10.077  0.00  0.00    -0.004 C 
ATOM      6  C16 ZIN A   1      18.862   2.683   9.024  0.00  0.00     0.007 C 
ATOM      7  C17 ZIN A   1      19.576   2.093   7.804  0.00  0.00     0.026 C 
ATOM      8  C18 ZIN A   1      18.721   0.968   7.223  0.00  0.00     0.097 C 
ATOM      9  N20 ZIN A   1      19.355   0.383   6.044  0.00  0.00    -0.352 N 
ATOM     10  C21 ZIN A   1      19.022  -0.871   5.666  0.00  0.00     0.241 C 
ATOM     11  O22 ZIN A   1      19.566  -1.388   4.710  0.00  0.00    -0.269 OA
ATOM     12  C23 ZIN A   1      17.994  -1.609   6.424  0.00  0.00     0.071 C 
ATOM     13  C24 ZIN A   1      17.746  -1.258   7.689  0.00  0.00    -0.009 C 
ATOM     14  C25 ZIN A   1      18.538  -0.124   8.279  0.00  0.00    -0.002 C 
ATOM     15  C26 ZIN A   1      19.894  -0.647   8.755  0.00  0.00     0.022 C 
ATOM     16  C27 ZIN A   1      17.807   0.451   9.491  0.00  0.00     0.004 C 
ATOM     17  C29 ZIN A   1      17.546  -0.645  10.518  0.00  0.00     0.007 C 
ATOM     18  C30 ZIN A   1      16.904  -0.076  11.794  0.00  0.00     0.011 C 
ATOM     19  C31 ZIN A   1      17.800   1.025  12.335  0.00  0.00    -0.028 C 
ATOM     20  C32 ZIN A   1      19.217   0.483  12.540  0.00  0.00     0.016 C 
ATOM     21  H51 ZIN A   1      20.009   0.890   5.537  0.00  0.00     0.163 HD
ENDROOT
BRANCH   1  22
ATOM     22  C6  ZIN A   1      17.914   1.113  14.819  0.00  0.00     0.223 C 
ATOM     23  N5  ZIN A   1      17.307   0.033  15.349  0.00  0.00    -0.353 N 
ATOM     24  H42 ZIN A   1      16.504  -0.323  14.939  0.00  0.00     0.163 HD
ATOM     25  O7  ZIN A   1      18.919   1.557  15.331  0.00  0.00    -0.273 OA
BRANCH  23  26
ATOM     26  C2  ZIN A   1      17.861  -0.604  16.547  0.00  0.00     0.022 C 
ATOM     27  C1  ZIN A   1      16.874  -1.646  17.075  0.00  0.00     0.037 C 
ATOM     28  C3  ZIN A   1      18.106   0.458  17.622  0.00  0.00     0.037 C 
ATOM     29  C4  ZIN A   1      19.184  -1.286  16.196  0.00  0.00     0.037 C 
ENDBRANCH  23  26
ENDBRANCH   1  22
TORSDOF 2
ENDMDL
MODEL 2
REMARK VINA RESULT:      -9.1      2.319      7.767
REMARK  2 active torsions:
REMARK  status: ('A' for Active; 'I' for Inactive)
REMARK    1  A    between atoms: C2_2  and  N5_5 
REMARK       I    between atoms: N5_5  and  C6_6 
REMARK    2  A    between atoms: C6_6  and  C8_8 
ROOT
ATOM      1  C8  ZIN A   1      17.981  -2.360   8.916  0.00  0.00     0.086 C 
ATOM      2  C10 ZIN A   1      18.700  -3.415   9.793  0.00  0.00     0.015 C 
ATOM      3  C11 ZIN A   1      19.305  -2.645  10.999  0.00  0.00     0.007 C 
ATOM      4  C12 ZIN A   1      18.423  -1.394  11.084  0.00  0.00    -0.001 C 
ATOM      5  C14 ZIN A   1      19.033  -0.202  11.795  0.00  0.00    -0.004 C 
ATOM      6  C16 ZIN A   1      19.313  -0.537  13.259  0.00  0.00     0.007 C 
ATOM      7  C17 ZIN A   1      19.869   0.696  13.978  0.00  0.00     0.026 C 
ATOM      8  C18 ZIN A   1      18.847   1.827  13.891  0.00  0.00     0.097 C 
ATOM      9  N20 ZIN A   1      19.328   3.023  14.578  0.00  0.00    -0.352 N 
ATOM     10  C21 ZIN A   1      18.819   4.230  14.244  0.00  0.00     0.241 C 
ATOM     11  O22 ZIN A   1      19.234   5.240  14.779  0.00  0.00    -0.269 OA
ATOM     12  C23 ZIN A   1      17.757   4.312  13.224  0.00  0.00     0.071 C 
ATOM     13  C24 ZIN A   1      17.634   3.322  12.336  0.00  0.00    -0.009 C 
ATOM     14  C25 ZIN A   1      18.597   2.169  12.420  0.00  0.00    -0.002 C 
ATOM     15  C26 ZIN A   1      19.905   2.549  11.725  0.00  0.00     0.022 C 
ATOM     16  C27 ZIN A   1      18.020   0.952  11.701  0.00  0.00     0.004 C 
ATOM     17  C29 ZIN A   1      17.690   1.301  10.254  0.00  0.00     0.007 C 
ATOM     18  C30 ZIN A   1      17.205   0.067   9.476  0.00  0.00     0.011 C 
ATOM     19  C31 ZIN A   1      18.263  -1.018   9.584  0.00  0.00    -0.028 C 
ATOM     20  C32 ZIN A   1      19.612  -0.473   9.108  0.00  0.00     0.016 C 
ATOM     21  H51 ZIN A   1      20.007   2.952  15.268  0.00  0.00     0.163 HD
ENDROOT
BRANCH   1  22
ATOM     22  C6  ZIN A   1      18.542  -2.374   7.517  0.00  0.00     0.223 C 
ATOM     23  N5  ZIN A   1      17.819  -1.871   6.497  0.00  0.00    -0.353 N 
ATOM     24  H42 ZIN A   1      16.938  -1.501   6.662  0.00  0.00     0.163 HD
ATOM     25  O7  ZIN A   1      19.644  -2.836   7.310  0.00  0.00    -0.273 OA
BRANCH  23  26
ATOM     26  C2  ZIN A   1      18.364  -1.884   5.137  0.00  0.00     0.022 C 
ATOM     27  C1  ZIN A   1      18.990  -3.250   4.851  0.00  0.00     0.037 C 
ATOM     28  C3  ZIN A   1      19.432  -0.796   5.005  0.00  0.00     0.037 C 
ATOM     29  C4  ZIN A   1      17.240  -1.618   4.134  0.00  0.00     0.037 C 
ENDBRANCH  23  26
ENDBRANCH   1  22
TORSDOF 2
ENDMDL
MODEL 3
REMARK VINA RESULT:      -9.0      2.479      3.112
REMARK  2 active torsions:
REMARK  status: ('A' for Active; 'I' for Inactive)
REMARK    1  A    between atoms: C2_2  and  N5_5 
REMARK       I    between atoms: N5_5  and  C6_6 
REMARK    2  A    between atoms: C6_6  and  C8_8 
ROOT
ATOM      1  C8  ZIN A   1      17.424   3.704  12.813  0.00  0.00     0.086 C 
ATOM      2  C10 ZIN A   1      17.627   4.924  11.881  0.00  0.00     0.015 C 
ATOM      3  C11 ZIN A   1      18.226   4.371  10.558  0.00  0.00     0.007 C 
ATOM      4  C12 ZIN A   1      17.766   2.909  10.559  0.00  0.00    -0.001 C 
ATOM      5  C14 ZIN A   1      18.581   1.958   9.704  0.00  0.00    -0.004 C 
ATOM      6  C16 ZIN A   1      18.494   2.355   8.231  0.00  0.00     0.007 C 
ATOM      7  C17 ZIN A   1      19.270   1.350   7.374  0.00  0.00     0.026 C 
ATOM      8  C18 ZIN A   1      18.671  -0.042   7.574  0.00  0.00     0.097 C 
ATOM      9  N20 ZIN A   1      19.370  -1.035   6.763  0.00  0.00    -0.352 N 
ATOM     10  C21 ZIN A   1      19.317  -2.337   7.119  0.00  0.00     0.241 C 
ATOM     11  O22 ZIN A   1      19.923  -3.174   6.477  0.00  0.00    -0.269 OA
ATOM     12  C23 ZIN A   1      18.519  -2.737   8.293  0.00  0.00     0.071 C 
ATOM     13  C24 ZIN A   1      18.252  -1.828   9.234  0.00  0.00    -0.009 C 
ATOM     14  C25 ZIN A   1      18.789  -0.436   9.048  0.00  0.00    -0.002 C 
ATOM     15  C26 ZIN A   1      20.248  -0.389   9.503  0.00  0.00     0.022 C 
ATOM     16  C27 ZIN A   1      17.998   0.550   9.907  0.00  0.00     0.004 C 
ATOM     17  C29 ZIN A   1      18.040   0.124  11.370  0.00  0.00     0.007 C 
ATOM     18  C30 ZIN A   1      17.340   1.153  12.274  0.00  0.00     0.011 C 
ATOM     19  C31 ZIN A   1      17.983   2.511  12.046  0.00  0.00    -0.028 C 
ATOM     20  C32 ZIN A   1      19.494   2.411  12.271  0.00  0.00     0.016 C 
ATOM     21  H51 ZIN A   1      19.868  -0.762   5.975  0.00  0.00     0.163 HD
ENDROOT
BRANCH   1  22
ATOM     22  C6  ZIN A   1      18.182   3.899  14.101  0.00  0.00     0.223 C 
ATOM     23  N5  ZIN A   1      18.953   4.991  14.269  0.00  0.00    -0.353 N 
ATOM     24  H42 ZIN A   1      19.020   5.651  13.563  0.00  0.00     0.163 HD
ATOM     25  O7  ZIN A   1      18.096   3.073  14.985  0.00  0.00    -0.273 OA
BRANCH  23  26
ATOM     26  C2  ZIN A   1      19.690   5.180  15.522  0.00  0.00     0.022 C 
ATOM     27  C1  ZIN A   1      18.850   6.019  16.486  0.00  0.00     0.037 C 
ATOM     28  C3  ZIN A   1      21.009   5.901  15.233  0.00  0.00     0.037 C 
ATOM     29  C4  ZIN A   1      19.982   3.818  16.152  0.00  0.00     0.037 C 
ENDBRANCH  23  26
ENDBRANCH   1  22
TORSDOF 2
ENDMDL
MODEL 4
REMARK VINA RESULT:      -9.0      2.896      4.067
REMARK  2 active torsions:
REMARK  status: ('A' for Active; 'I' for Inactive)
REMARK    1  A    between atoms: C2_2  and  N5_5 
REMARK       I    between atoms: N5_5  and  C6_6 
REMARK    2  A    between atoms: C6_6  and  C8_8 
ROOT
ATOM      1  C8  ZIN A   1      17.435   3.768  12.088  0.00  0.00     0.086 C 
ATOM      2  C10 ZIN A   1      17.721   4.409  10.708  0.00  0.00     0.015 C 
ATOM      3  C11 ZIN A   1      18.334   3.290   9.822  0.00  0.00     0.007 C 
ATOM      4  C12 ZIN A   1      17.811   2.008  10.479  0.00  0.00    -0.001 C 
ATOM      5  C14 ZIN A   1      18.610   0.749  10.203  0.00  0.00    -0.004 C 
ATOM      6  C16 ZIN A   1      18.585   0.417   8.711  0.00  0.00     0.007 C 
ATOM      7  C17 ZIN A   1      19.342  -0.890   8.456  0.00  0.00     0.026 C 
ATOM      8  C18 ZIN A   1      18.677  -2.014   9.250  0.00  0.00     0.097 C 
ATOM      9  N20 ZIN A   1      19.357  -3.287   9.026  0.00  0.00    -0.352 N 
ATOM     10  C21 ZIN A   1      19.236  -4.273   9.942  0.00  0.00     0.241 C 
ATOM     11  O22 ZIN A   1      19.823  -5.327   9.791  0.00  0.00    -0.269 OA
ATOM     12  C23 ZIN A   1      18.385  -4.061  11.128  0.00  0.00     0.071 C 
ATOM     13  C24 ZIN A   1      18.129  -2.812  11.527  0.00  0.00    -0.009 C 
ATOM     14  C25 ZIN A   1      18.732  -1.680  10.742  0.00  0.00    -0.002 C 
ATOM     15  C26 ZIN A   1      20.177  -1.462  11.193  0.00  0.00     0.022 C 
ATOM     16  C27 ZIN A   1      17.960  -0.389  11.008  0.00  0.00     0.004 C 
ATOM     17  C29 ZIN A   1      17.938  -0.086  12.501  0.00  0.00     0.007 C 
ATOM     18  C30 ZIN A   1      17.256   1.262  12.790  0.00  0.00     0.011 C 
ATOM     19  C31 ZIN A   1      17.965   2.342  11.990  0.00  0.00    -0.028 C 
ATOM     20  C32 ZIN A   1      19.462   2.321  12.307  0.00  0.00     0.016 C 
ATOM     21  H51 ZIN A   1      19.890  -3.424   8.227  0.00  0.00     0.163 HD
ENDROOT
BRANCH   1  22
ATOM     22  C6  ZIN A   1      18.160   4.521  13.174  0.00  0.00     0.223 C 
ATOM     23  N5  ZIN A   1      17.680   4.514  14.433  0.00  0.00    -0.353 N 
ATOM     24  H42 ZIN A   1      16.869   4.026  14.641  0.00  0.00     0.163 HD
ATOM     25  O7  ZIN A   1      19.176   5.131  12.914  0.00  0.00    -0.273 OA
BRANCH  23  26
ATOM     26  C2  ZIN A   1      18.386   5.246  15.489  0.00  0.00     0.022 C 
ATOM     27  C1  ZIN A   1      19.706   4.541  15.803  0.00  0.00     0.037 C 
ATOM     28  C3  ZIN A   1      17.516   5.288  16.748  0.00  0.00     0.037 C 
ATOM     29  C4  ZIN A   1      18.669   6.674  15.018  0.00  0.00     0.037 C 
ENDBRANCH  23  26
ENDBRANCH   1  22
TORSDOF 2
ENDMDL
MODEL 5
REMARK VINA RESULT:      -8.9      2.174      3.679
REMARK  2 active torsions:
REMARK  status: ('A' for Active; 'I' for Inactive)
REMARK    1  A    between atoms: C2_2  and  N5_5 
REMARK       I    between atoms: N5_5  and  C6_6 
REMARK    2  A    between atoms: C6_6  and  C8_8 
ROOT
ATOM      1  C8  ZIN A   1      19.800   1.236  12.915  0.00  0.00     0.086 C 
ATOM      2  C10 ZIN A   1      19.720  -0.156  13.590  0.00  0.00     0.015 C 
ATOM      3  C11 ZIN A   1      19.183  -1.136  12.512  0.00  0.00     0.007 C 
ATOM      4  C12 ZIN A   1      19.566  -0.446  11.199  0.00  0.00    -0.001 C 
ATOM      5  C14 ZIN A   1      18.762  -0.850   9.979  0.00  0.00    -0.004 C 
ATOM      6  C16 ZIN A   1      18.966  -2.333   9.671  0.00  0.00     0.007 C 
ATOM      7  C17 ZIN A   1      18.197  -2.711   8.400  0.00  0.00     0.026 C 
ATOM      8  C18 ZIN A   1      18.710  -1.863   7.237  0.00  0.00     0.097 C 
ATOM      9  N20 ZIN A   1      18.016  -2.200   5.997  0.00  0.00    -0.352 N 
ATOM     10  C21 ZIN A   1      17.979  -1.297   4.992  0.00  0.00     0.241 C 
ATOM     11  O22 ZIN A   1      17.375  -1.546   3.966  0.00  0.00    -0.269 OA
ATOM     12  C23 ZIN A   1      18.677  -0.008   5.149  0.00  0.00     0.071 C 
ATOM     13  C24 ZIN A   1      18.927   0.447   6.379  0.00  0.00    -0.009 C 
ATOM     14  C25 ZIN A   1      18.476  -0.384   7.549  0.00  0.00    -0.002 C 
ATOM     15  C26 ZIN A   1      16.994  -0.118   7.818  0.00  0.00     0.022 C 
ATOM     16  C27 ZIN A   1      19.257   0.007   8.802  0.00  0.00     0.004 C 
ATOM     17  C29 ZIN A   1      19.098   1.498   9.079  0.00  0.00     0.007 C 
ATOM     18  C30 ZIN A   1      19.788   1.900  10.393  0.00  0.00     0.011 C 
ATOM     19  C31 ZIN A   1      19.232   1.039  11.514  0.00  0.00    -0.028 C 
ATOM     20  C32 ZIN A   1      17.706   1.161  11.550  0.00  0.00     0.016 C 
ATOM     21  H51 ZIN A   1      17.585  -3.064   5.895  0.00  0.00     0.163 HD
ENDROOT
BRANCH   1  22
ATOM     22  C6  ZIN A   1      18.970   2.235  13.679  0.00  0.00     0.223 C 
ATOM     23  N5  ZIN A   1      19.284   3.546  13.633  0.00  0.00    -0.353 N 
ATOM     24  H42 ZIN A   1      20.042   3.845  13.109  0.00  0.00     0.163 HD
ATOM     25  O7  ZIN A   1      18.021   1.861  14.334  0.00  0.00    -0.273 OA
BRANCH  23  26
ATOM     26  C2  ZIN A   1      18.477   4.518  14.375  0.00  0.00     0.022 C 
ATOM     27  C1  ZIN A   1      18.324   4.053  15.824  0.00  0.00     0.037 C 
ATOM     28  C3  ZIN A   1      17.095   4.634  13.728  0.00  0.00     0.037 C 
ATOM     29  C4  ZIN A   1      19.169   5.882  14.347  0.00  0.00     0.037 C 
ENDBRANCH  23  26
ENDBRANCH   1  22
TORSDOF 2
ENDMDL
MODEL 6
REMARK VINA RESULT:      -8.8      2.580      7.783
REMARK  2 active torsions:
REMARK  status: ('A' for Active; 'I' for Inactive)
REMARK    1  A    between atoms: C2_2  and  N5_5 
REMARK       I    between atoms: N5_5  and  C6_6 
REMARK    2  A    between atoms: C6_6  and  C8_8 
ROOT
ATOM      1  C8  ZIN A   1      19.754  -1.321  10.275  0.00  0.00     0.086 C 
ATOM      2  C10 ZIN A   1      19.665   0.067   9.595  0.00  0.00     0.015 C 
ATOM      3  C11 ZIN A   1      19.141   1.052  10.675  0.00  0.00     0.007 C 
ATOM      4  C12 ZIN A   1      19.541   0.368  11.986  0.00  0.00    -0.001 C 
ATOM      5  C14 ZIN A   1      18.751   0.777  13.214  0.00  0.00    -0.004 C 
ATOM      6  C16 ZIN A   1      18.958   2.262  13.513  0.00  0.00     0.007 C 
ATOM      7  C17 ZIN A   1      18.205   2.645  14.791  0.00  0.00     0.026 C 
ATOM      8  C18 ZIN A   1      18.733   1.803  15.952  0.00  0.00     0.097 C 
ATOM      9  N20 ZIN A   1      18.054   2.145  17.199  0.00  0.00    -0.352 N 
ATOM     10  C21 ZIN A   1      18.030   1.247  18.208  0.00  0.00     0.241 C 
ATOM     11  O22 ZIN A   1      17.439   1.500  19.240  0.00  0.00    -0.269 OA
ATOM     12  C23 ZIN A   1      18.727  -0.043  18.049  0.00  0.00     0.071 C 
ATOM     13  C24 ZIN A   1      18.962  -0.503  16.818  0.00  0.00    -0.009 C 
ATOM     14  C25 ZIN A   1      18.496   0.322  15.650  0.00  0.00    -0.002 C 
ATOM     15  C26 ZIN A   1      17.011   0.054  15.400  0.00  0.00     0.022 C 
ATOM     16  C27 ZIN A   1      19.262  -0.074  14.389  0.00  0.00     0.004 C 
ATOM     17  C29 ZIN A   1      19.100  -1.566  14.121  0.00  0.00     0.007 C 
ATOM     18  C30 ZIN A   1      19.774  -1.974  12.800  0.00  0.00     0.011 C 
ATOM     19  C31 ZIN A   1      19.203  -1.119  11.683  0.00  0.00    -0.028 C 
ATOM     20  C32 ZIN A   1      17.678  -1.242  11.666  0.00  0.00     0.016 C 
ATOM     21  H51 ZIN A   1      17.624   3.009  17.302  0.00  0.00     0.163 HD
ENDROOT
BRANCH   1  22
ATOM     22  C6  ZIN A   1      18.916  -2.325   9.526  0.00  0.00     0.223 C 
ATOM     23  N5  ZIN A   1      19.228  -3.635   9.578  0.00  0.00    -0.353 N 
ATOM     24  H42 ZIN A   1      19.992  -3.931  10.096  0.00  0.00     0.163 HD
ATOM     25  O7  ZIN A   1      17.960  -1.954   8.878  0.00  0.00    -0.273 OA
BRANCH  23  26
ATOM     26  C2  ZIN A   1      18.413  -4.611   8.850  0.00  0.00     0.022 C 
ATOM     27  C1  ZIN A   1      17.009  -4.656   9.455  0.00  0.00     0.037 C 
ATOM     28  C3  ZIN A   1      19.060  -5.994   8.954  0.00  0.00     0.037 C 
ATOM     29  C4  ZIN A   1      18.321  -4.202   7.378  0.00  0.00     0.037 C 
ENDBRANCH  23  26
ENDBRANCH   1  22
TORSDOF 2
ENDMDL
MODEL 7
REMARK VINA RESULT:      -8.8      1.411      7.615
REMARK  2 active torsions:
REMARK  status: ('A' for Active; 'I' for Inactive)
REMARK    1  A    between atoms: C2_2  and  N5_5 
REMARK       I    between atoms: N5_5  and  C6_6 
REMARK    2  A    between atoms: C6_6  and  C8_8 
ROOT
ATOM      1  C8  ZIN A   1      19.598   1.269   8.215  0.00  0.00     0.086 C 
ATOM      2  C10 ZIN A   1      19.145   2.750   8.223  0.00  0.00     0.015 C 
ATOM      3  C11 ZIN A   1      18.543   3.017   9.630  0.00  0.00     0.007 C 
ATOM      4  C12 ZIN A   1      19.217   1.950  10.500  0.00  0.00    -0.001 C 
ATOM      5  C14 ZIN A   1      18.496   1.590  11.783  0.00  0.00    -0.004 C 
ATOM      6  C16 ZIN A   1      18.415   2.802  12.711  0.00  0.00     0.007 C 
ATOM      7  C17 ZIN A   1      17.740   2.406  14.028  0.00  0.00     0.026 C 
ATOM      8  C18 ZIN A   1      18.556   1.297  14.692  0.00  0.00     0.097 C 
ATOM      9  N20 ZIN A   1      17.957   0.895  15.962  0.00  0.00    -0.352 N 
ATOM     10  C21 ZIN A   1      18.232  -0.327  16.467  0.00  0.00     0.241 C 
ATOM     11  O22 ZIN A   1      17.715  -0.693  17.505  0.00  0.00    -0.269 OA
ATOM     12  C23 ZIN A   1      19.165  -1.216  15.749  0.00  0.00     0.071 C 
ATOM     13  C24 ZIN A   1      19.358  -1.030  14.441  0.00  0.00    -0.009 C 
ATOM     14  C25 ZIN A   1      18.605   0.082  13.763  0.00  0.00    -0.002 C 
ATOM     15  C26 ZIN A   1      17.193  -0.396  13.423  0.00  0.00     0.022 C 
ATOM     16  C27 ZIN A   1      19.298   0.463  12.456  0.00  0.00     0.004 C 
ATOM     17  C29 ZIN A   1      19.427  -0.759  11.553  0.00  0.00     0.007 C 
ATOM     18  C30 ZIN A   1      20.027  -0.385  10.187  0.00  0.00     0.011 C 
ATOM     19  C31 ZIN A   1      19.171   0.707   9.567  0.00  0.00    -0.028 C 
ATOM     20  C32 ZIN A   1      17.713   0.246   9.501  0.00  0.00     0.016 C 
ATOM     21  H51 ZIN A   1      17.368   1.501  16.440  0.00  0.00     0.163 HD
ENDROOT
BRANCH   1  22
ATOM     22  C6  ZIN A   1      18.915   0.520   7.100  0.00  0.00     0.223 C 
ATOM     23  N5  ZIN A   1      19.169  -0.791   6.916  0.00  0.00    -0.353 N 
ATOM     24  H42 ZIN A   1      19.790  -1.252   7.500  0.00  0.00     0.163 HD
ATOM     25  O7  ZIN A   1      18.137   1.096   6.370  0.00  0.00    -0.273 OA
BRANCH  23  26
ATOM     26  C2  ZIN A   1      18.505  -1.519   5.832  0.00  0.00     0.022 C 
ATOM     27  C1  ZIN A   1      18.487  -3.014   6.156  0.00  0.00     0.037 C 
ATOM     28  C3  ZIN A   1      19.264  -1.290   4.523  0.00  0.00     0.037 C 
ATOM     29  C4  ZIN A   1      17.069  -1.013   5.681  0.00  0.00     0.037 C 
ENDBRANCH  23  26
ENDBRANCH   1  22
TORSDOF 2
ENDMDL
MODEL 8
REMARK VINA RESULT:      -8.7      2.866      4.154
REMARK  2 active torsions:
REMARK  status: ('A' for Active; 'I' for Inactive)
REMARK    1  A    between atoms: C2_2  and  N5_5 
REMARK       I    between atoms: N5_5  and  C6_6 
REMARK    2  A    between atoms: C6_6  and  C8_8 
ROOT
ATOM      1  C8  ZIN A   1      17.822   2.637  10.581  0.00  0.00     0.086 C 
ATOM      2  C10 ZIN A   1      18.505   3.170   9.297  0.00  0.00     0.015 C 
ATOM      3  C11 ZIN A   1      19.048   1.926   8.540  0.00  0.00     0.007 C 
ATOM      4  C12 ZIN A   1      18.156   0.793   9.059  0.00  0.00    -0.001 C 
ATOM      5  C14 ZIN A   1      18.724  -0.607   8.933  0.00  0.00    -0.004 C 
ATOM      6  C16 ZIN A   1      18.937  -0.969   7.463  0.00  0.00     0.007 C 
ATOM      7  C17 ZIN A   1      19.451  -2.407   7.351  0.00  0.00     0.026 C 
ATOM      8  C18 ZIN A   1      18.427  -3.353   7.976  0.00  0.00     0.097 C 
ATOM      9  N20 ZIN A   1      18.868  -4.742   7.878  0.00  0.00    -0.352 N 
ATOM     10  C21 ZIN A   1      18.368  -5.658   8.737  0.00  0.00     0.241 C 
ATOM     11  O22 ZIN A   1      18.751  -6.812   8.695  0.00  0.00    -0.269 OA
ATOM     12  C23 ZIN A   1      17.355  -5.248   9.727  0.00  0.00     0.071 C 
ATOM     13  C24 ZIN A   1      17.280  -3.963  10.082  0.00  0.00    -0.009 C 
ATOM     14  C25 ZIN A   1      18.244  -2.995   9.453  0.00  0.00    -0.002 C 
ATOM     15  C26 ZIN A   1      19.581  -3.058  10.192  0.00  0.00     0.022 C 
ATOM     16  C27 ZIN A   1      17.710  -1.569   9.573  0.00  0.00     0.004 C 
ATOM     17  C29 ZIN A   1      17.446  -1.227  11.035  0.00  0.00     0.007 C 
ATOM     18  C30 ZIN A   1      17.005   0.238  11.197  0.00  0.00     0.011 C 
ATOM     19  C31 ZIN A   1      18.064   1.131  10.573  0.00  0.00    -0.028 C 
ATOM     20  C32 ZIN A   1      19.430   0.821  11.189  0.00  0.00     0.016 C 
ATOM     21  H51 ZIN A   1      19.514  -5.005   7.203  0.00  0.00     0.163 HD
ENDROOT
BRANCH   1  22
ATOM     22  C6  ZIN A   1      18.448   3.260  11.802  0.00  0.00     0.223 C 
ATOM     23  N5  ZIN A   1      17.713   3.441  12.917  0.00  0.00    -0.353 N 
ATOM     24  H42 ZIN A   1      16.782   3.172  12.933  0.00  0.00     0.163 HD
ATOM     25  O7  ZIN A   1      19.613   3.596  11.782  0.00  0.00    -0.273 OA
BRANCH  23  26
ATOM     26  C2  ZIN A   1      18.321   4.046  14.105  0.00  0.00     0.022 C 
ATOM     27  C1  ZIN A   1      17.261   4.833  14.877  0.00  0.00     0.037 C 
ATOM     28  C3  ZIN A   1      19.447   4.990  13.676  0.00  0.00     0.037 C 
ATOM     29  C4  ZIN A   1      18.894   2.947  15.001  0.00  0.00     0.037 C 
ENDBRANCH  23  26
ENDBRANCH   1  22
TORSDOF 2
ENDMDL
MODEL 9
REMARK VINA RESULT:      -8.7      2.211      8.142
REMARK  2 active torsions:
REMARK  status: ('A' for Active; 'I' for Inactive)
REMARK    1  A    between atoms: C2_2  and  N5_5 
REMARK       I    between atoms: N5_5  and  C6_6 
REMARK    2  A    between atoms: C6_6  and  C8_8 
ROOT
ATOM      1  C8  ZIN A   1      19.301  -1.159   5.388  0.00  0.00     0.086 C 
ATOM      2  C10 ZIN A   1      19.251   0.250   4.748  0.00  0.00     0.015 C 
ATOM      3  C11 ZIN A   1      18.863   1.236   5.884  0.00  0.00     0.007 C 
ATOM      4  C12 ZIN A   1      19.308   0.494   7.148  0.00  0.00    -0.001 C 
ATOM      5  C14 ZIN A   1      18.631   0.916   8.437  0.00  0.00    -0.004 C 
ATOM      6  C16 ZIN A   1      18.948   2.377   8.755  0.00  0.00     0.007 C 
ATOM      7  C17 ZIN A   1      18.309   2.770  10.090  0.00  0.00     0.026 C 
ATOM      8  C18 ZIN A   1      18.862   1.868  11.192  0.00  0.00     0.097 C 
ATOM      9  N20 ZIN A   1      18.291   2.216  12.491  0.00  0.00    -0.352 N 
ATOM     10  C21 ZIN A   1      18.281   1.294  13.479  0.00  0.00     0.241 C 
ATOM     11  O22 ZIN A   1      17.778   1.554  14.555  0.00  0.00    -0.269 OA
ATOM     12  C23 ZIN A   1      18.885  -0.031  13.242  0.00  0.00     0.071 C 
ATOM     13  C24 ZIN A   1      19.007  -0.471  11.987  0.00  0.00    -0.009 C 
ATOM     14  C25 ZIN A   1      18.514   0.412  10.874  0.00  0.00    -0.002 C 
ATOM     15  C26 ZIN A   1      17.002   0.239  10.722  0.00  0.00     0.022 C 
ATOM     16  C27 ZIN A   1      19.167   0.005   9.554  0.00  0.00     0.004 C 
ATOM     17  C29 ZIN A   1      18.895  -1.467   9.264  0.00  0.00     0.007 C 
ATOM     18  C30 ZIN A   1      19.452  -1.880   7.891  0.00  0.00     0.011 C 
ATOM     19  C31 ZIN A   1      18.860  -0.962   6.835  0.00  0.00    -0.028 C 
ATOM     20  C32 ZIN A   1      17.332  -0.992   6.922  0.00  0.00     0.016 C 
ATOM     21  H51 ZIN A   1      17.923   3.101  12.643  0.00  0.00     0.163 HD
ENDROOT
BRANCH   1  22
ATOM     22  C6  ZIN A   1      18.353  -2.090   4.677  0.00  0.00     0.223 C 
ATOM     23  N5  ZIN A   1      18.509  -3.424   4.789  0.00  0.00    -0.353 N 
ATOM     24  H42 ZIN A   1      19.231  -3.784   5.326  0.00  0.00     0.163 HD
ATOM     25  O7  ZIN A   1      17.450  -1.639   4.005  0.00  0.00    -0.273 OA
BRANCH  23  26
ATOM     26  C2  ZIN A   1      17.588  -4.329   4.097  0.00  0.00     0.022 C 
ATOM     27  C1  ZIN A   1      16.214  -3.669   3.982  0.00  0.00     0.037 C 
ATOM     28  C3  ZIN A   1      17.463  -5.633   4.890  0.00  0.00     0.037 C 
ATOM     29  C4  ZIN A   1      18.127  -4.634   2.698  0.00  0.00     0.037 C 
ENDBRANCH  23  26
ENDBRANCH   1  22
TORSDOF 2
ENDMDL
