MODEL 1
REMARK VINA RESULT:      -6.7      0.000      0.000
REMARK  6 active torsions:
REMARK  status: ('A' for Active; 'I' for Inactive)
REMARK    1  A    between atoms: N2_2  and  C5_5 
REMARK    2  A    between atoms: C5_5  and  C6_6 
REMARK    3  A    between atoms: C6_6  and  O7_7 
REMARK    4  A    between atoms: O7_7  and  C8_8 
REMARK    5  A    between atoms: C8_8  and  C10_10 
REMARK    6  A    between atoms: C8_8  and  C16_16 
ROOT
ATOM      1  C8  ZIN A   1      18.651   0.598  10.310  0.00  0.00     0.128 C 
ATOM      2  C9  ZIN A   1      20.049   0.048  10.599  0.00  0.00     0.058 C 
ENDROOT
BRANCH   1   3
ATOM      3  O7  ZIN A   1      17.674  -0.220  10.955  0.00  0.00    -0.368 OA
BRANCH   3   4
ATOM      4  C6  ZIN A   1      18.228  -1.273  11.747  0.00  0.00     0.197 C 
BRANCH   4   5
ATOM      5  C5  ZIN A   1      17.523  -2.589  11.411  0.00  0.00     0.260 C 
BRANCH   5   6
ATOM      6  N2  ZIN A   1      18.514  -3.571  10.950  0.00  0.00    -0.077 N 
ATOM      7  C1  ZIN A   1      18.815  -3.334   9.533  0.00  0.00     0.269 C 
ATOM      8  H3  ZIN A   1      18.144  -4.502  11.065  0.00  0.00     0.279 HD
ATOM      9  C4  ZIN A   1      19.745  -3.432  11.741  0.00  0.00     0.269 C 
ENDBRANCH   5   6
ENDBRANCH   4   5
ENDBRANCH   3   4
ENDBRANCH   1   3
BRANCH   1  10
ATOM     10  C10 ZIN A   1      18.407   0.595   8.823  0.00  0.00    -0.018 A 
ATOM     11  C15 ZIN A   1      17.357  -0.135   8.295  0.00  0.00     0.010 A 
ATOM     12  C14 ZIN A   1      17.131  -0.135   6.932  0.00  0.00     0.001 A 
ATOM     13  C13 ZIN A   1      17.960   0.587   6.094  0.00  0.00     0.000 A 
ATOM     14  C12 ZIN A   1      19.012   1.312   6.619  0.00  0.00     0.001 A 
ATOM     15  C11 ZIN A   1      19.236   1.315   7.984  0.00  0.00     0.010 A 
ENDBRANCH   1  10
BRANCH   1  16
ATOM     16  C16 ZIN A   1      18.549   2.009  10.831  0.00  0.00     0.073 A 
ATOM     17  N21 ZIN A   1      17.413   2.667  10.711  0.00  0.00    -0.262 NA
ATOM     18  C20 ZIN A   1      17.276   3.900  11.156  0.00  0.00     0.117 A 
ATOM     19  C19 ZIN A   1      18.333   4.555  11.761  0.00  0.00     0.019 A 
ATOM     20  C18 ZIN A   1      19.544   3.897  11.900  0.00  0.00     0.003 A 
ATOM     21  C17 ZIN A   1      19.649   2.599  11.424  0.00  0.00     0.031 A 
ENDBRANCH   1  16
TORSDOF 6
ENDMDL
MODEL 2
REMARK VINA RESULT:      -6.7      2.330      4.956
REMARK  6 active torsions:
REMARK  status: ('A' for Active; 'I' for Inactive)
REMARK    1  A    between atoms: N2_2  and  C5_5 
REMARK    2  A    between atoms: C5_5  and  C6_6 
REMARK    3  A    between atoms: C6_6  and  O7_7 
REMARK    4  A    between atoms: O7_7  and  C8_8 
REMARK    5  A    between atoms: C8_8  and  C10_10 
REMARK    6  A    between atoms: C8_8  and  C16_16 
ROOT
ATOM      1  C8  ZIN A   1      18.096   0.087  12.092  0.00  0.00     0.128 C 
ATOM      2  C9  ZIN A   1      16.699  -0.301  11.603  0.00  0.00     0.058 C 
ENDROOT
BRANCH   1   3
ATOM      3  O7  ZIN A   1      19.076  -0.679  11.390  0.00  0.00    -0.368 OA
BRANCH   3   4
ATOM      4  C6  ZIN A   1      18.698  -1.025  10.056  0.00  0.00     0.197 C 
BRANCH   4   5
ATOM      5  C5  ZIN A   1      19.745  -0.497   9.074  0.00  0.00     0.260 C 
BRANCH   5   6
ATOM      6  N2  ZIN A   1      19.084   0.313   8.042  0.00  0.00    -0.077 N 
ATOM      7  C1  ZIN A   1      17.637   0.070   8.082  0.00  0.00     0.269 C 
ATOM      8  H3  ZIN A   1      19.443   0.059   7.134  0.00  0.00     0.279 HD
ATOM      9  C4  ZIN A   1      19.349   1.736   8.293  0.00  0.00     0.269 C 
ENDBRANCH   5   6
ENDBRANCH   4   5
ENDBRANCH   3   4
ENDBRANCH   1   3
BRANCH   1  10
ATOM     10  C10 ZIN A   1      18.206  -0.190  13.569  0.00  0.00    -0.018 A 
ATOM     11  C15 ZIN A   1      17.455   0.543  14.469  0.00  0.00     0.010 A 
ATOM     12  C14 ZIN A   1      17.553   0.286  15.824  0.00  0.00     0.001 A 
ATOM     13  C13 ZIN A   1      18.410  -0.699  16.279  0.00  0.00     0.000 A 
ATOM     14  C12 ZIN A   1      19.165  -1.429  15.381  0.00  0.00     0.001 A 
ATOM     15  C11 ZIN A   1      19.063  -1.174  14.026  0.00  0.00     0.010 A 
ENDBRANCH   1  10
BRANCH   1  16
ATOM     16  C16 ZIN A   1      18.328   1.554  11.839  0.00  0.00     0.073 A 
ATOM     17  N21 ZIN A   1      17.325   2.314  11.444  0.00  0.00    -0.262 NA
ATOM     18  C20 ZIN A   1      17.480   3.603  11.214  0.00  0.00     0.117 A 
ATOM     19  C19 ZIN A   1      18.714   4.205  11.371  0.00  0.00     0.019 A 
ATOM     20  C18 ZIN A   1      19.793   3.438  11.780  0.00  0.00     0.003 A 
ATOM     21  C17 ZIN A   1      19.591   2.087  12.016  0.00  0.00     0.031 A 
ENDBRANCH   1  16
TORSDOF 6
ENDMDL
MODEL 3
REMARK VINA RESULT:      -6.7      1.589      2.410
REMARK  6 active torsions:
REMARK  status: ('A' for Active; 'I' for Inactive)
REMARK    1  A    between atoms: N2_2  and  C5_5 
REMARK    2  A    between atoms: C5_5  and  C6_6 
REMARK    3  A    between atoms: C6_6  and  O7_7 
REMARK    4  A    between atoms: O7_7  and  C8_8 
REMARK    5  A    between atoms: C8_8  and  C10_10 
REMARK    6  A    between atoms: C8_8  and  C16_16 
ROOT
ATOM      1  C8  ZIN A   1      18.740   0.429  10.081  0.00  0.00     0.128 C 
ATOM      2  C9  ZIN A   1      20.115  -0.204  10.308  0.00  0.00     0.058 C 
ENDROOT
BRANCH   1   3
ATOM      3  O7  ZIN A   1      17.741  -0.352  10.739  0.00  0.00    -0.368 OA
BRANCH   3   4
ATOM      4  C6  ZIN A   1      18.254  -1.216  11.755  0.00  0.00     0.197 C 
BRANCH   4   5
ATOM      5  C5  ZIN A   1      17.699  -0.790  13.116  0.00  0.00     0.260 C 
BRANCH   5   6
ATOM      6  N2  ZIN A   1      18.446   0.376  13.605  0.00  0.00    -0.077 N 
ATOM      7  C1  ZIN A   1      17.717   0.993  14.720  0.00  0.00     0.269 C 
ATOM      8  H3  ZIN A   1      18.551   1.046  12.859  0.00  0.00     0.279 HD
ATOM      9  C4  ZIN A   1      19.774  -0.053  14.067  0.00  0.00     0.269 C 
ENDBRANCH   5   6
ENDBRANCH   4   5
ENDBRANCH   3   4
ENDBRANCH   1   3
BRANCH   1  10
ATOM     10  C10 ZIN A   1      18.447   0.477   8.603  0.00  0.00    -0.018 A 
ATOM     11  C15 ZIN A   1      17.354  -0.196   8.092  0.00  0.00     0.010 A 
ATOM     12  C14 ZIN A   1      17.083  -0.149   6.737  0.00  0.00     0.001 A 
ATOM     13  C13 ZIN A   1      17.912   0.565   5.893  0.00  0.00     0.000 A 
ATOM     14  C12 ZIN A   1      19.009   1.234   6.401  0.00  0.00     0.001 A 
ATOM     15  C11 ZIN A   1      19.277   1.189   7.757  0.00  0.00     0.010 A 
ENDBRANCH   1  10
BRANCH   1  16
ATOM     16  C16 ZIN A   1      18.733   1.828  10.640  0.00  0.00     0.073 A 
ATOM     17  N21 ZIN A   1      19.779   2.266  11.314  0.00  0.00    -0.262 NA
ATOM     18  C20 ZIN A   1      19.818   3.484  11.817  0.00  0.00     0.117 A 
ATOM     19  C19 ZIN A   1      18.751   4.348  11.663  0.00  0.00     0.019 A 
ATOM     20  C18 ZIN A   1      17.632   3.921  10.965  0.00  0.00     0.003 A 
ATOM     21  C17 ZIN A   1      17.629   2.636  10.446  0.00  0.00     0.031 A 
ENDBRANCH   1  16
TORSDOF 6
ENDMDL
MODEL 4
REMARK VINA RESULT:      -6.5      2.102      4.367
REMARK  6 active torsions:
REMARK  status: ('A' for Active; 'I' for Inactive)
REMARK    1  A    between atoms: N2_2  and  C5_5 
REMARK    2  A    between atoms: C5_5  and  C6_6 
REMARK    3  A    between atoms: C6_6  and  O7_7 
REMARK    4  A    between atoms: O7_7  and  C8_8 
REMARK    5  A    between atoms: C8_8  and  C10_10 
REMARK    6  A    between atoms: C8_8  and  C16_16 
ROOT
ATOM      1  C8  ZIN A   1      18.069  -0.038  10.848  0.00  0.00     0.128 C 
ATOM      2  C9  ZIN A   1      16.661   0.307  11.337  0.00  0.00     0.058 C 
ENDROOT
BRANCH   1   3
ATOM      3  O7  ZIN A   1      19.026   0.750  11.558  0.00  0.00    -0.368 OA
BRANCH   3   4
ATOM      4  C6  ZIN A   1      18.592   1.164  12.855  0.00  0.00     0.197 C 
BRANCH   4   5
ATOM      5  C5  ZIN A   1      19.662   0.810  13.889  0.00  0.00     0.260 C 
BRANCH   5   6
ATOM      6  N2  ZIN A   1      19.052   0.037  14.979  0.00  0.00    -0.077 N 
ATOM      7  C1  ZIN A   1      17.624   0.367  15.073  0.00  0.00     0.269 C 
ATOM      8  H3  ZIN A   1      19.508   0.265  15.849  0.00  0.00     0.279 HD
ATOM      9  C4  ZIN A   1      19.205  -1.399  14.706  0.00  0.00     0.269 C 
ENDBRANCH   5   6
ENDBRANCH   4   5
ENDBRANCH   3   4
ENDBRANCH   1   3
BRANCH   1  10
ATOM     10  C10 ZIN A   1      18.174   0.252   9.373  0.00  0.00    -0.018 A 
ATOM     11  C15 ZIN A   1      17.367  -0.421   8.475  0.00  0.00     0.010 A 
ATOM     12  C14 ZIN A   1      17.461  -0.152   7.123  0.00  0.00     0.001 A 
ATOM     13  C13 ZIN A   1      18.369   0.784   6.667  0.00  0.00     0.000 A 
ATOM     14  C12 ZIN A   1      19.181   1.454   7.562  0.00  0.00     0.001 A 
ATOM     15  C11 ZIN A   1      19.084   1.187   8.916  0.00  0.00     0.010 A 
ENDBRANCH   1  10
BRANCH   1  16
ATOM     16  C16 ZIN A   1      18.341  -1.500  11.092  0.00  0.00     0.073 A 
ATOM     17  N21 ZIN A   1      17.343  -2.308  11.394  0.00  0.00    -0.262 NA
ATOM     18  C20 ZIN A   1      17.533  -3.594  11.611  0.00  0.00     0.117 A 
ATOM     19  C19 ZIN A   1      18.799  -4.143  11.540  0.00  0.00     0.019 A 
ATOM     20  C18 ZIN A   1      19.874  -3.325  11.230  0.00  0.00     0.003 A 
ATOM     21  C17 ZIN A   1      19.635  -1.979  11.003  0.00  0.00     0.031 A 
ENDBRANCH   1  16
TORSDOF 6
ENDMDL
MODEL 5
REMARK VINA RESULT:      -6.4      2.576      6.248
REMARK  6 active torsions:
REMARK  status: ('A' for Active; 'I' for Inactive)
REMARK    1  A    between atoms: N2_2  and  C5_5 
REMARK    2  A    between atoms: C5_5  and  C6_6 
REMARK    3  A    between atoms: C6_6  and  O7_7 
REMARK    4  A    between atoms: O7_7  and  C8_8 
REMARK    5  A    between atoms: C8_8  and  C10_10 
REMARK    6  A    between atoms: C8_8  and  C16_16 
ROOT
ATOM      1  C8  ZIN A   1      18.732  -0.607  12.621  0.00  0.00     0.128 C 
ATOM      2  C9  ZIN A   1      20.141  -0.069  12.363  0.00  0.00     0.058 C 
ENDROOT
BRANCH   1   3
ATOM      3  O7  ZIN A   1      17.775   0.242  11.985  0.00  0.00    -0.368 OA
BRANCH   3   4
ATOM      4  C6  ZIN A   1      18.232   0.822  10.762  0.00  0.00     0.197 C 
BRANCH   4   5
ATOM      5  C5  ZIN A   1      17.357   0.333   9.606  0.00  0.00     0.260 C 
BRANCH   5   6
ATOM      6  N2  ZIN A   1      18.212  -0.184   8.530  0.00  0.00    -0.077 N 
ATOM      7  C1  ZIN A   1      19.620   0.076   8.855  0.00  0.00     0.269 C 
ATOM      8  H3  ZIN A   1      17.975   0.274   7.663  0.00  0.00     0.279 HD
ATOM      9  C4  ZIN A   1      18.001  -1.632   8.392  0.00  0.00     0.269 C 
ENDBRANCH   5   6
ENDBRANCH   4   5
ENDBRANCH   3   4
ENDBRANCH   1   3
BRANCH   1  10
ATOM     10  C10 ZIN A   1      18.469  -0.637  14.105  0.00  0.00    -0.018 A 
ATOM     11  C15 ZIN A   1      17.479   0.159  14.649  0.00  0.00     0.010 A 
ATOM     12  C14 ZIN A   1      17.235   0.129  16.009  0.00  0.00     0.001 A 
ATOM     13  C13 ZIN A   1      17.989  -0.693  16.827  0.00  0.00     0.000 A 
ATOM     14  C12 ZIN A   1      18.983  -1.485  16.285  0.00  0.00     0.001 A 
ATOM     15  C11 ZIN A   1      19.224  -1.457  14.923  0.00  0.00     0.010 A 
ENDBRANCH   1  10
BRANCH   1  16
ATOM     16  C16 ZIN A   1      18.617  -2.001  12.062  0.00  0.00     0.073 A 
ATOM     17  N21 ZIN A   1      17.424  -2.539  11.894  0.00  0.00    -0.262 NA
ATOM     18  C20 ZIN A   1      17.275  -3.754  11.404  0.00  0.00     0.117 A 
ATOM     19  C19 ZIN A   1      18.374  -4.517  11.058  0.00  0.00     0.019 A 
ATOM     20  C18 ZIN A   1      19.644  -3.987  11.225  0.00  0.00     0.003 A 
ATOM     21  C17 ZIN A   1      19.761  -2.705  11.738  0.00  0.00     0.031 A 
ENDBRANCH   1  16
TORSDOF 6
ENDMDL
MODEL 6
REMARK VINA RESULT:      -6.4      1.330      5.179
REMARK  6 active torsions:
REMARK  status: ('A' for Active; 'I' for Inactive)
REMARK    1  A    between atoms: N2_2  and  C5_5 
REMARK    2  A    between atoms: C5_5  and  C6_6 
REMARK    3  A    between atoms: C6_6  and  O7_7 
REMARK    4  A    between atoms: O7_7  and  C8_8 
REMARK    5  A    between atoms: C8_8  and  C10_10 
REMARK    6  A    between atoms: C8_8  and  C16_16 
ROOT
ATOM      1  C8  ZIN A   1      17.991  -0.137  11.009  0.00  0.00     0.128 C 
ATOM      2  C9  ZIN A   1      16.534   0.137  11.387  0.00  0.00     0.058 C 
ENDROOT
BRANCH   1   3
ATOM      3  O7  ZIN A   1      18.854   0.634  11.847  0.00  0.00    -0.368 OA
BRANCH   3   4
ATOM      4  C6  ZIN A   1      18.170   1.387  12.851  0.00  0.00     0.197 C 
BRANCH   4   5
ATOM      5  C5  ZIN A   1      18.661   2.836  12.826  0.00  0.00     0.260 C 
BRANCH   5   6
ATOM      6  N2  ZIN A   1      17.539   3.728  12.504  0.00  0.00    -0.077 N 
ATOM      7  C1  ZIN A   1      17.786   5.055  13.081  0.00  0.00     0.269 C 
ATOM      8  H3  ZIN A   1      16.687   3.347  12.886  0.00  0.00     0.279 HD
ATOM      9  C4  ZIN A   1      17.411   3.845  11.044  0.00  0.00     0.269 C 
ENDBRANCH   5   6
ENDBRANCH   4   5
ENDBRANCH   3   4
ENDBRANCH   1   3
BRANCH   1  10
ATOM     10  C10 ZIN A   1      18.217   0.247   9.569  0.00  0.00    -0.018 A 
ATOM     11  C15 ZIN A   1      19.176   1.189   9.246  0.00  0.00     0.010 A 
ATOM     12  C14 ZIN A   1      19.386   1.537   7.925  0.00  0.00     0.001 A 
ATOM     13  C13 ZIN A   1      18.630   0.950   6.927  0.00  0.00     0.000 A 
ATOM     14  C12 ZIN A   1      17.667   0.013   7.250  0.00  0.00     0.001 A 
ATOM     15  C11 ZIN A   1      17.461  -0.339   8.571  0.00  0.00     0.010 A 
ENDBRANCH   1  10
BRANCH   1  16
ATOM     16  C16 ZIN A   1      18.291  -1.602  11.191  0.00  0.00     0.073 A 
ATOM     17  N21 ZIN A   1      17.302  -2.447  11.409  0.00  0.00    -0.262 NA
ATOM     18  C20 ZIN A   1      17.516  -3.738  11.570  0.00  0.00     0.117 A 
ATOM     19  C19 ZIN A   1      18.798  -4.253  11.526  0.00  0.00     0.019 A 
ATOM     20  C18 ZIN A   1      19.863  -3.395  11.304  0.00  0.00     0.003 A 
ATOM     21  C17 ZIN A   1      19.599  -2.044  11.134  0.00  0.00     0.031 A 
ENDBRANCH   1  16
TORSDOF 6
ENDMDL
MODEL 7
REMARK VINA RESULT:      -6.4      1.211      4.027
REMARK  6 active torsions:
REMARK  status: ('A' for Active; 'I' for Inactive)
REMARK    1  A    between atoms: N2_2  and  C5_5 
REMARK    2  A    between atoms: C5_5  and  C6_6 
REMARK    3  A    between atoms: C6_6  and  O7_7 
REMARK    4  A    between atoms: O7_7  and  C8_8 
REMARK    5  A    between atoms: C8_8  and  C10_10 
REMARK    6  A    between atoms: C8_8  and  C16_16 
ROOT
ATOM      1  C8  ZIN A   1      18.336   0.633  10.461  0.00  0.00     0.128 C 
ATOM      2  C9  ZIN A   1      17.072   0.017  11.064  0.00  0.00     0.058 C 
ENDROOT
BRANCH   1   3
ATOM      3  O7  ZIN A   1      19.479  -0.114  10.883  0.00  0.00    -0.368 OA
BRANCH   3   4
ATOM      4  C6  ZIN A   1      19.174  -1.191  11.772  0.00  0.00     0.197 C 
BRANCH   4   5
ATOM      5  C5  ZIN A   1      19.761  -2.491  11.221  0.00  0.00     0.260 C 
BRANCH   5   6
ATOM      6  N2  ZIN A   1      18.690  -3.291  10.610  0.00  0.00    -0.077 N 
ATOM      7  C1  ZIN A   1      18.852  -3.292   9.151  0.00  0.00     0.269 C 
ATOM      8  H3  ZIN A   1      17.795  -2.893  10.850  0.00  0.00     0.279 HD
ATOM      9  C4  ZIN A   1      18.764  -4.670  11.112  0.00  0.00     0.269 C 
ENDBRANCH   5   6
ENDBRANCH   4   5
ENDBRANCH   3   4
ENDBRANCH   1   3
BRANCH   1  10
ATOM     10  C10 ZIN A   1      18.471   2.060  10.926  0.00  0.00    -0.018 A 
ATOM     11  C15 ZIN A   1      17.447   2.962  10.699  0.00  0.00     0.010 A 
ATOM     12  C14 ZIN A   1      17.569   4.270  11.130  0.00  0.00     0.001 A 
ATOM     13  C13 ZIN A   1      18.719   4.679  11.779  0.00  0.00     0.000 A 
ATOM     14  C12 ZIN A   1      19.745   3.780  12.001  0.00  0.00     0.001 A 
ATOM     15  C11 ZIN A   1      19.621   2.471  11.574  0.00  0.00     0.010 A 
ENDBRANCH   1  10
BRANCH   1  16
ATOM     16  C16 ZIN A   1      18.243   0.603   8.957  0.00  0.00     0.073 A 
ATOM     17  N21 ZIN A   1      17.295  -0.109   8.378  0.00  0.00    -0.262 NA
ATOM     18  C20 ZIN A   1      17.173  -0.161   7.066  0.00  0.00     0.117 A 
ATOM     19  C19 ZIN A   1      18.048   0.525   6.246  0.00  0.00     0.019 A 
ATOM     20  C18 ZIN A   1      19.059   1.280   6.819  0.00  0.00     0.003 A 
ATOM     21  C17 ZIN A   1      19.154   1.315   8.201  0.00  0.00     0.031 A 
ENDBRANCH   1  16
TORSDOF 6
ENDMDL
MODEL 8
REMARK VINA RESULT:      -6.4      2.154      4.522
REMARK  6 active torsions:
REMARK  status: ('A' for Active; 'I' for Inactive)
REMARK    1  A    between atoms: N2_2  and  C5_5 
REMARK    2  A    between atoms: C5_5  and  C6_6 
REMARK    3  A    between atoms: C6_6  and  O7_7 
REMARK    4  A    between atoms: O7_7  and  C8_8 
REMARK    5  A    between atoms: C8_8  and  C10_10 
REMARK    6  A    between atoms: C8_8  and  C16_16 
ROOT
ATOM      1  C8  ZIN A   1      18.025   0.179  12.092  0.00  0.00     0.128 C 
ATOM      2  C9  ZIN A   1      16.609  -0.174  11.631  0.00  0.00     0.058 C 
ENDROOT
BRANCH   1   3
ATOM      3  O7  ZIN A   1      18.974  -0.569  11.330  0.00  0.00    -0.368 OA
BRANCH   3   4
ATOM      4  C6  ZIN A   1      18.477  -1.030  10.072  0.00  0.00     0.197 C 
BRANCH   4   5
ATOM      5  C5  ZIN A   1      18.869  -2.496   9.874  0.00  0.00     0.260 C 
BRANCH   5   6
ATOM      6  N2  ZIN A   1      18.601  -3.245  11.108  0.00  0.00    -0.077 N 
ATOM      7  C1  ZIN A   1      17.394  -4.062  10.932  0.00  0.00     0.269 C 
ATOM      8  H3  ZIN A   1      18.463  -2.599  11.870  0.00  0.00     0.279 HD
ATOM      9  C4  ZIN A   1      19.744  -4.119  11.408  0.00  0.00     0.269 C 
ENDBRANCH   5   6
ENDBRANCH   4   5
ENDBRANCH   3   4
ENDBRANCH   1   3
BRANCH   1  10
ATOM     10  C10 ZIN A   1      18.177  -0.157  13.553  0.00  0.00    -0.018 A 
ATOM     11  C15 ZIN A   1      19.102  -1.103  13.953  0.00  0.00     0.010 A 
ATOM     12  C14 ZIN A   1      19.244  -1.409  15.294  0.00  0.00     0.001 A 
ATOM     13  C13 ZIN A   1      18.454  -0.774  16.234  0.00  0.00     0.000 A 
ATOM     14  C12 ZIN A   1      17.524   0.167  15.835  0.00  0.00     0.001 A 
ATOM     15  C11 ZIN A   1      17.386   0.476  14.494  0.00  0.00     0.010 A 
ENDBRANCH   1  10
BRANCH   1  16
ATOM     16  C16 ZIN A   1      18.267   1.652  11.888  0.00  0.00     0.073 A 
ATOM     17  N21 ZIN A   1      17.272   2.429  11.506  0.00  0.00    -0.262 NA
ATOM     18  C20 ZIN A   1      17.437   3.724  11.319  0.00  0.00     0.117 A 
ATOM     19  C19 ZIN A   1      18.671   4.315  11.510  0.00  0.00     0.019 A 
ATOM     20  C18 ZIN A   1      19.741   3.530  11.908  0.00  0.00     0.003 A 
ATOM     21  C17 ZIN A   1      19.530   2.173  12.098  0.00  0.00     0.031 A 
ENDBRANCH   1  16
TORSDOF 6
ENDMDL
MODEL 9
REMARK VINA RESULT:      -6.3      2.638      6.969
REMARK  6 active torsions:
REMARK  status: ('A' for Active; 'I' for Inactive)
REMARK    1  A    between atoms: N2_2  and  C5_5 
REMARK    2  A    between atoms: C5_5  and  C6_6 
REMARK    3  A    between atoms: C6_6  and  O7_7 
REMARK    4  A    between atoms: O7_7  and  C8_8 
REMARK    5  A    between atoms: C8_8  and  C10_10 
REMARK    6  A    between atoms: C8_8  and  C16_16 
ROOT
ATOM      1  C8  ZIN A   1      18.829  -0.381  12.975  0.00  0.00     0.128 C 
ATOM      2  C9  ZIN A   1      20.229   0.222  12.844  0.00  0.00     0.058 C 
ENDROOT
BRANCH   1   3
ATOM      3  O7  ZIN A   1      17.876   0.490  12.364  0.00  0.00    -0.368 OA
BRANCH   3   4
ATOM      4  C6  ZIN A   1      18.454   1.637  11.736  0.00  0.00     0.197 C 
BRANCH   4   5
ATOM      5  C5  ZIN A   1      17.753   2.901  12.236  0.00  0.00     0.260 C 
BRANCH   5   6
ATOM      6  N2  ZIN A   1      17.949   3.986  11.265  0.00  0.00    -0.077 N 
ATOM      7  C1  ZIN A   1      18.347   3.418   9.971  0.00  0.00     0.269 C 
ATOM      8  H3  ZIN A   1      18.670   4.608  11.597  0.00  0.00     0.279 HD
ATOM      9  C4  ZIN A   1      16.693   4.733  11.107  0.00  0.00     0.269 C 
ENDBRANCH   5   6
ENDBRANCH   4   5
ENDBRANCH   3   4
ENDBRANCH   1   3
BRANCH   1  10
ATOM     10  C10 ZIN A   1      18.491  -0.551  14.434  0.00  0.00    -0.018 A 
ATOM     11  C15 ZIN A   1      19.232  -1.413  15.221  0.00  0.00     0.010 A 
ATOM     12  C14 ZIN A   1      18.924  -1.567  16.559  0.00  0.00     0.001 A 
ATOM     13  C13 ZIN A   1      17.868  -0.865  17.109  0.00  0.00     0.000 A 
ATOM     14  C12 ZIN A   1      17.122  -0.007  16.323  0.00  0.00     0.001 A 
ATOM     15  C11 ZIN A   1      17.434   0.149  14.984  0.00  0.00     0.010 A 
ENDBRANCH   1  10
BRANCH   1  16
ATOM     16  C16 ZIN A   1      18.794  -1.723  12.292  0.00  0.00     0.073 A 
ATOM     17  N21 ZIN A   1      19.921  -2.370  12.067  0.00  0.00    -0.262 NA
ATOM     18  C20 ZIN A   1      19.938  -3.548  11.477  0.00  0.00     0.117 A 
ATOM     19  C19 ZIN A   1      18.765  -4.147  11.059  0.00  0.00     0.019 A 
ATOM     20  C18 ZIN A   1      17.561  -3.495  11.273  0.00  0.00     0.003 A 
ATOM     21  C17 ZIN A   1      17.582  -2.260  11.902  0.00  0.00     0.031 A 
ENDBRANCH   1  16
TORSDOF 6
ENDMDL
