MODEL 1
REMARK VINA RESULT:      -9.1      0.000      0.000
REMARK  6 active torsions:
REMARK  status: ('A' for Active; 'I' for Inactive)
REMARK    1  A    between atoms: C2_2  and  O4_3 
REMARK    2  A    between atoms: C2_2  and  C26_25 
REMARK    3  A    between atoms: O4_3  and  C5_4 
REMARK    4  A    between atoms: C7_6  and  C8_7 
REMARK    5  A    between atoms: N10_9  and  C11_10 
REMARK    6  A    between atoms: C24_23  and  N25_24 
ROOT
ATOM      1  C5  ZIN A   1      18.567   2.597  15.323  0.00  0.00     0.114 A 
ATOM      2  C6  ZIN A   1      18.248   1.714  14.305  0.00  0.00     0.054 A 
ATOM      3  C7  ZIN A   1      18.379   0.343  14.550  0.00  0.00    -0.005 A 
ATOM      4  C21 ZIN A   1      18.822  -0.084  15.797  0.00  0.00     0.102 A 
ATOM      5  N22 ZIN A   1      19.116   0.788  16.743  0.00  0.00    -0.350 N 
ATOM      6  H23 ZIN A   1      19.423   0.463  17.604  0.00  0.00     0.166 HD
ATOM      7  C24 ZIN A   1      19.010   2.092  16.547  0.00  0.00     0.132 A 
ENDROOT
BRANCH   3   8
ATOM      8  C8  ZIN A   1      18.051  -0.645  13.490  0.00  0.00     0.012 A 
ATOM      9  C20 ZIN A   1      17.115  -0.471  12.453  0.00  0.00     0.152 A 
ATOM     10  N19 ZIN A   1      17.112  -1.556  11.723  0.00  0.00    -0.184 NA
ATOM     11  N10 ZIN A   1      18.031  -2.461  12.268  0.00  0.00    -0.276 N 
ATOM     12  C9  ZIN A   1      18.596  -1.887  13.350  0.00  0.00     0.126 A 
BRANCH  11  13
ATOM     13  C11 ZIN A   1      18.325  -3.800  11.753  0.00  0.00     0.112 C 
ATOM     14  C18 ZIN A   1      19.248  -3.691  10.535  0.00  0.00     0.055 C 
ATOM     15  C17 ZIN A   1      19.485  -5.086   9.955  0.00  0.00     0.234 C 
ATOM     16  N14 ZIN A   1      18.205  -5.677   9.548  0.00  0.00    -0.075 N 
ATOM     17  C13 ZIN A   1      17.343  -5.851  10.723  0.00  0.00     0.234 C 
ATOM     18  H15 ZIN A   1      18.370  -6.573   9.117  0.00  0.00     0.277 HD
ATOM     19  H16 ZIN A   1      17.750  -5.065   8.887  0.00  0.00     0.277 HD
ATOM     20  C12 ZIN A   1      17.021  -4.485  11.333  0.00  0.00     0.055 C 
ENDBRANCH  11  13
ENDBRANCH   3   8
BRANCH   1  21
ATOM     21  O4  ZIN A   1      18.455   3.939  15.132  0.00  0.00    -0.338 OA
BRANCH  21  22
ATOM     22  C2  ZIN A   1      19.227   4.509  14.073  0.00  0.00     0.161 C 
ATOM     23  C1  ZIN A   1      19.719   5.896  14.489  0.00  0.00     0.045 C 
BRANCH  22  24
ATOM     24  C26 ZIN A   1      18.371   4.630  12.838  0.00  0.00     0.017 A 
ATOM     25  C33 ZIN A   1      18.814   4.105  11.636  0.00  0.00     0.083 A 
ATOM     26  C31 ZIN A   1      18.024   4.213  10.503  0.00  0.00     0.138 A 
ATOM     27 Cl34 ZIN A   1      20.350   3.302  11.552  0.00  0.00    -0.080 Cl
ATOM     28  C30 ZIN A   1      16.799   4.854  10.570  0.00  0.00     0.046 A 
ATOM     29  F32 ZIN A   1      18.452   3.696   9.330  0.00  0.00    -0.204 F 
ATOM     30  C29 ZIN A   1      16.361   5.382  11.770  0.00  0.00     0.028 A 
ATOM     31  C27 ZIN A   1      17.147   5.269  12.904  0.00  0.00     0.044 A 
ATOM     32 Cl28 ZIN A   1      16.596   5.934  14.410  0.00  0.00    -0.084 Cl
ENDBRANCH  22  24
ENDBRANCH  21  22
ENDBRANCH   1  21
BRANCH   7  33
ATOM     33  N25 ZIN A   1      19.333   2.970  17.579  0.00  0.00    -0.383 N 
ATOM     34  H51 ZIN A   1      19.863   3.760  17.395  0.00  0.00     0.157 HD
ATOM     35  H52 ZIN A   1      19.026   2.792  18.481  0.00  0.00     0.157 HD
ENDBRANCH   7  33
TORSDOF 6
ENDMDL
MODEL 2
REMARK VINA RESULT:      -9.0      2.250      2.688
REMARK  6 active torsions:
REMARK  status: ('A' for Active; 'I' for Inactive)
REMARK    1  A    between atoms: C2_2  and  O4_3 
REMARK    2  A    between atoms: C2_2  and  C26_25 
REMARK    3  A    between atoms: O4_3  and  C5_4 
REMARK    4  A    between atoms: C7_6  and  C8_7 
REMARK    5  A    between atoms: N10_9  and  C11_10 
REMARK    6  A    between atoms: C24_23  and  N25_24 
ROOT
ATOM      1  C5  ZIN A   1      18.305   1.431  14.725  0.00  0.00     0.114 A 
ATOM      2  C6  ZIN A   1      18.106   0.797  13.511  0.00  0.00     0.054 A 
ATOM      3  C7  ZIN A   1      18.320  -0.583  13.438  0.00  0.00    -0.005 A 
ATOM      4  C21 ZIN A   1      18.724  -1.267  14.579  0.00  0.00     0.102 A 
ATOM      5  N22 ZIN A   1      18.904  -0.629  15.720  0.00  0.00    -0.350 N 
ATOM      6  H23 ZIN A   1      19.186  -1.131  16.501  0.00  0.00     0.166 HD
ATOM      7  C24 ZIN A   1      18.716   0.676  15.826  0.00  0.00     0.132 A 
ENDROOT
BRANCH   3   8
ATOM      8  C8  ZIN A   1      18.120  -1.309  12.157  0.00  0.00     0.012 A 
ATOM      9  C20 ZIN A   1      17.893  -2.690  12.011  0.00  0.00     0.152 A 
ATOM     10  N19 ZIN A   1      17.762  -2.948  10.736  0.00  0.00    -0.184 NA
ATOM     11  N10 ZIN A   1      17.911  -1.752  10.024  0.00  0.00    -0.276 N 
ATOM     12  C9  ZIN A   1      18.130  -0.758  10.910  0.00  0.00     0.126 A 
BRANCH  11  13
ATOM     13  C11 ZIN A   1      17.842  -1.606   8.568  0.00  0.00     0.112 C 
ATOM     14  C18 ZIN A   1      19.239  -1.788   7.967  0.00  0.00     0.055 C 
ATOM     15  C17 ZIN A   1      19.173  -1.554   6.457  0.00  0.00     0.234 C 
ATOM     16  N14 ZIN A   1      18.698  -0.192   6.188  0.00  0.00    -0.075 N 
ATOM     17  C13 ZIN A   1      17.331  -0.033   6.698  0.00  0.00     0.234 C 
ATOM     18  H15 ZIN A   1      18.707  -0.023   5.194  0.00  0.00     0.277 HD
ATOM     19  H16 ZIN A   1      19.306   0.470   6.646  0.00  0.00     0.277 HD
ATOM     20  C12 ZIN A   1      17.325  -0.207   8.218  0.00  0.00     0.055 C 
ENDBRANCH  11  13
ENDBRANCH   3   8
BRANCH   1  21
ATOM     21  O4  ZIN A   1      18.109   2.771  14.844  0.00  0.00    -0.338 OA
BRANCH  21  22
ATOM     22  C2  ZIN A   1      18.956   3.621  14.067  0.00  0.00     0.161 C 
ATOM     23  C1  ZIN A   1      19.385   4.824  14.911  0.00  0.00     0.045 C 
BRANCH  22  24
ATOM     24  C26 ZIN A   1      18.205   4.103  12.852  0.00  0.00     0.017 A 
ATOM     25  C33 ZIN A   1      18.657   3.777  11.586  0.00  0.00     0.083 A 
ATOM     26  C31 ZIN A   1      17.963   4.216  10.470  0.00  0.00     0.138 A 
ATOM     27 Cl34 ZIN A   1      20.084   2.808  11.396  0.00  0.00    -0.080 Cl
ATOM     28  C30 ZIN A   1      16.825   4.989  10.623  0.00  0.00     0.046 A 
ATOM     29  F32 ZIN A   1      18.400   3.894   9.233  0.00  0.00    -0.204 F 
ATOM     30  C29 ZIN A   1      16.377   5.319  11.889  0.00  0.00     0.028 A 
ATOM     31  C27 ZIN A   1      17.067   4.875  13.003  0.00  0.00     0.044 A 
ATOM     32 Cl28 ZIN A   1      16.505   5.290  14.592  0.00  0.00    -0.084 Cl
ENDBRANCH  22  24
ENDBRANCH  21  22
ENDBRANCH   1  21
BRANCH   7  33
ATOM     33  N25 ZIN A   1      18.920   1.303  17.053  0.00  0.00    -0.383 N 
ATOM     34  H51 ZIN A   1      19.794   1.658  17.277  0.00  0.00     0.157 HD
ATOM     35  H52 ZIN A   1      18.187   1.384  17.683  0.00  0.00     0.157 HD
ENDBRANCH   7  33
TORSDOF 6
ENDMDL
MODEL 3
REMARK VINA RESULT:      -9.0      4.265      6.029
REMARK  6 active torsions:
REMARK  status: ('A' for Active; 'I' for Inactive)
REMARK    1  A    between atoms: C2_2  and  O4_3 
REMARK    2  A    between atoms: C2_2  and  C26_25 
REMARK    3  A    between atoms: O4_3  and  C5_4 
REMARK    4  A    between atoms: C7_6  and  C8_7 
REMARK    5  A    between atoms: N10_9  and  C11_10 
REMARK    6  A    between atoms: C24_23  and  N25_24 
ROOT
ATOM      1  C5  ZIN A   1      17.966   2.095  12.542  0.00  0.00     0.114 A 
ATOM      2  C6  ZIN A   1      18.190   1.415  11.357  0.00  0.00     0.054 A 
ATOM      3  C7  ZIN A   1      18.160   2.137  10.160  0.00  0.00    -0.005 A 
ATOM      4  C21 ZIN A   1      17.908   3.504  10.200  0.00  0.00     0.102 A 
ATOM      5  N22 ZIN A   1      17.699   4.119  11.349  0.00  0.00    -0.350 N 
ATOM      6  H23 ZIN A   1      17.526   5.073  11.348  0.00  0.00     0.166 HD
ATOM      7  C24 ZIN A   1      17.714   3.468  12.501  0.00  0.00     0.132 A 
ENDROOT
BRANCH   3   8
ATOM      8  C8  ZIN A   1      18.394   1.453   8.862  0.00  0.00     0.012 A 
ATOM      9  C20 ZIN A   1      19.152   1.950   7.785  0.00  0.00     0.152 A 
ATOM     10  N19 ZIN A   1      19.126   1.061   6.827  0.00  0.00    -0.184 NA
ATOM     11  N10 ZIN A   1      18.349  -0.024   7.248  0.00  0.00    -0.276 N 
ATOM     12  C9  ZIN A   1      17.908   0.233   8.497  0.00  0.00     0.126 A 
BRANCH  11  13
ATOM     13  C11 ZIN A   1      18.063  -1.230   6.467  0.00  0.00     0.112 C 
ATOM     14  C18 ZIN A   1      19.341  -2.060   6.316  0.00  0.00     0.055 C 
ATOM     15  C17 ZIN A   1      19.053  -3.275   5.432  0.00  0.00     0.234 C 
ATOM     16  N14 ZIN A   1      18.600  -2.827   4.110  0.00  0.00    -0.075 N 
ATOM     17  C13 ZIN A   1      17.336  -2.092   4.239  0.00  0.00     0.234 C 
ATOM     18  H15 ZIN A   1      18.463  -3.628   3.513  0.00  0.00     0.277 HD
ATOM     19  H16 ZIN A   1      19.299  -2.223   3.704  0.00  0.00     0.277 HD
ATOM     20  C12 ZIN A   1      17.558  -0.831   5.077  0.00  0.00     0.055 C 
ENDBRANCH  11  13
ENDBRANCH   3   8
BRANCH   1  21
ATOM     21  O4  ZIN A   1      17.985   1.434  13.731  0.00  0.00    -0.338 OA
BRANCH  21  22
ATOM     22  C2  ZIN A   1      19.235   1.378  14.421  0.00  0.00     0.161 C 
ATOM     23  C1  ZIN A   1      20.100   0.269  13.819  0.00  0.00     0.045 C 
BRANCH  22  24
ATOM     24  C26 ZIN A   1      18.990   1.087  15.880  0.00  0.00     0.017 A 
ATOM     25  C33 ZIN A   1      19.265   2.052  16.832  0.00  0.00     0.083 A 
ATOM     26  C31 ZIN A   1      19.035   1.785  18.172  0.00  0.00     0.138 A 
ATOM     27 Cl34 ZIN A   1      19.884   3.599  16.348  0.00  0.00    -0.080 Cl
ATOM     28  C30 ZIN A   1      18.541   0.551  18.558  0.00  0.00     0.046 A 
ATOM     29  F32 ZIN A   1      19.297   2.729  19.103  0.00  0.00    -0.204 F 
ATOM     30  C29 ZIN A   1      18.272  -0.414  17.605  0.00  0.00     0.028 A 
ATOM     31  C27 ZIN A   1      18.496  -0.145  16.266  0.00  0.00     0.044 A 
ATOM     32 Cl28 ZIN A   1      18.159  -1.359  15.071  0.00  0.00    -0.084 Cl
ENDBRANCH  22  24
ENDBRANCH  21  22
ENDBRANCH   1  21
BRANCH   7  33
ATOM     33  N25 ZIN A   1      17.487   4.163  13.686  0.00  0.00    -0.383 N 
ATOM     34  H51 ZIN A   1      16.628   4.582  13.846  0.00  0.00     0.157 HD
ATOM     35  H52 ZIN A   1      18.189   4.226  14.352  0.00  0.00     0.157 HD
ENDBRANCH   7  33
TORSDOF 6
ENDMDL
MODEL 4
REMARK VINA RESULT:      -8.8      4.704      9.173
REMARK  6 active torsions:
REMARK  status: ('A' for Active; 'I' for Inactive)
REMARK    1  A    between atoms: C2_2  and  O4_3 
REMARK    2  A    between atoms: C2_2  and  C26_25 
REMARK    3  A    between atoms: O4_3  and  C5_4 
REMARK    4  A    between atoms: C7_6  and  C8_7 
REMARK    5  A    between atoms: N10_9  and  C11_10 
REMARK    6  A    between atoms: C24_23  and  N25_24 
ROOT
ATOM      1  C5  ZIN A   1      18.681  -1.472   6.674  0.00  0.00     0.114 A 
ATOM      2  C6  ZIN A   1      18.584  -0.761   7.859  0.00  0.00     0.054 A 
ATOM      3  C7  ZIN A   1      18.761   0.626   7.818  0.00  0.00    -0.005 A 
ATOM      4  C21 ZIN A   1      19.026   1.239   6.598  0.00  0.00     0.102 A 
ATOM      5  N22 ZIN A   1      19.111   0.528   5.489  0.00  0.00    -0.350 N 
ATOM      6  H23 ZIN A   1      19.297   0.982   4.652  0.00  0.00     0.166 HD
ATOM      7  C24 ZIN A   1      18.956  -0.786   5.490  0.00  0.00     0.132 A 
ENDROOT
BRANCH   3   8
ATOM      8  C8  ZIN A   1      18.666   1.433   9.061  0.00  0.00     0.012 A 
ATOM      9  C20 ZIN A   1      18.713   2.837   9.147  0.00  0.00     0.152 A 
ATOM     10  N19 ZIN A   1      18.595   3.171  10.404  0.00  0.00    -0.184 NA
ATOM     11  N10 ZIN A   1      18.478   2.003  11.166  0.00  0.00    -0.276 N 
ATOM     12  C9  ZIN A   1      18.524   0.947  10.327  0.00  0.00     0.126 A 
BRANCH  11  13
ATOM     13  C11 ZIN A   1      18.333   1.938  12.622  0.00  0.00     0.112 C 
ATOM     14  C18 ZIN A   1      18.494   3.339  13.218  0.00  0.00     0.055 C 
ATOM     15  C17 ZIN A   1      18.422   3.251  14.743  0.00  0.00     0.234 C 
ATOM     16  N14 ZIN A   1      19.495   2.382  15.239  0.00  0.00    -0.075 N 
ATOM     17  C13 ZIN A   1      19.306   1.018  14.730  0.00  0.00     0.234 C 
ATOM     18  H15 ZIN A   1      19.477   2.369  16.247  0.00  0.00     0.277 HD
ATOM     19  H16 ZIN A   1      20.385   2.737  14.923  0.00  0.00     0.277 HD
ATOM     20  C12 ZIN A   1      19.413   1.020  13.204  0.00  0.00     0.055 C 
ENDBRANCH  11  13
ENDBRANCH   3   8
BRANCH   1  21
ATOM     21  O4  ZIN A   1      18.518  -2.822   6.665  0.00  0.00    -0.338 OA
BRANCH  21  22
ATOM     22  C2  ZIN A   1      19.218  -3.567   7.664  0.00  0.00     0.161 C 
ATOM     23  C1  ZIN A   1      20.045  -4.667   6.995  0.00  0.00     0.045 C 
BRANCH  22  24
ATOM     24  C26 ZIN A   1      18.227  -4.191   8.612  0.00  0.00     0.017 A 
ATOM     25  C33 ZIN A   1      18.298  -3.916   9.966  0.00  0.00     0.083 A 
ATOM     26  C31 ZIN A   1      17.382  -4.487  10.836  0.00  0.00     0.138 A 
ATOM     27 Cl34 ZIN A   1      19.523  -2.848  10.573  0.00  0.00    -0.080 Cl
ATOM     28  C30 ZIN A   1      16.405  -5.339  10.352  0.00  0.00     0.046 A 
ATOM     29  F32 ZIN A   1      17.447  -4.215  12.158  0.00  0.00    -0.204 F 
ATOM     30  C29 ZIN A   1      16.339  -5.617   8.999  0.00  0.00     0.028 A 
ATOM     31  C27 ZIN A   1      17.249  -5.042   8.130  0.00  0.00     0.044 A 
ATOM     32 Cl28 ZIN A   1      17.165  -5.392   6.431  0.00  0.00    -0.084 Cl
ENDBRANCH  22  24
ENDBRANCH  21  22
ENDBRANCH   1  21
BRANCH   7  33
ATOM     33  N25 ZIN A   1      19.056  -1.490   4.292  0.00  0.00    -0.383 N 
ATOM     34  H51 ZIN A   1      19.902  -1.885   4.032  0.00  0.00     0.157 HD
ATOM     35  H52 ZIN A   1      18.279  -1.586   3.721  0.00  0.00     0.157 HD
ENDBRANCH   7  33
TORSDOF 6
ENDMDL
MODEL 5
REMARK VINA RESULT:      -8.7      4.887      9.238
REMARK  6 active torsions:
REMARK  status: ('A' for Active; 'I' for Inactive)
REMARK    1  A    between atoms: C2_2  and  O4_3 
REMARK    2  A    between atoms: C2_2  and  C26_25 
REMARK    3  A    between atoms: O4_3  and  C5_4 
REMARK    4  A    between atoms: C7_6  and  C8_7 
REMARK    5  A    between atoms: N10_9  and  C11_10 
REMARK    6  A    between atoms: C24_23  and  N25_24 
ROOT
ATOM      1  C5  ZIN A   1      18.766  -1.664   6.598  0.00  0.00     0.114 A 
ATOM      2  C6  ZIN A   1      18.684  -0.919   7.763  0.00  0.00     0.054 A 
ATOM      3  C7  ZIN A   1      18.841   0.468   7.677  0.00  0.00    -0.005 A 
ATOM      4  C21 ZIN A   1      19.073   1.048   6.435  0.00  0.00     0.102 A 
ATOM      5  N22 ZIN A   1      19.145   0.306   5.346  0.00  0.00    -0.350 N 
ATOM      6  H23 ZIN A   1      19.308   0.737   4.492  0.00  0.00     0.166 HD
ATOM      7  C24 ZIN A   1      19.007  -1.009   5.388  0.00  0.00     0.132 A 
ENDROOT
BRANCH   3   8
ATOM      8  C8  ZIN A   1      18.761   1.310   8.898  0.00  0.00     0.012 A 
ATOM      9  C20 ZIN A   1      18.873   2.712   8.950  0.00  0.00     0.152 A 
ATOM     10  N19 ZIN A   1      18.747   3.084  10.196  0.00  0.00    -0.184 NA
ATOM     11  N10 ZIN A   1      18.560   1.942  10.984  0.00  0.00    -0.276 N 
ATOM     12  C9  ZIN A   1      18.572   0.864  10.173  0.00  0.00     0.126 A 
BRANCH  11  13
ATOM     13  C11 ZIN A   1      18.384   1.922  12.438  0.00  0.00     0.112 C 
ATOM     14  C18 ZIN A   1      18.621   3.325  13.004  0.00  0.00     0.055 C 
ATOM     15  C17 ZIN A   1      18.516   3.278  14.530  0.00  0.00     0.234 C 
ATOM     16  N14 ZIN A   1      19.523   2.356  15.067  0.00  0.00    -0.075 N 
ATOM     17  C13 ZIN A   1      19.259   0.995  14.585  0.00  0.00     0.234 C 
ATOM     18  H15 ZIN A   1      19.486   2.369  16.074  0.00  0.00     0.277 HD
ATOM     19  H16 ZIN A   1      20.439   2.648  14.761  0.00  0.00     0.277 HD
ATOM     20  C12 ZIN A   1      19.394   0.953  13.062  0.00  0.00     0.055 C 
ENDBRANCH  11  13
ENDBRANCH   3   8
BRANCH   1  21
ATOM     21  O4  ZIN A   1      18.620  -3.016   6.632  0.00  0.00    -0.338 OA
BRANCH  21  22
ATOM     22  C2  ZIN A   1      19.258  -3.710   7.706  0.00  0.00     0.161 C 
ATOM     23  C1  ZIN A   1      20.090  -4.865   7.145  0.00  0.00     0.045 C 
BRANCH  22  24
ATOM     24  C26 ZIN A   1      18.211  -4.254   8.644  0.00  0.00     0.017 A 
ATOM     25  C33 ZIN A   1      17.206  -5.071   8.158  0.00  0.00     0.083 A 
ATOM     26  C31 ZIN A   1      16.247  -5.576   9.022  0.00  0.00     0.138 A 
ATOM     27 Cl34 ZIN A   1      17.154  -5.474   6.471  0.00  0.00    -0.080 Cl
ATOM     28  C30 ZIN A   1      16.289  -5.254  10.367  0.00  0.00     0.046 A 
ATOM     29  F32 ZIN A   1      15.268  -6.378   8.549  0.00  0.00    -0.204 F 
ATOM     30  C29 ZIN A   1      17.292  -4.433  10.850  0.00  0.00     0.028 A 
ATOM     31  C27 ZIN A   1      18.253  -3.935   9.989  0.00  0.00     0.044 A 
ATOM     32 Cl28 ZIN A   1      19.510  -2.904  10.597  0.00  0.00    -0.084 Cl
ENDBRANCH  22  24
ENDBRANCH  21  22
ENDBRANCH   1  21
BRANCH   7  33
ATOM     33  N25 ZIN A   1      19.092  -1.747   4.210  0.00  0.00    -0.383 N 
ATOM     34  H51 ZIN A   1      19.061  -2.716   4.241  0.00  0.00     0.157 HD
ATOM     35  H52 ZIN A   1      19.181  -1.292   3.359  0.00  0.00     0.157 HD
ENDBRANCH   7  33
TORSDOF 6
ENDMDL
MODEL 6
REMARK VINA RESULT:      -8.6      3.543      5.423
REMARK  6 active torsions:
REMARK  status: ('A' for Active; 'I' for Inactive)
REMARK    1  A    between atoms: C2_2  and  O4_3 
REMARK    2  A    between atoms: C2_2  and  C26_25 
REMARK    3  A    between atoms: O4_3  and  C5_4 
REMARK    4  A    between atoms: C7_6  and  C8_7 
REMARK    5  A    between atoms: N10_9  and  C11_10 
REMARK    6  A    between atoms: C24_23  and  N25_24 
ROOT
ATOM      1  C5  ZIN A   1      19.848   0.200  12.464  0.00  0.00     0.114 A 
ATOM      2  C6  ZIN A   1      19.550  -1.122  12.178  0.00  0.00     0.054 A 
ATOM      3  C7  ZIN A   1      19.583  -1.536  10.843  0.00  0.00    -0.005 A 
ATOM      4  C21 ZIN A   1      19.912  -0.615   9.855  0.00  0.00     0.102 A 
ATOM      5  N22 ZIN A   1      20.191   0.637  10.166  0.00  0.00    -0.350 N 
ATOM      6  H23 ZIN A   1      20.418   1.260   9.457  0.00  0.00     0.166 HD
ATOM      7  C24 ZIN A   1      20.164   1.067  11.417  0.00  0.00     0.132 A 
ENDROOT
BRANCH   3   8
ATOM      8  C8  ZIN A   1      19.271  -2.944  10.484  0.00  0.00     0.012 A 
ATOM      9  C20 ZIN A   1      19.888  -4.093  11.012  0.00  0.00     0.152 A 
ATOM     10  N19 ZIN A   1      19.341  -5.141  10.454  0.00  0.00    -0.184 NA
ATOM     11  N10 ZIN A   1      18.367  -4.704   9.548  0.00  0.00    -0.276 N 
ATOM     12  C9  ZIN A   1      18.337  -3.355   9.579  0.00  0.00     0.126 A 
BRANCH  11  13
ATOM     13  C11 ZIN A   1      17.526  -5.563   8.711  0.00  0.00     0.112 C 
ATOM     14  C18 ZIN A   1      17.691  -5.166   7.241  0.00  0.00     0.055 C 
ATOM     15  C17 ZIN A   1      16.750  -6.013   6.381  0.00  0.00     0.234 C 
ATOM     16  N14 ZIN A   1      15.362  -5.786   6.797  0.00  0.00    -0.075 N 
ATOM     17  C13 ZIN A   1      15.179  -6.231   8.184  0.00  0.00     0.234 C 
ATOM     18  H15 ZIN A   1      14.741  -6.304   6.194  0.00  0.00     0.277 HD
ATOM     19  H16 ZIN A   1      15.150  -4.801   6.731  0.00  0.00     0.277 HD
ATOM     20  C12 ZIN A   1      16.058  -5.393   9.114  0.00  0.00     0.055 C 
ENDBRANCH  11  13
ENDBRANCH   3   8
BRANCH   1  21
ATOM     21  O4  ZIN A   1      19.828   0.649  13.748  0.00  0.00    -0.338 OA
BRANCH  21  22
ATOM     22  C2  ZIN A   1      18.698   0.285  14.544  0.00  0.00     0.161 C 
ATOM     23  C1  ZIN A   1      17.428   0.876  13.928  0.00  0.00     0.045 C 
BRANCH  22  24
ATOM     24  C26 ZIN A   1      18.874   0.821  15.941  0.00  0.00     0.017 A 
ATOM     25  C33 ZIN A   1      18.966   2.186  16.151  0.00  0.00     0.083 A 
ATOM     26  C31 ZIN A   1      19.123   2.678  17.437  0.00  0.00     0.138 A 
ATOM     27 Cl34 ZIN A   1      18.873   3.280  14.807  0.00  0.00    -0.080 Cl
ATOM     28  C30 ZIN A   1      19.198   1.805  18.509  0.00  0.00     0.046 A 
ATOM     29  F32 ZIN A   1      19.208   4.010  17.644  0.00  0.00    -0.204 F 
ATOM     30  C29 ZIN A   1      19.111   0.442  18.296  0.00  0.00     0.028 A 
ATOM     31  C27 ZIN A   1      18.948  -0.050  17.013  0.00  0.00     0.044 A 
ATOM     32 Cl28 ZIN A   1      18.840  -1.762  16.748  0.00  0.00    -0.084 Cl
ENDBRANCH  22  24
ENDBRANCH  21  22
ENDBRANCH   1  21
BRANCH   7  33
ATOM     33  N25 ZIN A   1      20.466   2.399  11.692  0.00  0.00    -0.383 N 
ATOM     34  H51 ZIN A   1      20.475   2.715  12.609  0.00  0.00     0.157 HD
ATOM     35  H52 ZIN A   1      20.669   3.010  10.967  0.00  0.00     0.157 HD
ENDBRANCH   7  33
TORSDOF 6
ENDMDL
MODEL 7
REMARK VINA RESULT:      -8.4      4.503      8.925
REMARK  6 active torsions:
REMARK  status: ('A' for Active; 'I' for Inactive)
REMARK    1  A    between atoms: C2_2  and  O4_3 
REMARK    2  A    between atoms: C2_2  and  C26_25 
REMARK    3  A    between atoms: O4_3  and  C5_4 
REMARK    4  A    between atoms: C7_6  and  C8_7 
REMARK    5  A    between atoms: N10_9  and  C11_10 
REMARK    6  A    between atoms: C24_23  and  N25_24 
ROOT
ATOM      1  C5  ZIN A   1      18.502  -0.983   7.431  0.00  0.00     0.114 A 
ATOM      2  C6  ZIN A   1      18.334  -0.535   8.730  0.00  0.00     0.054 A 
ATOM      3  C7  ZIN A   1      18.542   0.821   8.998  0.00  0.00    -0.005 A 
ATOM      4  C21 ZIN A   1      18.908   1.668   7.958  0.00  0.00     0.102 A 
ATOM      5  N22 ZIN A   1      19.059   1.205   6.731  0.00  0.00    -0.350 N 
ATOM      6  H23 ZIN A   1      19.315   1.818   6.024  0.00  0.00     0.166 HD
ATOM      7  C24 ZIN A   1      18.876  -0.073   6.441  0.00  0.00     0.132 A 
ENDROOT
BRANCH   3   8
ATOM      8  C8  ZIN A   1      18.375   1.351  10.376  0.00  0.00     0.012 A 
ATOM      9  C20 ZIN A   1      17.745   2.558  10.732  0.00  0.00     0.152 A 
ATOM     10  N19 ZIN A   1      17.794   2.673  12.033  0.00  0.00    -0.184 NA
ATOM     11  N10 ZIN A   1      18.460   1.557  12.553  0.00  0.00    -0.276 N 
ATOM     12  C9  ZIN A   1      18.809   0.758  11.524  0.00  0.00     0.126 A 
BRANCH  11  13
ATOM     13  C11 ZIN A   1      18.732   1.303  13.970  0.00  0.00     0.112 C 
ATOM     14  C18 ZIN A   1      17.752   0.252  14.500  0.00  0.00     0.055 C 
ATOM     15  C17 ZIN A   1      17.990   0.051  15.998  0.00  0.00     0.234 C 
ATOM     16  N14 ZIN A   1      17.780   1.319  16.706  0.00  0.00    -0.075 N 
ATOM     17  C13 ZIN A   1      18.763   2.310  16.254  0.00  0.00     0.234 C 
ATOM     18  H15 ZIN A   1      17.885   1.171  17.698  0.00  0.00     0.277 HD
ATOM     19  H16 ZIN A   1      16.849   1.659  16.514  0.00  0.00     0.277 HD
ATOM     20  C12 ZIN A   1      18.555   2.599  14.766  0.00  0.00     0.055 C 
ENDBRANCH  11  13
ENDBRANCH   3   8
BRANCH   1  21
ATOM     21  O4  ZIN A   1      18.311  -2.294   7.123  0.00  0.00    -0.338 OA
BRANCH  21  22
ATOM     22  C2  ZIN A   1      19.211  -3.236   7.711  0.00  0.00     0.161 C 
ATOM     23  C1  ZIN A   1      20.005  -3.940   6.609  0.00  0.00     0.045 C 
BRANCH  22  24
ATOM     24  C26 ZIN A   1      18.428  -4.257   8.495  0.00  0.00     0.017 A 
ATOM     25  C33 ZIN A   1      18.576  -4.336   9.869  0.00  0.00     0.083 A 
ATOM     26  C31 ZIN A   1      17.852  -5.272  10.590  0.00  0.00     0.138 A 
ATOM     27 Cl34 ZIN A   1      19.657  -3.254  10.690  0.00  0.00    -0.080 Cl
ATOM     28  C30 ZIN A   1      16.990  -6.134   9.934  0.00  0.00     0.046 A 
ATOM     29  F32 ZIN A   1      17.991  -5.346  11.931  0.00  0.00    -0.204 F 
ATOM     30  C29 ZIN A   1      16.847  -6.058   8.562  0.00  0.00     0.028 A 
ATOM     31  C27 ZIN A   1      17.566  -5.119   7.843  0.00  0.00     0.044 A 
ATOM     32 Cl28 ZIN A   1      17.386  -5.025   6.118  0.00  0.00    -0.084 Cl
ENDBRANCH  22  24
ENDBRANCH  21  22
ENDBRANCH   1  21
BRANCH   7  33
ATOM     33  N25 ZIN A   1      19.048  -0.511   5.130  0.00  0.00    -0.383 N 
ATOM     34  H51 ZIN A   1      18.291  -0.537   4.525  0.00  0.00     0.157 HD
ATOM     35  H52 ZIN A   1      19.925  -0.790   4.824  0.00  0.00     0.157 HD
ENDBRANCH   7  33
TORSDOF 6
ENDMDL
MODEL 8
REMARK VINA RESULT:      -8.4      4.463      8.683
REMARK  6 active torsions:
REMARK  status: ('A' for Active; 'I' for Inactive)
REMARK    1  A    between atoms: C2_2  and  O4_3 
REMARK    2  A    between atoms: C2_2  and  C26_25 
REMARK    3  A    between atoms: O4_3  and  C5_4 
REMARK    4  A    between atoms: C7_6  and  C8_7 
REMARK    5  A    between atoms: N10_9  and  C11_10 
REMARK    6  A    between atoms: C24_23  and  N25_24 
ROOT
ATOM      1  C5  ZIN A   1      18.445  -0.903   7.697  0.00  0.00     0.114 A 
ATOM      2  C6  ZIN A   1      18.160  -0.378   8.946  0.00  0.00     0.054 A 
ATOM      3  C7  ZIN A   1      18.382   0.987   9.159  0.00  0.00    -0.005 A 
ATOM      4  C21 ZIN A   1      18.876   1.763   8.118  0.00  0.00     0.102 A 
ATOM      5  N22 ZIN A   1      19.136   1.227   6.940  0.00  0.00    -0.350 N 
ATOM      6  H23 ZIN A   1      19.481   1.792   6.231  0.00  0.00     0.166 HD
ATOM      7  C24 ZIN A   1      18.944  -0.060   6.703  0.00  0.00     0.132 A 
ENDROOT
BRANCH   3   8
ATOM      8  C8  ZIN A   1      18.092   1.598  10.482  0.00  0.00     0.012 A 
ATOM      9  C20 ZIN A   1      17.746   2.942  10.719  0.00  0.00     0.152 A 
ATOM     10  N19 ZIN A   1      17.566   3.094  12.005  0.00  0.00    -0.184 NA
ATOM     11  N10 ZIN A   1      17.798   1.865  12.634  0.00  0.00    -0.276 N 
ATOM     12  C9  ZIN A   1      18.120   0.960  11.687  0.00  0.00     0.126 A 
BRANCH  11  13
ATOM     13  C11 ZIN A   1      17.710   1.608  14.074  0.00  0.00     0.112 C 
ATOM     14  C18 ZIN A   1      18.890   2.272  14.788  0.00  0.00     0.055 C 
ATOM     15  C17 ZIN A   1      18.835   1.931  16.279  0.00  0.00     0.234 C 
ATOM     16  N14 ZIN A   1      18.911   0.477  16.456  0.00  0.00    -0.075 N 
ATOM     17  C13 ZIN A   1      17.743  -0.161  15.835  0.00  0.00     0.234 C 
ATOM     18  H15 ZIN A   1      18.928   0.259  17.440  0.00  0.00     0.277 HD
ATOM     19  H16 ZIN A   1      19.753   0.131  16.021  0.00  0.00     0.277 HD
ATOM     20  C12 ZIN A   1      17.757   0.098  14.328  0.00  0.00     0.055 C 
ENDBRANCH  11  13
ENDBRANCH   3   8
BRANCH   1  21
ATOM     21  O4  ZIN A   1      18.246  -2.225   7.443  0.00  0.00    -0.338 OA
BRANCH  21  22
ATOM     22  C2  ZIN A   1      19.174  -3.143   8.025  0.00  0.00     0.161 C 
ATOM     23  C1  ZIN A   1      19.865  -3.941   6.917  0.00  0.00     0.045 C 
BRANCH  22  24
ATOM     24  C26 ZIN A   1      18.438  -4.088   8.940  0.00  0.00     0.017 A 
ATOM     25  C33 ZIN A   1      17.574  -5.030   8.411  0.00  0.00     0.083 A 
ATOM     26  C31 ZIN A   1      16.902  -5.902   9.252  0.00  0.00     0.138 A 
ATOM     27 Cl34 ZIN A   1      17.341  -5.127   6.694  0.00  0.00    -0.080 Cl
ATOM     28  C30 ZIN A   1      17.088  -5.824  10.622  0.00  0.00     0.046 A 
ATOM     29  F32 ZIN A   1      16.062  -6.825   8.737  0.00  0.00    -0.204 F 
ATOM     30  C29 ZIN A   1      17.949  -4.879  11.149  0.00  0.00     0.028 A 
ATOM     31  C27 ZIN A   1      18.624  -4.012  10.308  0.00  0.00     0.044 A 
ATOM     32 Cl28 ZIN A   1      19.704  -2.826  10.972  0.00  0.00    -0.084 Cl
ENDBRANCH  22  24
ENDBRANCH  21  22
ENDBRANCH   1  21
BRANCH   7  33
ATOM     33  N25 ZIN A   1      19.234  -0.577   5.442  0.00  0.00    -0.383 N 
ATOM     34  H51 ZIN A   1      19.866  -0.122   4.865  0.00  0.00     0.157 HD
ATOM     35  H52 ZIN A   1      18.805  -1.394   5.144  0.00  0.00     0.157 HD
ENDBRANCH   7  33
TORSDOF 6
ENDMDL
MODEL 9
REMARK VINA RESULT:      -8.3      4.075      5.802
REMARK  6 active torsions:
REMARK  status: ('A' for Active; 'I' for Inactive)
REMARK    1  A    between atoms: C2_2  and  O4_3 
REMARK    2  A    between atoms: C2_2  and  C26_25 
REMARK    3  A    between atoms: O4_3  and  C5_4 
REMARK    4  A    between atoms: C7_6  and  C8_7 
REMARK    5  A    between atoms: N10_9  and  C11_10 
REMARK    6  A    between atoms: C24_23  and  N25_24 
ROOT
ATOM      1  C5  ZIN A   1      18.211   2.107  11.969  0.00  0.00     0.114 A 
ATOM      2  C6  ZIN A   1      18.398   1.337  10.833  0.00  0.00     0.054 A 
ATOM      3  C7  ZIN A   1      18.547   1.989   9.605  0.00  0.00    -0.005 A 
ATOM      4  C21 ZIN A   1      18.502   3.378   9.566  0.00  0.00     0.102 A 
ATOM      5  N22 ZIN A   1      18.322   4.079  10.670  0.00  0.00    -0.350 N 
ATOM      6  H23 ZIN A   1      18.294   5.047  10.613  0.00  0.00     0.166 HD
ATOM      7  C24 ZIN A   1      18.172   3.497  11.848  0.00  0.00     0.132 A 
ENDROOT
BRANCH   3   8
ATOM      8  C8  ZIN A   1      18.750   1.207   8.358  0.00  0.00     0.012 A 
ATOM      9  C20 ZIN A   1      18.877   1.733   7.058  0.00  0.00     0.152 A 
ATOM     10  N19 ZIN A   1      19.046   0.735   6.232  0.00  0.00    -0.184 NA
ATOM     11  N10 ZIN A   1      19.023  -0.458   6.964  0.00  0.00    -0.276 N 
ATOM     12  C9  ZIN A   1      18.841  -0.150   8.265  0.00  0.00     0.126 A 
BRANCH  11  13
ATOM     13  C11 ZIN A   1      19.171  -1.807   6.413  0.00  0.00     0.112 C 
ATOM     14  C18 ZIN A   1      18.492  -1.878   5.042  0.00  0.00     0.055 C 
ATOM     15  C17 ZIN A   1      18.580  -3.310   4.509  0.00  0.00     0.234 C 
ATOM     16  N14 ZIN A   1      17.906  -4.225   5.437  0.00  0.00    -0.075 N 
ATOM     17  C13 ZIN A   1      18.596  -4.215   6.733  0.00  0.00     0.234 C 
ATOM     18  H15 ZIN A   1      17.919  -5.159   5.057  0.00  0.00     0.277 HD
ATOM     19  H16 ZIN A   1      16.950  -3.927   5.564  0.00  0.00     0.277 HD
ATOM     20  C12 ZIN A   1      18.508  -2.819   7.352  0.00  0.00     0.055 C 
ENDBRANCH  11  13
ENDBRANCH   3   8
BRANCH   1  21
ATOM     21  O4  ZIN A   1      18.061   1.517  13.185  0.00  0.00    -0.338 OA
BRANCH  21  22
ATOM     22  C2  ZIN A   1      19.212   1.475  14.031  0.00  0.00     0.161 C 
ATOM     23  C1  ZIN A   1      20.291   0.606  13.381  0.00  0.00     0.045 C 
BRANCH  22  24
ATOM     24  C26 ZIN A   1      18.832   0.887  15.366  0.00  0.00     0.017 A 
ATOM     25  C33 ZIN A   1      18.320  -0.396  15.437  0.00  0.00     0.083 A 
ATOM     26  C31 ZIN A   1      17.977  -0.937  16.665  0.00  0.00     0.138 A 
ATOM     27 Cl34 ZIN A   1      18.121  -1.332  13.989  0.00  0.00    -0.080 Cl
ATOM     28  C30 ZIN A   1      18.136  -0.190  17.819  0.00  0.00     0.046 A 
ATOM     29  F32 ZIN A   1      17.482  -2.192  16.736  0.00  0.00    -0.204 F 
ATOM     30  C29 ZIN A   1      18.643   1.094  17.747  0.00  0.00     0.028 A 
ATOM     31  C27 ZIN A   1      18.992   1.632  16.520  0.00  0.00     0.044 A 
ATOM     32 Cl28 ZIN A   1      19.628   3.245  16.431  0.00  0.00    -0.084 Cl
ENDBRANCH  22  24
ENDBRANCH  21  22
ENDBRANCH   1  21
BRANCH   7  33
ATOM     33  N25 ZIN A   1      17.984   4.283  12.983  0.00  0.00    -0.383 N 
ATOM     34  H51 ZIN A   1      18.734   4.486  13.562  0.00  0.00     0.157 HD
ATOM     35  H52 ZIN A   1      17.102   4.626  13.193  0.00  0.00     0.157 HD
ENDBRANCH   7  33
TORSDOF 6
ENDMDL
