MODEL 1
REMARK VINA RESULT:      -7.7      0.000      0.000
REMARK  4 active torsions:
REMARK  status: ('A' for Active; 'I' for Inactive)
REMARK    1  A    between atoms: O1_1  and  C2_2 
REMARK    2  A    between atoms: C5_5  and  C6_6 
REMARK    3  A    between atoms: C17_16  and  O18_17 
REMARK    4  A    between atoms: C19_18  and  O20_19 
ROOT
ATOM      1  C6  <0> d   1      19.345   1.056  10.401  0.00  0.00     0.078 C 
ATOM      2  C8  <0> d   1      19.105  -0.175  11.275  0.00  0.00     0.246 C 
ATOM      3  N9  <0> d   1      20.202  -0.281  12.242  0.00  0.00    -0.074 N 
ATOM      4  H10 <0> d   1      20.072  -1.108  12.806  0.00  0.00     0.277 HD
ATOM      5  H11 <0> d   1      21.079  -0.348  11.747  0.00  0.00     0.277 HD
ATOM      6  C12 <0> d   1      20.231   0.896  13.111  0.00  0.00     0.237 C 
ATOM      7  C13 <0> d   1      18.787   1.364  13.318  0.00  0.00     0.068 C 
ATOM      8  C14 <0> d   1      18.424   2.430  12.316  0.00  0.00    -0.025 A 
ATOM      9  C15 <0> d   1      18.651   2.269  10.969  0.00  0.00    -0.037 A 
ATOM     10  C16 <0> d   1      18.255   3.260  10.079  0.00  0.00     0.048 A 
ATOM     11  C17 <0> d   1      17.660   4.421  10.540  0.00  0.00     0.101 A 
ATOM     12  C19 <0> d   1      17.457   4.595  11.906  0.00  0.00     0.121 A 
ATOM     13  C21 <0> d   1      17.836   3.597  12.787  0.00  0.00     0.076 A 
ATOM     14 Cl22 <0> d   1      17.580   3.808  14.490  0.00  0.00    -0.081 Cl
ENDROOT
BRANCH   1  15
ATOM     15  C5  <0> d   1      18.818   0.787   9.015  0.00  0.00    -0.048 A 
ATOM     16  C4  <0> d   1      19.463   1.325   7.916  0.00  0.00     0.011 A 
ATOM     17  C3  <0> d   1      18.981   1.081   6.643  0.00  0.00     0.037 A 
ATOM     18  C2  <0> d   1      17.850   0.295   6.470  0.00  0.00     0.065 A 
ATOM     19  C24 <0> d   1      17.203  -0.238   7.575  0.00  0.00     0.037 A 
ATOM     20  C23 <0> d   1      17.691   0.005   8.845  0.00  0.00     0.011 A 
BRANCH  18  21
ATOM     21  O1  <0> d   1      17.375   0.054   5.220  0.00  0.00    -0.361 OA
ATOM     22  H25 <0> d   1      17.554   0.763   4.588  0.00  0.00     0.217 HD
ENDBRANCH  18  21
ENDBRANCH   1  15
BRANCH  11  23
ATOM     23  O18 <0> d   1      17.277   5.386   9.663  0.00  0.00    -0.358 OA
ATOM     24  H35 <0> d   1      16.519   5.907   9.960  0.00  0.00     0.217 HD
ENDBRANCH  11  23
BRANCH  12  25
ATOM     25  O20 <0> d   1      16.886   5.739  12.371  0.00  0.00    -0.356 OA
ATOM     26  H36 <0> d   1      17.367   6.148  13.104  0.00  0.00     0.218 HD
ENDBRANCH  12  25
TORSDOF 4
ENDMDL
MODEL 2
REMARK VINA RESULT:      -7.7      3.269      4.299
REMARK  4 active torsions:
REMARK  status: ('A' for Active; 'I' for Inactive)
REMARK    1  A    between atoms: O1_1  and  C2_2 
REMARK    2  A    between atoms: C5_5  and  C6_6 
REMARK    3  A    between atoms: C17_16  and  O18_17 
REMARK    4  A    between atoms: C19_18  and  O20_19 
ROOT
ATOM      1  C6  <0> d   1      17.901   1.222   9.233  0.00  0.00     0.078 C 
ATOM      2  C8  <0> d   1      18.521   2.610   9.396  0.00  0.00     0.246 C 
ATOM      3  N9  <0> d   1      17.738   3.357  10.386  0.00  0.00    -0.074 N 
ATOM      4  H10 <0> d   1      18.119   4.287  10.480  0.00  0.00     0.277 HD
ATOM      5  H11 <0> d   1      16.780   3.417  10.077  0.00  0.00     0.277 HD
ATOM      6  C12 <0> d   1      17.784   2.683  11.684  0.00  0.00     0.237 C 
ATOM      7  C13 <0> d   1      19.156   2.019  11.823  0.00  0.00     0.068 C 
ATOM      8  C14 <0> d   1      19.102   0.583  11.367  0.00  0.00    -0.025 A 
ATOM      9  C15 <0> d   1      18.553   0.224  10.158  0.00  0.00    -0.037 A 
ATOM     10  C16 <0> d   1      18.570  -1.107   9.761  0.00  0.00     0.048 A 
ATOM     11  C17 <0> d   1      19.106  -2.079  10.585  0.00  0.00     0.101 A 
ATOM     12  C19 <0> d   1      19.635  -1.719  11.822  0.00  0.00     0.121 A 
ATOM     13  C21 <0> d   1      19.634  -0.389  12.205  0.00  0.00     0.076 A 
ATOM     14 Cl22 <0> d   1      20.296   0.065  13.743  0.00  0.00    -0.081 Cl
ENDROOT
BRANCH   1  15
ATOM     15  C5  <0> d   1      18.078   0.766   7.808  0.00  0.00    -0.048 A 
ATOM     16  C4  <0> d   1      19.170   1.196   7.076  0.00  0.00     0.011 A 
ATOM     17  C3  <0> d   1      19.334   0.779   5.769  0.00  0.00     0.037 A 
ATOM     18  C2  <0> d   1      18.402  -0.071   5.191  0.00  0.00     0.065 A 
ATOM     19  C24 <0> d   1      17.305  -0.496   5.926  0.00  0.00     0.037 A 
ATOM     20  C23 <0> d   1      17.148  -0.080   7.235  0.00  0.00     0.011 A 
BRANCH  18  21
ATOM     21  O1  <0> d   1      18.562  -0.482   3.906  0.00  0.00    -0.361 OA
ATOM     22  H25 <0> d   1      17.818  -0.996   3.562  0.00  0.00     0.217 HD
ENDBRANCH  18  21
ENDBRANCH   1  15
BRANCH  11  23
ATOM     23  O18 <0> d   1      19.116  -3.380  10.190  0.00  0.00    -0.358 OA
ATOM     24  H35 <0> d   1      19.998  -3.774  10.161  0.00  0.00     0.217 HD
ENDBRANCH  11  23
BRANCH  12  25
ATOM     25  O20 <0> d   1      20.152  -2.669  12.647  0.00  0.00    -0.356 OA
ATOM     26  H36 <0> d   1      20.141  -2.425  13.583  0.00  0.00     0.218 HD
ENDBRANCH  12  25
TORSDOF 4
ENDMDL
MODEL 3
REMARK VINA RESULT:      -7.5      2.935      3.834
REMARK  4 active torsions:
REMARK  status: ('A' for Active; 'I' for Inactive)
REMARK    1  A    between atoms: O1_1  and  C2_2 
REMARK    2  A    between atoms: C5_5  and  C6_6 
REMARK    3  A    between atoms: C17_16  and  O18_17 
REMARK    4  A    between atoms: C19_18  and  O20_19 
ROOT
ATOM      1  C6  <0> d   1      17.614   2.410  10.466  0.00  0.00     0.078 C 
ATOM      2  C8  <0> d   1      18.365   3.640   9.958  0.00  0.00     0.246 C 
ATOM      3  N9  <0> d   1      17.438   4.776   9.935  0.00  0.00    -0.074 N 
ATOM      4  H10 <0> d   1      17.914   5.588   9.571  0.00  0.00     0.277 HD
ATOM      5  H11 <0> d   1      16.653   4.555   9.342  0.00  0.00     0.277 HD
ATOM      6  C12 <0> d   1      16.954   5.065  11.286  0.00  0.00     0.237 C 
ATOM      7  C13 <0> d   1      18.082   4.743  12.270  0.00  0.00     0.068 C 
ATOM      8  C14 <0> d   1      17.945   3.338  12.798  0.00  0.00    -0.025 A 
ATOM      9  C15 <0> d   1      17.763   2.262  11.961  0.00  0.00    -0.037 A 
ATOM     10  C16 <0> d   1      17.690   0.980  12.491  0.00  0.00     0.048 A 
ATOM     11  C17 <0> d   1      17.768   0.780  13.858  0.00  0.00     0.101 A 
ATOM     12  C19 <0> d   1      17.922   1.873  14.706  0.00  0.00     0.121 A 
ATOM     13  C21 <0> d   1      18.014   3.146  14.172  0.00  0.00     0.076 A 
ATOM     14 Cl22 <0> d   1      18.212   4.511  15.225  0.00  0.00    -0.081 Cl
ENDROOT
BRANCH   1  15
ATOM     15  C5  <0> d   1      18.163   1.181   9.789  0.00  0.00    -0.048 A 
ATOM     16  C4  <0> d   1      17.303   0.297   9.162  0.00  0.00     0.011 A 
ATOM     17  C3  <0> d   1      17.805  -0.831   8.541  0.00  0.00     0.037 A 
ATOM     18  C2  <0> d   1      19.170  -1.076   8.547  0.00  0.00     0.065 A 
ATOM     19  C24 <0> d   1      20.029  -0.191   9.182  0.00  0.00     0.037 A 
ATOM     20  C23 <0> d   1      19.524   0.939   9.798  0.00  0.00     0.011 A 
BRANCH  18  21
ATOM     21  O1  <0> d   1      19.665  -2.186   7.937  0.00  0.00    -0.361 OA
ATOM     22  H25 <0> d   1      19.763  -2.097   6.979  0.00  0.00     0.217 HD
ENDBRANCH  18  21
ENDBRANCH   1  15
BRANCH  11  23
ATOM     23  O18 <0> d   1      17.693  -0.478  14.369  0.00  0.00    -0.358 OA
ATOM     24  H35 <0> d   1      17.010  -0.586  15.045  0.00  0.00     0.217 HD
ENDBRANCH  11  23
BRANCH  12  25
ATOM     25  O20 <0> d   1      17.985   1.689  16.053  0.00  0.00    -0.356 OA
ATOM     26  H36 <0> d   1      17.621   2.423  16.567  0.00  0.00     0.218 HD
ENDBRANCH  12  25
TORSDOF 4
ENDMDL
MODEL 4
REMARK VINA RESULT:      -7.4      4.913      7.172
REMARK  4 active torsions:
REMARK  status: ('A' for Active; 'I' for Inactive)
REMARK    1  A    between atoms: O1_1  and  C2_2 
REMARK    2  A    between atoms: C5_5  and  C6_6 
REMARK    3  A    between atoms: C17_16  and  O18_17 
REMARK    4  A    between atoms: C19_18  and  O20_19 
ROOT
ATOM      1  C6  <0> d   1      19.217  -1.365   9.583  0.00  0.00     0.078 C 
ATOM      2  C8  <0> d   1      18.303  -0.192   9.934  0.00  0.00     0.246 C 
ATOM      3  N9  <0> d   1      19.091   1.044   9.889  0.00  0.00    -0.074 N 
ATOM      4  H10 <0> d   1      18.505   1.823  10.149  0.00  0.00     0.277 HD
ATOM      5  H11 <0> d   1      19.861   0.973  10.536  0.00  0.00     0.277 HD
ATOM      6  C12 <0> d   1      19.615   1.264   8.540  0.00  0.00     0.237 C 
ATOM      7  C13 <0> d   1      18.588   0.721   7.541  0.00  0.00     0.068 C 
ATOM      8  C14 <0> d   1      18.915  -0.700   7.160  0.00  0.00    -0.025 A 
ATOM      9  C15 <0> d   1      19.171  -1.666   8.105  0.00  0.00    -0.037 A 
ATOM     10  C16 <0> d   1      19.420  -2.973   7.705  0.00  0.00     0.048 A 
ATOM     11  C17 <0> d   1      19.443  -3.305   6.363  0.00  0.00     0.101 A 
ATOM     12  C19 <0> d   1      19.213  -2.320   5.406  0.00  0.00     0.121 A 
ATOM     13  C21 <0> d   1      18.946  -1.023   5.809  0.00  0.00     0.076 A 
ATOM     14 Cl22 <0> d   1      18.654   0.206   4.620  0.00  0.00    -0.081 Cl
ENDROOT
BRANCH   1  15
ATOM     15  C5  <0> d   1      18.775  -2.584  10.351  0.00  0.00    -0.048 A 
ATOM     16  C4  <0> d   1      19.719  -3.437  10.894  0.00  0.00     0.011 A 
ATOM     17  C3  <0> d   1      19.315  -4.556  11.598  0.00  0.00     0.037 A 
ATOM     18  C2  <0> d   1      17.963  -4.822  11.760  0.00  0.00     0.065 A 
ATOM     19  C24 <0> d   1      17.019  -3.967  11.209  0.00  0.00     0.037 A 
ATOM     20  C23 <0> d   1      17.427  -2.847  10.510  0.00  0.00     0.011 A 
BRANCH  18  21
ATOM     21  O1  <0> d   1      17.564  -5.922  12.451  0.00  0.00    -0.361 OA
ATOM     22  H25 <0> d   1      18.294  -6.459  12.789  0.00  0.00     0.217 HD
ENDBRANCH  18  21
ENDBRANCH   1  15
BRANCH  11  23
ATOM     23  O18 <0> d   1      19.690  -4.586   5.980  0.00  0.00    -0.358 OA
ATOM     24  H35 <0> d   1      19.098  -4.910   5.289  0.00  0.00     0.217 HD
ENDBRANCH  11  23
BRANCH  12  25
ATOM     25  O20 <0> d   1      19.248  -2.632   4.082  0.00  0.00    -0.356 OA
ATOM     26  H36 <0> d   1      19.797  -3.401   3.874  0.00  0.00     0.218 HD
ENDBRANCH  12  25
TORSDOF 4
ENDMDL
MODEL 5
REMARK VINA RESULT:      -7.4      3.467      5.001
REMARK  4 active torsions:
REMARK  status: ('A' for Active; 'I' for Inactive)
REMARK    1  A    between atoms: O1_1  and  C2_2 
REMARK    2  A    between atoms: C5_5  and  C6_6 
REMARK    3  A    between atoms: C17_16  and  O18_17 
REMARK    4  A    between atoms: C19_18  and  O20_19 
ROOT
ATOM      1  C6  <0> d   1      19.491  -1.976  11.846  0.00  0.00     0.078 C 
ATOM      2  C8  <0> d   1      18.827  -1.582  13.165  0.00  0.00     0.246 C 
ATOM      3  N9  <0> d   1      19.835  -0.955  14.026  0.00  0.00    -0.074 N 
ATOM      4  H10 <0> d   1      19.417  -0.718  14.913  0.00  0.00     0.277 HD
ATOM      5  H11 <0> d   1      20.595  -1.602  14.176  0.00  0.00     0.277 HD
ATOM      6  C12 <0> d   1      20.356   0.260  13.398  0.00  0.00     0.237 C 
ATOM      7  C13 <0> d   1      19.219   0.901  12.597  0.00  0.00     0.068 C 
ATOM      8  C14 <0> d   1      19.258   0.449  11.160  0.00  0.00    -0.025 A 
ATOM      9  C15 <0> d   1      19.349  -0.880  10.818  0.00  0.00    -0.037 A 
ATOM     10  C16 <0> d   1      19.333  -1.251   9.479  0.00  0.00     0.048 A 
ATOM     11  C17 <0> d   1      19.257  -0.291   8.486  0.00  0.00     0.101 A 
ATOM     12  C19 <0> d   1      19.194   1.056   8.832  0.00  0.00     0.121 A 
ATOM     13  C21 <0> d   1      19.191   1.419  10.168  0.00  0.00     0.076 A 
ATOM     14 Cl22 <0> d   1      19.109   3.096  10.604  0.00  0.00    -0.081 Cl
ENDROOT
BRANCH   1  15
ATOM     15  C5  <0> d   1      18.844  -3.232  11.323  0.00  0.00    -0.048 A 
ATOM     16  C4  <0> d   1      17.483  -3.425  11.482  0.00  0.00     0.011 A 
ATOM     17  C3  <0> d   1      16.888  -4.577  11.003  0.00  0.00     0.037 A 
ATOM     18  C2  <0> d   1      17.656  -5.539  10.363  0.00  0.00     0.065 A 
ATOM     19  C24 <0> d   1      19.022  -5.345  10.210  0.00  0.00     0.037 A 
ATOM     20  C23 <0> d   1      19.612  -4.190  10.686  0.00  0.00     0.011 A 
BRANCH  18  21
ATOM     21  O1  <0> d   1      17.073  -6.673   9.892  0.00  0.00    -0.361 OA
ATOM     22  H25 <0> d   1      16.149  -6.779  10.158  0.00  0.00     0.217 HD
ENDBRANCH  18  21
ENDBRANCH   1  15
BRANCH  11  23
ATOM     23  O18 <0> d   1      19.245  -0.662   7.178  0.00  0.00    -0.358 OA
ATOM     24  H35 <0> d   1      19.965  -1.259   6.933  0.00  0.00     0.217 HD
ENDBRANCH  11  23
BRANCH  12  25
ATOM     25  O20 <0> d   1      19.135   2.008   7.863  0.00  0.00    -0.356 OA
ATOM     26  H36 <0> d   1      19.005   1.655   6.972  0.00  0.00     0.218 HD
ENDBRANCH  12  25
TORSDOF 4
ENDMDL
MODEL 6
REMARK VINA RESULT:      -7.3      3.347      6.238
REMARK  4 active torsions:
REMARK  status: ('A' for Active; 'I' for Inactive)
REMARK    1  A    between atoms: O1_1  and  C2_2 
REMARK    2  A    between atoms: C5_5  and  C6_6 
REMARK    3  A    between atoms: C17_16  and  O18_17 
REMARK    4  A    between atoms: C19_18  and  O20_19 
ROOT
ATOM      1  C6  <0> d   1      17.974  -0.818  10.094  0.00  0.00     0.078 C 
ATOM      2  C8  <0> d   1      18.553  -1.864  11.046  0.00  0.00     0.246 C 
ATOM      3  N9  <0> d   1      17.634  -3.007  11.098  0.00  0.00    -0.074 N 
ATOM      4  H10 <0> d   1      17.990  -3.692  11.748  0.00  0.00     0.277 HD
ATOM      5  H11 <0> d   1      16.727  -2.692  11.406  0.00  0.00     0.277 HD
ATOM      6  C12 <0> d   1      17.507  -3.618   9.774  0.00  0.00     0.237 C 
ATOM      7  C13 <0> d   1      18.854  -3.477   9.059  0.00  0.00     0.068 C 
ATOM      8  C14 <0> d   1      18.876  -2.237   8.202  0.00  0.00    -0.025 A 
ATOM      9  C15 <0> d   1      18.502  -1.008   8.693  0.00  0.00    -0.037 A 
ATOM     10  C16 <0> d   1      18.585   0.115   7.878  0.00  0.00     0.048 A 
ATOM     11  C17 <0> d   1      19.012   0.001   6.568  0.00  0.00     0.101 A 
ATOM     12  C19 <0> d   1      19.363  -1.248   6.063  0.00  0.00     0.121 A 
ATOM     13  C21 <0> d   1      19.297  -2.360   6.884  0.00  0.00     0.076 A 
ATOM     14 Cl22 <0> d   1      19.738  -3.918   6.261  0.00  0.00    -0.081 Cl
ENDROOT
BRANCH   1  15
ATOM     15  C5  <0> d   1      18.348   0.557  10.583  0.00  0.00    -0.048 A 
ATOM     16  C4  <0> d   1      17.440   1.595  10.486  0.00  0.00     0.011 A 
ATOM     17  C3  <0> d   1      17.782   2.857  10.933  0.00  0.00     0.037 A 
ATOM     18  C2  <0> d   1      19.037   3.082  11.480  0.00  0.00     0.065 A 
ATOM     19  C24 <0> d   1      19.948   2.039  11.571  0.00  0.00     0.037 A 
ATOM     20  C23 <0> d   1      19.600   0.778  11.126  0.00  0.00     0.011 A 
BRANCH  18  21
ATOM     21  O1  <0> d   1      19.376   4.322  11.920  0.00  0.00    -0.361 OA
ATOM     22  H25 <0> d   1      19.938   4.817  11.308  0.00  0.00     0.217 HD
ENDBRANCH  18  21
ENDBRANCH   1  15
BRANCH  11  23
ATOM     23  O18 <0> d   1      19.088   1.105   5.777  0.00  0.00    -0.358 OA
ATOM     24  H35 <0> d   1      19.302   0.911   4.854  0.00  0.00     0.217 HD
ENDBRANCH  11  23
BRANCH  12  25
ATOM     25  O20 <0> d   1      19.770  -1.373   4.771  0.00  0.00    -0.356 OA
ATOM     26  H36 <0> d   1      20.711  -1.196   4.637  0.00  0.00     0.218 HD
ENDBRANCH  12  25
TORSDOF 4
ENDMDL
MODEL 7
REMARK VINA RESULT:      -7.1      3.266      4.380
REMARK  4 active torsions:
REMARK  status: ('A' for Active; 'I' for Inactive)
REMARK    1  A    between atoms: O1_1  and  C2_2 
REMARK    2  A    between atoms: C5_5  and  C6_6 
REMARK    3  A    between atoms: C17_16  and  O18_17 
REMARK    4  A    between atoms: C19_18  and  O20_19 
ROOT
ATOM      1  C6  <0> d   1      18.253   0.582  10.881  0.00  0.00     0.078 C 
ATOM      2  C8  <0> d   1      19.371   1.083   9.968  0.00  0.00     0.246 C 
ATOM      3  N9  <0> d   1      18.839   2.162   9.128  0.00  0.00    -0.074 N 
ATOM      4  H10 <0> d   1      19.560   2.481   8.498  0.00  0.00     0.277 HD
ATOM      5  H11 <0> d   1      18.056   1.815   8.595  0.00  0.00     0.277 HD
ATOM      6  C12 <0> d   1      18.396   3.281   9.960  0.00  0.00     0.237 C 
ATOM      7  C13 <0> d   1      19.317   3.356  11.181  0.00  0.00     0.068 C 
ATOM      8  C14 <0> d   1      18.728   2.595  12.341  0.00  0.00    -0.025 A 
ATOM      9  C15 <0> d   1      18.270   1.305  12.206  0.00  0.00    -0.037 A 
ATOM     10  C16 <0> d   1      17.780   0.628  13.316  0.00  0.00     0.048 A 
ATOM     11  C17 <0> d   1      17.720   1.251  14.549  0.00  0.00     0.101 A 
ATOM     12  C19 <0> d   1      18.157   2.566  14.678  0.00  0.00     0.121 A 
ATOM     13  C21 <0> d   1      18.662   3.231  13.574  0.00  0.00     0.076 A 
ATOM     14 Cl22 <0> d   1      19.212   4.869  13.731  0.00  0.00    -0.081 Cl
ENDROOT
BRANCH   1  15
ATOM     15  C5  <0> d   1      18.435  -0.895  11.121  0.00  0.00    -0.048 A 
ATOM     16  C4  <0> d   1      19.705  -1.417  11.279  0.00  0.00     0.011 A 
ATOM     17  C3  <0> d   1      19.874  -2.771  11.498  0.00  0.00     0.037 A 
ATOM     18  C2  <0> d   1      18.767  -3.606  11.559  0.00  0.00     0.065 A 
ATOM     19  C24 <0> d   1      17.494  -3.080  11.393  0.00  0.00     0.037 A 
ATOM     20  C23 <0> d   1      17.330  -1.724  11.179  0.00  0.00     0.011 A 
BRANCH  18  21
ATOM     21  O1  <0> d   1      18.930  -4.938  11.773  0.00  0.00    -0.361 OA
ATOM     22  H25 <0> d   1      18.440  -5.499  11.157  0.00  0.00     0.217 HD
ENDBRANCH  18  21
ENDBRANCH   1  15
BRANCH  11  23
ATOM     23  O18 <0> d   1      17.237   0.582  15.630  0.00  0.00    -0.358 OA
ATOM     24  H35 <0> d   1      17.865  -0.042  16.018  0.00  0.00     0.217 HD
ENDBRANCH  11  23
BRANCH  12  25
ATOM     25  O20 <0> d   1      18.089   3.194  15.883  0.00  0.00    -0.356 OA
ATOM     26  H36 <0> d   1      18.484   2.694  16.610  0.00  0.00     0.218 HD
ENDBRANCH  12  25
TORSDOF 4
ENDMDL
MODEL 8
REMARK VINA RESULT:      -7.1      4.308      5.752
REMARK  4 active torsions:
REMARK  status: ('A' for Active; 'I' for Inactive)
REMARK    1  A    between atoms: O1_1  and  C2_2 
REMARK    2  A    between atoms: C5_5  and  C6_6 
REMARK    3  A    between atoms: C17_16  and  O18_17 
REMARK    4  A    between atoms: C19_18  and  O20_19 
ROOT
ATOM      1  C6  <0> d   1      17.901  -2.605   8.549  0.00  0.00     0.078 C 
ATOM      2  C8  <0> d   1      19.188  -2.770   7.743  0.00  0.00     0.246 C 
ATOM      3  N9  <0> d   1      18.917  -2.397   6.350  0.00  0.00    -0.074 N 
ATOM      4  H10 <0> d   1      19.752  -2.532   5.800  0.00  0.00     0.277 HD
ATOM      5  H11 <0> d   1      18.179  -2.980   5.986  0.00  0.00     0.277 HD
ATOM      6  C12 <0> d   1      18.507  -0.995   6.270  0.00  0.00     0.237 C 
ATOM      7  C13 <0> d   1      19.253  -0.222   7.362  0.00  0.00     0.068 C 
ATOM      8  C14 <0> d   1      18.418  -0.128   8.613  0.00  0.00    -0.025 A 
ATOM      9  C15 <0> d   1      17.825  -1.234   9.176  0.00  0.00    -0.037 A 
ATOM     10  C16 <0> d   1      17.106  -1.105  10.358  0.00  0.00     0.048 A 
ATOM     11  C17 <0> d   1      16.954   0.133  10.956  0.00  0.00     0.101 A 
ATOM     12  C19 <0> d   1      17.530   1.256  10.370  0.00  0.00     0.121 A 
ATOM     13  C21 <0> d   1      18.263   1.120   9.203  0.00  0.00     0.076 A 
ATOM     14 Cl22 <0> d   1      18.987   2.517   8.471  0.00  0.00    -0.081 Cl
ENDROOT
BRANCH   1  15
ATOM     15  C5  <0> d   1      17.861  -3.649   9.635  0.00  0.00    -0.048 A 
ATOM     16  C4  <0> d   1      18.881  -3.716  10.567  0.00  0.00     0.011 A 
ATOM     17  C3  <0> d   1      18.846  -4.673  11.563  0.00  0.00     0.037 A 
ATOM     18  C2  <0> d   1      17.787  -5.567  11.628  0.00  0.00     0.065 A 
ATOM     19  C24 <0> d   1      16.768  -5.501  10.689  0.00  0.00     0.037 A 
ATOM     20  C23 <0> d   1      16.805  -4.539   9.697  0.00  0.00     0.011 A 
BRANCH  18  21
ATOM     21  O1  <0> d   1      17.751  -6.509  12.607  0.00  0.00    -0.361 OA
ATOM     22  H25 <0> d   1      17.963  -7.402  12.301  0.00  0.00     0.217 HD
ENDBRANCH  18  21
ENDBRANCH   1  15
BRANCH  11  23
ATOM     23  O18 <0> d   1      16.246   0.251  12.110  0.00  0.00    -0.358 OA
ATOM     24  H35 <0> d   1      16.757   0.049  12.906  0.00  0.00     0.217 HD
ENDBRANCH  11  23
BRANCH  12  25
ATOM     25  O20 <0> d   1      17.375   2.481  10.942  0.00  0.00    -0.356 OA
ATOM     26  H36 <0> d   1      18.194   2.856  11.295  0.00  0.00     0.218 HD
ENDBRANCH  12  25
TORSDOF 4
ENDMDL
MODEL 9
REMARK VINA RESULT:      -7.1      4.292      5.229
REMARK  4 active torsions:
REMARK  status: ('A' for Active; 'I' for Inactive)
REMARK    1  A    between atoms: O1_1  and  C2_2 
REMARK    2  A    between atoms: C5_5  and  C6_6 
REMARK    3  A    between atoms: C17_16  and  O18_17 
REMARK    4  A    between atoms: C19_18  and  O20_19 
ROOT
ATOM      1  C6  <0> d   1      17.907   1.078  12.888  0.00  0.00     0.078 C 
ATOM      2  C8  <0> d   1      18.503   2.197  12.035  0.00  0.00     0.246 C 
ATOM      3  N9  <0> d   1      17.593   3.346  12.072  0.00  0.00    -0.074 N 
ATOM      4  H10 <0> d   1      17.960   4.082  11.487  0.00  0.00     0.277 HD
ATOM      5  H11 <0> d   1      16.686   3.066  11.729  0.00  0.00     0.277 HD
ATOM      6  C12 <0> d   1      17.455   3.842  13.442  0.00  0.00     0.237 C 
ATOM      7  C13 <0> d   1      18.793   3.631  14.156  0.00  0.00     0.068 C 
ATOM      8  C14 <0> d   1      18.799   2.322  14.903  0.00  0.00    -0.025 A 
ATOM      9  C15 <0> d   1      18.422   1.142  14.305  0.00  0.00    -0.037 A 
ATOM     10  C16 <0> d   1      18.489  -0.046  15.021  0.00  0.00     0.048 A 
ATOM     11  C17 <0> d   1      18.903  -0.049  16.340  0.00  0.00     0.101 A 
ATOM     12  C19 <0> d   1      19.256   1.150  16.954  0.00  0.00     0.121 A 
ATOM     13  C21 <0> d   1      19.206   2.329  16.231  0.00  0.00     0.076 A 
ATOM     14 Cl22 <0> d   1      19.650   3.825  16.990  0.00  0.00    -0.081 Cl
ENDROOT
BRANCH   1  15
ATOM     15  C5  <0> d   1      18.279  -0.253  12.286  0.00  0.00    -0.048 A 
ATOM     16  C4  <0> d   1      19.587  -0.499  11.910  0.00  0.00     0.011 A 
ATOM     17  C3  <0> d   1      19.930  -1.719  11.358  0.00  0.00     0.037 A 
ATOM     18  C2  <0> d   1      18.960  -2.696  11.182  0.00  0.00     0.065 A 
ATOM     19  C24 <0> d   1      17.648  -2.444  11.555  0.00  0.00     0.037 A 
ATOM     20  C23 <0> d   1      17.311  -1.225  12.111  0.00  0.00     0.011 A 
BRANCH  18  21
ATOM     21  O1  <0> d   1      19.295  -3.896  10.638  0.00  0.00    -0.361 OA
ATOM     22  H25 <0> d   1      18.851  -4.087   9.801  0.00  0.00     0.217 HD
ENDBRANCH  18  21
ENDBRANCH   1  15
BRANCH  11  23
ATOM     23  O18 <0> d   1      18.963  -1.217  17.035  0.00  0.00    -0.358 OA
ATOM     24  H35 <0> d   1      18.134  -1.713  17.040  0.00  0.00     0.217 HD
ENDBRANCH  11  23
BRANCH  12  25
ATOM     25  O20 <0> d   1      19.650   1.161  18.256  0.00  0.00    -0.356 OA
ATOM     26  H36 <0> d   1      19.393   0.371  18.751  0.00  0.00     0.218 HD
ENDBRANCH  12  25
TORSDOF 4
ENDMDL
