MODEL 1
REMARK VINA RESULT:      -8.1      0.000      0.000
REMARK  1 active torsions:
REMARK  status: ('A' for Active; 'I' for Inactive)
REMARK    1  A    between atoms: C11_11  and  C12_12 
ROOT
ATOM      1  C1  ZIN A   1      18.054   0.281  18.453  0.00  0.00     0.269 C 
ATOM      2  N2  ZIN A   1      18.814   0.136  17.203  0.00  0.00    -0.074 N 
ATOM      3  H3  ZIN A   1      19.794   0.035  17.418  0.00  0.00     0.279 HD
ATOM      4  C4  ZIN A   1      18.618   1.331  16.374  0.00  0.00     0.238 C 
ATOM      5  C5  ZIN A   1      19.541   1.261  15.152  0.00  0.00     0.063 C 
ATOM      6  C6  ZIN A   1      19.284  -0.050  14.438  0.00  0.00    -0.062 C 
ATOM      7  C7  ZIN A   1      19.090  -0.091  13.111  0.00  0.00     0.023 C 
ATOM      8  C8  ZIN A   1      19.128   1.147  12.300  0.00  0.00     0.141 A 
ATOM      9  N9  ZIN A   1      19.988   2.135  12.495  0.00  0.00    -0.240 NA
ATOM     10  C10 ZIN A   1      19.799   3.081  11.586  0.00  0.00     0.151 A 
ATOM     11  C11 ZIN A   1      18.758   2.682  10.769  0.00  0.00     0.091 A 
ATOM     12  N14 ZIN A   1      18.322   1.451  11.259  0.00  0.00    -0.327 N 
ATOM     13  C15 ZIN A   1      17.174   0.737  10.695  0.00  0.00     0.136 C 
ATOM     14  C16 ZIN A   1      16.687  -0.390  11.574  0.00  0.00     0.060 C 
ATOM     15  C17 ZIN A   1      17.667  -1.515  11.693  0.00  0.00    -0.045 A 
ATOM     16  C18 ZIN A   1      17.399  -2.719  11.057  0.00  0.00     0.008 A 
ATOM     17  C19 ZIN A   1      18.297  -3.765  11.152  0.00  0.00     0.001 A 
ATOM     18  C20 ZIN A   1      19.467  -3.627  11.877  0.00  0.00     0.001 A 
ATOM     19  C21 ZIN A   1      19.742  -2.432  12.516  0.00  0.00     0.013 A 
ATOM     20  C22 ZIN A   1      18.838  -1.385  12.419  0.00  0.00    -0.016 A 
ATOM     21  C23 ZIN A   1      19.253  -1.312  15.275  0.00  0.00     0.063 C 
ATOM     22  C24 ZIN A   1      18.348  -1.057  16.487  0.00  0.00     0.238 C 
ENDROOT
BRANCH  11  23
ATOM     23  C12 ZIN A   1      18.240   3.382   9.659  0.00  0.00     0.289 C 
ATOM     24  O13 ZIN A   1      17.876   4.534   9.782  0.00  0.00    -0.300 OA
ENDBRANCH  11  23
TORSDOF 1
ENDMDL
MODEL 2
REMARK VINA RESULT:      -7.9      3.405      5.020
REMARK  1 active torsions:
REMARK  status: ('A' for Active; 'I' for Inactive)
REMARK    1  A    between atoms: C11_11  and  C12_12 
ROOT
ATOM      1  C1  ZIN A   1      17.346  -1.107  16.745  0.00  0.00     0.269 C 
ATOM      2  N2  ZIN A   1      18.212  -0.122  16.083  0.00  0.00    -0.074 N 
ATOM      3  H3  ZIN A   1      19.172  -0.425  16.148  0.00  0.00     0.279 HD
ATOM      4  C4  ZIN A   1      18.067   1.178  16.748  0.00  0.00     0.238 C 
ATOM      5  C5  ZIN A   1      19.093   2.163  16.174  0.00  0.00     0.063 C 
ATOM      6  C6  ZIN A   1      18.922   2.201  14.669  0.00  0.00    -0.062 C 
ATOM      7  C7  ZIN A   1      18.844   3.367  14.009  0.00  0.00     0.023 C 
ATOM      8  C8  ZIN A   1      18.929   4.656  14.734  0.00  0.00     0.141 A 
ATOM      9  N9  ZIN A   1      19.751   4.884  15.747  0.00  0.00    -0.240 NA
ATOM     10  C10 ZIN A   1      19.623   6.139  16.155  0.00  0.00     0.151 A 
ATOM     11  C11 ZIN A   1      18.664   6.745  15.366  0.00  0.00     0.091 A 
ATOM     12  N14 ZIN A   1      18.209   5.771  14.478  0.00  0.00    -0.327 N 
ATOM     13  C15 ZIN A   1      17.128   6.015  13.521  0.00  0.00     0.136 C 
ATOM     14  C16 ZIN A   1      16.587   4.748  12.901  0.00  0.00     0.060 C 
ATOM     15  C17 ZIN A   1      17.574   4.055  12.014  0.00  0.00    -0.045 A 
ATOM     16  C18 ZIN A   1      17.384   4.075  10.640  0.00  0.00     0.008 A 
ATOM     17  C19 ZIN A   1      18.289   3.445   9.808  0.00  0.00     0.001 A 
ATOM     18  C20 ZIN A   1      19.390   2.790  10.330  0.00  0.00     0.001 A 
ATOM     19  C21 ZIN A   1      19.587   2.762  11.698  0.00  0.00     0.013 A 
ATOM     20  C22 ZIN A   1      18.675   3.395  12.531  0.00  0.00    -0.016 A 
ATOM     21  C23 ZIN A   1      18.842   0.878  13.936  0.00  0.00     0.063 C 
ATOM     22  C24 ZIN A   1      17.832  -0.013  14.670  0.00  0.00     0.238 C 
ENDROOT
BRANCH  11  23
ATOM     23  C12 ZIN A   1      18.230   8.086  15.444  0.00  0.00     0.289 C 
ATOM     24  O13 ZIN A   1      18.044   8.603  16.528  0.00  0.00    -0.300 OA
ENDBRANCH  11  23
TORSDOF 1
ENDMDL
MODEL 3
REMARK VINA RESULT:      -7.8      3.415      5.672
REMARK  1 active torsions:
REMARK  status: ('A' for Active; 'I' for Inactive)
REMARK    1  A    between atoms: C11_11  and  C12_12 
ROOT
ATOM      1  C1  ZIN A   1      17.285  -6.497  10.677  0.00  0.00     0.269 C 
ATOM      2  N2  ZIN A   1      18.219  -5.483  10.169  0.00  0.00    -0.074 N 
ATOM      3  H3  ZIN A   1      19.109  -5.916   9.976  0.00  0.00     0.279 HD
ATOM      4  C4  ZIN A   1      18.396  -4.436  11.182  0.00  0.00     0.238 C 
ATOM      5  C5  ZIN A   1      19.497  -3.469  10.730  0.00  0.00     0.063 C 
ATOM      6  C6  ZIN A   1      19.140  -2.957   9.350  0.00  0.00    -0.062 C 
ATOM      7  C7  ZIN A   1      19.185  -1.647   9.062  0.00  0.00     0.023 C 
ATOM      8  C8  ZIN A   1      19.593  -0.659  10.088  0.00  0.00     0.141 A 
ATOM      9  N9  ZIN A   1      20.568  -0.857  10.962  0.00  0.00    -0.240 NA
ATOM     10  C10 ZIN A   1      20.721   0.221  11.717  0.00  0.00     0.151 A 
ATOM     11  C11 ZIN A   1      19.791   1.159  11.309  0.00  0.00     0.091 A 
ATOM     12  N14 ZIN A   1      19.057   0.566  10.282  0.00  0.00    -0.327 N 
ATOM     13  C15 ZIN A   1      17.921   1.228   9.638  0.00  0.00     0.136 C 
ATOM     14  C16 ZIN A   1      17.086   0.290   8.798  0.00  0.00     0.060 C 
ATOM     15  C17 ZIN A   1      17.808  -0.229   7.594  0.00  0.00    -0.045 A 
ATOM     16  C18 ZIN A   1      17.446   0.229   6.335  0.00  0.00     0.008 A 
ATOM     17  C19 ZIN A   1      18.108  -0.235   5.215  0.00  0.00     0.001 A 
ATOM     18  C20 ZIN A   1      19.133  -1.157   5.331  0.00  0.00     0.001 A 
ATOM     19  C21 ZIN A   1      19.499  -1.621   6.581  0.00  0.00     0.013 A 
ATOM     20  C22 ZIN A   1      18.832  -1.153   7.704  0.00  0.00    -0.016 A 
ATOM     21  C23 ZIN A   1      18.730  -3.975   8.306  0.00  0.00     0.063 C 
ATOM     22  C24 ZIN A   1      17.682  -4.904   8.933  0.00  0.00     0.238 C 
ENDROOT
BRANCH  11  23
ATOM     23  C12 ZIN A   1      19.617   2.459  11.830  0.00  0.00     0.289 C 
ATOM     24  O13 ZIN A   1      20.376   3.350  11.506  0.00  0.00    -0.300 OA
ENDBRANCH  11  23
TORSDOF 1
ENDMDL
MODEL 4
REMARK VINA RESULT:      -7.8      2.945      5.750
REMARK  1 active torsions:
REMARK  status: ('A' for Active; 'I' for Inactive)
REMARK    1  A    between atoms: C11_11  and  C12_12 
ROOT
ATOM      1  C1  ZIN A   1      17.009  -6.402   9.594  0.00  0.00     0.269 C 
ATOM      2  N2  ZIN A   1      17.958  -5.345   9.970  0.00  0.00    -0.074 N 
ATOM      3  H3  ZIN A   1      18.900  -5.680   9.836  0.00  0.00     0.279 HD
ATOM      4  C4  ZIN A   1      17.762  -4.995  11.381  0.00  0.00     0.238 C 
ATOM      5  C5  ZIN A   1      18.860  -4.020  11.823  0.00  0.00     0.063 C 
ATOM      6  C6  ZIN A   1      18.855  -2.839  10.874  0.00  0.00    -0.062 C 
ATOM      7  C7  ZIN A   1      18.868  -1.579  11.335  0.00  0.00     0.023 C 
ATOM      8  C8  ZIN A   1      18.894  -1.303  12.789  0.00  0.00     0.141 A 
ATOM      9  N9  ZIN A   1      19.604  -2.000  13.663  0.00  0.00    -0.240 NA
ATOM     10  C10 ZIN A   1      19.453  -1.486  14.876  0.00  0.00     0.151 A 
ATOM     11  C11 ZIN A   1      18.596  -0.407  14.775  0.00  0.00     0.091 A 
ATOM     12  N14 ZIN A   1      18.225  -0.321  13.433  0.00  0.00    -0.327 N 
ATOM     13  C15 ZIN A   1      17.258   0.662  12.941  0.00  0.00     0.136 C 
ATOM     14  C16 ZIN A   1      16.768   0.364  11.544  0.00  0.00     0.060 C 
ATOM     15  C17 ZIN A   1      17.834   0.495  10.501  0.00  0.00    -0.045 A 
ATOM     16  C18 ZIN A   1      17.796   1.567   9.622  0.00  0.00     0.008 A 
ATOM     17  C19 ZIN A   1      18.776   1.706   8.658  0.00  0.00     0.001 A 
ATOM     18  C20 ZIN A   1      19.803   0.784   8.558  0.00  0.00     0.001 A 
ATOM     19  C21 ZIN A   1      19.849  -0.289   9.429  0.00  0.00     0.013 A 
ATOM     20  C22 ZIN A   1      18.862  -0.425  10.394  0.00  0.00    -0.016 A 
ATOM     21  C23 ZIN A   1      18.834  -3.131   9.388  0.00  0.00     0.063 C 
ATOM     22  C24 ZIN A   1      17.736  -4.168   9.122  0.00  0.00     0.238 C 
ENDROOT
BRANCH  11  23
ATOM     23  C12 ZIN A   1      18.177   0.440  15.823  0.00  0.00     0.289 C 
ATOM     24  O13 ZIN A   1      17.213   0.141  16.499  0.00  0.00    -0.300 OA
ENDBRANCH  11  23
TORSDOF 1
ENDMDL
MODEL 5
REMARK VINA RESULT:      -7.8      2.626      4.743
REMARK  1 active torsions:
REMARK  status: ('A' for Active; 'I' for Inactive)
REMARK    1  A    between atoms: C11_11  and  C12_12 
ROOT
ATOM      1  C1  ZIN A   1      19.442   0.334  18.175  0.00  0.00     0.269 C 
ATOM      2  N2  ZIN A   1      18.653   0.224  16.941  0.00  0.00    -0.074 N 
ATOM      3  H3  ZIN A   1      17.671   0.255  17.168  0.00  0.00     0.279 HD
ATOM      4  C4  ZIN A   1      18.959  -1.051  16.280  0.00  0.00     0.238 C 
ATOM      5  C5  ZIN A   1      18.015  -1.248  15.088  0.00  0.00     0.063 C 
ATOM      6  C6  ZIN A   1      18.125  -0.031  14.192  0.00  0.00    -0.062 C 
ATOM      7  C7  ZIN A   1      18.293  -0.159  12.866  0.00  0.00     0.023 C 
ATOM      8  C8  ZIN A   1      18.371  -1.497  12.237  0.00  0.00     0.141 A 
ATOM      9  N9  ZIN A   1      17.621  -2.529  12.593  0.00  0.00    -0.240 NA
ATOM     10  C10 ZIN A   1      17.894  -3.570  11.820  0.00  0.00     0.151 A 
ATOM     11  C11 ZIN A   1      18.875  -3.188  10.925  0.00  0.00     0.091 A 
ATOM     12  N14 ZIN A   1      19.190  -1.863  11.226  0.00  0.00    -0.327 N 
ATOM     13  C15 ZIN A   1      20.248  -1.125  10.534  0.00  0.00     0.136 C 
ATOM     14  C16 ZIN A   1      20.630   0.159  11.233  0.00  0.00     0.060 C 
ATOM     15  C17 ZIN A   1      19.541   1.186  11.223  0.00  0.00    -0.045 A 
ATOM     16  C18 ZIN A   1      19.673   2.308  10.418  0.00  0.00     0.008 A 
ATOM     17  C19 ZIN A   1      18.673   3.261  10.393  0.00  0.00     0.001 A 
ATOM     18  C20 ZIN A   1      17.534   3.111  11.163  0.00  0.00     0.001 A 
ATOM     19  C21 ZIN A   1      17.394   1.997  11.970  0.00  0.00     0.013 A 
ATOM     20  C22 ZIN A   1      18.401   1.042  11.994  0.00  0.00    -0.016 A 
ATOM     21  C23 ZIN A   1      18.038   1.333  14.844  0.00  0.00     0.063 C 
ATOM     22  C24 ZIN A   1      18.982   1.345  16.052  0.00  0.00     0.238 C 
ENDROOT
BRANCH  11  23
ATOM     23  C12 ZIN A   1      19.447  -3.982   9.908  0.00  0.00     0.289 C 
ATOM     24  O13 ZIN A   1      19.871  -5.091  10.168  0.00  0.00    -0.300 OA
ENDBRANCH  11  23
TORSDOF 1
ENDMDL
MODEL 6
REMARK VINA RESULT:      -7.8      2.806      5.838
REMARK  1 active torsions:
REMARK  status: ('A' for Active; 'I' for Inactive)
REMARK    1  A    between atoms: C11_11  and  C12_12 
ROOT
ATOM      1  C1  ZIN A   1      19.472  -0.547   4.656  0.00  0.00     0.269 C 
ATOM      2  N2  ZIN A   1      18.693  -0.298   5.876  0.00  0.00    -0.074 N 
ATOM      3  H3  ZIN A   1      17.710  -0.295   5.651  0.00  0.00     0.279 HD
ATOM      4  C4  ZIN A   1      19.069   1.006   6.435  0.00  0.00     0.238 C 
ATOM      5  C5  ZIN A   1      18.140   1.346   7.607  0.00  0.00     0.063 C 
ATOM      6  C6  ZIN A   1      18.187   0.200   8.596  0.00  0.00    -0.062 C 
ATOM      7  C7  ZIN A   1      18.365   0.422   9.908  0.00  0.00     0.023 C 
ATOM      8  C8  ZIN A   1      18.516   1.799  10.430  0.00  0.00     0.141 A 
ATOM      9  N9  ZIN A   1      17.822   2.838   9.993  0.00  0.00    -0.240 NA
ATOM     10  C10 ZIN A   1      18.151   3.921  10.682  0.00  0.00     0.151 A 
ATOM     11  C11 ZIN A   1      19.113   3.559  11.606  0.00  0.00     0.091 A 
ATOM     12  N14 ZIN A   1      19.356   2.199  11.411  0.00  0.00    -0.327 N 
ATOM     13  C15 ZIN A   1      20.375   1.462  12.160  0.00  0.00     0.136 C 
ATOM     14  C16 ZIN A   1      20.686   0.109  11.564  0.00  0.00     0.060 C 
ATOM     15  C17 ZIN A   1      19.543  -0.854  11.654  0.00  0.00    -0.045 A 
ATOM     16  C18 ZIN A   1      19.617  -1.915  12.544  0.00  0.00     0.008 A 
ATOM     17  C19 ZIN A   1      18.568  -2.809  12.643  0.00  0.00     0.001 A 
ATOM     18  C20 ZIN A   1      17.437  -2.659  11.861  0.00  0.00     0.001 A 
ATOM     19  C21 ZIN A   1      17.354  -1.606  10.969  0.00  0.00     0.013 A 
ATOM     20  C22 ZIN A   1      18.410  -0.711  10.872  0.00  0.00    -0.016 A 
ATOM     21  C23 ZIN A   1      18.025  -1.205   8.053  0.00  0.00     0.063 C 
ATOM     22  C24 ZIN A   1      18.964  -1.362   6.851  0.00  0.00     0.238 C 
ENDROOT
BRANCH  11  23
ATOM     23  C12 ZIN A   1      19.729   4.399  12.559  0.00  0.00     0.289 C 
ATOM     24  O13 ZIN A   1      19.066   4.906  13.441  0.00  0.00    -0.300 OA
ENDBRANCH  11  23
TORSDOF 1
ENDMDL
MODEL 7
REMARK VINA RESULT:      -7.4      4.606      6.949
REMARK  1 active torsions:
REMARK  status: ('A' for Active; 'I' for Inactive)
REMARK    1  A    between atoms: C11_11  and  C12_12 
ROOT
ATOM      1  C1  ZIN A   1      20.366   0.237  13.120  0.00  0.00     0.269 C 
ATOM      2  N2  ZIN A   1      19.318  -0.175  12.176  0.00  0.00    -0.074 N 
ATOM      3  H3  ZIN A   1      18.430   0.191  12.483  0.00  0.00     0.279 HD
ATOM      4  C4  ZIN A   1      19.252  -1.641  12.132  0.00  0.00     0.238 C 
ATOM      5  C5  ZIN A   1      18.050  -2.072  11.284  0.00  0.00     0.063 C 
ATOM      6  C6  ZIN A   1      18.163  -1.406   9.928  0.00  0.00    -0.062 C 
ATOM      7  C7  ZIN A   1      18.012  -2.108   8.795  0.00  0.00     0.023 C 
ATOM      8  C8  ZIN A   1      17.723  -3.560   8.836  0.00  0.00     0.141 A 
ATOM      9  N9  ZIN A   1      16.907  -4.130   9.709  0.00  0.00    -0.240 NA
ATOM     10  C10 ZIN A   1      16.822  -5.430   9.464  0.00  0.00     0.151 A 
ATOM     11  C11 ZIN A   1      17.633  -5.710   8.381  0.00  0.00     0.091 A 
ATOM     12  N14 ZIN A   1      18.225  -4.503   8.008  0.00  0.00    -0.327 N 
ATOM     13  C15 ZIN A   1      19.215  -4.406   6.933  0.00  0.00     0.136 C 
ATOM     14  C16 ZIN A   1      19.951  -3.087   6.923  0.00  0.00     0.060 C 
ATOM     15  C17 ZIN A   1      19.076  -1.922   6.582  0.00  0.00    -0.045 A 
ATOM     16  C18 ZIN A   1      19.215  -1.306   5.347  0.00  0.00     0.008 A 
ATOM     17  C19 ZIN A   1      18.410  -0.233   5.016  0.00  0.00     0.001 A 
ATOM     18  C20 ZIN A   1      17.460   0.237   5.904  0.00  0.00     0.001 A 
ATOM     19  C21 ZIN A   1      17.315  -0.369   7.138  0.00  0.00     0.013 A 
ATOM     20  C22 ZIN A   1      18.126  -1.445   7.468  0.00  0.00    -0.016 A 
ATOM     21  C23 ZIN A   1      18.453   0.080   9.898  0.00  0.00     0.063 C 
ATOM     22  C24 ZIN A   1      19.628   0.356  10.844  0.00  0.00     0.238 C 
ENDROOT
BRANCH  11  23
ATOM     23  C12 ZIN A   1      17.825  -6.969   7.771  0.00  0.00     0.289 C 
ATOM     24  O13 ZIN A   1      17.123  -7.306   6.839  0.00  0.00    -0.300 OA
ENDBRANCH  11  23
TORSDOF 1
ENDMDL
MODEL 8
REMARK VINA RESULT:      -7.3      2.892      5.595
REMARK  1 active torsions:
REMARK  status: ('A' for Active; 'I' for Inactive)
REMARK    1  A    between atoms: C11_11  and  C12_12 
ROOT
ATOM      1  C1  ZIN A   1      20.376  -0.155   9.918  0.00  0.00     0.269 C 
ATOM      2  N2  ZIN A   1      19.332   0.238  10.874  0.00  0.00    -0.074 N 
ATOM      3  H3  ZIN A   1      18.437  -0.089  10.544  0.00  0.00     0.279 HD
ATOM      4  C4  ZIN A   1      19.304   1.701  10.989  0.00  0.00     0.238 C 
ATOM      5  C5  ZIN A   1      18.107   2.123  11.850  0.00  0.00     0.063 C 
ATOM      6  C6  ZIN A   1      18.193   1.389  13.172  0.00  0.00    -0.062 C 
ATOM      7  C7  ZIN A   1      18.051   2.039  14.337  0.00  0.00     0.023 C 
ATOM      8  C8  ZIN A   1      17.801   3.498  14.366  0.00  0.00     0.141 A 
ATOM      9  N9  ZIN A   1      17.006   4.131  13.516  0.00  0.00    -0.240 NA
ATOM     10  C10 ZIN A   1      16.954   5.419  13.824  0.00  0.00     0.151 A 
ATOM     11  C11 ZIN A   1      17.764   5.625  14.925  0.00  0.00     0.091 A 
ATOM     12  N14 ZIN A   1      18.321   4.386  15.242  0.00  0.00    -0.327 N 
ATOM     13  C15 ZIN A   1      19.300   4.211  16.317  0.00  0.00     0.136 C 
ATOM     14  C16 ZIN A   1      20.002   2.874  16.268  0.00  0.00     0.060 C 
ATOM     15  C17 ZIN A   1      19.093   1.717  16.546  0.00  0.00    -0.045 A 
ATOM     16  C18 ZIN A   1      19.207   1.038  17.749  0.00  0.00     0.008 A 
ATOM     17  C19 ZIN A   1      18.372  -0.028  18.023  0.00  0.00     0.001 A 
ATOM     18  C20 ZIN A   1      17.416  -0.429  17.107  0.00  0.00     0.001 A 
ATOM     19  C21 ZIN A   1      17.296   0.240  15.903  0.00  0.00     0.013 A 
ATOM     20  C22 ZIN A   1      18.138   1.309  15.632  0.00  0.00    -0.016 A 
ATOM     21  C23 ZIN A   1      18.443  -0.104  13.132  0.00  0.00     0.063 C 
ATOM     22  C24 ZIN A   1      19.618  -0.365  12.181  0.00  0.00     0.238 C 
ENDROOT
BRANCH  11  23
ATOM     23  C12 ZIN A   1      17.984   6.847  15.596  0.00  0.00     0.289 C 
ATOM     24  O13 ZIN A   1      18.877   7.587  15.233  0.00  0.00    -0.300 OA
ENDBRANCH  11  23
TORSDOF 1
ENDMDL
MODEL 9
REMARK VINA RESULT:      -7.1      5.831      9.280
REMARK  1 active torsions:
REMARK  status: ('A' for Active; 'I' for Inactive)
REMARK    1  A    between atoms: C11_11  and  C12_12 
ROOT
ATOM      1  C1  ZIN A   1      14.981  -5.184   2.929  0.00  0.00     0.269 C 
ATOM      2  N2  ZIN A   1      16.276  -4.747   3.468  0.00  0.00    -0.074 N 
ATOM      3  H3  ZIN A   1      17.012  -5.027   2.838  0.00  0.00     0.279 HD
ATOM      4  C4  ZIN A   1      16.493  -5.373   4.778  0.00  0.00     0.238 C 
ATOM      5  C5  ZIN A   1      17.912  -5.059   5.265  0.00  0.00     0.063 C 
ATOM      6  C6  ZIN A   1      18.097  -3.556   5.247  0.00  0.00    -0.062 C 
ATOM      7  C7  ZIN A   1      18.609  -2.907   6.305  0.00  0.00     0.023 C 
ATOM      8  C8  ZIN A   1      19.017  -3.644   7.523  0.00  0.00     0.141 A 
ATOM      9  N9  ZIN A   1      19.625  -4.821   7.508  0.00  0.00    -0.240 NA
ATOM     10  C10 ZIN A   1      19.896  -5.201   8.749  0.00  0.00     0.151 A 
ATOM     11  C11 ZIN A   1      19.431  -4.220   9.604  0.00  0.00     0.091 A 
ATOM     12  N14 ZIN A   1      18.845  -3.241   8.801  0.00  0.00    -0.327 N 
ATOM     13  C15 ZIN A   1      18.170  -2.065   9.353  0.00  0.00     0.136 C 
ATOM     14  C16 ZIN A   1      17.338  -1.326   8.332  0.00  0.00     0.060 C 
ATOM     15  C17 ZIN A   1      18.155  -0.681   7.256  0.00  0.00    -0.045 A 
ATOM     16  C18 ZIN A   1      18.288   0.699   7.239  0.00  0.00     0.008 A 
ATOM     17  C19 ZIN A   1      19.044   1.308   6.256  0.00  0.00     0.001 A 
ATOM     18  C20 ZIN A   1      19.675   0.555   5.283  0.00  0.00     0.001 A 
ATOM     19  C21 ZIN A   1      19.548  -0.822   5.290  0.00  0.00     0.013 A 
ATOM     20  C22 ZIN A   1      18.787  -1.429   6.278  0.00  0.00    -0.016 A 
ATOM     21  C23 ZIN A   1      17.683  -2.811   3.995  0.00  0.00     0.063 C 
ATOM     22  C24 ZIN A   1      16.279  -3.286   3.601  0.00  0.00     0.238 C 
ENDROOT
BRANCH  11  23
ATOM     23  C12 ZIN A   1      19.530  -4.210  11.012  0.00  0.00     0.289 C 
ATOM     24  O13 ZIN A   1      18.623  -4.651  11.688  0.00  0.00    -0.300 OA
ENDBRANCH  11  23
TORSDOF 1
ENDMDL
