MODEL 1
REMARK VINA RESULT:      -8.8      0.000      0.000
REMARK  6 active torsions:
REMARK  status: ('A' for Active; 'I' for Inactive)
REMARK    1  A    between atoms: C5_5  and  C6_6 
REMARK    2  A    between atoms: C6_6  and  C15_15 
REMARK    3  A    between atoms: C7_7  and  C8_8 
REMARK    4  A    between atoms: C8_8  and  N9_9 
REMARK    5  A    between atoms: C19_19  and  C20_20 
REMARK    6  A    between atoms: C21_21  and  C22_22 
ROOT
ATOM      1  C6  <0> d   1      18.853   2.152  11.004  0.00  0.00     0.001 C 
ATOM      2  C7  <0> d   1      19.767   1.613  11.819  0.00  0.00     0.015 C 
ENDROOT
BRANCH   1   3
ATOM      3  C5  <0> d   1      18.574   1.530   9.688  0.00  0.00    -0.024 A 
ATOM      4  C4  <0> d   1      17.588   0.553   9.569  0.00  0.00     0.013 A 
ATOM      5  C3  <0> d   1      17.333  -0.023   8.341  0.00  0.00     0.007 A 
ATOM      6  C2  <0> d   1      18.054   0.369   7.228  0.00  0.00    -0.062 A 
ATOM      7  C1  <0> d   1      17.770  -0.263   5.889  0.00  0.00     0.048 C 
ATOM      8  C27 <0> d   1      19.038   1.336   7.339  0.00  0.00     0.007 A 
ATOM      9  C26 <0> d   1      19.298   1.922   8.561  0.00  0.00     0.013 A 
ENDBRANCH   1   3
BRANCH   1  10
ATOM     10  C15 <0> d   1      18.119   3.372  11.419  0.00  0.00     0.068 A 
ATOM     11  N25 <0> d   1      17.910   3.605  12.705  0.00  0.00    -0.248 NA
ATOM     12  C19 <0> d   1      17.262   4.689  13.118  0.00  0.00     0.057 A 
ATOM     13  C18 <0> d   1      16.768   5.616  12.198  0.00  0.00     0.031 A 
ATOM     14  C17 <0> d   1      16.967   5.397  10.842  0.00  0.00     0.005 A 
ATOM     15  C16 <0> d   1      17.651   4.260  10.448  0.00  0.00     0.032 A 
BRANCH  12  16
ATOM     16  C20 <0> d   1      17.057   4.911  14.560  0.00  0.00     0.038 C 
ATOM     17  C21 <0> d   1      18.072   5.364  15.324  0.00  0.00     0.086 C 
BRANCH  17  18
ATOM     18  C22 <0> d   1      19.162   6.125  14.714  0.00  0.00     0.198 C 
ATOM     19  O23 <0> d   1      20.139   5.540  14.263  0.00  0.00    -0.645 OA
ATOM     20  O24 <0> d   1      19.097   7.346  14.656  0.00  0.00    -0.645 OA
ENDBRANCH  17  18
ENDBRANCH  12  16
ENDBRANCH   1  10
BRANCH   2  21
ATOM     21  C8  <0> d   1      20.514   0.373  11.399  0.00  0.00     0.263 C 
BRANCH  21  22
ATOM     22  N9  <0> d   1      20.355  -0.666  12.424  0.00  0.00    -0.068 N 
ATOM     23  H10 <0> d   1      21.216  -1.181  12.536  0.00  0.00     0.280 HD
ATOM     24  C14 <0> d   1      19.255  -1.584  12.055  0.00  0.00     0.235 C 
ATOM     25  C13 <0> d   1      18.551  -1.993  13.362  0.00  0.00     0.029 C 
ATOM     26  C12 <0> d   1      19.299  -1.231  14.480  0.00  0.00     0.029 C 
ATOM     27  C11 <0> d   1      19.956  -0.053  13.717  0.00  0.00     0.235 C 
ENDBRANCH  21  22
ENDBRANCH   2  21
TORSDOF 6
ENDMDL
MODEL 2
REMARK VINA RESULT:      -8.5      4.259      8.422
REMARK  6 active torsions:
REMARK  status: ('A' for Active; 'I' for Inactive)
REMARK    1  A    between atoms: C5_5  and  C6_6 
REMARK    2  A    between atoms: C6_6  and  C15_15 
REMARK    3  A    between atoms: C7_7  and  C8_8 
REMARK    4  A    between atoms: C8_8  and  N9_9 
REMARK    5  A    between atoms: C19_19  and  C20_20 
REMARK    6  A    between atoms: C21_21  and  C22_22 
ROOT
ATOM      1  C6  <0> d   1      19.195  -1.594  12.008  0.00  0.00     0.001 C 
ATOM      2  C7  <0> d   1      20.008  -0.822  11.279  0.00  0.00     0.015 C 
ENDROOT
BRANCH   1   3
ATOM      3  C5  <0> d   1      18.764  -1.151  13.356  0.00  0.00    -0.024 A 
ATOM      4  C4  <0> d   1      17.741  -0.215  13.491  0.00  0.00     0.013 A 
ATOM      5  C3  <0> d   1      17.344   0.195  14.748  0.00  0.00     0.007 A 
ATOM      6  C2  <0> d   1      17.960  -0.324  15.873  0.00  0.00    -0.062 A 
ATOM      7  C1  <0> d   1      17.521   0.126  17.244  0.00  0.00     0.048 C 
ATOM      8  C27 <0> d   1      18.980  -1.250  15.745  0.00  0.00     0.007 A 
ATOM      9  C26 <0> d   1      19.381  -1.671  14.494  0.00  0.00     0.013 A 
ENDBRANCH   1   3
BRANCH   1  10
ATOM     10  C15 <0> d   1      18.726  -2.893  11.469  0.00  0.00     0.068 A 
ATOM     11  N25 <0> d   1      19.510  -3.588  10.660  0.00  0.00    -0.248 NA
ATOM     12  C19 <0> d   1      19.129  -4.759  10.161  0.00  0.00     0.057 A 
ATOM     13  C18 <0> d   1      17.874  -5.289  10.469  0.00  0.00     0.031 A 
ATOM     14  C17 <0> d   1      17.027  -4.582  11.309  0.00  0.00     0.005 A 
ATOM     15  C16 <0> d   1      17.459  -3.368  11.816  0.00  0.00     0.032 A 
BRANCH  12  16
ATOM     16  C20 <0> d   1      20.036  -5.502   9.269  0.00  0.00     0.038 C 
ATOM     17  C21 <0> d   1      19.841  -5.475   7.934  0.00  0.00     0.086 C 
BRANCH  17  18
ATOM     18  C22 <0> d   1      19.129  -4.354   7.322  0.00  0.00     0.198 C 
ATOM     19  O23 <0> d   1      19.711  -3.296   7.119  0.00  0.00    -0.645 OA
ATOM     20  O24 <0> d   1      17.950  -4.474   7.014  0.00  0.00    -0.645 OA
ENDBRANCH  17  18
ENDBRANCH  12  16
ENDBRANCH   1  10
BRANCH   2  21
ATOM     21  C8  <0> d   1      20.487   0.499  11.825  0.00  0.00     0.263 C 
BRANCH  21  22
ATOM     22  N9  <0> d   1      20.195   1.564  10.858  0.00  0.00    -0.068 N 
ATOM     23  H10 <0> d   1      21.050   2.017  10.569  0.00  0.00     0.280 HD
ATOM     24  C14 <0> d   1      19.269   2.553  11.452  0.00  0.00     0.235 C 
ATOM     25  C13 <0> d   1      18.339   3.036  10.323  0.00  0.00     0.029 C 
ATOM     26  C12 <0> d   1      18.777   2.240   9.071  0.00  0.00     0.029 C 
ATOM     27  C11 <0> d   1      19.489   1.005   9.677  0.00  0.00     0.235 C 
ENDBRANCH  21  22
ENDBRANCH   2  21
TORSDOF 6
ENDMDL
MODEL 3
REMARK VINA RESULT:      -8.4      2.454      5.331
REMARK  6 active torsions:
REMARK  status: ('A' for Active; 'I' for Inactive)
REMARK    1  A    between atoms: C5_5  and  C6_6 
REMARK    2  A    between atoms: C6_6  and  C15_15 
REMARK    3  A    between atoms: C7_7  and  C8_8 
REMARK    4  A    between atoms: C8_8  and  N9_9 
REMARK    5  A    between atoms: C19_19  and  C20_20 
REMARK    6  A    between atoms: C21_21  and  C22_22 
ROOT
ATOM      1  C6  <0> d   1      18.040   1.688  12.577  0.00  0.00     0.001 C 
ATOM      2  C7  <0> d   1      17.660   2.914  12.954  0.00  0.00     0.015 C 
ENDROOT
BRANCH   1   3
ATOM      3  C5  <0> d   1      18.172   1.363  11.137  0.00  0.00    -0.024 A 
ATOM      4  C4  <0> d   1      19.212   1.910  10.388  0.00  0.00     0.013 A 
ATOM      5  C3  <0> d   1      19.330   1.604   9.047  0.00  0.00     0.007 A 
ATOM      6  C2  <0> d   1      18.417   0.756   8.447  0.00  0.00    -0.062 A 
ATOM      7  C1  <0> d   1      18.551   0.425   6.981  0.00  0.00     0.048 C 
ATOM      8  C27 <0> d   1      17.379   0.213   9.183  0.00  0.00     0.007 A 
ATOM      9  C26 <0> d   1      17.255   0.508  10.526  0.00  0.00     0.013 A 
ENDBRANCH   1   3
BRANCH   1  10
ATOM     10  C15 <0> d   1      18.329   0.654  13.600  0.00  0.00     0.068 A 
ATOM     11  N25 <0> d   1      17.662   0.660  14.744  0.00  0.00    -0.248 NA
ATOM     12  C19 <0> d   1      17.887  -0.252  15.683  0.00  0.00     0.057 A 
ATOM     13  C18 <0> d   1      18.850  -1.246  15.494  0.00  0.00     0.031 A 
ATOM     14  C17 <0> d   1      19.569  -1.276  14.308  0.00  0.00     0.005 A 
ATOM     15  C16 <0> d   1      19.304  -0.313  13.349  0.00  0.00     0.032 A 
BRANCH  12  16
ATOM     16  C20 <0> d   1      17.118  -0.211  16.939  0.00  0.00     0.038 C 
ATOM     17  C21 <0> d   1      17.691   0.262  18.066  0.00  0.00     0.086 C 
BRANCH  17  18
ATOM     18  C22 <0> d   1      18.812   1.196  17.979  0.00  0.00     0.198 C 
ATOM     19  O23 <0> d   1      19.931   0.845  18.330  0.00  0.00    -0.645 OA
ATOM     20  O24 <0> d   1      18.630   2.331  17.555  0.00  0.00    -0.645 OA
ENDBRANCH  17  18
ENDBRANCH  12  16
ENDBRANCH   1  10
BRANCH   2  21
ATOM     21  C8  <0> d   1      17.365   3.965  11.916  0.00  0.00     0.263 C 
BRANCH  21  22
ATOM     22  N9  <0> d   1      17.543   5.299  12.505  0.00  0.00    -0.068 N 
ATOM     23  H10 <0> d   1      17.829   5.959  11.797  0.00  0.00     0.280 HD
ATOM     24  C14 <0> d   1      18.547   5.248  13.590  0.00  0.00     0.235 C 
ATOM     25  C13 <0> d   1      18.087   6.237  14.678  0.00  0.00     0.029 C 
ATOM     26  C12 <0> d   1      16.755   6.822  14.155  0.00  0.00     0.029 C 
ATOM     27  C11 <0> d   1      16.279   5.749  13.143  0.00  0.00     0.235 C 
ENDBRANCH  21  22
ENDBRANCH   2  21
TORSDOF 6
ENDMDL
MODEL 4
REMARK VINA RESULT:      -8.3      4.841      7.590
REMARK  6 active torsions:
REMARK  status: ('A' for Active; 'I' for Inactive)
REMARK    1  A    between atoms: C5_5  and  C6_6 
REMARK    2  A    between atoms: C6_6  and  C15_15 
REMARK    3  A    between atoms: C7_7  and  C8_8 
REMARK    4  A    between atoms: C8_8  and  N9_9 
REMARK    5  A    between atoms: C19_19  and  C20_20 
REMARK    6  A    between atoms: C21_21  and  C22_22 
ROOT
ATOM      1  C6  <0> d   1      18.060  -1.689  10.518  0.00  0.00     0.001 C 
ATOM      2  C7  <0> d   1      17.654  -2.926  10.210  0.00  0.00     0.015 C 
ENDROOT
BRANCH   1   3
ATOM      3  C5  <0> d   1      18.244  -1.301  11.938  0.00  0.00    -0.024 A 
ATOM      4  C4  <0> d   1      17.333  -0.445  12.554  0.00  0.00     0.013 A 
ATOM      5  C3  <0> d   1      17.511  -0.087  13.875  0.00  0.00     0.007 A 
ATOM      6  C2  <0> d   1      18.591  -0.576  14.587  0.00  0.00    -0.062 A 
ATOM      7  C1  <0> d   1      18.778  -0.182  16.030  0.00  0.00     0.048 C 
ATOM      8  C27 <0> d   1      19.501  -1.422  13.980  0.00  0.00     0.007 A 
ATOM      9  C26 <0> d   1      19.331  -1.792  12.661  0.00  0.00     0.013 A 
ENDBRANCH   1   3
BRANCH   1  10
ATOM     10  C15 <0> d   1      18.326  -0.706   9.441  0.00  0.00     0.068 A 
ATOM     11  N25 <0> d   1      17.675  -0.802   8.292  0.00  0.00    -0.248 NA
ATOM     12  C19 <0> d   1      17.880   0.061   7.303  0.00  0.00     0.057 A 
ATOM     13  C18 <0> d   1      18.804   1.099   7.445  0.00  0.00     0.031 A 
ATOM     14  C17 <0> d   1      19.505   1.223   8.636  0.00  0.00     0.005 A 
ATOM     15  C16 <0> d   1      19.263   0.309   9.646  0.00  0.00     0.032 A 
BRANCH  12  16
ATOM     16  C20 <0> d   1      17.130  -0.080   6.043  0.00  0.00     0.038 C 
ATOM     17  C21 <0> d   1      17.752  -0.534   4.935  0.00  0.00     0.086 C 
BRANCH  17  18
ATOM     18  C22 <0> d   1      18.946  -1.368   5.058  0.00  0.00     0.198 C 
ATOM     19  O23 <0> d   1      20.036  -0.932   4.709  0.00  0.00    -0.645 OA
ATOM     20  O24 <0> d   1      18.856  -2.502   5.510  0.00  0.00    -0.645 OA
ENDBRANCH  17  18
ENDBRANCH  12  16
ENDBRANCH   1  10
BRANCH   2  21
ATOM     21  C8  <0> d   1      17.383  -3.926  11.305  0.00  0.00     0.263 C 
BRANCH  21  22
ATOM     22  N9  <0> d   1      17.465  -5.286  10.757  0.00  0.00    -0.068 N 
ATOM     23  H10 <0> d   1      17.453  -5.965  11.504  0.00  0.00     0.280 HD
ATOM     24  C14 <0> d   1      18.695  -5.438   9.949  0.00  0.00     0.235 C 
ATOM     25  C13 <0> d   1      18.348  -6.364   8.768  0.00  0.00     0.029 C 
ATOM     26  C12 <0> d   1      16.848  -6.697   8.943  0.00  0.00     0.029 C 
ATOM     27  C11 <0> d   1      16.334  -5.531   9.825  0.00  0.00     0.235 C 
ENDBRANCH  21  22
ENDBRANCH   2  21
TORSDOF 6
ENDMDL
MODEL 5
REMARK VINA RESULT:      -8.2      2.506      5.111
REMARK  6 active torsions:
REMARK  status: ('A' for Active; 'I' for Inactive)
REMARK    1  A    between atoms: C5_5  and  C6_6 
REMARK    2  A    between atoms: C6_6  and  C15_15 
REMARK    3  A    between atoms: C7_7  and  C8_8 
REMARK    4  A    between atoms: C8_8  and  N9_9 
REMARK    5  A    between atoms: C19_19  and  C20_20 
REMARK    6  A    between atoms: C21_21  and  C22_22 
ROOT
ATOM      1  C6  <0> d   1      17.941  -0.367  11.510  0.00  0.00     0.001 C 
ATOM      2  C7  <0> d   1      17.536  -1.421  10.792  0.00  0.00     0.015 C 
ENDROOT
BRANCH   1   3
ATOM      3  C5  <0> d   1      18.230  -0.521  12.956  0.00  0.00    -0.024 A 
ATOM      4  C4  <0> d   1      19.364  -1.214  13.374  0.00  0.00     0.013 A 
ATOM      5  C3  <0> d   1      19.627  -1.355  14.721  0.00  0.00     0.007 A 
ATOM      6  C2  <0> d   1      18.767  -0.808  15.656  0.00  0.00    -0.062 A 
ATOM      7  C1  <0> d   1      19.061  -0.964  17.127  0.00  0.00     0.048 C 
ATOM      8  C27 <0> d   1      17.637  -0.123  15.248  0.00  0.00     0.007 A 
ATOM      9  C26 <0> d   1      17.367   0.028  13.904  0.00  0.00     0.013 A 
ENDBRANCH   1   3
BRANCH   1  10
ATOM     10  C15 <0> d   1      18.101   0.956  10.858  0.00  0.00     0.068 A 
ATOM     11  N25 <0> d   1      17.534   2.024  11.397  0.00  0.00    -0.248 NA
ATOM     12  C19 <0> d   1      17.658   3.227  10.848  0.00  0.00     0.057 A 
ATOM     13  C18 <0> d   1      18.389   3.400   9.670  0.00  0.00     0.031 A 
ATOM     14  C17 <0> d   1      18.991   2.299   9.079  0.00  0.00     0.005 A 
ATOM     15  C16 <0> d   1      18.845   1.061   9.681  0.00  0.00     0.032 A 
BRANCH  12  16
ATOM     16  C20 <0> d   1      17.014   4.389  11.484  0.00  0.00     0.038 C 
ATOM     17  C21 <0> d   1      17.399   4.784  12.715  0.00  0.00     0.086 C 
BRANCH  17  18
ATOM     18  C22 <0> d   1      18.739   4.457  13.201  0.00  0.00     0.198 C 
ATOM     19  O23 <0> d   1      19.717   5.024  12.731  0.00  0.00    -0.645 OA
ATOM     20  O24 <0> d   1      18.882   3.616  14.080  0.00  0.00    -0.645 OA
ENDBRANCH  17  18
ENDBRANCH  12  16
ENDBRANCH   1  10
BRANCH   2  21
ATOM     21  C8  <0> d   1      17.373  -2.765  11.453  0.00  0.00     0.263 C 
BRANCH  21  22
ATOM     22  N9  <0> d   1      17.358  -3.817  10.428  0.00  0.00    -0.068 N 
ATOM     23  H10 <0> d   1      16.963  -3.462   9.569  0.00  0.00     0.280 HD
ATOM     24  C14 <0> d   1      16.581  -4.983  10.903  0.00  0.00     0.235 C 
ATOM     25  C13 <0> d   1      17.276  -6.243  10.354  0.00  0.00     0.029 C 
ATOM     26  C12 <0> d   1      18.501  -5.719   9.569  0.00  0.00     0.029 C 
ATOM     27  C11 <0> d   1      18.736  -4.317  10.188  0.00  0.00     0.235 C 
ENDBRANCH  21  22
ENDBRANCH   2  21
TORSDOF 6
ENDMDL
MODEL 6
REMARK VINA RESULT:      -8.1      4.140      6.726
REMARK  6 active torsions:
REMARK  status: ('A' for Active; 'I' for Inactive)
REMARK    1  A    between atoms: C5_5  and  C6_6 
REMARK    2  A    between atoms: C6_6  and  C15_15 
REMARK    3  A    between atoms: C7_7  and  C8_8 
REMARK    4  A    between atoms: C8_8  and  N9_9 
REMARK    5  A    between atoms: C19_19  and  C20_20 
REMARK    6  A    between atoms: C21_21  and  C22_22 
ROOT
ATOM      1  C6  <0> d   1      19.428  -0.205  10.560  0.00  0.00     0.001 C 
ATOM      2  C7  <0> d   1      20.143   0.525  11.423  0.00  0.00     0.015 C 
ENDROOT
BRANCH   1   3
ATOM      3  C5  <0> d   1      18.965  -1.561  10.941  0.00  0.00    -0.024 A 
ATOM      4  C4  <0> d   1      17.672  -1.749  11.425  0.00  0.00     0.013 A 
ATOM      5  C3  <0> d   1      17.247  -3.014  11.779  0.00  0.00     0.007 A 
ATOM      6  C2  <0> d   1      18.103  -4.093  11.653  0.00  0.00    -0.062 A 
ATOM      7  C1  <0> d   1      17.632  -5.473  12.041  0.00  0.00     0.048 C 
ATOM      8  C27 <0> d   1      19.389  -3.912  11.178  0.00  0.00     0.007 A 
ATOM      9  C26 <0> d   1      19.823  -2.653  10.816  0.00  0.00     0.013 A 
ENDBRANCH   1   3
BRANCH   1  10
ATOM     10  C15 <0> d   1      19.098   0.343   9.222  0.00  0.00     0.068 A 
ATOM     11  N25 <0> d   1      18.386  -0.384   8.375  0.00  0.00    -0.248 NA
ATOM     12  C19 <0> d   1      18.064   0.071   7.169  0.00  0.00     0.057 A 
ATOM     13  C18 <0> d   1      18.480   1.338   6.753  0.00  0.00     0.031 A 
ATOM     14  C17 <0> d   1      19.232   2.122   7.616  0.00  0.00     0.005 A 
ATOM     15  C16 <0> d   1      19.545   1.617   8.866  0.00  0.00     0.032 A 
BRANCH  12  16
ATOM     16  C20 <0> d   1      17.265  -0.769   6.260  0.00  0.00     0.038 C 
ATOM     17  C21 <0> d   1      17.845  -1.336   5.181  0.00  0.00     0.086 C 
BRANCH  17  18
ATOM     18  C22 <0> d   1      19.285  -1.585   5.172  0.00  0.00     0.198 C 
ATOM     19  O23 <0> d   1      20.033  -0.836   4.556  0.00  0.00    -0.645 OA
ATOM     20  O24 <0> d   1      19.744  -2.543   5.782  0.00  0.00    -0.645 OA
ENDBRANCH  17  18
ENDBRANCH  12  16
ENDBRANCH   1  10
BRANCH   2  21
ATOM     21  C8  <0> d   1      20.480  -0.030  12.783  0.00  0.00     0.263 C 
BRANCH  21  22
ATOM     22  N9  <0> d   1      19.836   0.787  13.819  0.00  0.00    -0.068 N 
ATOM     23  H10 <0> d   1      20.528   1.160  14.451  0.00  0.00     0.280 HD
ATOM     24  C14 <0> d   1      18.846  -0.022  14.564  0.00  0.00     0.235 C 
ATOM     25  C13 <0> d   1      17.670   0.911  14.910  0.00  0.00     0.029 C 
ATOM     26  C12 <0> d   1      18.042   2.278  14.290  0.00  0.00     0.029 C 
ATOM     27  C11 <0> d   1      19.067   1.894  13.193  0.00  0.00     0.235 C 
ENDBRANCH  21  22
ENDBRANCH   2  21
TORSDOF 6
ENDMDL
MODEL 7
REMARK VINA RESULT:      -8.0      3.509      5.656
REMARK  6 active torsions:
REMARK  status: ('A' for Active; 'I' for Inactive)
REMARK    1  A    between atoms: C5_5  and  C6_6 
REMARK    2  A    between atoms: C6_6  and  C15_15 
REMARK    3  A    between atoms: C7_7  and  C8_8 
REMARK    4  A    between atoms: C8_8  and  N9_9 
REMARK    5  A    between atoms: C19_19  and  C20_20 
REMARK    6  A    between atoms: C21_21  and  C22_22 
ROOT
ATOM      1  C6  <0> d   1      18.934  -0.279  12.454  0.00  0.00     0.001 C 
ATOM      2  C7  <0> d   1      19.330  -0.077  13.716  0.00  0.00     0.015 C 
ENDROOT
BRANCH   1   3
ATOM      3  C5  <0> d   1      18.758  -1.660  11.944  0.00  0.00    -0.024 A 
ATOM      4  C4  <0> d   1      19.869  -2.418  11.577  0.00  0.00     0.013 A 
ATOM      5  C3  <0> d   1      19.699  -3.702  11.101  0.00  0.00     0.007 A 
ATOM      6  C2  <0> d   1      18.429  -4.239  10.990  0.00  0.00    -0.062 A 
ATOM      7  C1  <0> d   1      18.251  -5.643  10.472  0.00  0.00     0.048 C 
ATOM      8  C27 <0> d   1      17.322  -3.491  11.349  0.00  0.00     0.007 A 
ATOM      9  C26 <0> d   1      17.480  -2.207  11.830  0.00  0.00     0.013 A 
ENDBRANCH   1   3
BRANCH   1  10
ATOM     10  C15 <0> d   1      18.669   0.878  11.566  0.00  0.00     0.068 A 
ATOM     11  N25 <0> d   1      19.049   0.831  10.299  0.00  0.00    -0.248 NA
ATOM     12  C19 <0> d   1      18.826   1.844   9.469  0.00  0.00     0.057 A 
ATOM     13  C18 <0> d   1      18.188   3.003   9.917  0.00  0.00     0.031 A 
ATOM     14  C17 <0> d   1      17.782   3.085  11.241  0.00  0.00     0.005 A 
ATOM     15  C16 <0> d   1      18.027   2.008  12.076  0.00  0.00     0.032 A 
BRANCH  12  16
ATOM     16  C20 <0> d   1      19.261   1.747   8.065  0.00  0.00     0.038 C 
ATOM     17  C21 <0> d   1      19.103   0.590   7.388  0.00  0.00     0.086 C 
BRANCH  17  18
ATOM     18  C22 <0> d   1      18.073  -0.362   7.799  0.00  0.00     0.198 C 
ATOM     19  O23 <0> d   1      16.889  -0.070   7.689  0.00  0.00    -0.645 OA
ATOM     20  O24 <0> d   1      18.396  -1.452   8.255  0.00  0.00    -0.645 OA
ENDBRANCH  17  18
ENDBRANCH  12  16
ENDBRANCH   1  10
BRANCH   2  21
ATOM     21  C8  <0> d   1      19.600  -1.253  14.620  0.00  0.00     0.263 C 
BRANCH  21  22
ATOM     22  N9  <0> d   1      19.091  -0.962  15.966  0.00  0.00    -0.068 N 
ATOM     23  H10 <0> d   1      19.743  -1.290  16.664  0.00  0.00     0.280 HD
ATOM     24  C14 <0> d   1      17.771  -1.600  16.162  0.00  0.00     0.235 C 
ATOM     25  C13 <0> d   1      16.933  -0.646  17.035  0.00  0.00     0.029 C 
ATOM     26  C12 <0> d   1      17.848   0.574  17.291  0.00  0.00     0.029 C 
ATOM     27  C11 <0> d   1      18.864   0.498  16.124  0.00  0.00     0.235 C 
ENDBRANCH  21  22
ENDBRANCH   2  21
TORSDOF 6
ENDMDL
MODEL 8
REMARK VINA RESULT:      -7.6      3.842      7.655
REMARK  6 active torsions:
REMARK  status: ('A' for Active; 'I' for Inactive)
REMARK    1  A    between atoms: C5_5  and  C6_6 
REMARK    2  A    between atoms: C6_6  and  C15_15 
REMARK    3  A    between atoms: C7_7  and  C8_8 
REMARK    4  A    between atoms: C8_8  and  N9_9 
REMARK    5  A    between atoms: C19_19  and  C20_20 
REMARK    6  A    between atoms: C21_21  and  C22_22 
ROOT
ATOM      1  C6  <0> d   1      19.089   0.272  11.071  0.00  0.00     0.001 C 
ATOM      2  C7  <0> d   1      19.583   1.478  10.771  0.00  0.00     0.015 C 
ENDROOT
BRANCH   1   3
ATOM      3  C5  <0> d   1      18.782  -0.075  12.480  0.00  0.00    -0.024 A 
ATOM      4  C4  <0> d   1      17.657   0.461  13.104  0.00  0.00     0.013 A 
ATOM      5  C3  <0> d   1      17.377   0.136  14.415  0.00  0.00     0.007 A 
ATOM      6  C2  <0> d   1      18.211  -0.721  15.111  0.00  0.00    -0.062 A 
ATOM      7  C1  <0> d   1      17.900  -1.073  16.543  0.00  0.00     0.048 C 
ATOM      8  C27 <0> d   1      19.332  -1.252  14.499  0.00  0.00     0.007 A 
ATOM      9  C26 <0> d   1      19.619  -0.938  13.186  0.00  0.00     0.013 A 
ENDBRANCH   1   3
BRANCH   1  10
ATOM     10  C15 <0> d   1      18.848  -0.720   9.995  0.00  0.00     0.068 A 
ATOM     11  N25 <0> d   1      18.277  -1.878  10.287  0.00  0.00    -0.248 NA
ATOM     12  C19 <0> d   1      18.039  -2.791   9.352  0.00  0.00     0.057 A 
ATOM     13  C18 <0> d   1      18.396  -2.556   8.022  0.00  0.00     0.031 A 
ATOM     14  C17 <0> d   1      19.000  -1.354   7.685  0.00  0.00     0.005 A 
ATOM     15  C16 <0> d   1      19.229  -0.424   8.684  0.00  0.00     0.032 A 
BRANCH  12  16
ATOM     16  C20 <0> d   1      17.397  -4.064   9.721  0.00  0.00     0.038 C 
ATOM     17  C21 <0> d   1      18.136  -5.190   9.812  0.00  0.00     0.086 C 
BRANCH  17  18
ATOM     18  C22 <0> d   1      19.571  -5.104  10.078  0.00  0.00     0.198 C 
ATOM     19  O23 <0> d   1      20.375  -5.427   9.213  0.00  0.00    -0.645 OA
ATOM     20  O24 <0> d   1      19.967  -4.707  11.167  0.00  0.00    -0.645 OA
ENDBRANCH  17  18
ENDBRANCH  12  16
ENDBRANCH   1  10
BRANCH   2  21
ATOM     21  C8  <0> d   1      19.828   2.486  11.863  0.00  0.00     0.263 C 
BRANCH  21  22
ATOM     22  N9  <0> d   1      19.171   3.753  11.518  0.00  0.00    -0.068 N 
ATOM     23  H10 <0> d   1      19.857   4.484  11.404  0.00  0.00     0.280 HD
ATOM     24  C14 <0> d   1      18.199   4.126  12.570  0.00  0.00     0.235 C 
ATOM     25  C13 <0> d   1      17.005   4.797  11.863  0.00  0.00     0.029 C 
ATOM     26  C12 <0> d   1      17.350   4.751  10.357  0.00  0.00     0.029 C 
ATOM     27  C11 <0> d   1      18.379   3.596  10.271  0.00  0.00     0.235 C 
ENDBRANCH  21  22
ENDBRANCH   2  21
TORSDOF 6
ENDMDL
MODEL 9
REMARK VINA RESULT:      -7.6      1.598      4.514
REMARK  6 active torsions:
REMARK  status: ('A' for Active; 'I' for Inactive)
REMARK    1  A    between atoms: C5_5  and  C6_6 
REMARK    2  A    between atoms: C6_6  and  C15_15 
REMARK    3  A    between atoms: C7_7  and  C8_8 
REMARK    4  A    between atoms: C8_8  and  N9_9 
REMARK    5  A    between atoms: C19_19  and  C20_20 
REMARK    6  A    between atoms: C21_21  and  C22_22 
ROOT
ATOM      1  C6  <0> d   1      17.975   1.348  10.687  0.00  0.00     0.001 C 
ATOM      2  C7  <0> d   1      17.840   0.670   9.542  0.00  0.00     0.015 C 
ENDROOT
BRANCH   1   3
ATOM      3  C5  <0> d   1      18.341   0.634  11.934  0.00  0.00    -0.024 A 
ATOM      4  C4  <0> d   1      17.393  -0.137  12.603  0.00  0.00     0.013 A 
ATOM      5  C3  <0> d   1      17.738  -0.799  13.764  0.00  0.00     0.007 A 
ATOM      6  C2  <0> d   1      19.024  -0.699  14.262  0.00  0.00    -0.062 A 
ATOM      7  C1  <0> d   1      19.396  -1.426  15.530  0.00  0.00     0.048 C 
ATOM      8  C27 <0> d   1      19.969   0.068  13.605  0.00  0.00     0.007 A 
ATOM      9  C26 <0> d   1      19.636   0.731  12.441  0.00  0.00     0.013 A 
ENDBRANCH   1   3
BRANCH   1  10
ATOM     10  C15 <0> d   1      17.760   2.815  10.709  0.00  0.00     0.068 A 
ATOM     11  N25 <0> d   1      17.232   3.383  11.782  0.00  0.00    -0.248 NA
ATOM     12  C19 <0> d   1      17.028   4.695  11.845  0.00  0.00     0.057 A 
ATOM     13  C18 <0> d   1      17.359   5.518  10.766  0.00  0.00     0.031 A 
ATOM     14  C17 <0> d   1      17.910   4.952   9.625  0.00  0.00     0.005 A 
ATOM     15  C16 <0> d   1      18.113   3.583   9.597  0.00  0.00     0.032 A 
BRANCH  12  16
ATOM     16  C20 <0> d   1      16.443   5.286  13.060  0.00  0.00     0.038 C 
ATOM     17  C21 <0> d   1      17.046   5.109  14.254  0.00  0.00     0.086 C 
BRANCH  17  18
ATOM     18  C22 <0> d   1      18.480   4.828  14.314  0.00  0.00     0.198 C 
ATOM     19  O23 <0> d   1      19.284   5.653  13.898  0.00  0.00    -0.645 OA
ATOM     20  O24 <0> d   1      18.876   3.767  14.780  0.00  0.00    -0.645 OA
ENDBRANCH  17  18
ENDBRANCH  12  16
ENDBRANCH   1  10
BRANCH   2  21
ATOM     21  C8  <0> d   1      18.058  -0.821   9.518  0.00  0.00     0.263 C 
BRANCH  21  22
ATOM     22  N9  <0> d   1      17.910  -1.315   8.143  0.00  0.00    -0.068 N 
ATOM     23  H10 <0> d   1      17.278  -2.102   8.121  0.00  0.00     0.280 HD
ATOM     24  C14 <0> d   1      19.228  -1.705   7.597  0.00  0.00     0.235 C 
ATOM     25  C13 <0> d   1      19.222  -1.340   6.100  0.00  0.00     0.029 C 
ATOM     26  C12 <0> d   1      17.839  -0.698   5.847  0.00  0.00     0.029 C 
ATOM     27  C11 <0> d   1      17.409  -0.231   7.260  0.00  0.00     0.235 C 
ENDBRANCH  21  22
ENDBRANCH   2  21
TORSDOF 6
ENDMDL
