MODEL 1
REMARK VINA RESULT:      -6.7      0.000      0.000
REMARK  4 active torsions:
REMARK  status: ('A' for Active; 'I' for Inactive)
REMARK    1  A    between atoms: C2_2  and  C4_4 
REMARK    2  A    between atoms: C4_4  and  C5_5 
REMARK    3  A    between atoms: C8_8  and  C9_9 
REMARK    4  A    between atoms: C9_9  and  C12_11 
ROOT
ATOM      1  C5  ZIN A   1      18.691   1.793   9.128  0.00  0.00    -0.058 A 
ATOM      2  C6  ZIN A   1      19.247   1.927   7.869  0.00  0.00     0.007 A 
ATOM      3  C7  ZIN A   1      19.017   0.963   6.906  0.00  0.00     0.008 A 
ATOM      4  C8  ZIN A   1      18.231  -0.136   7.201  0.00  0.00    -0.044 A 
ATOM      5  C15 ZIN A   1      17.677  -0.270   8.460  0.00  0.00     0.008 A 
ATOM      6  C16 ZIN A   1      17.909   0.692   9.424  0.00  0.00     0.007 A 
ENDROOT
BRANCH   4   7
ATOM      7  C9  ZIN A   1      17.980  -1.186   6.150  0.00  0.00     0.115 C 
ATOM      8  C11 ZIN A   1      17.276  -0.549   4.950  0.00  0.00     0.026 C 
BRANCH   7   9
ATOM      9  C12 ZIN A   1      19.294  -1.776   5.706  0.00  0.00     0.181 C 
ATOM     10  O13 ZIN A   1      19.869  -2.584   6.414  0.00  0.00    -0.647 OA
ATOM     11  O14 ZIN A   1      19.782  -1.443   4.639  0.00  0.00    -0.647 OA
ENDBRANCH   7   9
ENDBRANCH   4   7
BRANCH   1  12
ATOM     12  C4  ZIN A   1      18.942   2.844  10.178  0.00  0.00     0.042 C 
BRANCH  12  13
ATOM     13  C2  ZIN A   1      17.608   3.422  10.652  0.00  0.00    -0.019 C 
ATOM     14  C1  ZIN A   1      17.540   3.366  12.179  0.00  0.00     0.010 C 
ATOM     15  C3  ZIN A   1      17.489   4.876  10.189  0.00  0.00     0.010 C 
ENDBRANCH  12  13
ENDBRANCH   1  12
TORSDOF 4
ENDMDL
MODEL 2
REMARK VINA RESULT:      -6.6      0.138      1.244
REMARK  4 active torsions:
REMARK  status: ('A' for Active; 'I' for Inactive)
REMARK    1  A    between atoms: C2_2  and  C4_4 
REMARK    2  A    between atoms: C4_4  and  C5_5 
REMARK    3  A    between atoms: C8_8  and  C9_9 
REMARK    4  A    between atoms: C9_9  and  C12_11 
ROOT
ATOM      1  C5  ZIN A   1      18.693   1.754   8.999  0.00  0.00    -0.058 A 
ATOM      2  C6  ZIN A   1      17.873   0.681   9.297  0.00  0.00     0.007 A 
ATOM      3  C7  ZIN A   1      17.638  -0.294   8.346  0.00  0.00     0.008 A 
ATOM      4  C8  ZIN A   1      18.222  -0.197   7.096  0.00  0.00    -0.044 A 
ATOM      5  C15 ZIN A   1      19.040   0.877   6.798  0.00  0.00     0.008 A 
ATOM      6  C16 ZIN A   1      19.273   1.853   7.748  0.00  0.00     0.007 A 
ENDROOT
BRANCH   4   7
ATOM      7  C9  ZIN A   1      17.965  -1.261   6.060  0.00  0.00     0.115 C 
ATOM      8  C11 ZIN A   1      17.269  -0.635   4.849  0.00  0.00     0.026 C 
BRANCH   7   9
ATOM      9  C12 ZIN A   1      19.276  -1.867   5.628  0.00  0.00     0.181 C 
ATOM     10  O13 ZIN A   1      19.870  -2.626   6.372  0.00  0.00    -0.647 OA
ATOM     11  O14 ZIN A   1      19.741  -1.597   4.533  0.00  0.00    -0.647 OA
ENDBRANCH   7   9
ENDBRANCH   4   7
BRANCH   1  12
ATOM     12  C4  ZIN A   1      18.950   2.817  10.035  0.00  0.00     0.042 C 
BRANCH  12  13
ATOM     13  C2  ZIN A   1      17.616   3.335  10.576  0.00  0.00    -0.019 C 
ATOM     14  C1  ZIN A   1      17.579   3.159  12.096  0.00  0.00     0.010 C 
ATOM     15  C3  ZIN A   1      17.467   4.818  10.230  0.00  0.00     0.010 C 
ENDBRANCH  12  13
ENDBRANCH   1  12
TORSDOF 4
ENDMDL
MODEL 3
REMARK VINA RESULT:      -6.4      3.558      6.349
REMARK  4 active torsions:
REMARK  status: ('A' for Active; 'I' for Inactive)
REMARK    1  A    between atoms: C2_2  and  C4_4 
REMARK    2  A    between atoms: C4_4  and  C5_5 
REMARK    3  A    between atoms: C8_8  and  C9_9 
REMARK    4  A    between atoms: C9_9  and  C12_11 
ROOT
ATOM      1  C5  ZIN A   1      18.614   0.603   8.476  0.00  0.00    -0.058 A 
ATOM      2  C6  ZIN A   1      17.765   0.346   9.537  0.00  0.00     0.007 A 
ATOM      3  C7  ZIN A   1      17.537   1.320  10.491  0.00  0.00     0.008 A 
ATOM      4  C8  ZIN A   1      18.158   2.551  10.385  0.00  0.00    -0.044 A 
ATOM      5  C15 ZIN A   1      19.008   2.807   9.325  0.00  0.00     0.008 A 
ATOM      6  C16 ZIN A   1      19.238   1.832   8.372  0.00  0.00     0.007 A 
ENDROOT
BRANCH   4   7
ATOM      7  C9  ZIN A   1      17.909   3.612  11.426  0.00  0.00     0.115 C 
ATOM      8  C11 ZIN A   1      19.245   4.210  11.873  0.00  0.00     0.026 C 
BRANCH   7   9
ATOM      9  C12 ZIN A   1      17.044   4.698  10.838  0.00  0.00     0.181 C 
ATOM     10  O13 ZIN A   1      17.507   5.463  10.011  0.00  0.00    -0.647 OA
ATOM     11  O14 ZIN A   1      15.883   4.809  11.191  0.00  0.00    -0.647 OA
ENDBRANCH   7   9
ENDBRANCH   4   7
BRANCH   1  12
ATOM     12  C4  ZIN A   1      18.862  -0.458   7.435  0.00  0.00     0.042 C 
BRANCH  12  13
ATOM     13  C2  ZIN A   1      18.499   0.087   6.053  0.00  0.00    -0.019 C 
ATOM     14  C1  ZIN A   1      19.357  -0.605   4.991  0.00  0.00     0.010 C 
ATOM     15  C3  ZIN A   1      17.020  -0.184   5.770  0.00  0.00     0.010 C 
ENDBRANCH  12  13
ENDBRANCH   1  12
TORSDOF 4
ENDMDL
MODEL 4
REMARK VINA RESULT:      -5.9      6.252      8.811
REMARK  4 active torsions:
REMARK  status: ('A' for Active; 'I' for Inactive)
REMARK    1  A    between atoms: C2_2  and  C4_4 
REMARK    2  A    between atoms: C4_4  and  C5_5 
REMARK    3  A    between atoms: C8_8  and  C9_9 
REMARK    4  A    between atoms: C9_9  and  C12_11 
ROOT
ATOM      1  C5  ZIN A   1      18.738  -1.556  12.703  0.00  0.00    -0.058 A 
ATOM      2  C6  ZIN A   1      17.759  -0.579  12.706  0.00  0.00     0.007 A 
ATOM      3  C7  ZIN A   1      17.479   0.115  13.868  0.00  0.00     0.008 A 
ATOM      4  C8  ZIN A   1      18.178  -0.167  15.028  0.00  0.00    -0.044 A 
ATOM      5  C15 ZIN A   1      19.155  -1.145  15.025  0.00  0.00     0.008 A 
ATOM      6  C16 ZIN A   1      19.433  -1.841  13.864  0.00  0.00     0.007 A 
ENDROOT
BRANCH   4   7
ATOM      7  C9  ZIN A   1      17.872   0.590  16.294  0.00  0.00     0.115 C 
ATOM      8  C11 ZIN A   1      17.627  -0.401  17.434  0.00  0.00     0.026 C 
BRANCH   7   9
ATOM      9  C12 ZIN A   1      19.040   1.478  16.642  0.00  0.00     0.181 C 
ATOM     10  O13 ZIN A   1      19.413   2.330  15.856  0.00  0.00    -0.647 OA
ATOM     11  O14 ZIN A   1      19.610   1.342  17.711  0.00  0.00    -0.647 OA
ENDBRANCH   7   9
ENDBRANCH   4   7
BRANCH   1  12
ATOM     12  C4  ZIN A   1      19.043  -2.313  11.437  0.00  0.00     0.042 C 
BRANCH  12  13
ATOM     13  C2  ZIN A   1      18.967  -3.816  11.709  0.00  0.00    -0.019 C 
ATOM     14  C1  ZIN A   1      17.510  -4.276  11.628  0.00  0.00     0.010 C 
ATOM     15  C3  ZIN A   1      19.798  -4.566  10.665  0.00  0.00     0.010 C 
ENDBRANCH  12  13
ENDBRANCH   1  12
TORSDOF 4
ENDMDL
MODEL 5
REMARK VINA RESULT:      -5.8      3.206      5.939
REMARK  4 active torsions:
REMARK  status: ('A' for Active; 'I' for Inactive)
REMARK    1  A    between atoms: C2_2  and  C4_4 
REMARK    2  A    between atoms: C4_4  and  C5_5 
REMARK    3  A    between atoms: C8_8  and  C9_9 
REMARK    4  A    between atoms: C9_9  and  C12_11 
ROOT
ATOM      1  C5  ZIN A   1      19.159   1.413   7.966  0.00  0.00    -0.058 A 
ATOM      2  C6  ZIN A   1      18.766   2.606   8.544  0.00  0.00     0.007 A 
ATOM      3  C7  ZIN A   1      18.752   2.735   9.920  0.00  0.00     0.008 A 
ATOM      4  C8  ZIN A   1      19.131   1.671  10.718  0.00  0.00    -0.044 A 
ATOM      5  C15 ZIN A   1      19.522   0.478  10.140  0.00  0.00     0.008 A 
ATOM      6  C16 ZIN A   1      19.533   0.348   8.764  0.00  0.00     0.007 A 
ENDROOT
BRANCH   4   7
ATOM      7  C9  ZIN A   1      19.116   1.813  12.218  0.00  0.00     0.115 C 
ATOM      8  C11 ZIN A   1      19.143   3.297  12.590  0.00  0.00     0.026 C 
BRANCH   7   9
ATOM      9  C12 ZIN A   1      17.865   1.179  12.770  0.00  0.00     0.181 C 
ATOM     10  O13 ZIN A   1      17.835   0.798  13.927  0.00  0.00    -0.647 OA
ATOM     11  O14 ZIN A   1      16.883   1.048  12.058  0.00  0.00    -0.647 OA
ENDBRANCH   7   9
ENDBRANCH   4   7
BRANCH   1  12
ATOM     12  C4  ZIN A   1      19.173   1.272   6.465  0.00  0.00     0.042 C 
BRANCH  12  13
ATOM     13  C2  ZIN A   1      18.634  -0.106   6.077  0.00  0.00    -0.019 C 
ATOM     14  C1  ZIN A   1      17.105  -0.083   6.105  0.00  0.00     0.010 C 
ATOM     15  C3  ZIN A   1      19.113  -0.462   4.667  0.00  0.00     0.010 C 
ENDBRANCH  12  13
ENDBRANCH   1  12
TORSDOF 4
ENDMDL
MODEL 6
REMARK VINA RESULT:      -5.8      5.569      8.581
REMARK  4 active torsions:
REMARK  status: ('A' for Active; 'I' for Inactive)
REMARK    1  A    between atoms: C2_2  and  C4_4 
REMARK    2  A    between atoms: C4_4  and  C5_5 
REMARK    3  A    between atoms: C8_8  and  C9_9 
REMARK    4  A    between atoms: C9_9  and  C12_11 
ROOT
ATOM      1  C5  ZIN A   1      17.986   4.376  11.218  0.00  0.00    -0.058 A 
ATOM      2  C6  ZIN A   1      19.066   4.335  12.081  0.00  0.00     0.007 A 
ATOM      3  C7  ZIN A   1      18.940   4.822  13.369  0.00  0.00     0.008 A 
ATOM      4  C8  ZIN A   1      17.734   5.349  13.794  0.00  0.00    -0.044 A 
ATOM      5  C15 ZIN A   1      16.656   5.391  12.930  0.00  0.00     0.008 A 
ATOM      6  C16 ZIN A   1      16.783   4.907  11.641  0.00  0.00     0.007 A 
ENDROOT
BRANCH   4   7
ATOM      7  C9  ZIN A   1      17.597   5.879  15.198  0.00  0.00     0.115 C 
ATOM      8  C11 ZIN A   1      17.815   4.739  16.196  0.00  0.00     0.026 C 
BRANCH   7   9
ATOM      9  C12 ZIN A   1      18.627   6.955  15.431  0.00  0.00     0.181 C 
ATOM     10  O13 ZIN A   1      19.576   6.740  16.164  0.00  0.00    -0.647 OA
ATOM     11  O14 ZIN A   1      18.510   8.039  14.885  0.00  0.00    -0.647 OA
ENDBRANCH   7   9
ENDBRANCH   4   7
BRANCH   1  12
ATOM     12  C4  ZIN A   1      18.124   3.846   9.814  0.00  0.00     0.042 C 
BRANCH  12  13
ATOM     13  C2  ZIN A   1      18.718   2.437   9.856  0.00  0.00    -0.019 C 
ATOM     14  C1  ZIN A   1      17.660   1.452  10.359  0.00  0.00     0.010 C 
ATOM     15  C3  ZIN A   1      19.166   2.030   8.450  0.00  0.00     0.010 C 
ENDBRANCH  12  13
ENDBRANCH   1  12
TORSDOF 4
ENDMDL
MODEL 7
REMARK VINA RESULT:      -5.8      5.841      8.226
REMARK  4 active torsions:
REMARK  status: ('A' for Active; 'I' for Inactive)
REMARK    1  A    between atoms: C2_2  and  C4_4 
REMARK    2  A    between atoms: C4_4  and  C5_5 
REMARK    3  A    between atoms: C8_8  and  C9_9 
REMARK    4  A    between atoms: C9_9  and  C12_11 
ROOT
ATOM      1  C5  ZIN A   1      19.244   1.914  13.031  0.00  0.00    -0.058 A 
ATOM      2  C6  ZIN A   1      19.786   0.658  13.232  0.00  0.00     0.007 A 
ATOM      3  C7  ZIN A   1      19.497  -0.043  14.388  0.00  0.00     0.008 A 
ATOM      4  C8  ZIN A   1      18.666   0.513  15.344  0.00  0.00    -0.044 A 
ATOM      5  C15 ZIN A   1      18.126   1.769  15.144  0.00  0.00     0.008 A 
ATOM      6  C16 ZIN A   1      18.417   2.471  13.989  0.00  0.00     0.007 A 
ENDROOT
BRANCH   4   7
ATOM      7  C9  ZIN A   1      18.352  -0.252  16.604  0.00  0.00     0.115 C 
ATOM      8  C11 ZIN A   1      19.202  -1.524  16.653  0.00  0.00     0.026 C 
BRANCH   7   9
ATOM      9  C12 ZIN A   1      18.664   0.607  17.803  0.00  0.00     0.181 C 
ATOM     10  O13 ZIN A   1      17.757   1.103  18.448  0.00  0.00    -0.647 OA
ATOM     11  O14 ZIN A   1      19.823   0.804  18.127  0.00  0.00    -0.647 OA
ENDBRANCH   7   9
ENDBRANCH   4   7
BRANCH   1  12
ATOM     12  C4  ZIN A   1      19.559   2.678  11.771  0.00  0.00     0.042 C 
BRANCH  12  13
ATOM     13  C2  ZIN A   1      18.415   2.506  10.770  0.00  0.00    -0.019 C 
ATOM     14  C1  ZIN A   1      17.620   3.810  10.674  0.00  0.00     0.010 C 
ATOM     15  C3  ZIN A   1      18.989   2.155   9.396  0.00  0.00     0.010 C 
ENDBRANCH  12  13
ENDBRANCH   1  12
TORSDOF 4
ENDMDL
MODEL 8
REMARK VINA RESULT:      -5.7      3.474      6.142
REMARK  4 active torsions:
REMARK  status: ('A' for Active; 'I' for Inactive)
REMARK    1  A    between atoms: C2_2  and  C4_4 
REMARK    2  A    between atoms: C4_4  and  C5_5 
REMARK    3  A    between atoms: C8_8  and  C9_9 
REMARK    4  A    between atoms: C9_9  and  C12_11 
ROOT
ATOM      1  C5  ZIN A   1      18.698   0.466   8.268  0.00  0.00    -0.058 A 
ATOM      2  C6  ZIN A   1      19.108   1.784   8.346  0.00  0.00     0.007 A 
ATOM      3  C7  ZIN A   1      18.775   2.547   9.450  0.00  0.00     0.008 A 
ATOM      4  C8  ZIN A   1      18.032   1.991  10.476  0.00  0.00    -0.044 A 
ATOM      5  C15 ZIN A   1      17.620   0.675  10.397  0.00  0.00     0.008 A 
ATOM      6  C16 ZIN A   1      17.951  -0.088   9.292  0.00  0.00     0.007 A 
ENDROOT
BRANCH   4   7
ATOM      7  C9  ZIN A   1      17.670   2.824  11.679  0.00  0.00     0.115 C 
ATOM      8  C11 ZIN A   1      17.973   2.035  12.954  0.00  0.00     0.026 C 
BRANCH   7   9
ATOM      9  C12 ZIN A   1      18.478   4.096  11.671  0.00  0.00     0.181 C 
ATOM     10  O13 ZIN A   1      17.969   5.139  11.300  0.00  0.00    -0.647 OA
ATOM     11  O14 ZIN A   1      19.642   4.081  12.035  0.00  0.00    -0.647 OA
ENDBRANCH   7   9
ENDBRANCH   4   7
BRANCH   1  12
ATOM     12  C4  ZIN A   1      19.060  -0.366   7.065  0.00  0.00     0.042 C 
BRANCH  12  13
ATOM     13  C2  ZIN A   1      18.446   0.257   5.810  0.00  0.00    -0.019 C 
ATOM     14  C1  ZIN A   1      19.132  -0.316   4.568  0.00  0.00     0.010 C 
ATOM     15  C3  ZIN A   1      16.950  -0.064   5.761  0.00  0.00     0.010 C 
ENDBRANCH  12  13
ENDBRANCH   1  12
TORSDOF 4
ENDMDL
MODEL 9
REMARK VINA RESULT:      -5.7      4.125      5.704
REMARK  4 active torsions:
REMARK  status: ('A' for Active; 'I' for Inactive)
REMARK    1  A    between atoms: C2_2  and  C4_4 
REMARK    2  A    between atoms: C4_4  and  C5_5 
REMARK    3  A    between atoms: C8_8  and  C9_9 
REMARK    4  A    between atoms: C9_9  and  C12_11 
ROOT
ATOM      1  C5  ZIN A   1      18.647  -0.485  13.976  0.00  0.00    -0.058 A 
ATOM      2  C6  ZIN A   1      19.258   0.716  13.665  0.00  0.00     0.007 A 
ATOM      3  C7  ZIN A   1      18.954   1.359  12.480  0.00  0.00     0.008 A 
ATOM      4  C8  ZIN A   1      18.039   0.801  11.606  0.00  0.00    -0.044 A 
ATOM      5  C15 ZIN A   1      17.430  -0.400  11.916  0.00  0.00     0.008 A 
ATOM      6  C16 ZIN A   1      17.736  -1.045  13.100  0.00  0.00     0.007 A 
ENDROOT
BRANCH   4   7
ATOM      7  C9  ZIN A   1      17.708   1.504  10.314  0.00  0.00     0.115 C 
ATOM      8  C11 ZIN A   1      18.419   2.858  10.274  0.00  0.00     0.026 C 
BRANCH   7   9
ATOM      9  C12 ZIN A   1      18.168   0.661   9.152  0.00  0.00     0.181 C 
ATOM     10  O13 ZIN A   1      17.354   0.216   8.363  0.00  0.00    -0.647 OA
ATOM     11  O14 ZIN A   1      19.355   0.424   9.003  0.00  0.00    -0.647 OA
ENDBRANCH   7   9
ENDBRANCH   4   7
BRANCH   1  12
ATOM     12  C4  ZIN A   1      18.979  -1.187  15.268  0.00  0.00     0.042 C 
BRANCH  12  13
ATOM     13  C2  ZIN A   1      18.474  -0.353  16.447  0.00  0.00    -0.019 C 
ATOM     14  C1  ZIN A   1      17.033  -0.752  16.774  0.00  0.00     0.010 C 
ATOM     15  C3  ZIN A   1      19.363  -0.603  17.667  0.00  0.00     0.010 C 
ENDBRANCH  12  13
ENDBRANCH   1  12
TORSDOF 4
ENDMDL
