MODEL 1
REMARK VINA RESULT:      -8.5      0.000      0.000
REMARK  7 active torsions:
REMARK  status: ('A' for Active; 'I' for Inactive)
REMARK    1  A    between atoms: C8_8  and  O9_9 
REMARK    2  A    between atoms: O9_9  and  C10_10 
REMARK    3  A    between atoms: C10_10  and  C11_11 
REMARK    4  A    between atoms: C11_11  and  C12_12 
REMARK    5  A    between atoms: C12_12  and  C13_13 
REMARK    6  A    between atoms: C13_13  and  N14_14 
REMARK    7  A    between atoms: N17_17  and  C18_18 
ROOT
ATOM      1  C12 ZIN A   1      17.713  -0.412   8.762  0.00  0.00     0.032 C 
ENDROOT
BRANCH   1   2
ATOM      2  C11 ZIN A   1      18.959   0.205   8.126  0.00  0.00     0.028 C 
BRANCH   2   3
ATOM      3  C10 ZIN A   1      18.990   1.707   8.419  0.00  0.00     0.175 C 
BRANCH   3   4
ATOM      4  O9  ZIN A   1      19.648   1.936   9.666  0.00  0.00    -0.351 OA
BRANCH   4   5
ATOM      5  C8  ZIN A   1      19.101   2.865  10.492  0.00  0.00     0.070 A 
ATOM      6  C7  ZIN A   1      17.774   3.241  10.332  0.00  0.00     0.037 A 
ATOM      7  C6  ZIN A   1      17.215   4.187  11.170  0.00  0.00     0.012 A 
ATOM      8  C5  ZIN A   1      17.975   4.761  12.170  0.00  0.00    -0.031 A 
ATOM      9  C4  ZIN A   1      17.365   5.792  13.086  0.00  0.00     0.050 C 
ATOM     10  C29 ZIN A   1      19.303   4.389  12.335  0.00  0.00     0.043 A 
ATOM     11  C3  ZIN A   1      17.974   5.658  14.482  0.00  0.00     0.108 C 
ATOM     12  C2  ZIN A   1      19.475   5.594  14.382  0.00  0.00     0.222 C 
ATOM     13  O1  ZIN A   1      20.155   6.109  15.245  0.00  0.00    -0.273 OA
ATOM     14  N30 ZIN A   1      20.070   4.977  13.346  0.00  0.00    -0.327 N 
ATOM     15  H57 ZIN A   1      21.038   4.937  13.301  0.00  0.00     0.169 HD
ATOM     16  C28 ZIN A   1      19.866   3.440  11.495  0.00  0.00     0.066 A 
ENDBRANCH   4   5
ENDBRANCH   3   4
ENDBRANCH   2   3
ENDBRANCH   1   2
BRANCH   1  17
ATOM     17  C13 ZIN A   1      18.133  -1.382   9.869  0.00  0.00     0.272 C 
BRANCH  17  18
ATOM     18  N14 ZIN A   1      18.402  -0.632  11.102  0.00  0.00     0.090 N 
ATOM     19  C27 ZIN A   1      17.150  -0.243  11.767  0.00  0.00     0.287 C 
ATOM     20  C26 ZIN A   1      17.472   0.603  13.001  0.00  0.00     0.126 C 
ATOM     21  N17 ZIN A   1      18.329  -0.170  13.911  0.00  0.00    -0.279 NA
ATOM     22  C16 ZIN A   1      19.581  -0.559  13.247  0.00  0.00     0.126 C 
ATOM     23  C15 ZIN A   1      19.260  -1.405  12.012  0.00  0.00     0.287 C 
BRANCH  21  24
ATOM     24  C18 ZIN A   1      18.585   0.544  15.085  0.00  0.00     0.034 A 
ATOM     25  C24 ZIN A   1      18.492  -0.087  16.319  0.00  0.00     0.077 A 
ATOM     26  C22 ZIN A   1      18.751   0.621  17.477  0.00  0.00     0.057 A 
ATOM     27 Cl25 ZIN A   1      18.062  -1.768  16.405  0.00  0.00    -0.081 Cl
ATOM     28  C21 ZIN A   1      19.094   1.960  17.409  0.00  0.00     0.026 A 
ATOM     29 Cl23 ZIN A   1      18.643  -0.168  19.020  0.00  0.00    -0.082 Cl
ATOM     30  C20 ZIN A   1      19.182   2.593  16.182  0.00  0.00     0.004 A 
ATOM     31  C19 ZIN A   1      18.928   1.888  15.020  0.00  0.00     0.025 A 
ENDBRANCH  21  24
ENDBRANCH  17  18
ENDBRANCH   1  17
TORSDOF 7
ENDMDL
MODEL 2
REMARK VINA RESULT:      -8.5      1.494      2.111
REMARK  7 active torsions:
REMARK  status: ('A' for Active; 'I' for Inactive)
REMARK    1  A    between atoms: C8_8  and  O9_9 
REMARK    2  A    between atoms: O9_9  and  C10_10 
REMARK    3  A    between atoms: C10_10  and  C11_11 
REMARK    4  A    between atoms: C11_11  and  C12_12 
REMARK    5  A    between atoms: C12_12  and  C13_13 
REMARK    6  A    between atoms: C13_13  and  N14_14 
REMARK    7  A    between atoms: N17_17  and  C18_18 
ROOT
ATOM      1  C12 ZIN A   1      18.173   0.648   9.356  0.00  0.00     0.032 C 
ENDROOT
BRANCH   1   2
ATOM      2  C11 ZIN A   1      18.736   1.830   8.566  0.00  0.00     0.028 C 
BRANCH   2   3
ATOM      3  C10 ZIN A   1      18.821   3.057   9.477  0.00  0.00     0.175 C 
BRANCH   3   4
ATOM      4  O9  ZIN A   1      17.930   2.891  10.583  0.00  0.00    -0.351 OA
BRANCH   4   5
ATOM      5  C8  ZIN A   1      17.978   3.834  11.561  0.00  0.00     0.070 A 
ATOM      6  C7  ZIN A   1      16.825   4.517  11.923  0.00  0.00     0.037 A 
ATOM      7  C6  ZIN A   1      16.870   5.476  12.916  0.00  0.00     0.012 A 
ATOM      8  C5  ZIN A   1      18.064   5.758  13.552  0.00  0.00    -0.031 A 
ATOM      9  C4  ZIN A   1      18.114   6.803  14.637  0.00  0.00     0.050 C 
ATOM     10  C29 ZIN A   1      19.221   5.077  13.194  0.00  0.00     0.043 A 
ATOM     11  C3  ZIN A   1      19.142   6.395  15.693  0.00  0.00     0.108 C 
ATOM     12  C2  ZIN A   1      20.432   6.000  15.026  0.00  0.00     0.222 C 
ATOM     13  O1  ZIN A   1      21.488   6.256  15.565  0.00  0.00    -0.273 OA
ATOM     14  N30 ZIN A   1      20.427   5.370  13.837  0.00  0.00    -0.327 N 
ATOM     15  H57 ZIN A   1      21.268   5.114  13.425  0.00  0.00     0.169 HD
ATOM     16  C28 ZIN A   1      19.177   4.114  12.197  0.00  0.00     0.066 A 
ENDBRANCH   4   5
ENDBRANCH   3   4
ENDBRANCH   2   3
ENDBRANCH   1   2
BRANCH   1  17
ATOM     17  C13 ZIN A   1      19.306  -0.323   9.698  0.00  0.00     0.272 C 
BRANCH  17  18
ATOM     18  N14 ZIN A   1      19.353  -0.530  11.150  0.00  0.00     0.090 N 
ATOM     19  C27 ZIN A   1      20.249   0.440  11.793  0.00  0.00     0.287 C 
ATOM     20  C26 ZIN A   1      20.333   0.141  13.291  0.00  0.00     0.126 C 
ATOM     21  N17 ZIN A   1      18.986   0.205  13.876  0.00  0.00    -0.279 NA
ATOM     22  C16 ZIN A   1      18.089  -0.765  13.234  0.00  0.00     0.126 C 
ATOM     23  C15 ZIN A   1      18.006  -0.467  11.735  0.00  0.00     0.287 C 
BRANCH  21  24
ATOM     24  C18 ZIN A   1      19.030   0.008  15.259  0.00  0.00     0.034 A 
ATOM     25  C24 ZIN A   1      18.985   1.098  16.120  0.00  0.00     0.077 A 
ATOM     26  C22 ZIN A   1      19.023   0.898  17.488  0.00  0.00     0.057 A 
ATOM     27 Cl25 ZIN A   1      18.867   2.707  15.479  0.00  0.00    -0.081 Cl
ATOM     28  C21 ZIN A   1      19.118  -0.385  17.998  0.00  0.00     0.026 A 
ATOM     29 Cl23 ZIN A   1      18.959   2.258  18.566  0.00  0.00    -0.082 Cl
ATOM     30  C20 ZIN A   1      19.169  -1.470  17.143  0.00  0.00     0.004 A 
ATOM     31  C19 ZIN A   1      19.125  -1.277  15.776  0.00  0.00     0.025 A 
ENDBRANCH  21  24
ENDBRANCH  17  18
ENDBRANCH   1  17
TORSDOF 7
ENDMDL
MODEL 3
REMARK VINA RESULT:      -8.3      4.054      8.783
REMARK  7 active torsions:
REMARK  status: ('A' for Active; 'I' for Inactive)
REMARK    1  A    between atoms: C8_8  and  O9_9 
REMARK    2  A    between atoms: O9_9  and  C10_10 
REMARK    3  A    between atoms: C10_10  and  C11_11 
REMARK    4  A    between atoms: C11_11  and  C12_12 
REMARK    5  A    between atoms: C12_12  and  C13_13 
REMARK    6  A    between atoms: C13_13  and  N14_14 
REMARK    7  A    between atoms: N17_17  and  C18_18 
ROOT
ATOM      1  C12 ZIN A   1      17.442   1.131  12.876  0.00  0.00     0.032 C 
ENDROOT
BRANCH   1   2
ATOM      2  C11 ZIN A   1      18.580   0.915  13.875  0.00  0.00     0.028 C 
BRANCH   2   3
ATOM      3  C10 ZIN A   1      18.838  -0.585  14.036  0.00  0.00     0.175 C 
BRANCH   3   4
ATOM      4  O9  ZIN A   1      19.589  -1.061  12.917  0.00  0.00    -0.351 OA
BRANCH   4   5
ATOM      5  C8  ZIN A   1      19.143  -2.192  12.311  0.00  0.00     0.070 A 
ATOM      6  C7  ZIN A   1      17.821  -2.587  12.465  0.00  0.00     0.037 A 
ATOM      7  C6  ZIN A   1      17.365  -3.738  11.850  0.00  0.00     0.012 A 
ATOM      8  C5  ZIN A   1      18.223  -4.498  11.080  0.00  0.00    -0.031 A 
ATOM      9  C4  ZIN A   1      17.727  -5.753  10.408  0.00  0.00     0.050 C 
ATOM     10  C29 ZIN A   1      19.547  -4.108  10.922  0.00  0.00     0.043 A 
ATOM     11  C3  ZIN A   1      18.442  -5.933   9.069  0.00  0.00     0.108 C 
ATOM     12  C2  ZIN A   1      19.927  -5.767   9.256  0.00  0.00     0.222 C 
ATOM     13  O1  ZIN A   1      20.693  -6.440   8.599  0.00  0.00    -0.273 OA
ATOM     14  N30 ZIN A   1      20.414  -4.883  10.147  0.00  0.00    -0.327 N 
ATOM     15  H57 ZIN A   1      21.373  -4.783  10.249  0.00  0.00     0.169 HD
ATOM     16  C28 ZIN A   1      20.007  -2.953  11.538  0.00  0.00     0.066 A 
ENDBRANCH   4   5
ENDBRANCH   3   4
ENDBRANCH   2   3
ENDBRANCH   1   2
BRANCH   1  17
ATOM     17  C13 ZIN A   1      17.749   2.356  12.011  0.00  0.00     0.272 C 
BRANCH  17  18
ATOM     18  N14 ZIN A   1      17.857   1.948  10.604  0.00  0.00     0.090 N 
ATOM     19  C27 ZIN A   1      19.237   2.087  10.120  0.00  0.00     0.287 C 
ATOM     20  C26 ZIN A   1      19.292   1.730   8.632  0.00  0.00     0.126 C 
ATOM     21  N17 ZIN A   1      18.806   0.355   8.444  0.00  0.00    -0.279 NA
ATOM     22  C16 ZIN A   1      17.426   0.217   8.928  0.00  0.00     0.126 C 
ATOM     23  C15 ZIN A   1      17.371   0.575  10.415  0.00  0.00     0.287 C 
BRANCH  21  24
ATOM     24  C18 ZIN A   1      18.909  -0.033   7.105  0.00  0.00     0.034 A 
ATOM     25  C24 ZIN A   1      18.915  -1.381   6.768  0.00  0.00     0.077 A 
ATOM     26  C22 ZIN A   1      19.011  -1.760   5.442  0.00  0.00     0.057 A 
ATOM     27 Cl25 ZIN A   1      18.789  -2.587   8.011  0.00  0.00    -0.081 Cl
ATOM     28  C21 ZIN A   1      19.112  -0.799   4.452  0.00  0.00     0.026 A 
ATOM     29 Cl23 ZIN A   1      19.011  -3.444   5.019  0.00  0.00    -0.082 Cl
ATOM     30  C20 ZIN A   1      19.111   0.544   4.785  0.00  0.00     0.004 A 
ATOM     31  C19 ZIN A   1      19.010   0.929   6.108  0.00  0.00     0.025 A 
ENDBRANCH  21  24
ENDBRANCH  17  18
ENDBRANCH   1  17
TORSDOF 7
ENDMDL
MODEL 4
REMARK VINA RESULT:      -8.2      3.814      6.506
REMARK  7 active torsions:
REMARK  status: ('A' for Active; 'I' for Inactive)
REMARK    1  A    between atoms: C8_8  and  O9_9 
REMARK    2  A    between atoms: O9_9  and  C10_10 
REMARK    3  A    between atoms: C10_10  and  C11_11 
REMARK    4  A    between atoms: C11_11  and  C12_12 
REMARK    5  A    between atoms: C12_12  and  C13_13 
REMARK    6  A    between atoms: C13_13  and  N14_14 
REMARK    7  A    between atoms: N17_17  and  C18_18 
ROOT
ATOM      1  C12 ZIN A   1      18.649   2.977   9.542  0.00  0.00     0.032 C 
ENDROOT
BRANCH   1   2
ATOM      2  C11 ZIN A   1      19.023   2.769  11.010  0.00  0.00     0.028 C 
BRANCH   2   3
ATOM      3  C10 ZIN A   1      17.757   2.808  11.869  0.00  0.00     0.175 C 
BRANCH   3   4
ATOM      4  O9  ZIN A   1      17.204   1.494  11.962  0.00  0.00    -0.351 OA
BRANCH   4   5
ATOM      5  C8  ZIN A   1      17.567   0.746  13.037  0.00  0.00     0.070 A 
ATOM      6  C7  ZIN A   1      18.135  -0.507  12.852  0.00  0.00     0.037 A 
ATOM      7  C6  ZIN A   1      18.505  -1.270  13.943  0.00  0.00     0.012 A 
ATOM      8  C5  ZIN A   1      18.311  -0.787  15.222  0.00  0.00    -0.031 A 
ATOM      9  C4  ZIN A   1      18.715  -1.617  16.414  0.00  0.00     0.050 C 
ATOM     10  C29 ZIN A   1      17.743   0.466  15.415  0.00  0.00     0.043 A 
ATOM     11  C3  ZIN A   1      19.203  -0.699  17.535  0.00  0.00     0.108 C 
ATOM     12  C2  ZIN A   1      18.215   0.417  17.749  0.00  0.00     0.222 C 
ATOM     13  O1  ZIN A   1      18.022   0.839  18.869  0.00  0.00    -0.273 OA
ATOM     14  N30 ZIN A   1      17.543   0.949  16.712  0.00  0.00    -0.327 N 
ATOM     15  H57 ZIN A   1      16.917   1.673  16.866  0.00  0.00     0.169 HD
ATOM     16  C28 ZIN A   1      17.371   1.234  14.320  0.00  0.00     0.066 A 
ENDBRANCH   4   5
ENDBRANCH   3   4
ENDBRANCH   2   3
ENDBRANCH   1   2
BRANCH   1  17
ATOM     17  C13 ZIN A   1      19.250   1.850   8.698  0.00  0.00     0.272 C 
BRANCH  17  18
ATOM     18  N14 ZIN A   1      18.854   0.553   9.259  0.00  0.00     0.090 N 
ATOM     19  C27 ZIN A   1      17.648   0.038   8.598  0.00  0.00     0.287 C 
ATOM     20  C26 ZIN A   1      17.223  -1.273   9.265  0.00  0.00     0.126 C 
ATOM     21  N17 ZIN A   1      18.324  -2.243   9.175  0.00  0.00    -0.279 NA
ATOM     22  C16 ZIN A   1      19.531  -1.728   9.837  0.00  0.00     0.126 C 
ATOM     23  C15 ZIN A   1      19.955  -0.417   9.171  0.00  0.00     0.287 C 
BRANCH  21  24
ATOM     24  C18 ZIN A   1      17.947  -3.479   9.710  0.00  0.00     0.034 A 
ATOM     25  C24 ZIN A   1      17.792  -4.580   8.878  0.00  0.00     0.077 A 
ATOM     26  C22 ZIN A   1      17.425  -5.801   9.411  0.00  0.00     0.057 A 
ATOM     27 Cl25 ZIN A   1      18.070  -4.425   7.171  0.00  0.00    -0.081 Cl
ATOM     28  C21 ZIN A   1      17.202  -5.924  10.772  0.00  0.00     0.026 A 
ATOM     29 Cl23 ZIN A   1      17.237  -7.181   8.374  0.00  0.00    -0.082 Cl
ATOM     30  C20 ZIN A   1      17.351  -4.828  11.602  0.00  0.00     0.004 A 
ATOM     31  C19 ZIN A   1      17.723  -3.606  11.074  0.00  0.00     0.025 A 
ENDBRANCH  21  24
ENDBRANCH  17  18
ENDBRANCH   1  17
TORSDOF 7
ENDMDL
MODEL 5
REMARK VINA RESULT:      -8.1      2.837      6.352
REMARK  7 active torsions:
REMARK  status: ('A' for Active; 'I' for Inactive)
REMARK    1  A    between atoms: C8_8  and  O9_9 
REMARK    2  A    between atoms: O9_9  and  C10_10 
REMARK    3  A    between atoms: C10_10  and  C11_11 
REMARK    4  A    between atoms: C11_11  and  C12_12 
REMARK    5  A    between atoms: C12_12  and  C13_13 
REMARK    6  A    between atoms: C13_13  and  N14_14 
REMARK    7  A    between atoms: N17_17  and  C18_18 
ROOT
ATOM      1  C12 ZIN A   1      17.470  -0.373  16.332  0.00  0.00     0.032 C 
ENDROOT
BRANCH   1   2
ATOM      2  C11 ZIN A   1      17.785  -0.084  17.800  0.00  0.00     0.028 C 
BRANCH   2   3
ATOM      3  C10 ZIN A   1      19.290   0.146  17.962  0.00  0.00     0.175 C 
BRANCH   3   4
ATOM      4  O9  ZIN A   1      19.514   1.424  18.561  0.00  0.00    -0.351 OA
BRANCH   4   5
ATOM      5  C8  ZIN A   1      19.145   2.516  17.842  0.00  0.00     0.070 A 
ATOM      6  C7  ZIN A   1      18.373   3.508  18.432  0.00  0.00     0.037 A 
ATOM      7  C6  ZIN A   1      17.995   4.619  17.703  0.00  0.00     0.012 A 
ATOM      8  C5  ZIN A   1      18.385   4.747  16.384  0.00  0.00    -0.031 A 
ATOM      9  C4  ZIN A   1      17.975   5.959  15.588  0.00  0.00     0.050 C 
ATOM     10  C29 ZIN A   1      19.157   3.758  15.788  0.00  0.00     0.043 A 
ATOM     11  C3  ZIN A   1      19.083   6.320  14.599  0.00  0.00     0.108 C 
ATOM     12  C2  ZIN A   1      19.519   5.091  13.847  0.00  0.00     0.222 C 
ATOM     13  O1  ZIN A   1      19.847   5.185  12.683  0.00  0.00    -0.273 OA
ATOM     14  N30 ZIN A   1      19.544   3.889  14.451  0.00  0.00    -0.327 N 
ATOM     15  H57 ZIN A   1      19.836   3.108  13.954  0.00  0.00     0.169 HD
ATOM     16  C28 ZIN A   1      19.537   2.641  16.518  0.00  0.00     0.066 A 
ENDBRANCH   4   5
ENDBRANCH   3   4
ENDBRANCH   2   3
ENDBRANCH   1   2
BRANCH   1  17
ATOM     17  C13 ZIN A   1      18.762  -0.732  15.594  0.00  0.00     0.272 C 
BRANCH  17  18
ATOM     18  N14 ZIN A   1      18.711  -0.198  14.227  0.00  0.00     0.090 N 
ATOM     19  C27 ZIN A   1      20.064   0.014  13.694  0.00  0.00     0.287 C 
ATOM     20  C26 ZIN A   1      19.968   0.645  12.303  0.00  0.00     0.126 C 
ATOM     21  N17 ZIN A   1      19.189  -0.236  11.421  0.00  0.00    -0.279 NA
ATOM     22  C16 ZIN A   1      17.837  -0.448  11.955  0.00  0.00     0.126 C 
ATOM     23  C15 ZIN A   1      17.932  -1.078  13.346  0.00  0.00     0.287 C 
BRANCH  21  24
ATOM     24  C18 ZIN A   1      19.141   0.273  10.120  0.00  0.00     0.034 A 
ATOM     25  C24 ZIN A   1      19.111  -0.593   9.034  0.00  0.00     0.077 A 
ATOM     26  C22 ZIN A   1      19.058  -0.085   7.749  0.00  0.00     0.057 A 
ATOM     27 Cl25 ZIN A   1      19.128  -2.310   9.291  0.00  0.00    -0.081 Cl
ATOM     28  C21 ZIN A   1      19.045   1.283   7.544  0.00  0.00     0.026 A 
ATOM     29 Cl23 ZIN A   1      19.012  -1.165   6.390  0.00  0.00    -0.082 Cl
ATOM     30  C20 ZIN A   1      19.080   2.147   8.624  0.00  0.00     0.004 A 
ATOM     31  C19 ZIN A   1      19.128   1.645   9.910  0.00  0.00     0.025 A 
ENDBRANCH  21  24
ENDBRANCH  17  18
ENDBRANCH   1  17
TORSDOF 7
ENDMDL
MODEL 6
REMARK VINA RESULT:      -8.0      3.723      7.072
REMARK  7 active torsions:
REMARK  status: ('A' for Active; 'I' for Inactive)
REMARK    1  A    between atoms: C8_8  and  O9_9 
REMARK    2  A    between atoms: O9_9  and  C10_10 
REMARK    3  A    between atoms: C10_10  and  C11_11 
REMARK    4  A    between atoms: C11_11  and  C12_12 
REMARK    5  A    between atoms: C12_12  and  C13_13 
REMARK    6  A    between atoms: C13_13  and  N14_14 
REMARK    7  A    between atoms: N17_17  and  C18_18 
ROOT
ATOM      1  C12 ZIN A   1      17.478   0.151   6.396  0.00  0.00     0.032 C 
ENDROOT
BRANCH   1   2
ATOM      2  C11 ZIN A   1      17.865  -0.282   4.981  0.00  0.00     0.028 C 
BRANCH   2   3
ATOM      3  C10 ZIN A   1      19.375  -0.518   4.916  0.00  0.00     0.175 C 
BRANCH   3   4
ATOM      4  O9  ZIN A   1      19.630  -1.860   4.493  0.00  0.00    -0.351 OA
BRANCH   4   5
ATOM      5  C8  ZIN A   1      19.257  -2.855   5.339  0.00  0.00     0.070 A 
ATOM      6  C7  ZIN A   1      18.508  -3.924   4.866  0.00  0.00     0.037 A 
ATOM      7  C6  ZIN A   1      18.127  -4.938   5.724  0.00  0.00     0.012 A 
ATOM      8  C5  ZIN A   1      18.490  -4.891   7.056  0.00  0.00    -0.031 A 
ATOM      9  C4  ZIN A   1      18.076  -5.996   7.993  0.00  0.00     0.050 C 
ATOM     10  C29 ZIN A   1      19.239  -3.823   7.535  0.00  0.00     0.043 A 
ATOM     11  C3  ZIN A   1      19.167  -6.214   9.041  0.00  0.00     0.108 C 
ATOM     12  C2  ZIN A   1      19.575  -4.892   9.637  0.00  0.00     0.222 C 
ATOM     13  O1  ZIN A   1      19.880  -4.833  10.809  0.00  0.00    -0.273 OA
ATOM     14  N30 ZIN A   1      19.600  -3.777   8.885  0.00  0.00    -0.327 N 
ATOM     15  H57 ZIN A   1      19.874  -2.935   9.282  0.00  0.00     0.169 HD
ATOM     16  C28 ZIN A   1      19.623  -2.805   6.675  0.00  0.00     0.066 A 
ENDBRANCH   4   5
ENDBRANCH   3   4
ENDBRANCH   2   3
ENDBRANCH   1   2
BRANCH   1  17
ATOM     17  C13 ZIN A   1      18.727   0.628   7.143  0.00  0.00     0.272 C 
BRANCH  17  18
ATOM     18  N14 ZIN A   1      18.647   0.210   8.548  0.00  0.00     0.090 N 
ATOM     19  C27 ZIN A   1      19.988   0.063   9.131  0.00  0.00     0.287 C 
ATOM     20  C26 ZIN A   1      19.864  -0.449  10.568  0.00  0.00     0.126 C 
ATOM     21  N17 ZIN A   1      19.052   0.492  11.352  0.00  0.00    -0.279 NA
ATOM     22  C16 ZIN A   1      17.711   0.639  10.769  0.00  0.00     0.126 C 
ATOM     23  C15 ZIN A   1      17.835   1.151   9.332  0.00  0.00     0.287 C 
BRANCH  21  24
ATOM     24  C18 ZIN A   1      18.976   0.094  12.690  0.00  0.00     0.034 A 
ATOM     25  C24 ZIN A   1      19.015   1.045  13.703  0.00  0.00     0.077 A 
ATOM     26  C22 ZIN A   1      18.934   0.647  15.024  0.00  0.00     0.057 A 
ATOM     27 Cl25 ZIN A   1      19.153   2.730  13.308  0.00  0.00    -0.081 Cl
ATOM     28  C21 ZIN A   1      18.825  -0.696  15.339  0.00  0.00     0.026 A 
ATOM     29 Cl23 ZIN A   1      18.974   1.834  16.291  0.00  0.00    -0.082 Cl
ATOM     30  C20 ZIN A   1      18.791  -1.644  14.333  0.00  0.00     0.004 A 
ATOM     31  C19 ZIN A   1      18.867  -1.252  13.010  0.00  0.00     0.025 A 
ENDBRANCH  21  24
ENDBRANCH  17  18
ENDBRANCH   1  17
TORSDOF 7
ENDMDL
MODEL 7
REMARK VINA RESULT:      -7.9      4.248      8.758
REMARK  7 active torsions:
REMARK  status: ('A' for Active; 'I' for Inactive)
REMARK    1  A    between atoms: C8_8  and  O9_9 
REMARK    2  A    between atoms: O9_9  and  C10_10 
REMARK    3  A    between atoms: C10_10  and  C11_11 
REMARK    4  A    between atoms: C11_11  and  C12_12 
REMARK    5  A    between atoms: C12_12  and  C13_13 
REMARK    6  A    between atoms: C13_13  and  N14_14 
REMARK    7  A    between atoms: N17_17  and  C18_18 
ROOT
ATOM      1  C12 ZIN A   1      17.735   0.702  14.467  0.00  0.00     0.032 C 
ENDROOT
BRANCH   1   2
ATOM      2  C11 ZIN A   1      18.973  -0.067  14.930  0.00  0.00     0.028 C 
BRANCH   2   3
ATOM      3  C10 ZIN A   1      18.880  -1.518  14.452  0.00  0.00     0.175 C 
BRANCH   3   4
ATOM      4  O9  ZIN A   1      19.501  -1.637  13.171  0.00  0.00    -0.351 OA
BRANCH   4   5
ATOM      5  C8  ZIN A   1      19.098  -2.669  12.383  0.00  0.00     0.070 A 
ATOM      6  C7  ZIN A   1      17.794  -3.136  12.465  0.00  0.00     0.037 A 
ATOM      7  C6  ZIN A   1      17.381  -4.186  11.666  0.00  0.00     0.012 A 
ATOM      8  C5  ZIN A   1      18.267  -4.773  10.784  0.00  0.00    -0.031 A 
ATOM      9  C4  ZIN A   1      17.819  -5.917   9.911  0.00  0.00     0.050 C 
ATOM     10  C29 ZIN A   1      19.574  -4.310  10.698  0.00  0.00     0.043 A 
ATOM     11  C3  ZIN A   1      18.537  -5.845   8.564  0.00  0.00     0.108 C 
ATOM     12  C2  ZIN A   1      20.015  -5.654   8.782  0.00  0.00     0.222 C 
ATOM     13  O1  ZIN A   1      20.805  -6.179   8.025  0.00  0.00    -0.273 OA
ATOM     14  N30 ZIN A   1      20.469  -4.912   9.808  0.00  0.00    -0.327 N 
ATOM     15  H57 ZIN A   1      21.424  -4.792   9.929  0.00  0.00     0.169 HD
ATOM     16  C28 ZIN A   1      19.990  -3.257  11.499  0.00  0.00     0.066 A 
ENDBRANCH   4   5
ENDBRANCH   3   4
ENDBRANCH   2   3
ENDBRANCH   1   2
BRANCH   1  17
ATOM     17  C13 ZIN A   1      18.106   1.603  13.286  0.00  0.00     0.272 C 
BRANCH  17  18
ATOM     18  N14 ZIN A   1      18.302   0.782  12.085  0.00  0.00     0.090 N 
ATOM     19  C27 ZIN A   1      17.039   0.603  11.357  0.00  0.00     0.287 C 
ATOM     20  C26 ZIN A   1      17.269  -0.322  10.159  0.00  0.00     0.126 C 
ATOM     21  N17 ZIN A   1      18.299   0.259   9.286  0.00  0.00    -0.279 NA
ATOM     22  C16 ZIN A   1      19.562   0.437  10.015  0.00  0.00     0.126 C 
ATOM     23  C15 ZIN A   1      19.333   1.361  11.213  0.00  0.00     0.287 C 
BRANCH  21  24
ATOM     24  C18 ZIN A   1      18.485  -0.523   8.143  0.00  0.00     0.034 A 
ATOM     25  C24 ZIN A   1      18.716   0.083   6.914  0.00  0.00     0.077 A 
ATOM     26  C22 ZIN A   1      18.906  -0.695   5.787  0.00  0.00     0.057 A 
ATOM     27 Cl25 ZIN A   1      18.779   1.814   6.798  0.00  0.00    -0.081 Cl
ATOM     28  C21 ZIN A   1      18.854  -2.074   5.880  0.00  0.00     0.026 A 
ATOM     29 Cl23 ZIN A   1      19.203   0.061   4.252  0.00  0.00    -0.082 Cl
ATOM     30  C20 ZIN A   1      18.619  -2.680   7.101  0.00  0.00     0.004 A 
ATOM     31  C19 ZIN A   1      18.434  -1.908   8.232  0.00  0.00     0.025 A 
ENDBRANCH  21  24
ENDBRANCH  17  18
ENDBRANCH   1  17
TORSDOF 7
ENDMDL
MODEL 8
REMARK VINA RESULT:      -7.9      3.372      6.374
REMARK  7 active torsions:
REMARK  status: ('A' for Active; 'I' for Inactive)
REMARK    1  A    between atoms: C8_8  and  O9_9 
REMARK    2  A    between atoms: O9_9  and  C10_10 
REMARK    3  A    between atoms: C10_10  and  C11_11 
REMARK    4  A    between atoms: C11_11  and  C12_12 
REMARK    5  A    between atoms: C12_12  and  C13_13 
REMARK    6  A    between atoms: C13_13  and  N14_14 
REMARK    7  A    between atoms: N17_17  and  C18_18 
ROOT
ATOM      1  C12 ZIN A   1      19.221   1.733   8.853  0.00  0.00     0.032 C 
ENDROOT
BRANCH   1   2
ATOM      2  C11 ZIN A   1      19.193   1.772   7.324  0.00  0.00     0.028 C 
BRANCH   2   3
ATOM      3  C10 ZIN A   1      18.338   0.615   6.802  0.00  0.00     0.175 C 
BRANCH   3   4
ATOM      4  O9  ZIN A   1      19.164  -0.297   6.075  0.00  0.00    -0.351 OA
BRANCH   4   5
ATOM      5  C8  ZIN A   1      19.175  -1.589   6.496  0.00  0.00     0.070 A 
ATOM      6  C7  ZIN A   1      19.122  -2.622   5.570  0.00  0.00     0.037 A 
ATOM      7  C6  ZIN A   1      19.132  -3.936   5.995  0.00  0.00     0.012 A 
ATOM      8  C5  ZIN A   1      19.196  -4.227   7.343  0.00  0.00    -0.031 A 
ATOM      9  C4  ZIN A   1      19.209  -5.661   7.808  0.00  0.00     0.050 C 
ATOM     10  C29 ZIN A   1      19.249  -3.198   8.275  0.00  0.00     0.043 A 
ATOM     11  C3  ZIN A   1      20.074  -5.784   9.063  0.00  0.00     0.108 C 
ATOM     12  C2  ZIN A   1      19.691  -4.718  10.055  0.00  0.00     0.222 C 
ATOM     13  O1  ZIN A   1      19.726  -4.965  11.242  0.00  0.00    -0.273 OA
ATOM     14  N30 ZIN A   1      19.308  -3.497   9.640  0.00  0.00    -0.327 N 
ATOM     15  H57 ZIN A   1      19.073  -2.819  10.293  0.00  0.00     0.169 HD
ATOM     16  C28 ZIN A   1      19.239  -1.878   7.851  0.00  0.00     0.066 A 
ENDBRANCH   4   5
ENDBRANCH   3   4
ENDBRANCH   2   3
ENDBRANCH   1   2
BRANCH   1  17
ATOM     17  C13 ZIN A   1      18.011   0.949   9.366  0.00  0.00     0.272 C 
BRANCH  17  18
ATOM     18  N14 ZIN A   1      18.272   0.484  10.734  0.00  0.00     0.090 N 
ATOM     19  C27 ZIN A   1      19.327   1.284  11.370  0.00  0.00     0.287 C 
ATOM     20  C26 ZIN A   1      19.625   0.718  12.760  0.00  0.00     0.126 C 
ATOM     21  N17 ZIN A   1      18.396   0.737  13.567  0.00  0.00    -0.279 NA
ATOM     22  C16 ZIN A   1      17.340  -0.062  12.931  0.00  0.00     0.126 C 
ATOM     23  C15 ZIN A   1      17.043   0.503  11.540  0.00  0.00     0.287 C 
BRANCH  21  24
ATOM     24  C18 ZIN A   1      18.645   0.295  14.869  0.00  0.00     0.034 A 
ATOM     25  C24 ZIN A   1      18.797   1.214  15.900  0.00  0.00     0.077 A 
ATOM     26  C22 ZIN A   1      19.037   0.772  17.188  0.00  0.00     0.057 A 
ATOM     27 Cl25 ZIN A   1      18.675   2.915  15.573  0.00  0.00    -0.081 Cl
ATOM     28  C21 ZIN A   1      19.136  -0.584  17.448  0.00  0.00     0.026 A 
ATOM     29 Cl23 ZIN A   1      19.221   1.918  18.479  0.00  0.00    -0.082 Cl
ATOM     30  C20 ZIN A   1      18.990  -1.500  16.422  0.00  0.00     0.004 A 
ATOM     31  C19 ZIN A   1      18.745  -1.064  15.134  0.00  0.00     0.025 A 
ENDBRANCH  21  24
ENDBRANCH  17  18
ENDBRANCH   1  17
TORSDOF 7
ENDMDL
MODEL 9
REMARK VINA RESULT:      -7.8      3.091      6.141
REMARK  7 active torsions:
REMARK  status: ('A' for Active; 'I' for Inactive)
REMARK    1  A    between atoms: C8_8  and  O9_9 
REMARK    2  A    between atoms: O9_9  and  C10_10 
REMARK    3  A    between atoms: C10_10  and  C11_11 
REMARK    4  A    between atoms: C11_11  and  C12_12 
REMARK    5  A    between atoms: C12_12  and  C13_13 
REMARK    6  A    between atoms: C13_13  and  N14_14 
REMARK    7  A    between atoms: N17_17  and  C18_18 
ROOT
ATOM      1  C12 ZIN A   1      19.627   1.656   8.342  0.00  0.00     0.032 C 
ENDROOT
BRANCH   1   2
ATOM      2  C11 ZIN A   1      18.826   1.822   7.049  0.00  0.00     0.028 C 
BRANCH   2   3
ATOM      3  C10 ZIN A   1      18.705   0.467   6.348  0.00  0.00     0.175 C 
BRANCH   3   4
ATOM      4  O9  ZIN A   1      17.612  -0.263   6.909  0.00  0.00    -0.351 OA
BRANCH   4   5
ATOM      5  C8  ZIN A   1      17.905  -1.161   7.886  0.00  0.00     0.070 A 
ATOM      6  C7  ZIN A   1      17.475  -0.936   9.186  0.00  0.00     0.037 A 
ATOM      7  C6  ZIN A   1      17.772  -1.847  10.182  0.00  0.00     0.012 A 
ATOM      8  C5  ZIN A   1      18.498  -2.984   9.886  0.00  0.00    -0.031 A 
ATOM      9  C4  ZIN A   1      18.823  -3.979  10.971  0.00  0.00     0.050 C 
ATOM     10  C29 ZIN A   1      18.932  -3.214   8.586  0.00  0.00     0.043 A 
ATOM     11  C3  ZIN A   1      18.827  -5.391  10.385  0.00  0.00     0.108 C 
ATOM     12  C2  ZIN A   1      19.652  -5.419   9.125  0.00  0.00     0.222 C 
ATOM     13  O1  ZIN A   1      20.308  -6.405   8.861  0.00  0.00    -0.273 OA
ATOM     14  N30 ZIN A   1      19.672  -4.364   8.292  0.00  0.00    -0.327 N 
ATOM     15  H57 ZIN A   1      20.201  -4.401   7.480  0.00  0.00     0.169 HD
ATOM     16  C28 ZIN A   1      18.634  -2.301   7.585  0.00  0.00     0.066 A 
ENDBRANCH   4   5
ENDBRANCH   3   4
ENDBRANCH   2   3
ENDBRANCH   1   2
BRANCH   1  17
ATOM     17  C13 ZIN A   1      18.971   2.475   9.457  0.00  0.00     0.272 C 
BRANCH  17  18
ATOM     18  N14 ZIN A   1      18.901   1.668  10.681  0.00  0.00     0.090 N 
ATOM     19  C27 ZIN A   1      20.124   1.817  11.482  0.00  0.00     0.287 C 
ATOM     20  C26 ZIN A   1      20.045   0.901  12.706  0.00  0.00     0.126 C 
ATOM     21  N17 ZIN A   1      18.856   1.247  13.497  0.00  0.00    -0.279 NA
ATOM     22  C16 ZIN A   1      17.633   1.097  12.696  0.00  0.00     0.126 C 
ATOM     23  C15 ZIN A   1      17.711   2.012  11.472  0.00  0.00     0.287 C 
BRANCH  21  24
ATOM     24  C18 ZIN A   1      18.789   0.479  14.663  0.00  0.00     0.034 A 
ATOM     25  C24 ZIN A   1      18.958   1.080  15.904  0.00  0.00     0.077 A 
ATOM     26  C22 ZIN A   1      18.886   0.317  17.055  0.00  0.00     0.057 A 
ATOM     27 Cl25 ZIN A   1      19.248   2.789  16.009  0.00  0.00    -0.081 Cl
ATOM     28  C21 ZIN A   1      18.656  -1.045  16.970  0.00  0.00     0.026 A 
ATOM     29 Cl23 ZIN A   1      19.089   1.067  18.607  0.00  0.00    -0.082 Cl
ATOM     30  C20 ZIN A   1      18.493  -1.646  15.736  0.00  0.00     0.004 A 
ATOM     31  C19 ZIN A   1      18.559  -0.888  14.582  0.00  0.00     0.025 A 
ENDBRANCH  21  24
ENDBRANCH  17  18
ENDBRANCH   1  17
TORSDOF 7
ENDMDL
