MODEL 1
REMARK VINA RESULT:      -8.6      0.000      0.000
REMARK  0 active torsions:
REMARK  status: ('A' for Active; 'I' for Inactive)
ROOT
ATOM      1  C1  ZIN A   1      19.409  -3.609  11.319  0.00  0.00     0.269 C 
ATOM      2  N2  ZIN A   1      18.307  -2.866  11.942  0.00  0.00    -0.074 N 
ATOM      3  H3  ZIN A   1      17.596  -3.504  12.266  0.00  0.00     0.279 HD
ATOM      4  C4  ZIN A   1      18.816  -2.047  13.077  0.00  0.00     0.244 C 
ATOM      5  C5  ZIN A   1      17.751  -0.929  13.190  0.00  0.00     0.057 C 
ATOM      6  C7  ZIN A   1      18.118   0.075  14.200  0.00  0.00    -0.016 A 
ATOM      7  C8  ZIN A   1      18.492  -0.442  15.447  0.00  0.00     0.034 A 
ATOM      8  C9  ZIN A   1      18.891   0.368  16.482  0.00  0.00     0.034 A 
ATOM      9 Cl10 ZIN A   1      19.343  -0.326  18.009  0.00  0.00    -0.084 Cl
ATOM     10  C11 ZIN A   1      18.926   1.740  16.305  0.00  0.00     0.026 A 
ATOM     11  C12 ZIN A   1      18.562   2.266  15.089  0.00  0.00     0.039 A 
ATOM     12  C13 ZIN A   1      18.147   1.446  14.032  0.00  0.00     0.083 A 
ATOM     13  O14 ZIN A   1      17.781   2.079  12.922  0.00  0.00    -0.310 OA
ATOM     14  C15 ZIN A   1      17.976   1.800  11.640  0.00  0.00     0.082 A 
ATOM     15  C16 ZIN A   1      18.378   2.878  10.836  0.00  0.00     0.038 A 
ATOM     16  C17 ZIN A   1      18.645   2.704   9.498  0.00  0.00     0.003 A 
ATOM     17  C18 ZIN A   1      18.519   1.447   8.935  0.00  0.00     0.001 A 
ATOM     18  C19 ZIN A   1      18.112   0.391   9.717  0.00  0.00     0.010 A 
ATOM     19  C20 ZIN A   1      17.822   0.562  11.073  0.00  0.00    -0.018 A 
ATOM     20  C21 ZIN A   1      17.341  -0.646  11.794  0.00  0.00     0.057 C 
ATOM     21  C23 ZIN A   1      17.728  -1.904  10.976  0.00  0.00     0.244 C 
ENDROOT
TORSDOF 0
ENDMDL
MODEL 2
REMARK VINA RESULT:      -8.5      3.957      6.177
REMARK  0 active torsions:
REMARK  status: ('A' for Active; 'I' for Inactive)
ROOT
ATOM      1  C1  ZIN A   1      17.782  -2.792  11.876  0.00  0.00     0.269 C 
ATOM      2  N2  ZIN A   1      18.931  -2.180  11.195  0.00  0.00    -0.074 N 
ATOM      3  H3  ZIN A   1      19.744  -2.771  11.285  0.00  0.00     0.279 HD
ATOM      4  C4  ZIN A   1      18.616  -1.954   9.758  0.00  0.00     0.244 C 
ATOM      5  C5  ZIN A   1      19.589  -0.811   9.376  0.00  0.00     0.057 C 
ATOM      6  C7  ZIN A   1      19.370  -0.346   7.998  0.00  0.00    -0.016 A 
ATOM      7  C8  ZIN A   1      19.318  -1.356   7.028  0.00  0.00     0.034 A 
ATOM      8  C9  ZIN A   1      19.089  -1.082   5.702  0.00  0.00     0.034 A 
ATOM      9 Cl10 ZIN A   1      19.035  -2.373   4.541  0.00  0.00    -0.084 Cl
ATOM     10  C11 ZIN A   1      18.908   0.228   5.293  0.00  0.00     0.026 A 
ATOM     11  C12 ZIN A   1      18.956   1.232   6.230  0.00  0.00     0.039 A 
ATOM     12  C13 ZIN A   1      19.196   0.960   7.583  0.00  0.00     0.083 A 
ATOM     13  O14 ZIN A   1      19.262   2.022   8.380  0.00  0.00    -0.310 OA
ATOM     14  C15 ZIN A   1      18.816   2.230   9.612  0.00  0.00     0.082 A 
ATOM     15  C16 ZIN A   1      18.165   3.455   9.826  0.00  0.00     0.038 A 
ATOM     16  C17 ZIN A   1      17.630   3.770  11.053  0.00  0.00     0.003 A 
ATOM     17  C18 ZIN A   1      17.731   2.864  12.093  0.00  0.00     0.001 A 
ATOM     18  C19 ZIN A   1      18.380   1.668  11.892  0.00  0.00     0.010 A 
ATOM     19  C20 ZIN A   1      18.942   1.348  10.653  0.00  0.00    -0.018 A 
ATOM     20  C21 ZIN A   1      19.662   0.050  10.581  0.00  0.00     0.057 C 
ATOM     21  C23 ZIN A   1      19.209  -0.841  11.765  0.00  0.00     0.244 C 
ENDROOT
TORSDOF 0
ENDMDL
MODEL 3
REMARK VINA RESULT:      -8.4      2.465      4.014
REMARK  0 active torsions:
REMARK  status: ('A' for Active; 'I' for Inactive)
ROOT
ATOM      1  C1  ZIN A   1      16.592   5.101  12.290  0.00  0.00     0.269 C 
ATOM      2  N2  ZIN A   1      17.886   4.569  12.736  0.00  0.00    -0.074 N 
ATOM      3  H3  ZIN A   1      18.356   5.241  13.324  0.00  0.00     0.279 HD
ATOM      4  C4  ZIN A   1      17.690   3.290  13.473  0.00  0.00     0.244 C 
ATOM      5  C5  ZIN A   1      19.063   2.593  13.311  0.00  0.00     0.057 C 
ATOM      6  C7  ZIN A   1      19.058   1.238  13.884  0.00  0.00    -0.016 A 
ATOM      7  C8  ZIN A   1      18.556   1.144  15.189  0.00  0.00     0.034 A 
ATOM      8  C9  ZIN A   1      18.458  -0.058  15.847  0.00  0.00     0.034 A 
ATOM      9 Cl10 ZIN A   1      17.829  -0.118  17.464  0.00  0.00    -0.084 Cl
ATOM     10  C11 ZIN A   1      18.870  -1.220  15.218  0.00  0.00     0.026 A 
ATOM     11  C12 ZIN A   1      19.366  -1.147  13.938  0.00  0.00     0.039 A 
ATOM     12  C13 ZIN A   1      19.475   0.076  13.264  0.00  0.00     0.083 A 
ATOM     13  O14 ZIN A   1      20.010   0.018  12.049  0.00  0.00    -0.310 OA
ATOM     14  C15 ZIN A   1      19.714   0.652  10.922  0.00  0.00     0.082 A 
ATOM     15  C16 ZIN A   1      19.672  -0.145   9.767  0.00  0.00     0.038 A 
ATOM     16  C17 ZIN A   1      19.343   0.393   8.545  0.00  0.00     0.003 A 
ATOM     17  C18 ZIN A   1      19.044   1.740   8.452  0.00  0.00     0.001 A 
ATOM     18  C19 ZIN A   1      19.097   2.528   9.579  0.00  0.00     0.010 A 
ATOM     19  C20 ZIN A   1      19.448   1.992  10.821  0.00  0.00    -0.018 A 
ATOM     20  C21 ZIN A   1      19.520   2.957  11.949  0.00  0.00     0.057 C 
ATOM     21  C23 ZIN A   1      18.732   4.236  11.566  0.00  0.00     0.244 C 
ENDROOT
TORSDOF 0
ENDMDL
MODEL 4
REMARK VINA RESULT:      -8.4      3.271      5.574
REMARK  0 active torsions:
REMARK  status: ('A' for Active; 'I' for Inactive)
ROOT
ATOM      1  C1  ZIN A   1      16.971  -4.573  10.971  0.00  0.00     0.269 C 
ATOM      2  N2  ZIN A   1      18.247  -3.962  10.581  0.00  0.00    -0.074 N 
ATOM      3  H3  ZIN A   1      18.802  -4.619  10.053  0.00  0.00     0.279 HD
ATOM      4  C4  ZIN A   1      18.004  -2.732   9.778  0.00  0.00     0.244 C 
ATOM      5  C5  ZIN A   1      19.310  -1.927   9.992  0.00  0.00     0.057 C 
ATOM      6  C7  ZIN A   1      19.242  -0.600   9.361  0.00  0.00    -0.016 A 
ATOM      7  C8  ZIN A   1      18.818  -0.595   8.025  0.00  0.00     0.034 A 
ATOM      8  C9  ZIN A   1      18.674   0.569   7.310  0.00  0.00     0.034 A 
ATOM      9 Cl10 ZIN A   1      18.146   0.518   5.657  0.00  0.00    -0.084 Cl
ATOM     10  C11 ZIN A   1      18.958   1.783   7.911  0.00  0.00     0.026 A 
ATOM     11  C12 ZIN A   1      19.376   1.798   9.220  0.00  0.00     0.039 A 
ATOM     12  C13 ZIN A   1      19.532   0.614   9.953  0.00  0.00     0.083 A 
ATOM     13  O14 ZIN A   1      19.983   0.761  11.194  0.00  0.00    -0.310 OA
ATOM     14  C15 ZIN A   1      19.664   0.150  12.328  0.00  0.00     0.082 A 
ATOM     15  C16 ZIN A   1      19.491   0.987  13.443  0.00  0.00     0.038 A 
ATOM     16  C17 ZIN A   1      19.125   0.473  14.665  0.00  0.00     0.003 A 
ATOM     17  C18 ZIN A   1      18.921  -0.888  14.799  0.00  0.00     0.001 A 
ATOM     18  C19 ZIN A   1      19.103  -1.713  13.713  0.00  0.00     0.010 A 
ATOM     19  C20 ZIN A   1      19.491  -1.201  12.472  0.00  0.00    -0.018 A 
ATOM     20  C21 ZIN A   1      19.706  -2.201  11.394  0.00  0.00     0.057 C 
ATOM     21  C23 ZIN A   1      18.991  -3.520  11.784  0.00  0.00     0.244 C 
ENDROOT
TORSDOF 0
ENDMDL
MODEL 5
REMARK VINA RESULT:      -8.1      3.893      5.695
REMARK  0 active torsions:
REMARK  status: ('A' for Active; 'I' for Inactive)
ROOT
ATOM      1  C1  ZIN A   1      19.361  -0.324   4.923  0.00  0.00     0.269 C 
ATOM      2  N2  ZIN A   1      18.397  -0.852   5.896  0.00  0.00    -0.074 N 
ATOM      3  H3  ZIN A   1      17.622  -1.288   5.419  0.00  0.00     0.279 HD
ATOM      4  C4  ZIN A   1      19.061  -1.833   6.798  0.00  0.00     0.244 C 
ATOM      5  C5  ZIN A   1      18.160  -1.797   8.057  0.00  0.00     0.057 C 
ATOM      6  C7  ZIN A   1      18.704  -2.630   9.141  0.00  0.00    -0.016 A 
ATOM      7  C8  ZIN A   1      19.061  -3.933   8.770  0.00  0.00     0.034 A 
ATOM      8  C9  ZIN A   1      19.612  -4.820   9.663  0.00  0.00     0.034 A 
ATOM      9 Cl10 ZIN A   1      20.036  -6.424   9.150  0.00  0.00    -0.084 Cl
ATOM     10  C11 ZIN A   1      19.821  -4.432  10.975  0.00  0.00     0.026 A 
ATOM     11  C12 ZIN A   1      19.476  -3.158  11.357  0.00  0.00     0.039 A 
ATOM     12  C13 ZIN A   1      18.907  -2.251  10.453  0.00  0.00     0.083 A 
ATOM     13  O14 ZIN A   1      18.579  -1.066  10.957  0.00  0.00    -0.310 OA
ATOM     14  C15 ZIN A   1      18.677   0.161  10.464  0.00  0.00     0.082 A 
ATOM     15  C16 ZIN A   1      19.183   1.133  11.343  0.00  0.00     0.038 A 
ATOM     16  C17 ZIN A   1      19.363   2.434  10.935  0.00  0.00     0.003 A 
ATOM     17  C18 ZIN A   1      19.045   2.792   9.638  0.00  0.00     0.001 A 
ATOM     18  C19 ZIN A   1      18.536   1.846   8.777  0.00  0.00     0.010 A 
ATOM     19  C20 ZIN A   1      18.334   0.526   9.189  0.00  0.00    -0.018 A 
ATOM     20  C21 ZIN A   1      17.730  -0.384   8.181  0.00  0.00     0.057 C 
ATOM     21  C23 ZIN A   1      17.907   0.238   6.773  0.00  0.00     0.244 C 
ENDROOT
TORSDOF 0
ENDMDL
MODEL 6
REMARK VINA RESULT:      -8.0      3.939      6.888
REMARK  0 active torsions:
REMARK  status: ('A' for Active; 'I' for Inactive)
ROOT
ATOM      1  C1  ZIN A   1      19.252   3.611  11.096  0.00  0.00     0.269 C 
ATOM      2  N2  ZIN A   1      18.182   2.800  10.502  0.00  0.00    -0.074 N 
ATOM      3  H3  ZIN A   1      17.430   3.393  10.184  0.00  0.00     0.279 HD
ATOM      4  C4  ZIN A   1      18.717   1.995   9.369  0.00  0.00     0.244 C 
ATOM      5  C5  ZIN A   1      17.714   0.818   9.290  0.00  0.00     0.057 C 
ATOM      6  C7  ZIN A   1      18.119  -0.178   8.286  0.00  0.00    -0.016 A 
ATOM      7  C8  ZIN A   1      18.441   0.342   7.025  0.00  0.00     0.034 A 
ATOM      8  C9  ZIN A   1      18.867  -0.458   5.993  0.00  0.00     0.034 A 
ATOM      9 Cl10 ZIN A   1      19.252   0.240   4.450  0.00  0.00    -0.084 Cl
ATOM     10  C11 ZIN A   1      18.982  -1.823   6.187  0.00  0.00     0.026 A 
ATOM     11  C12 ZIN A   1      18.670  -2.352   7.416  0.00  0.00     0.039 A 
ATOM     12  C13 ZIN A   1      18.228  -1.543   8.470  0.00  0.00     0.083 A 
ATOM     13  O14 ZIN A   1      17.918  -2.180   9.594  0.00  0.00    -0.310 OA
ATOM     14  C15 ZIN A   1      18.120  -1.873  10.869  0.00  0.00     0.082 A 
ATOM     15  C16 ZIN A   1      18.596  -2.916  11.679  0.00  0.00     0.038 A 
ATOM     16  C17 ZIN A   1      18.877  -2.709  13.010  0.00  0.00     0.003 A 
ATOM     17  C18 ZIN A   1      18.690  -1.454  13.559  0.00  0.00     0.001 A 
ATOM     18  C19 ZIN A   1      18.210  -0.433  12.772  0.00  0.00     0.010 A 
ATOM     19  C20 ZIN A   1      17.907  -0.638  11.423  0.00  0.00    -0.018 A 
ATOM     20  C21 ZIN A   1      17.346   0.531  10.697  0.00  0.00     0.057 C 
ATOM     21  C23 ZIN A   1      17.675   1.820  11.491  0.00  0.00     0.244 C 
ENDROOT
TORSDOF 0
ENDMDL
MODEL 7
REMARK VINA RESULT:      -8.0      2.538      4.417
REMARK  0 active torsions:
REMARK  status: ('A' for Active; 'I' for Inactive)
ROOT
ATOM      1  C1  ZIN A   1      16.912   4.335  10.817  0.00  0.00     0.269 C 
ATOM      2  N2  ZIN A   1      18.189   3.667  11.097  0.00  0.00    -0.074 N 
ATOM      3  H3  ZIN A   1      18.777   4.262  11.663  0.00  0.00     0.279 HD
ATOM      4  C4  ZIN A   1      17.950   2.372  11.791  0.00  0.00     0.244 C 
ATOM      5  C5  ZIN A   1      19.229   1.567  11.452  0.00  0.00     0.057 C 
ATOM      6  C7  ZIN A   1      19.156   0.188  11.958  0.00  0.00    -0.016 A 
ATOM      7  C8  ZIN A   1      18.783   0.065  13.303  0.00  0.00     0.034 A 
ATOM      8  C9  ZIN A   1      18.640  -1.158  13.912  0.00  0.00     0.034 A 
ATOM      9 Cl10 ZIN A   1      18.176  -1.253  15.582  0.00  0.00    -0.084 Cl
ATOM     10  C11 ZIN A   1      18.876  -2.315  13.189  0.00  0.00     0.026 A 
ATOM     11  C12 ZIN A   1      19.244  -2.214  11.869  0.00  0.00     0.039 A 
ATOM     12  C13 ZIN A   1      19.398  -0.970  11.245  0.00  0.00     0.083 A 
ATOM     13  O14 ZIN A   1      19.799  -1.007   9.978  0.00  0.00    -0.310 OA
ATOM     14  C15 ZIN A   1      19.451  -0.287   8.920  0.00  0.00     0.082 A 
ATOM     15  C16 ZIN A   1      19.218  -1.011   7.740  0.00  0.00     0.038 A 
ATOM     16  C17 ZIN A   1      18.818  -0.379   6.586  0.00  0.00     0.003 A 
ATOM     17  C18 ZIN A   1      18.638   0.992   6.588  0.00  0.00     0.001 A 
ATOM     18  C19 ZIN A   1      18.878   1.708   7.738  0.00  0.00     0.010 A 
ATOM     19  C20 ZIN A   1      19.302   1.075   8.910  0.00  0.00    -0.018 A 
ATOM     20  C21 ZIN A   1      19.578   1.965  10.067  0.00  0.00     0.057 C 
ATOM     21  C23 ZIN A   1      18.878   3.327   9.830  0.00  0.00     0.244 C 
ENDROOT
TORSDOF 0
ENDMDL
MODEL 8
REMARK VINA RESULT:      -8.0      2.603      4.911
REMARK  0 active torsions:
REMARK  status: ('A' for Active; 'I' for Inactive)
ROOT
ATOM      1  C1  ZIN A   1      17.752  -2.526  11.164  0.00  0.00     0.269 C 
ATOM      2  N2  ZIN A   1      18.799  -1.560  11.519  0.00  0.00    -0.074 N 
ATOM      3  H3  ZIN A   1      19.581  -1.645  10.887  0.00  0.00     0.279 HD
ATOM      4  C4  ZIN A   1      18.255  -0.174  11.479  0.00  0.00     0.244 C 
ATOM      5  C5  ZIN A   1      19.210   0.590  12.428  0.00  0.00     0.057 C 
ATOM      6  C7  ZIN A   1      18.785   1.984  12.625  0.00  0.00    -0.016 A 
ATOM      7  C8  ZIN A   1      18.510   2.696  11.449  0.00  0.00     0.034 A 
ATOM      8  C9  ZIN A   1      18.072   3.997  11.470  0.00  0.00     0.034 A 
ATOM      9 Cl10 ZIN A   1      17.747   4.832   9.982  0.00  0.00    -0.084 Cl
ATOM     10  C11 ZIN A   1      17.898   4.643  12.681  0.00  0.00     0.026 A 
ATOM     11  C12 ZIN A   1      18.163   3.962  13.845  0.00  0.00     0.039 A 
ATOM     12  C13 ZIN A   1      18.616   2.636  13.831  0.00  0.00     0.083 A 
ATOM     13  O14 ZIN A   1      18.877   2.105  15.020  0.00  0.00    -0.310 OA
ATOM     14  C15 ZIN A   1      18.663   0.892  15.512  0.00  0.00     0.082 A 
ATOM     15  C16 ZIN A   1      18.128   0.846  16.809  0.00  0.00     0.038 A 
ATOM     16  C17 ZIN A   1      17.830  -0.354  17.412  0.00  0.00     0.003 A 
ATOM     17  C18 ZIN A   1      18.057  -1.535  16.729  0.00  0.00     0.001 A 
ATOM     18  C19 ZIN A   1      18.594  -1.495  15.463  0.00  0.00     0.010 A 
ATOM     19  C20 ZIN A   1      18.915  -0.281  14.850  0.00  0.00    -0.018 A 
ATOM     20  C21 ZIN A   1      19.538  -0.376  13.504  0.00  0.00     0.057 C 
ATOM     21  C23 ZIN A   1      19.246  -1.780  12.915  0.00  0.00     0.244 C 
ENDROOT
TORSDOF 0
ENDMDL
MODEL 9
REMARK VINA RESULT:      -8.0      3.559      6.432
REMARK  0 active torsions:
REMARK  status: ('A' for Active; 'I' for Inactive)
ROOT
ATOM      1  C1  ZIN A   1      19.344   4.505  11.869  0.00  0.00     0.269 C 
ATOM      2  N2  ZIN A   1      18.261   3.660  11.351  0.00  0.00    -0.074 N 
ATOM      3  H3  ZIN A   1      17.512   4.234  10.992  0.00  0.00     0.279 HD
ATOM      4  C4  ZIN A   1      18.777   2.761  10.282  0.00  0.00     0.244 C 
ATOM      5  C5  ZIN A   1      17.761   1.593  10.305  0.00  0.00     0.057 C 
ATOM      6  C7  ZIN A   1      18.147   0.516   9.380  0.00  0.00    -0.016 A 
ATOM      7  C8  ZIN A   1      18.463   0.930   8.079  0.00  0.00     0.034 A 
ATOM      8  C9  ZIN A   1      18.872   0.045   7.111  0.00  0.00     0.034 A 
ATOM      9 Cl10 ZIN A   1      19.250   0.613   5.515  0.00  0.00    -0.084 Cl
ATOM     10  C11 ZIN A   1      18.974  -1.301   7.413  0.00  0.00     0.026 A 
ATOM     11  C12 ZIN A   1      18.668  -1.727   8.683  0.00  0.00     0.039 A 
ATOM     12  C13 ZIN A   1      18.244  -0.831   9.673  0.00  0.00     0.083 A 
ATOM     13  O14 ZIN A   1      17.937  -1.373  10.846  0.00  0.00    -0.310 OA
ATOM     14  C15 ZIN A   1      18.153  -0.967  12.091  0.00  0.00     0.082 A 
ATOM     15  C16 ZIN A   1      18.626  -1.947  12.978  0.00  0.00     0.038 A 
ATOM     16  C17 ZIN A   1      18.920  -1.638  14.285  0.00  0.00     0.003 A 
ATOM     17  C18 ZIN A   1      18.751  -0.341  14.734  0.00  0.00     0.001 A 
ATOM     18  C19 ZIN A   1      18.275   0.619  13.871  0.00  0.00     0.010 A 
ATOM     19  C20 ZIN A   1      17.958   0.310  12.546  0.00  0.00    -0.018 A 
ATOM     20  C21 ZIN A   1      17.402   1.423  11.733  0.00  0.00     0.057 C 
ATOM     21  C23 ZIN A   1      17.752   2.768  12.419  0.00  0.00     0.244 C 
ENDROOT
TORSDOF 0
ENDMDL
