MODEL 1
REMARK VINA RESULT:      -8.7      0.000      0.000
REMARK  8 active torsions:
REMARK  status: ('A' for Active; 'I' for Inactive)
REMARK    1  A    between atoms: C2_2  and  C4_4 
REMARK    2  A    between atoms: C4_4  and  O5_5 
REMARK    3  A    between atoms: O5_5  and  C6_6 
REMARK    4  A    between atoms: C9_9  and  C10_10 
REMARK    5  A    between atoms: C10_10  and  N11_11 
REMARK       I    between atoms: N11_11  and  C12_12 
REMARK       I    between atoms: C12_12  and  N14_14 
REMARK    6  A    between atoms: N14_14  and  C15_15 
REMARK    7  A    between atoms: N14_14  and  C23_23 
REMARK    8  A    between atoms: C15_15  and  C16_16 
ROOT
ATOM      1  N11 ZIN A   1      18.799   0.353  10.738  0.00  0.00    -0.339 N 
ATOM      2  C12 ZIN A   1      19.274   0.465  11.994  0.00  0.00     0.319 C 
ATOM      3  O13 ZIN A   1      20.202   1.215  12.229  0.00  0.00    -0.247 OA
ATOM      4  N14 ZIN A   1      18.719  -0.254  12.991  0.00  0.00    -0.325 N 
ATOM      5  H45 ZIN A   1      18.108  -0.298  10.537  0.00  0.00     0.164 HD
ENDROOT
BRANCH   1   6
ATOM      6  C10 ZIN A   1      19.326   1.214   9.677  0.00  0.00     0.162 C 
BRANCH   6   7
ATOM      7  C9  ZIN A   1      19.209   0.507   8.351  0.00  0.00    -0.040 A 
ATOM      8  C8  ZIN A   1      19.310  -0.871   8.293  0.00  0.00     0.011 A 
ATOM      9  C7  ZIN A   1      19.203  -1.522   7.079  0.00  0.00     0.037 A 
ATOM     10  C6  ZIN A   1      18.996  -0.792   5.918  0.00  0.00     0.068 A 
ATOM     11  C31 ZIN A   1      18.901   0.591   5.978  0.00  0.00     0.037 A 
ATOM     12  C30 ZIN A   1      19.003   1.236   7.195  0.00  0.00     0.011 A 
BRANCH  10  13
ATOM     13  O5  ZIN A   1      18.891  -1.431   4.723  0.00  0.00    -0.351 OA
BRANCH  13  14
ATOM     14  C4  ZIN A   1      17.600  -1.928   4.364  0.00  0.00     0.179 C 
BRANCH  14  15
ATOM     15  C2  ZIN A   1      17.724  -3.382   3.903  0.00  0.00     0.002 C 
ATOM     16  C1  ZIN A   1      17.910  -4.290   5.120  0.00  0.00     0.011 C 
ATOM     17  C3  ZIN A   1      16.453  -3.788   3.153  0.00  0.00     0.011 C 
ENDBRANCH  14  15
ENDBRANCH  13  14
ENDBRANCH  10  13
ENDBRANCH   6   7
ENDBRANCH   1   6
BRANCH   4  18
ATOM     18  C15 ZIN A   1      17.677  -1.239  12.691  0.00  0.00     0.166 C 
BRANCH  18  19
ATOM     19  C16 ZIN A   1      18.272  -2.372  11.895  0.00  0.00    -0.040 A 
ATOM     20  C22 ZIN A   1      17.550  -2.949  10.867  0.00  0.00     0.012 A 
ATOM     21  C21 ZIN A   1      18.097  -3.984  10.133  0.00  0.00     0.043 A 
ATOM     22  C19 ZIN A   1      19.365  -4.451  10.435  0.00  0.00     0.116 A 
ATOM     23  C18 ZIN A   1      20.086  -3.877  11.468  0.00  0.00     0.043 A 
ATOM     24  F20 ZIN A   1      19.899  -5.467   9.721  0.00  0.00    -0.206 F 
ATOM     25  C17 ZIN A   1      19.539  -2.838  12.197  0.00  0.00     0.012 A 
ENDBRANCH  18  19
ENDBRANCH   4  18
BRANCH   4  26
ATOM     26  C23 ZIN A   1      19.159  -0.050  14.373  0.00  0.00     0.092 C 
ATOM     27  C29 ZIN A   1      18.703  -1.231  15.235  0.00  0.00     0.055 C 
ATOM     28  C28 ZIN A   1      19.113  -0.983  16.688  0.00  0.00     0.274 C 
ATOM     29  N26 ZIN A   1      18.497   0.262  17.167  0.00  0.00     0.084 N 
ATOM     30  C25 ZIN A   1      18.957   1.416  16.384  0.00  0.00     0.274 C 
ATOM     31  C27 ZIN A   1      18.755   0.459  18.599  0.00  0.00     0.309 C 
ATOM     32  C24 ZIN A   1      18.544   1.240  14.921  0.00  0.00     0.055 C 
ENDBRANCH   4  26
TORSDOF 8
ENDMDL
MODEL 2
REMARK VINA RESULT:      -8.5      4.008      8.048
REMARK  8 active torsions:
REMARK  status: ('A' for Active; 'I' for Inactive)
REMARK    1  A    between atoms: C2_2  and  C4_4 
REMARK    2  A    between atoms: C4_4  and  O5_5 
REMARK    3  A    between atoms: O5_5  and  C6_6 
REMARK    4  A    between atoms: C9_9  and  C10_10 
REMARK    5  A    between atoms: C10_10  and  N11_11 
REMARK       I    between atoms: N11_11  and  C12_12 
REMARK       I    between atoms: C12_12  and  N14_14 
REMARK    6  A    between atoms: N14_14  and  C15_15 
REMARK    7  A    between atoms: N14_14  and  C23_23 
REMARK    8  A    between atoms: C15_15  and  C16_16 
ROOT
ATOM      1  N11 ZIN A   1      19.707   1.580  11.355  0.00  0.00    -0.339 N 
ATOM      2  C12 ZIN A   1      19.195   0.402  10.949  0.00  0.00     0.319 C 
ATOM      3  O13 ZIN A   1      18.493   0.353   9.957  0.00  0.00    -0.247 OA
ATOM      4  N14 ZIN A   1      19.461  -0.724  11.642  0.00  0.00    -0.325 N 
ATOM      5  H45 ZIN A   1      20.205   1.632  12.186  0.00  0.00     0.164 HD
ENDROOT
BRANCH   1   6
ATOM      6  C10 ZIN A   1      19.510   2.783  10.543  0.00  0.00     0.162 C 
BRANCH   6   7
ATOM      7  C9  ZIN A   1      18.640   3.760  11.292  0.00  0.00    -0.040 A 
ATOM      8  C8  ZIN A   1      17.453   4.195  10.732  0.00  0.00     0.011 A 
ATOM      9  C7  ZIN A   1      16.653   5.090  11.416  0.00  0.00     0.037 A 
ATOM     10  C6  ZIN A   1      17.043   5.553  12.664  0.00  0.00     0.068 A 
ATOM     11  C31 ZIN A   1      18.238   5.119  13.220  0.00  0.00     0.037 A 
ATOM     12  C30 ZIN A   1      19.031   4.220  12.535  0.00  0.00     0.011 A 
BRANCH  10  13
ATOM     13  O5  ZIN A   1      16.259   6.434  13.339  0.00  0.00    -0.351 OA
BRANCH  13  14
ATOM     14  C4  ZIN A   1      15.361   5.892  14.310  0.00  0.00     0.179 C 
BRANCH  14  15
ATOM     15  C2  ZIN A   1      15.536   6.636  15.637  0.00  0.00     0.002 C 
ATOM     16  C1  ZIN A   1      16.623   5.950  16.467  0.00  0.00     0.011 C 
ATOM     17  C3  ZIN A   1      15.945   8.084  15.358  0.00  0.00     0.011 C 
ENDBRANCH  14  15
ENDBRANCH  13  14
ENDBRANCH  10  13
ENDBRANCH   6   7
ENDBRANCH   1   6
BRANCH   4  18
ATOM     18  C15 ZIN A   1      20.211  -0.649  12.899  0.00  0.00     0.166 C 
BRANCH  18  19
ATOM     19  C16 ZIN A   1      19.247  -0.559  14.054  0.00  0.00    -0.040 A 
ATOM     20  C22 ZIN A   1      18.384   0.517  14.151  0.00  0.00     0.012 A 
ATOM     21  C21 ZIN A   1      17.497   0.598  15.207  0.00  0.00     0.043 A 
ATOM     22  C19 ZIN A   1      17.479  -0.393  16.174  0.00  0.00     0.116 A 
ATOM     23  C18 ZIN A   1      18.348  -1.467  16.079  0.00  0.00     0.043 A 
ATOM     24  F20 ZIN A   1      16.616  -0.312  17.210  0.00  0.00    -0.206 F 
ATOM     25  C17 ZIN A   1      19.231  -1.549  15.019  0.00  0.00     0.012 A 
ENDBRANCH  18  19
ENDBRANCH   4  18
BRANCH   4  26
ATOM     26  C23 ZIN A   1      18.999  -2.019  11.140  0.00  0.00     0.092 C 
ATOM     27  C29 ZIN A   1      17.583  -2.293  11.654  0.00  0.00     0.055 C 
ATOM     28  C28 ZIN A   1      17.129  -3.674  11.175  0.00  0.00     0.274 C 
ATOM     29  N26 ZIN A   1      18.057  -4.696  11.676  0.00  0.00     0.084 N 
ATOM     30  C25 ZIN A   1      19.414  -4.481  11.157  0.00  0.00     0.274 C 
ATOM     31  C27 ZIN A   1      17.577  -6.046  11.353  0.00  0.00     0.309 C 
ATOM     32  C24 ZIN A   1      19.936  -3.124  11.635  0.00  0.00     0.055 C 
ENDBRANCH   4  26
TORSDOF 8
ENDMDL
MODEL 3
REMARK VINA RESULT:      -8.2      2.990      9.343
REMARK  8 active torsions:
REMARK  status: ('A' for Active; 'I' for Inactive)
REMARK    1  A    between atoms: C2_2  and  C4_4 
REMARK    2  A    between atoms: C4_4  and  O5_5 
REMARK    3  A    between atoms: O5_5  and  C6_6 
REMARK    4  A    between atoms: C9_9  and  C10_10 
REMARK    5  A    between atoms: C10_10  and  N11_11 
REMARK       I    between atoms: N11_11  and  C12_12 
REMARK       I    between atoms: C12_12  and  N14_14 
REMARK    6  A    between atoms: N14_14  and  C15_15 
REMARK    7  A    between atoms: N14_14  and  C23_23 
REMARK    8  A    between atoms: C15_15  and  C16_16 
ROOT
ATOM      1  N11 ZIN A   1      19.216  -1.387  11.894  0.00  0.00    -0.339 N 
ATOM      2  C12 ZIN A   1      18.686  -1.691  10.693  0.00  0.00     0.319 C 
ATOM      3  O13 ZIN A   1      18.013  -2.695  10.562  0.00  0.00    -0.247 OA
ATOM      4  N14 ZIN A   1      18.901  -0.882   9.636  0.00  0.00    -0.325 N 
ATOM      5  H45 ZIN A   1      19.813  -0.627  11.982  0.00  0.00     0.164 HD
ENDROOT
BRANCH   1   6
ATOM      6  C10 ZIN A   1      18.892  -2.204  13.065  0.00  0.00     0.162 C 
BRANCH   6   7
ATOM      7  C9  ZIN A   1      18.614  -1.307  14.244  0.00  0.00    -0.040 A 
ATOM      8  C8  ZIN A   1      19.119  -1.629  15.490  0.00  0.00     0.011 A 
ATOM      9  C7  ZIN A   1      18.867  -0.809  16.572  0.00  0.00     0.037 A 
ATOM     10  C6  ZIN A   1      18.104   0.338  16.408  0.00  0.00     0.068 A 
ATOM     11  C31 ZIN A   1      17.594   0.656  15.158  0.00  0.00     0.037 A 
ATOM     12  C30 ZIN A   1      17.854  -0.164  14.078  0.00  0.00     0.011 A 
BRANCH  10  13
ATOM     13  O5  ZIN A   1      17.854   1.147  17.471  0.00  0.00    -0.351 OA
BRANCH  13  14
ATOM     14  C4  ZIN A   1      18.969   1.506  18.290  0.00  0.00     0.179 C 
BRANCH  14  15
ATOM     15  C2  ZIN A   1      19.043   3.030  18.410  0.00  0.00     0.002 C 
ATOM     16  C1  ZIN A   1      19.439   3.629  17.058  0.00  0.00     0.011 C 
ATOM     17  C3  ZIN A   1      17.676   3.575  18.829  0.00  0.00     0.011 C 
ENDBRANCH  14  15
ENDBRANCH  13  14
ENDBRANCH  10  13
ENDBRANCH   6   7
ENDBRANCH   1   6
BRANCH   4  18
ATOM     18  C15 ZIN A   1      19.803   0.266   9.765  0.00  0.00     0.166 C 
BRANCH  18  19
ATOM     19  C16 ZIN A   1      19.176   1.298  10.667  0.00  0.00    -0.040 A 
ATOM     20  C22 ZIN A   1      17.864   1.684  10.469  0.00  0.00     0.012 A 
ATOM     21  C21 ZIN A   1      17.287   2.626  11.298  0.00  0.00     0.043 A 
ATOM     22  C19 ZIN A   1      18.027   3.192  12.322  0.00  0.00     0.116 A 
ATOM     23  C18 ZIN A   1      19.344   2.810  12.517  0.00  0.00     0.043 A 
ATOM     24  F20 ZIN A   1      17.466   4.118  13.131  0.00  0.00    -0.206 F 
ATOM     25  C17 ZIN A   1      19.917   1.863  11.689  0.00  0.00     0.012 A 
ENDBRANCH  18  19
ENDBRANCH   4  18
BRANCH   4  26
ATOM     26  C23 ZIN A   1      18.234  -1.150   8.361  0.00  0.00     0.092 C 
ATOM     27  C29 ZIN A   1      19.125  -2.047   7.496  0.00  0.00     0.055 C 
ATOM     28  C28 ZIN A   1      18.450  -2.274   6.141  0.00  0.00     0.274 C 
ATOM     29  N26 ZIN A   1      18.234  -0.982   5.477  0.00  0.00     0.084 N 
ATOM     30  C25 ZIN A   1      17.342  -0.122   6.267  0.00  0.00     0.274 C 
ATOM     31  C27 ZIN A   1      17.714  -1.170   4.116  0.00  0.00     0.309 C 
ATOM     32  C24 ZIN A   1      17.984   0.169   7.626  0.00  0.00     0.055 C 
ENDBRANCH   4  26
TORSDOF 8
ENDMDL
MODEL 4
REMARK VINA RESULT:      -8.2      3.006      5.189
REMARK  8 active torsions:
REMARK  status: ('A' for Active; 'I' for Inactive)
REMARK    1  A    between atoms: C2_2  and  C4_4 
REMARK    2  A    between atoms: C4_4  and  O5_5 
REMARK    3  A    between atoms: O5_5  and  C6_6 
REMARK    4  A    between atoms: C9_9  and  C10_10 
REMARK    5  A    between atoms: C10_10  and  N11_11 
REMARK       I    between atoms: N11_11  and  C12_12 
REMARK       I    between atoms: C12_12  and  N14_14 
REMARK    6  A    between atoms: N14_14  and  C15_15 
REMARK    7  A    between atoms: N14_14  and  C23_23 
REMARK    8  A    between atoms: C15_15  and  C16_16 
ROOT
ATOM      1  N11 ZIN A   1      19.315  -0.612  12.236  0.00  0.00    -0.339 N 
ATOM      2  C12 ZIN A   1      18.457   0.361  12.597  0.00  0.00     0.319 C 
ATOM      3  O13 ZIN A   1      17.610   0.143  13.442  0.00  0.00    -0.247 OA
ATOM      4  N14 ZIN A   1      18.537   1.578  12.022  0.00  0.00    -0.325 N 
ATOM      5  H45 ZIN A   1      19.942  -0.462  11.511  0.00  0.00     0.164 HD
ENDROOT
BRANCH   1   6
ATOM      6  C10 ZIN A   1      19.301  -1.898  12.938  0.00  0.00     0.162 C 
BRANCH   6   7
ATOM      7  C9  ZIN A   1      18.940  -2.996  11.969  0.00  0.00    -0.040 A 
ATOM      8  C8  ZIN A   1      19.914  -3.873  11.527  0.00  0.00     0.011 A 
ATOM      9  C7  ZIN A   1      19.586  -4.880  10.640  0.00  0.00     0.037 A 
ATOM     10  C6  ZIN A   1      18.280  -5.009  10.192  0.00  0.00     0.068 A 
ATOM     11  C31 ZIN A   1      17.307  -4.124  10.632  0.00  0.00     0.037 A 
ATOM     12  C30 ZIN A   1      17.638  -3.123  11.524  0.00  0.00     0.011 A 
BRANCH  10  13
ATOM     13  O5  ZIN A   1      17.956  -5.999   9.318  0.00  0.00    -0.351 OA
BRANCH  13  14
ATOM     14  C4  ZIN A   1      18.882  -6.261   8.261  0.00  0.00     0.179 C 
BRANCH  14  15
ATOM     15  C2  ZIN A   1      18.638  -5.276   7.115  0.00  0.00     0.002 C 
ATOM     16  C1  ZIN A   1      19.918  -4.483   6.842  0.00  0.00     0.011 C 
ATOM     17  C3  ZIN A   1      18.239  -6.049   5.856  0.00  0.00     0.011 C 
ENDBRANCH  14  15
ENDBRANCH  13  14
ENDBRANCH  10  13
ENDBRANCH   6   7
ENDBRANCH   1   6
BRANCH   4  18
ATOM     18  C15 ZIN A   1      19.481   1.809  10.925  0.00  0.00     0.166 C 
BRANCH  18  19
ATOM     19  C16 ZIN A   1      18.889   1.297   9.637  0.00  0.00    -0.040 A 
ATOM     20  C22 ZIN A   1      19.424   1.691   8.425  0.00  0.00     0.012 A 
ATOM     21  C21 ZIN A   1      18.886   1.218   7.244  0.00  0.00     0.043 A 
ATOM     22  C19 ZIN A   1      17.801   0.357   7.274  0.00  0.00     0.116 A 
ATOM     23  C18 ZIN A   1      17.262  -0.033   8.488  0.00  0.00     0.043 A 
ATOM     24  F20 ZIN A   1      17.270  -0.102   6.120  0.00  0.00    -0.206 F 
ATOM     25  C17 ZIN A   1      17.806   0.437   9.669  0.00  0.00     0.012 A 
ENDBRANCH  18  19
ENDBRANCH   4  18
BRANCH   4  26
ATOM     26  C23 ZIN A   1      17.680   2.668  12.493  0.00  0.00     0.092 C 
ATOM     27  C29 ZIN A   1      17.593   3.753  11.415  0.00  0.00     0.055 C 
ATOM     28  C28 ZIN A   1      16.746   4.916  11.936  0.00  0.00     0.274 C 
ATOM     29  N26 ZIN A   1      17.356   5.460  13.156  0.00  0.00     0.084 N 
ATOM     30  C25 ZIN A   1      17.407   4.449  14.220  0.00  0.00     0.274 C 
ATOM     31  C27 ZIN A   1      16.647   6.665  13.606  0.00  0.00     0.309 C 
ATOM     32  C24 ZIN A   1      18.273   3.272  13.767  0.00  0.00     0.055 C 
ENDBRANCH   4  26
TORSDOF 8
ENDMDL
MODEL 5
REMARK VINA RESULT:      -8.1      3.421      7.859
REMARK  8 active torsions:
REMARK  status: ('A' for Active; 'I' for Inactive)
REMARK    1  A    between atoms: C2_2  and  C4_4 
REMARK    2  A    between atoms: C4_4  and  O5_5 
REMARK    3  A    between atoms: O5_5  and  C6_6 
REMARK    4  A    between atoms: C9_9  and  C10_10 
REMARK    5  A    between atoms: C10_10  and  N11_11 
REMARK       I    between atoms: N11_11  and  C12_12 
REMARK       I    between atoms: C12_12  and  N14_14 
REMARK    6  A    between atoms: N14_14  and  C15_15 
REMARK    7  A    between atoms: N14_14  and  C23_23 
REMARK    8  A    between atoms: C15_15  and  C16_16 
ROOT
ATOM      1  N11 ZIN A   1      19.435  -2.061   8.320  0.00  0.00    -0.339 N 
ATOM      2  C12 ZIN A   1      18.621  -3.019   7.835  0.00  0.00     0.319 C 
ATOM      3  O13 ZIN A   1      17.848  -2.762   6.932  0.00  0.00    -0.247 OA
ATOM      4  N14 ZIN A   1      18.664  -4.264   8.350  0.00  0.00    -0.325 N 
ATOM      5  H45 ZIN A   1      19.999  -2.246   9.087  0.00  0.00     0.164 HD
ENDROOT
BRANCH   1   6
ATOM      6  C10 ZIN A   1      19.468  -0.740   7.688  0.00  0.00     0.162 C 
BRANCH   6   7
ATOM      7  C9  ZIN A   1      18.871   0.280   8.624  0.00  0.00    -0.040 A 
ATOM      8  C8  ZIN A   1      17.943  -0.112   9.571  0.00  0.00     0.011 A 
ATOM      9  C7  ZIN A   1      17.395   0.820  10.431  0.00  0.00     0.037 A 
ATOM     10  C6  ZIN A   1      17.775   2.151  10.342  0.00  0.00     0.068 A 
ATOM     11  C31 ZIN A   1      18.702   2.543   9.387  0.00  0.00     0.037 A 
ATOM     12  C30 ZIN A   1      19.252   1.606   8.534  0.00  0.00     0.011 A 
BRANCH  10  13
ATOM     13  O5  ZIN A   1      17.237   3.070  11.186  0.00  0.00    -0.351 OA
BRANCH  13  14
ATOM     14  C4  ZIN A   1      17.673   3.035  12.547  0.00  0.00     0.179 C 
BRANCH  14  15
ATOM     15  C2  ZIN A   1      18.069   4.445  12.991  0.00  0.00     0.002 C 
ATOM     16  C1  ZIN A   1      19.490   4.751  12.513  0.00  0.00     0.011 C 
ATOM     17  C3  ZIN A   1      17.097   5.461  12.386  0.00  0.00     0.011 C 
ENDBRANCH  14  15
ENDBRANCH  13  14
ENDBRANCH  10  13
ENDBRANCH   6   7
ENDBRANCH   1   6
BRANCH   4  18
ATOM     18  C15 ZIN A   1      19.512  -4.548   9.511  0.00  0.00     0.166 C 
BRANCH  18  19
ATOM     19  C16 ZIN A   1      19.085  -3.682  10.668  0.00  0.00    -0.040 A 
ATOM     20  C22 ZIN A   1      20.031  -2.988  11.398  0.00  0.00     0.012 A 
ATOM     21  C21 ZIN A   1      19.640  -2.189  12.456  0.00  0.00     0.043 A 
ATOM     22  C19 ZIN A   1      18.300  -2.094  12.792  0.00  0.00     0.116 A 
ATOM     23  C18 ZIN A   1      17.353  -2.795  12.064  0.00  0.00     0.043 A 
ATOM     24  F20 ZIN A   1      17.916  -1.318  13.830  0.00  0.00    -0.206 F 
ATOM     25  C17 ZIN A   1      17.747  -3.588  11.002  0.00  0.00     0.012 A 
ENDBRANCH  18  19
ENDBRANCH   4  18
BRANCH   4  26
ATOM     26  C23 ZIN A   1      17.862  -5.333   7.750  0.00  0.00     0.092 C 
ATOM     27  C29 ZIN A   1      17.562  -6.402   8.806  0.00  0.00     0.055 C 
ATOM     28  C28 ZIN A   1      16.776  -7.544   8.158  0.00  0.00     0.274 C 
ATOM     29  N26 ZIN A   1      17.563  -8.122   7.061  0.00  0.00     0.084 N 
ATOM     30  C25 ZIN A   1      17.823  -7.126   6.013  0.00  0.00     0.274 C 
ATOM     31  C27 ZIN A   1      16.900  -9.310   6.506  0.00  0.00     0.309 C 
ATOM     32  C24 ZIN A   1      18.640  -5.971   6.596  0.00  0.00     0.055 C 
ENDBRANCH   4  26
TORSDOF 8
ENDMDL
MODEL 6
REMARK VINA RESULT:      -8.1      2.372      3.321
REMARK  8 active torsions:
REMARK  status: ('A' for Active; 'I' for Inactive)
REMARK    1  A    between atoms: C2_2  and  C4_4 
REMARK    2  A    between atoms: C4_4  and  O5_5 
REMARK    3  A    between atoms: O5_5  and  C6_6 
REMARK    4  A    between atoms: C9_9  and  C10_10 
REMARK    5  A    between atoms: C10_10  and  N11_11 
REMARK       I    between atoms: N11_11  and  C12_12 
REMARK       I    between atoms: C12_12  and  N14_14 
REMARK    6  A    between atoms: N14_14  and  C15_15 
REMARK    7  A    between atoms: N14_14  and  C23_23 
REMARK    8  A    between atoms: C15_15  and  C16_16 
ROOT
ATOM      1  N11 ZIN A   1      19.454   1.908   9.610  0.00  0.00    -0.339 N 
ATOM      2  C12 ZIN A   1      19.063   2.784  10.555  0.00  0.00     0.319 C 
ATOM      3  O13 ZIN A   1      18.484   3.805  10.237  0.00  0.00    -0.247 OA
ATOM      4  N14 ZIN A   1      19.311   2.527  11.856  0.00  0.00    -0.325 N 
ATOM      5  H45 ZIN A   1      19.979   1.130   9.856  0.00  0.00     0.164 HD
ENDROOT
BRANCH   1   6
ATOM      6  C10 ZIN A   1      19.088   2.131   8.209  0.00  0.00     0.162 C 
BRANCH   6   7
ATOM      7  C9  ZIN A   1      19.150   0.825   7.459  0.00  0.00    -0.040 A 
ATOM      8  C8  ZIN A   1      19.153   0.824   6.076  0.00  0.00     0.011 A 
ATOM      9  C7  ZIN A   1      19.209  -0.371   5.385  0.00  0.00     0.037 A 
ATOM     10  C6  ZIN A   1      19.260  -1.570   6.080  0.00  0.00     0.068 A 
ATOM     11  C31 ZIN A   1      19.251  -1.566   7.468  0.00  0.00     0.037 A 
ATOM     12  C30 ZIN A   1      19.200  -0.369   8.153  0.00  0.00     0.011 A 
BRANCH  10  13
ATOM     13  O5  ZIN A   1      19.315  -2.748   5.403  0.00  0.00    -0.351 OA
BRANCH  13  14
ATOM     14  C4  ZIN A   1      19.652  -3.915   6.157  0.00  0.00     0.179 C 
BRANCH  14  15
ATOM     15  C2  ZIN A   1      18.552  -4.966   5.987  0.00  0.00     0.002 C 
ATOM     16  C1  ZIN A   1      17.672  -4.990   7.239  0.00  0.00     0.011 C 
ATOM     17  C3  ZIN A   1      17.697  -4.614   4.768  0.00  0.00     0.011 C 
ENDBRANCH  14  15
ENDBRANCH  13  14
ENDBRANCH  10  13
ENDBRANCH   6   7
ENDBRANCH   1   6
BRANCH   4  18
ATOM     18  C15 ZIN A   1      20.105   1.355  12.232  0.00  0.00     0.166 C 
BRANCH  18  19
ATOM     19  C16 ZIN A   1      19.295   0.105  12.002  0.00  0.00    -0.040 A 
ATOM     20  C22 ZIN A   1      17.924   0.128  12.179  0.00  0.00     0.012 A 
ATOM     21  C21 ZIN A   1      17.180  -1.016  11.963  0.00  0.00     0.043 A 
ATOM     22  C19 ZIN A   1      17.809  -2.189  11.581  0.00  0.00     0.116 A 
ATOM     23  C18 ZIN A   1      19.183  -2.213  11.409  0.00  0.00     0.043 A 
ATOM     24  F20 ZIN A   1      17.083  -3.310  11.375  0.00  0.00    -0.206 F 
ATOM     25  C17 ZIN A   1      19.925  -1.065  11.620  0.00  0.00     0.012 A 
ENDBRANCH  18  19
ENDBRANCH   4  18
BRANCH   4  26
ATOM     26  C23 ZIN A   1      18.788   3.421  12.891  0.00  0.00     0.092 C 
ATOM     27  C29 ZIN A   1      19.633   4.697  12.941  0.00  0.00     0.055 C 
ATOM     28  C28 ZIN A   1      19.119   5.600  14.065  0.00  0.00     0.274 C 
ATOM     29  N26 ZIN A   1      19.202   4.885  15.346  0.00  0.00     0.084 N 
ATOM     30  C25 ZIN A   1      18.360   3.682  15.337  0.00  0.00     0.274 C 
ATOM     31  C27 ZIN A   1      18.847   5.769  16.464  0.00  0.00     0.309 C 
ATOM     32  C24 ZIN A   1      18.851   2.722  14.251  0.00  0.00     0.055 C 
ENDBRANCH   4  26
TORSDOF 8
ENDMDL
MODEL 7
REMARK VINA RESULT:      -7.9      3.146      5.052
REMARK  8 active torsions:
REMARK  status: ('A' for Active; 'I' for Inactive)
REMARK    1  A    between atoms: C2_2  and  C4_4 
REMARK    2  A    between atoms: C4_4  and  O5_5 
REMARK    3  A    between atoms: O5_5  and  C6_6 
REMARK    4  A    between atoms: C9_9  and  C10_10 
REMARK    5  A    between atoms: C10_10  and  N11_11 
REMARK       I    between atoms: N11_11  and  C12_12 
REMARK       I    between atoms: C12_12  and  N14_14 
REMARK    6  A    between atoms: N14_14  and  C15_15 
REMARK    7  A    between atoms: N14_14  and  C23_23 
REMARK    8  A    between atoms: C15_15  and  C16_16 
ROOT
ATOM      1  N11 ZIN A   1      18.890  -0.825  11.550  0.00  0.00    -0.339 N 
ATOM      2  C12 ZIN A   1      19.281   0.191  12.343  0.00  0.00     0.319 C 
ATOM      3  O13 ZIN A   1      20.179   0.025  13.146  0.00  0.00    -0.247 OA
ATOM      4  N14 ZIN A   1      18.677   1.392  12.247  0.00  0.00    -0.325 N 
ATOM      5  H45 ZIN A   1      18.126  -0.715  10.962  0.00  0.00     0.164 HD
ENDROOT
BRANCH   1   6
ATOM      6  C10 ZIN A   1      19.617  -2.097  11.576  0.00  0.00     0.162 C 
BRANCH   6   7
ATOM      7  C9  ZIN A   1      18.740  -3.190  11.021  0.00  0.00    -0.040 A 
ATOM      8  C8  ZIN A   1      18.451  -3.221   9.669  0.00  0.00     0.011 A 
ATOM      9  C7  ZIN A   1      17.647  -4.222   9.157  0.00  0.00     0.037 A 
ATOM     10  C6  ZIN A   1      17.129  -5.193  10.000  0.00  0.00     0.068 A 
ATOM     11  C31 ZIN A   1      17.416  -5.155  11.357  0.00  0.00     0.037 A 
ATOM     12  C30 ZIN A   1      18.225  -4.156  11.863  0.00  0.00     0.011 A 
BRANCH  10  13
ATOM     13  O5  ZIN A   1      16.338  -6.178   9.499  0.00  0.00    -0.351 OA
BRANCH  13  14
ATOM     14  C4  ZIN A   1      15.340  -5.790   8.552  0.00  0.00     0.179 C 
BRANCH  14  15
ATOM     15  C2  ZIN A   1      15.388  -6.731   7.346  0.00  0.00     0.002 C 
ATOM     16  C1  ZIN A   1      16.194  -6.078   6.221  0.00  0.00     0.011 C 
ATOM     17  C3  ZIN A   1      16.055  -8.047   7.754  0.00  0.00     0.011 C 
ENDBRANCH  14  15
ENDBRANCH  13  14
ENDBRANCH  10  13
ENDBRANCH   6   7
ENDBRANCH   1   6
BRANCH   4  18
ATOM     18  C15 ZIN A   1      17.522   1.563  11.362  0.00  0.00     0.166 C 
BRANCH  18  19
ATOM     19  C16 ZIN A   1      17.938   1.296   9.938  0.00  0.00    -0.040 A 
ATOM     20  C22 ZIN A   1      17.296   0.318   9.202  0.00  0.00     0.012 A 
ATOM     21  C21 ZIN A   1      17.672   0.077   7.894  0.00  0.00     0.043 A 
ATOM     22  C19 ZIN A   1      18.701   0.808   7.325  0.00  0.00     0.116 A 
ATOM     23  C18 ZIN A   1      19.347   1.785   8.064  0.00  0.00     0.043 A 
ATOM     24  F20 ZIN A   1      19.074   0.570   6.048  0.00  0.00    -0.206 F 
ATOM     25  C17 ZIN A   1      18.964   2.028   9.370  0.00  0.00     0.012 A 
ENDBRANCH  18  19
ENDBRANCH   4  18
BRANCH   4  26
ATOM     26  C23 ZIN A   1      19.176   2.527  13.027  0.00  0.00     0.092 C 
ATOM     27  C29 ZIN A   1      18.206   2.825  14.174  0.00  0.00     0.055 C 
ATOM     28  C28 ZIN A   1      18.700   4.049  14.949  0.00  0.00     0.274 C 
ATOM     29  N26 ZIN A   1      18.786   5.202  14.043  0.00  0.00     0.084 N 
ATOM     30  C25 ZIN A   1      19.748   4.956  12.961  0.00  0.00     0.274 C 
ATOM     31  C27 ZIN A   1      19.124   6.426  14.781  0.00  0.00     0.309 C 
ATOM     32  C24 ZIN A   1      19.285   3.760  12.127  0.00  0.00     0.055 C 
ENDBRANCH   4  26
TORSDOF 8
ENDMDL
MODEL 8
REMARK VINA RESULT:      -7.7      3.417      8.365
REMARK  8 active torsions:
REMARK  status: ('A' for Active; 'I' for Inactive)
REMARK    1  A    between atoms: C2_2  and  C4_4 
REMARK    2  A    between atoms: C4_4  and  O5_5 
REMARK    3  A    between atoms: O5_5  and  C6_6 
REMARK    4  A    between atoms: C9_9  and  C10_10 
REMARK    5  A    between atoms: C10_10  and  N11_11 
REMARK       I    between atoms: N11_11  and  C12_12 
REMARK       I    between atoms: C12_12  and  N14_14 
REMARK    6  A    between atoms: N14_14  and  C15_15 
REMARK    7  A    between atoms: N14_14  and  C23_23 
REMARK    8  A    between atoms: C15_15  and  C16_16 
ROOT
ATOM      1  N11 ZIN A   1      19.873  -4.047  10.041  0.00  0.00    -0.339 N 
ATOM      2  C12 ZIN A   1      19.045  -4.937   9.461  0.00  0.00     0.319 C 
ATOM      3  O13 ZIN A   1      18.311  -5.623  10.147  0.00  0.00    -0.247 OA
ATOM      4  N14 ZIN A   1      19.030  -5.069   8.119  0.00  0.00    -0.325 N 
ATOM      5  H45 ZIN A   1      20.510  -3.553   9.501  0.00  0.00     0.164 HD
ENDROOT
BRANCH   1   6
ATOM      6  C10 ZIN A   1      19.811  -3.825  11.488  0.00  0.00     0.162 C 
BRANCH   6   7
ATOM      7  C9  ZIN A   1      19.558  -2.365  11.763  0.00  0.00    -0.040 A 
ATOM      8  C8  ZIN A   1      20.331  -1.402  11.141  0.00  0.00     0.011 A 
ATOM      9  C7  ZIN A   1      20.101  -0.063  11.391  0.00  0.00     0.037 A 
ATOM     10  C6  ZIN A   1      19.095   0.315  12.267  0.00  0.00     0.068 A 
ATOM     11  C31 ZIN A   1      18.324  -0.653  12.894  0.00  0.00     0.037 A 
ATOM     12  C30 ZIN A   1      18.554  -1.991  12.637  0.00  0.00     0.011 A 
BRANCH  10  13
ATOM     13  O5  ZIN A   1      18.867   1.632  12.515  0.00  0.00    -0.351 OA
BRANCH  13  14
ATOM     14  C4  ZIN A   1      17.720   2.219  11.897  0.00  0.00     0.179 C 
BRANCH  14  15
ATOM     15  C2  ZIN A   1      18.164   3.357  10.974  0.00  0.00     0.002 C 
ATOM     16  C1  ZIN A   1      18.483   2.794   9.588  0.00  0.00     0.011 C 
ATOM     17  C3  ZIN A   1      17.040   4.388  10.860  0.00  0.00     0.011 C 
ENDBRANCH  14  15
ENDBRANCH  13  14
ENDBRANCH  10  13
ENDBRANCH   6   7
ENDBRANCH   1   6
BRANCH   4  18
ATOM     18  C15 ZIN A   1      19.992  -4.326   7.300  0.00  0.00     0.166 C 
BRANCH  18  19
ATOM     19  C16 ZIN A   1      19.354  -3.053   6.807  0.00  0.00    -0.040 A 
ATOM     20  C22 ZIN A   1      18.984  -2.934   5.481  0.00  0.00     0.012 A 
ATOM     21  C21 ZIN A   1      18.394  -1.770   5.029  0.00  0.00     0.043 A 
ATOM     22  C19 ZIN A   1      18.184  -0.717   5.903  0.00  0.00     0.116 A 
ATOM     23  C18 ZIN A   1      18.560  -0.834   7.230  0.00  0.00     0.043 A 
ATOM     24  F20 ZIN A   1      17.612   0.425   5.461  0.00  0.00    -0.206 F 
ATOM     25  C17 ZIN A   1      19.145  -2.003   7.681  0.00  0.00     0.012 A 
ENDBRANCH  18  19
ENDBRANCH   4  18
BRANCH   4  26
ATOM     26  C23 ZIN A   1      18.053  -5.953   7.481  0.00  0.00     0.092 C 
ATOM     27  C29 ZIN A   1      18.513  -6.281   6.057  0.00  0.00     0.055 C 
ATOM     28  C28 ZIN A   1      17.459  -7.156   5.375  0.00  0.00     0.274 C 
ATOM     29  N26 ZIN A   1      16.175  -6.443   5.343  0.00  0.00     0.084 N 
ATOM     30  C25 ZIN A   1      15.691  -6.160   6.700  0.00  0.00     0.274 C 
ATOM     31  C27 ZIN A   1      15.175  -7.195   4.572  0.00  0.00     0.309 C 
ATOM     32  C24 ZIN A   1      16.692  -5.256   7.422  0.00  0.00     0.055 C 
ENDBRANCH   4  26
TORSDOF 8
ENDMDL
MODEL 9
REMARK VINA RESULT:      -7.6      4.206      8.318
REMARK  8 active torsions:
REMARK  status: ('A' for Active; 'I' for Inactive)
REMARK    1  A    between atoms: C2_2  and  C4_4 
REMARK    2  A    between atoms: C4_4  and  O5_5 
REMARK    3  A    between atoms: O5_5  and  C6_6 
REMARK    4  A    between atoms: C9_9  and  C10_10 
REMARK    5  A    between atoms: C10_10  and  N11_11 
REMARK       I    between atoms: N11_11  and  C12_12 
REMARK       I    between atoms: C12_12  and  N14_14 
REMARK    6  A    between atoms: N14_14  and  C15_15 
REMARK    7  A    between atoms: N14_14  and  C23_23 
REMARK    8  A    between atoms: C15_15  and  C16_16 
ROOT
ATOM      1  N11 ZIN A   1      18.974  -3.465   5.480  0.00  0.00    -0.339 N 
ATOM      2  C12 ZIN A   1      17.937  -4.272   5.183  0.00  0.00     0.319 C 
ATOM      3  O13 ZIN A   1      17.113  -3.925   4.359  0.00  0.00    -0.247 OA
ATOM      4  N14 ZIN A   1      17.813  -5.464   5.800  0.00  0.00    -0.325 N 
ATOM      5  H45 ZIN A   1      19.590  -3.707   6.190  0.00  0.00     0.164 HD
ENDROOT
BRANCH   1   6
ATOM      6  C10 ZIN A   1      19.171  -2.220   4.733  0.00  0.00     0.162 C 
BRANCH   6   7
ATOM      7  C9  ZIN A   1      19.120  -1.050   5.681  0.00  0.00    -0.040 A 
ATOM      8  C8  ZIN A   1      19.256  -1.258   7.042  0.00  0.00     0.011 A 
ATOM      9  C7  ZIN A   1      19.209  -0.188   7.914  0.00  0.00     0.037 A 
ATOM     10  C6  ZIN A   1      19.024   1.096   7.423  0.00  0.00     0.068 A 
ATOM     11  C31 ZIN A   1      18.881   1.302   6.059  0.00  0.00     0.037 A 
ATOM     12  C30 ZIN A   1      18.934   0.229   5.191  0.00  0.00     0.011 A 
BRANCH  10  13
ATOM     13  O5  ZIN A   1      18.977   2.151   8.279  0.00  0.00    -0.351 OA
BRANCH  13  14
ATOM     14  C4  ZIN A   1      19.105   1.861   9.673  0.00  0.00     0.179 C 
BRANCH  14  15
ATOM     15  C2  ZIN A   1      17.746   2.034  10.356  0.00  0.00     0.002 C 
ATOM     16  C1  ZIN A   1      17.252   0.677  10.860  0.00  0.00     0.011 C 
ATOM     17  C3  ZIN A   1      17.890   2.996  11.538  0.00  0.00     0.011 C 
ENDBRANCH  14  15
ENDBRANCH  13  14
ENDBRANCH  10  13
ENDBRANCH   6   7
ENDBRANCH   1   6
BRANCH   4  18
ATOM     18  C15 ZIN A   1      18.739  -5.834   6.873  0.00  0.00     0.166 C 
BRANCH  18  19
ATOM     19  C16 ZIN A   1      18.120  -5.504   8.207  0.00  0.00    -0.040 A 
ATOM     20  C22 ZIN A   1      17.721  -6.520   9.054  0.00  0.00     0.012 A 
ATOM     21  C21 ZIN A   1      17.159  -6.219  10.280  0.00  0.00     0.043 A 
ATOM     22  C19 ZIN A   1      16.984  -4.897  10.654  0.00  0.00     0.116 A 
ATOM     23  C18 ZIN A   1      17.378  -3.879   9.803  0.00  0.00     0.043 A 
ATOM     24  F20 ZIN A   1      16.428  -4.601  11.850  0.00  0.00    -0.206 F 
ATOM     25  C17 ZIN A   1      17.946  -4.184   8.579  0.00  0.00     0.012 A 
ENDBRANCH  18  19
ENDBRANCH   4  18
BRANCH   4  26
ATOM     26  C23 ZIN A   1      16.751  -6.390   5.398  0.00  0.00     0.092 C 
ATOM     27  C29 ZIN A   1      15.496  -6.122   6.233  0.00  0.00     0.055 C 
ATOM     28  C28 ZIN A   1      14.410  -7.131   5.850  0.00  0.00     0.274 C 
ATOM     29  N26 ZIN A   1      14.900  -8.495   6.092  0.00  0.00     0.084 N 
ATOM     30  C25 ZIN A   1      16.078  -8.790   5.265  0.00  0.00     0.274 C 
ATOM     31  C27 ZIN A   1      13.837  -9.483   5.867  0.00  0.00     0.309 C 
ATOM     32  C24 ZIN A   1      17.212  -7.830   5.630  0.00  0.00     0.055 C 
ENDBRANCH   4  26
TORSDOF 8
ENDMDL
