MODEL 1
REMARK VINA RESULT:      -8.6      0.000      0.000
REMARK  5 active torsions:
REMARK  status: ('A' for Active; 'I' for Inactive)
REMARK    1  A    between atoms: C6_6  and  C7_7 
REMARK    2  A    between atoms: C7_7  and  N8_8 
REMARK    3  A    between atoms: N12_12  and  C13_13 
REMARK    4  A    between atoms: C13_13  and  C15_14 
REMARK    5  A    between atoms: C13_13  and  C21_20 
ROOT
ATOM      1  N8  <0> d   1      18.494   3.870  12.542  0.00  0.00    -0.064 N 
ATOM      2  H9  <0> d   1      17.560   3.835  12.920  0.00  0.00     0.280 HD
ATOM      3  C10 <0> d   1      19.203   2.625  12.869  0.00  0.00     0.265 C 
ATOM      4  C11 <0> d   1      18.443   1.436  12.278  0.00  0.00     0.301 C 
ATOM      5  N12 <0> d   1      18.345   1.596  10.820  0.00  0.00     0.105 N 
ATOM      6  C28 <0> d   1      17.660   2.849  10.478  0.00  0.00     0.301 C 
ATOM      7  C29 <0> d   1      18.427   4.028  11.083  0.00  0.00     0.265 C 
ENDROOT
BRANCH   5   8
ATOM      8  C13 <0> d   1      17.670   0.443  10.208  0.00  0.00     0.289 C 
BRANCH   8   9
ATOM      9  C15 <0> d   1      18.192  -0.830  10.824  0.00  0.00    -0.021 A 
ATOM     10  C20 <0> d   1      17.337  -1.660  11.525  0.00  0.00     0.010 A 
ATOM     11  C19 <0> d   1      17.815  -2.829  12.086  0.00  0.00     0.001 A 
ATOM     12  C18 <0> d   1      19.150  -3.165  11.953  0.00  0.00     0.000 A 
ATOM     13  C17 <0> d   1      20.005  -2.332  11.257  0.00  0.00     0.001 A 
ATOM     14  C16 <0> d   1      19.527  -1.165  10.692  0.00  0.00     0.010 A 
ENDBRANCH   8   9
BRANCH   8  15
ATOM     15  C21 <0> d   1      17.940   0.431   8.726  0.00  0.00    -0.021 A 
ATOM     16  C27 <0> d   1      18.932   1.236   8.198  0.00  0.00     0.011 A 
ATOM     17  C26 <0> d   1      19.183   1.221   6.838  0.00  0.00     0.024 A 
ATOM     18  C24 <0> d   1      18.433   0.411   6.005  0.00  0.00     0.034 A 
ATOM     19  C23 <0> d   1      17.437  -0.390   6.534  0.00  0.00     0.024 A 
ATOM     20 Cl25 <0> d   1      18.743   0.398   4.297  0.00  0.00    -0.084 Cl
ATOM     21  C22 <0> d   1      17.190  -0.379   7.894  0.00  0.00     0.011 A 
ENDBRANCH   8  15
ENDBRANCH   5   8
BRANCH   1  22
ATOM     22  C7  <0> d   1      19.214   5.010  13.124  0.00  0.00     0.273 C 
BRANCH  22  23
ATOM     23  C6  <0> d   1      18.299   5.757  14.061  0.00  0.00    -0.032 A 
ATOM     24  C5  <0> d   1      18.830   6.602  15.017  0.00  0.00     0.009 A 
ATOM     25  C4  <0> d   1      17.991   7.287  15.877  0.00  0.00     0.001 A 
ATOM     26  C3  <0> d   1      16.621   7.127  15.778  0.00  0.00     0.007 A 
ATOM     27  C2  <0> d   1      16.091   6.282  14.821  0.00  0.00    -0.061 A 
ATOM     28  C1  <0> d   1      14.598   6.108  14.714  0.00  0.00     0.048 C 
ATOM     29  C30 <0> d   1      16.930   5.593  13.966  0.00  0.00     0.015 A 
ENDBRANCH  22  23
ENDBRANCH   1  22
TORSDOF 5
ENDMDL
MODEL 2
REMARK VINA RESULT:      -8.4      1.235      1.803
REMARK  5 active torsions:
REMARK  status: ('A' for Active; 'I' for Inactive)
REMARK    1  A    between atoms: C6_6  and  C7_7 
REMARK    2  A    between atoms: C7_7  and  N8_8 
REMARK    3  A    between atoms: N12_12  and  C13_13 
REMARK    4  A    between atoms: C13_13  and  C15_14 
REMARK    5  A    between atoms: C13_13  and  C21_20 
ROOT
ATOM      1  N8  <0> d   1      19.070   3.792  12.545  0.00  0.00    -0.064 N 
ATOM      2  H9  <0> d   1      18.554   3.393  13.314  0.00  0.00     0.280 HD
ATOM      3  C10 <0> d   1      20.046   2.812  12.048  0.00  0.00     0.265 C 
ATOM      4  C11 <0> d   1      19.313   1.552  11.587  0.00  0.00     0.301 C 
ATOM      5  N12 <0> d   1      18.361   1.902  10.524  0.00  0.00     0.105 N 
ATOM      6  C28 <0> d   1      17.393   2.901  10.999  0.00  0.00     0.301 C 
ATOM      7  C29 <0> d   1      18.142   4.152  11.465  0.00  0.00     0.265 C 
ENDROOT
BRANCH   5   8
ATOM      8  C13 <0> d   1      17.676   0.707  10.014  0.00  0.00     0.289 C 
BRANCH   8   9
ATOM      9  C15 <0> d   1      18.190  -0.513  10.735  0.00  0.00    -0.021 A 
ATOM     10  C20 <0> d   1      19.418  -1.049  10.397  0.00  0.00     0.010 A 
ATOM     11  C19 <0> d   1      19.891  -2.165  11.061  0.00  0.00     0.001 A 
ATOM     12  C18 <0> d   1      19.132  -2.751  12.058  0.00  0.00     0.000 A 
ATOM     13  C17 <0> d   1      17.901  -2.217  12.391  0.00  0.00     0.001 A 
ATOM     14  C16 <0> d   1      17.430  -1.099  11.730  0.00  0.00     0.010 A 
ENDBRANCH   8   9
BRANCH   8  15
ATOM     15  C21 <0> d   1      17.941   0.567   8.538  0.00  0.00    -0.021 A 
ATOM     16  C27 <0> d   1      18.903   1.353   7.931  0.00  0.00     0.011 A 
ATOM     17  C26 <0> d   1      19.150   1.220   6.577  0.00  0.00     0.024 A 
ATOM     18  C24 <0> d   1      18.426   0.310   5.828  0.00  0.00     0.034 A 
ATOM     19  C23 <0> d   1      17.460  -0.472   6.435  0.00  0.00     0.024 A 
ATOM     20 Cl25 <0> d   1      18.730   0.150   4.126  0.00  0.00    -0.084 Cl
ATOM     21  C22 <0> d   1      17.217  -0.342   7.789  0.00  0.00     0.011 A 
ENDBRANCH   8  15
ENDBRANCH   5   8
BRANCH   1  22
ATOM     22  C7  <0> d   1      19.776   4.996  13.004  0.00  0.00     0.273 C 
BRANCH  22  23
ATOM     23  C6  <0> d   1      19.318   5.347  14.397  0.00  0.00    -0.032 A 
ATOM     24  C5  <0> d   1      18.949   6.644  14.696  0.00  0.00     0.009 A 
ATOM     25  C4  <0> d   1      18.529   6.967  15.973  0.00  0.00     0.001 A 
ATOM     26  C3  <0> d   1      18.478   5.990  16.951  0.00  0.00     0.007 A 
ATOM     27  C2  <0> d   1      18.847   4.692  16.651  0.00  0.00    -0.061 A 
ATOM     28  C1  <0> d   1      18.791   3.628  17.716  0.00  0.00     0.048 C 
ATOM     29  C30 <0> d   1      19.272   4.372  15.375  0.00  0.00     0.015 A 
ENDBRANCH  22  23
ENDBRANCH   1  22
TORSDOF 5
ENDMDL
MODEL 3
REMARK VINA RESULT:      -8.4      3.700      8.216
REMARK  5 active torsions:
REMARK  status: ('A' for Active; 'I' for Inactive)
REMARK    1  A    between atoms: C6_6  and  C7_7 
REMARK    2  A    between atoms: C7_7  and  N8_8 
REMARK    3  A    between atoms: N12_12  and  C13_13 
REMARK    4  A    between atoms: C13_13  and  C15_14 
REMARK    5  A    between atoms: C13_13  and  C21_20 
ROOT
ATOM      1  N8  <0> d   1      17.851   0.263  10.421  0.00  0.00    -0.064 N 
ATOM      2  H9  <0> d   1      18.529  -0.484  10.428  0.00  0.00     0.280 HD
ATOM      3  C10 <0> d   1      16.902   0.074  11.527  0.00  0.00     0.265 C 
ATOM      4  C11 <0> d   1      17.661   0.069  12.855  0.00  0.00     0.301 C 
ATOM      5  N12 <0> d   1      18.377   1.343  13.012  0.00  0.00     0.105 N 
ATOM      6  C28 <0> d   1      19.312   1.557  11.899  0.00  0.00     0.301 C 
ATOM      7  C29 <0> d   1      18.539   1.551  10.579  0.00  0.00     0.265 C 
ENDROOT
BRANCH   5   8
ATOM      8  C13 <0> d   1      19.074   1.400  14.304  0.00  0.00     0.289 C 
BRANCH   8   9
ATOM      9  C15 <0> d   1      18.528   0.333  15.217  0.00  0.00    -0.021 A 
ATOM     10  C20 <0> d   1      19.210  -0.860  15.371  0.00  0.00     0.010 A 
ATOM     11  C19 <0> d   1      18.711  -1.837  16.212  0.00  0.00     0.001 A 
ATOM     12  C18 <0> d   1      17.526  -1.625  16.892  0.00  0.00     0.000 A 
ATOM     13  C17 <0> d   1      16.842  -0.435  16.733  0.00  0.00     0.001 A 
ATOM     14  C16 <0> d   1      17.343   0.544  15.897  0.00  0.00     0.010 A 
ENDBRANCH   8   9
BRANCH   8  15
ATOM     15  C21 <0> d   1      18.862   2.754  14.931  0.00  0.00    -0.021 A 
ATOM     16  C27 <0> d   1      19.534   3.092  16.090  0.00  0.00     0.011 A 
ATOM     17  C26 <0> d   1      19.343   4.336  16.661  0.00  0.00     0.024 A 
ATOM     18  C24 <0> d   1      18.471   5.238  16.079  0.00  0.00     0.034 A 
ATOM     19  C23 <0> d   1      17.794   4.897  14.922  0.00  0.00     0.024 A 
ATOM     20 Cl25 <0> d   1      18.225   6.798  16.801  0.00  0.00    -0.084 Cl
ATOM     21  C22 <0> d   1      17.990   3.655  14.349  0.00  0.00     0.011 A 
ENDBRANCH   8  15
ENDBRANCH   5   8
BRANCH   1  22
ATOM     22  C7  <0> d   1      17.123   0.250   9.144  0.00  0.00     0.273 C 
BRANCH  22  23
ATOM     23  C6  <0> d   1      17.929  -0.500   8.115  0.00  0.00    -0.032 A 
ATOM     24  C5  <0> d   1      18.467  -1.735   8.424  0.00  0.00     0.009 A 
ATOM     25  C4  <0> d   1      19.206  -2.423   7.479  0.00  0.00     0.001 A 
ATOM     26  C3  <0> d   1      19.405  -1.876   6.225  0.00  0.00     0.007 A 
ATOM     27  C2  <0> d   1      18.865  -0.641   5.916  0.00  0.00    -0.061 A 
ATOM     28  C1  <0> d   1      19.083  -0.045   4.549  0.00  0.00     0.048 C 
ATOM     29  C30 <0> d   1      18.132   0.049   6.862  0.00  0.00     0.015 A 
ENDBRANCH  22  23
ENDBRANCH   1  22
TORSDOF 5
ENDMDL
MODEL 4
REMARK VINA RESULT:      -8.4      3.658      5.485
REMARK  5 active torsions:
REMARK  status: ('A' for Active; 'I' for Inactive)
REMARK    1  A    between atoms: C6_6  and  C7_7 
REMARK    2  A    between atoms: C7_7  and  N8_8 
REMARK    3  A    between atoms: N12_12  and  C13_13 
REMARK    4  A    between atoms: C13_13  and  C15_14 
REMARK    5  A    between atoms: C13_13  and  C21_20 
ROOT
ATOM      1  N8  <0> d   1      18.276   0.172  13.062  0.00  0.00    -0.064 N 
ATOM      2  H9  <0> d   1      18.561  -0.683  13.515  0.00  0.00     0.280 HD
ATOM      3  C10 <0> d   1      19.442   0.799  12.424  0.00  0.00     0.265 C 
ATOM      4  C11 <0> d   1      20.041  -0.164  11.397  0.00  0.00     0.301 C 
ATOM      5  N12 <0> d   1      19.027  -0.494  10.387  0.00  0.00     0.105 N 
ATOM      6  C28 <0> d   1      17.844  -1.099  11.014  0.00  0.00     0.301 C 
ATOM      7  C29 <0> d   1      17.262  -0.128  12.043  0.00  0.00     0.265 C 
ENDROOT
BRANCH   5   8
ATOM      8  C13 <0> d   1      19.582  -1.374   9.350  0.00  0.00     0.289 C 
BRANCH   8   9
ATOM      9  C15 <0> d   1      19.285  -0.797   7.990  0.00  0.00    -0.021 A 
ATOM     10  C20 <0> d   1      18.844   0.509   7.874  0.00  0.00     0.010 A 
ATOM     11  C19 <0> d   1      18.576   1.038   6.625  0.00  0.00     0.001 A 
ATOM     12  C18 <0> d   1      18.741   0.261   5.494  0.00  0.00     0.000 A 
ATOM     13  C17 <0> d   1      19.175  -1.046   5.611  0.00  0.00     0.001 A 
ATOM     14  C16 <0> d   1      19.448  -1.575   6.858  0.00  0.00     0.010 A 
ENDBRANCH   8   9
BRANCH   8  15
ATOM     15  C21 <0> d   1      18.958  -2.740   9.463  0.00  0.00    -0.021 A 
ATOM     16  C27 <0> d   1      19.528  -3.694  10.285  0.00  0.00     0.011 A 
ATOM     17  C26 <0> d   1      18.952  -4.946  10.393  0.00  0.00     0.024 A 
ATOM     18  C24 <0> d   1      17.812  -5.248   9.670  0.00  0.00     0.034 A 
ATOM     19  C23 <0> d   1      17.244  -4.295   8.844  0.00  0.00     0.024 A 
ATOM     20 Cl25 <0> d   1      17.093  -6.823   9.799  0.00  0.00    -0.084 Cl
ATOM     21  C22 <0> d   1      17.818  -3.041   8.740  0.00  0.00     0.011 A 
ENDBRANCH   8  15
ENDBRANCH   5   8
BRANCH   1  22
ATOM     22  C7  <0> d   1      17.712   1.091  14.060  0.00  0.00     0.273 C 
BRANCH  22  23
ATOM     23  C6  <0> d   1      18.234   0.730  15.427  0.00  0.00    -0.032 A 
ATOM     24  C5  <0> d   1      18.461  -0.594  15.752  0.00  0.00     0.009 A 
ATOM     25  C4  <0> d   1      18.939  -0.926  17.006  0.00  0.00     0.001 A 
ATOM     26  C3  <0> d   1      19.192   0.068  17.934  0.00  0.00     0.007 A 
ATOM     27  C2  <0> d   1      18.965   1.392  17.608  0.00  0.00    -0.061 A 
ATOM     28  C1  <0> d   1      19.240   2.475  18.620  0.00  0.00     0.048 C 
ATOM     29  C30 <0> d   1      18.481   1.722  16.356  0.00  0.00     0.015 A 
ENDBRANCH  22  23
ENDBRANCH   1  22
TORSDOF 5
ENDMDL
MODEL 5
REMARK VINA RESULT:      -8.4      3.713      9.158
REMARK  5 active torsions:
REMARK  status: ('A' for Active; 'I' for Inactive)
REMARK    1  A    between atoms: C6_6  and  C7_7 
REMARK    2  A    between atoms: C7_7  and  N8_8 
REMARK    3  A    between atoms: N12_12  and  C13_13 
REMARK    4  A    between atoms: C13_13  and  C15_14 
REMARK    5  A    between atoms: C13_13  and  C21_20 
ROOT
ATOM      1  N8  <0> d   1      18.744  -1.581   8.086  0.00  0.00    -0.064 N 
ATOM      2  H9  <0> d   1      17.817  -1.387   7.739  0.00  0.00     0.280 HD
ATOM      3  C10 <0> d   1      19.439  -0.316   8.360  0.00  0.00     0.265 C 
ATOM      4  C11 <0> d   1      18.649   0.486   9.396  0.00  0.00     0.301 C 
ATOM      5  N12 <0> d   1      18.524  -0.301  10.630  0.00  0.00     0.105 N 
ATOM      6  C28 <0> d   1      17.852  -1.581  10.367  0.00  0.00     0.301 C 
ATOM      7  C29 <0> d   1      18.649  -2.367   9.324  0.00  0.00     0.265 C 
ENDROOT
BRANCH   5   8
ATOM      8  C13 <0> d   1      17.818   0.459  11.671  0.00  0.00     0.289 C 
BRANCH   8   9
ATOM      9  C15 <0> d   1      18.210   1.912  11.585  0.00  0.00    -0.021 A 
ATOM     10  C20 <0> d   1      17.288   2.853  11.165  0.00  0.00     0.010 A 
ATOM     11  C19 <0> d   1      17.647   4.185  11.090  0.00  0.00     0.001 A 
ATOM     12  C18 <0> d   1      18.930   4.577  11.426  0.00  0.00     0.000 A 
ATOM     13  C17 <0> d   1      19.853   3.635  11.839  0.00  0.00     0.001 A 
ATOM     14  C16 <0> d   1      19.493   2.302  11.919  0.00  0.00     0.010 A 
ENDBRANCH   8   9
BRANCH   8  15
ATOM     15  C21 <0> d   1      18.190  -0.082  13.028  0.00  0.00    -0.021 A 
ATOM     16  C27 <0> d   1      19.244  -0.966  13.154  0.00  0.00     0.011 A 
ATOM     17  C26 <0> d   1      19.588  -1.458  14.399  0.00  0.00     0.024 A 
ATOM     18  C24 <0> d   1      18.869  -1.074  15.517  0.00  0.00     0.034 A 
ATOM     19  C23 <0> d   1      17.811  -0.193  15.389  0.00  0.00     0.024 A 
ATOM     20 Cl25 <0> d   1      19.296  -1.698  17.080  0.00  0.00    -0.084 Cl
ATOM     21  C22 <0> d   1      17.471   0.302  14.144  0.00  0.00     0.011 A 
ENDBRANCH   8  15
ENDBRANCH   5   8
BRANCH   1  22
ATOM     22  C7  <0> d   1      19.493  -2.343   7.079  0.00  0.00     0.273 C 
BRANCH  22  23
ATOM     23  C6  <0> d   1      18.600  -2.633   5.900  0.00  0.00    -0.032 A 
ATOM     24  C5  <0> d   1      17.994  -1.594   5.220  0.00  0.00     0.009 A 
ATOM     25  C4  <0> d   1      17.174  -1.859   4.139  0.00  0.00     0.001 A 
ATOM     26  C3  <0> d   1      16.961  -3.165   3.738  0.00  0.00     0.007 A 
ATOM     27  C2  <0> d   1      17.567  -4.205   4.418  0.00  0.00    -0.061 A 
ATOM     28  C1  <0> d   1      17.334  -5.628   3.981  0.00  0.00     0.048 C 
ATOM     29  C30 <0> d   1      18.382  -3.939   5.502  0.00  0.00     0.015 A 
ENDBRANCH  22  23
ENDBRANCH   1  22
TORSDOF 5
ENDMDL
MODEL 6
REMARK VINA RESULT:      -8.3      4.618      9.798
REMARK  5 active torsions:
REMARK  status: ('A' for Active; 'I' for Inactive)
REMARK    1  A    between atoms: C6_6  and  C7_7 
REMARK    2  A    between atoms: C7_7  and  N8_8 
REMARK    3  A    between atoms: N12_12  and  C13_13 
REMARK    4  A    between atoms: C13_13  and  C15_14 
REMARK    5  A    between atoms: C13_13  and  C21_20 
ROOT
ATOM      1  N8  <0> d   1      18.040  -3.789  10.136  0.00  0.00    -0.064 N 
ATOM      2  H9  <0> d   1      17.066  -3.730   9.881  0.00  0.00     0.280 HD
ATOM      3  C10 <0> d   1      18.733  -2.565   9.712  0.00  0.00     0.265 C 
ATOM      4  C11 <0> d   1      18.088  -1.354  10.387  0.00  0.00     0.301 C 
ATOM      5  N12 <0> d   1      18.174  -1.506  11.846  0.00  0.00     0.105 N 
ATOM      6  C28 <0> d   1      17.506  -2.740  12.283  0.00  0.00     0.301 C 
ATOM      7  C29 <0> d   1      18.157  -3.940  11.592  0.00  0.00     0.265 C 
ENDROOT
BRANCH   5   8
ATOM      8  C13 <0> d   1      17.614  -0.333  12.533  0.00  0.00     0.289 C 
BRANCH   8   9
ATOM      9  C15 <0> d   1      18.137   0.924  11.887  0.00  0.00    -0.021 A 
ATOM     10  C20 <0> d   1      17.291   1.719  11.135  0.00  0.00     0.010 A 
ATOM     11  C19 <0> d   1      17.771   2.874  10.547  0.00  0.00     0.001 A 
ATOM     12  C18 <0> d   1      19.098   3.230  10.703  0.00  0.00     0.000 A 
ATOM     13  C17 <0> d   1      19.944   2.432  11.449  0.00  0.00     0.001 A 
ATOM     14  C16 <0> d   1      19.464   1.280  12.041  0.00  0.00     0.010 A 
ENDBRANCH   8   9
BRANCH   8  15
ATOM     15  C21 <0> d   1      18.019  -0.359  13.983  0.00  0.00    -0.021 A 
ATOM     16  C27 <0> d   1      18.955  -1.275  14.423  0.00  0.00     0.011 A 
ATOM     17  C26 <0> d   1      19.331  -1.295  15.754  0.00  0.00     0.024 A 
ATOM     18  C24 <0> d   1      18.760  -0.406  16.647  0.00  0.00     0.034 A 
ATOM     19  C23 <0> d   1      17.819   0.507  16.207  0.00  0.00     0.024 A 
ATOM     20 Cl25 <0> d   1      19.225  -0.436  18.319  0.00  0.00    -0.084 Cl
ATOM     21  C22 <0> d   1      17.448   0.530  14.875  0.00  0.00     0.011 A 
ENDBRANCH   8  15
ENDBRANCH   5   8
BRANCH   1  22
ATOM     22  C7  <0> d   1      18.649  -4.950   9.473  0.00  0.00     0.273 C 
BRANCH  22  23
ATOM     23  C6  <0> d   1      17.570  -5.792   8.842  0.00  0.00    -0.032 A 
ATOM     24  C5  <0> d   1      16.256  -5.364   8.868  0.00  0.00     0.009 A 
ATOM     25  C4  <0> d   1      15.265  -6.135   8.289  0.00  0.00     0.001 A 
ATOM     26  C3  <0> d   1      15.590  -7.335   7.682  0.00  0.00     0.007 A 
ATOM     27  C2  <0> d   1      16.905  -7.762   7.655  0.00  0.00    -0.061 A 
ATOM     28  C1  <0> d   1      17.258  -9.070   6.995  0.00  0.00     0.048 C 
ATOM     29  C30 <0> d   1      17.893  -6.993   8.240  0.00  0.00     0.015 A 
ENDBRANCH  22  23
ENDBRANCH   1  22
TORSDOF 5
ENDMDL
MODEL 7
REMARK VINA RESULT:      -8.2      3.155      5.061
REMARK  5 active torsions:
REMARK  status: ('A' for Active; 'I' for Inactive)
REMARK    1  A    between atoms: C6_6  and  C7_7 
REMARK    2  A    between atoms: C7_7  and  N8_8 
REMARK    3  A    between atoms: N12_12  and  C13_13 
REMARK    4  A    between atoms: C13_13  and  C15_14 
REMARK    5  A    between atoms: C13_13  and  C21_20 
ROOT
ATOM      1  N8  <0> d   1      18.641   1.523  13.319  0.00  0.00    -0.064 N 
ATOM      2  H9  <0> d   1      18.681   0.693  13.891  0.00  0.00     0.280 HD
ATOM      3  C10 <0> d   1      19.971   1.795  12.756  0.00  0.00     0.265 C 
ATOM      4  C11 <0> d   1      20.422   0.600  11.914  0.00  0.00     0.301 C 
ATOM      5  N12 <0> d   1      19.452   0.370  10.835  0.00  0.00     0.105 N 
ATOM      6  C28 <0> d   1      18.111   0.121  11.383  0.00  0.00     0.301 C 
ATOM      7  C29 <0> d   1      17.679   1.320  12.229  0.00  0.00     0.265 C 
ENDROOT
BRANCH   5   8
ATOM      8  C13 <0> d   1      19.880  -0.737   9.968  0.00  0.00     0.289 C 
BRANCH   8   9
ATOM      9  C15 <0> d   1      19.449  -0.460   8.551  0.00  0.00    -0.021 A 
ATOM     10  C20 <0> d   1      19.254  -1.509   7.671  0.00  0.00     0.010 A 
ATOM     11  C19 <0> d   1      18.855  -1.254   6.372  0.00  0.00     0.001 A 
ATOM     12  C18 <0> d   1      18.659   0.048   5.951  0.00  0.00     0.000 A 
ATOM     13  C17 <0> d   1      18.860   1.096   6.829  0.00  0.00     0.001 A 
ATOM     14  C16 <0> d   1      19.255   0.842   8.129  0.00  0.00     0.010 A 
ENDBRANCH   8   9
BRANCH   8  15
ATOM     15  C21 <0> d   1      19.251  -2.021  10.444  0.00  0.00    -0.021 A 
ATOM     16  C27 <0> d   1      17.907  -2.254  10.224  0.00  0.00     0.011 A 
ATOM     17  C26 <0> d   1      17.332  -3.435  10.655  0.00  0.00     0.024 A 
ATOM     18  C24 <0> d   1      18.098  -4.376  11.317  0.00  0.00     0.034 A 
ATOM     19  C23 <0> d   1      19.442  -4.140  11.542  0.00  0.00     0.024 A 
ATOM     20 Cl25 <0> d   1      17.374  -5.855  11.866  0.00  0.00    -0.084 Cl
ATOM     21  C22 <0> d   1      20.018  -2.961  11.105  0.00  0.00     0.011 A 
ENDBRANCH   8  15
ENDBRANCH   5   8
BRANCH   1  22
ATOM     22  C7  <0> d   1      18.216   2.663  14.142  0.00  0.00     0.273 C 
BRANCH  22  23
ATOM     23  C6  <0> d   1      18.581   2.407  15.582  0.00  0.00    -0.032 A 
ATOM     24  C5  <0> d   1      18.777   3.469  16.444  0.00  0.00     0.009 A 
ATOM     25  C4  <0> d   1      19.111   3.235  17.765  0.00  0.00     0.001 A 
ATOM     26  C3  <0> d   1      19.248   1.938  18.224  0.00  0.00     0.007 A 
ATOM     27  C2  <0> d   1      19.051   0.875  17.361  0.00  0.00    -0.061 A 
ATOM     28  C1  <0> d   1      19.201  -0.538  17.861  0.00  0.00     0.048 C 
ATOM     29  C30 <0> d   1      18.722   1.111  16.039  0.00  0.00     0.015 A 
ENDBRANCH  22  23
ENDBRANCH   1  22
TORSDOF 5
ENDMDL
MODEL 8
REMARK VINA RESULT:      -8.1      3.520      7.910
REMARK  5 active torsions:
REMARK  status: ('A' for Active; 'I' for Inactive)
REMARK    1  A    between atoms: C6_6  and  C7_7 
REMARK    2  A    between atoms: C7_7  and  N8_8 
REMARK    3  A    between atoms: N12_12  and  C13_13 
REMARK    4  A    between atoms: C13_13  and  C15_14 
REMARK    5  A    between atoms: C13_13  and  C21_20 
ROOT
ATOM      1  N8  <0> d   1      18.241   0.594  11.088  0.00  0.00    -0.064 N 
ATOM      2  H9  <0> d   1      19.091   0.968  10.695  0.00  0.00     0.280 HD
ATOM      3  C10 <0> d   1      18.568  -0.271  12.230  0.00  0.00     0.265 C 
ATOM      4  C11 <0> d   1      19.319   0.542  13.286  0.00  0.00     0.301 C 
ATOM      5  N12 <0> d   1      18.480   1.665  13.725  0.00  0.00     0.105 N 
ATOM      6  C28 <0> d   1      18.123   2.525  12.588  0.00  0.00     0.301 C 
ATOM      7  C29 <0> d   1      17.381   1.696  11.538  0.00  0.00     0.265 C 
ENDROOT
BRANCH   5   8
ATOM      8  C13 <0> d   1      19.145   2.438  14.783  0.00  0.00     0.289 C 
BRANCH   8   9
ATOM      9  C15 <0> d   1      18.775   1.869  16.129  0.00  0.00    -0.021 A 
ATOM     10  C20 <0> d   1      17.955   0.759  16.209  0.00  0.00     0.010 A 
ATOM     11  C19 <0> d   1      17.620   0.236  17.443  0.00  0.00     0.001 A 
ATOM     12  C18 <0> d   1      18.098   0.827  18.598  0.00  0.00     0.000 A 
ATOM     13  C17 <0> d   1      18.913   1.941  18.518  0.00  0.00     0.001 A 
ATOM     14  C16 <0> d   1      19.252   2.462  17.283  0.00  0.00     0.010 A 
ENDBRANCH   8   9
BRANCH   8  15
ATOM     15  C21 <0> d   1      18.704   3.877  14.707  0.00  0.00    -0.021 A 
ATOM     16  C27 <0> d   1      19.627   4.869  14.434  0.00  0.00     0.011 A 
ATOM     17  C26 <0> d   1      19.220   6.188  14.359  0.00  0.00     0.024 A 
ATOM     18  C24 <0> d   1      17.893   6.516  14.568  0.00  0.00     0.034 A 
ATOM     19  C23 <0> d   1      16.971   5.524  14.846  0.00  0.00     0.024 A 
ATOM     20 Cl25 <0> d   1      17.385   8.174  14.482  0.00  0.00    -0.084 Cl
ATOM     21  C22 <0> d   1      17.377   4.204  14.916  0.00  0.00     0.011 A 
ENDBRANCH   8  15
ENDBRANCH   5   8
BRANCH   1  22
ATOM     22  C7  <0> d   1      17.535  -0.191  10.066  0.00  0.00     0.273 C 
BRANCH  22  23
ATOM     23  C6  <0> d   1      18.004   0.229   8.697  0.00  0.00    -0.032 A 
ATOM     24  C5  <0> d   1      18.822   1.334   8.555  0.00  0.00     0.009 A 
ATOM     25  C4  <0> d   1      19.252   1.720   7.299  0.00  0.00     0.001 A 
ATOM     26  C3  <0> d   1      18.864   0.999   6.185  0.00  0.00     0.007 A 
ATOM     27  C2  <0> d   1      18.046  -0.107   6.327  0.00  0.00    -0.061 A 
ATOM     28  C1  <0> d   1      17.624  -0.892   5.112  0.00  0.00     0.048 C 
ATOM     29  C30 <0> d   1      17.612  -0.489   7.582  0.00  0.00     0.015 A 
ENDBRANCH  22  23
ENDBRANCH   1  22
TORSDOF 5
ENDMDL
MODEL 9
REMARK VINA RESULT:      -8.1      3.964      8.996
REMARK  5 active torsions:
REMARK  status: ('A' for Active; 'I' for Inactive)
REMARK    1  A    between atoms: C6_6  and  C7_7 
REMARK    2  A    between atoms: C7_7  and  N8_8 
REMARK    3  A    between atoms: N12_12  and  C13_13 
REMARK    4  A    between atoms: C13_13  and  C15_14 
REMARK    5  A    between atoms: C13_13  and  C21_20 
ROOT
ATOM      1  N8  <0> d   1      18.608  -2.324   9.347  0.00  0.00    -0.064 N 
ATOM      2  H9  <0> d   1      17.863  -1.905   8.812  0.00  0.00     0.280 HD
ATOM      3  C10 <0> d   1      19.603  -1.297   9.688  0.00  0.00     0.265 C 
ATOM      4  C11 <0> d   1      18.933  -0.188  10.502  0.00  0.00     0.301 C 
ATOM      5  N12 <0> d   1      18.357  -0.762  11.726  0.00  0.00     0.105 N 
ATOM      6  C28 <0> d   1      17.377  -1.808  11.401  0.00  0.00     0.301 C 
ATOM      7  C29 <0> d   1      18.060  -2.904  10.580  0.00  0.00     0.265 C 
ENDROOT
BRANCH   5   8
ATOM      8  C13 <0> d   1      17.752   0.283  12.564  0.00  0.00     0.289 C 
BRANCH   8   9
ATOM      9  C15 <0> d   1      18.254   1.634  12.122  0.00  0.00    -0.021 A 
ATOM     10  C20 <0> d   1      17.377   2.549  11.569  0.00  0.00     0.010 A 
ATOM     11  C19 <0> d   1      17.837   3.789  11.168  0.00  0.00     0.001 A 
ATOM     12  C18 <0> d   1      19.174   4.112  11.312  0.00  0.00     0.000 A 
ATOM     13  C17 <0> d   1      20.051   3.194  11.859  0.00  0.00     0.001 A 
ATOM     14  C16 <0> d   1      19.591   1.955  12.265  0.00  0.00     0.010 A 
ENDBRANCH   8   9
BRANCH   8  15
ATOM     15  C21 <0> d   1      18.130   0.053  14.004  0.00  0.00    -0.021 A 
ATOM     16  C27 <0> d   1      18.887  -1.050  14.352  0.00  0.00     0.011 A 
ATOM     17  C26 <0> d   1      19.237  -1.258  15.674  0.00  0.00     0.024 A 
ATOM     18  C24 <0> d   1      18.821  -0.369  16.648  0.00  0.00     0.034 A 
ATOM     19  C23 <0> d   1      18.059   0.732  16.299  0.00  0.00     0.024 A 
ATOM     20 Cl25 <0> d   1      19.254  -0.634  18.308  0.00  0.00    -0.084 Cl
ATOM     21  C22 <0> d   1      17.713   0.941  14.977  0.00  0.00     0.011 A 
ENDBRANCH   8  15
ENDBRANCH   5   8
BRANCH   1  22
ATOM     22  C7  <0> d   1      19.248  -3.379   8.551  0.00  0.00     0.273 C 
BRANCH  22  23
ATOM     23  C6  <0> d   1      19.053  -3.090   7.085  0.00  0.00    -0.032 A 
ATOM     24  C5  <0> d   1      18.692  -4.108   6.222  0.00  0.00     0.009 A 
ATOM     25  C4  <0> d   1      18.513  -3.843   4.877  0.00  0.00     0.001 A 
ATOM     26  C3  <0> d   1      18.696  -2.560   4.395  0.00  0.00     0.007 A 
ATOM     27  C2  <0> d   1      19.057  -1.542   5.259  0.00  0.00    -0.061 A 
ATOM     28  C1  <0> d   1      19.257  -0.144   4.733  0.00  0.00     0.048 C 
ATOM     29  C30 <0> d   1      19.241  -1.809   6.602  0.00  0.00     0.015 A 
ENDBRANCH  22  23
ENDBRANCH   1  22
TORSDOF 5
ENDMDL
