MODEL 1
REMARK VINA RESULT:      -6.0      0.000      0.000
REMARK  3 active torsions:
REMARK  status: ('A' for Active; 'I' for Inactive)
REMARK    1  A    between atoms: C3_3  and  C4_4 
REMARK       I    between atoms: C4_4  and  N6_6 
REMARK    2  A    between atoms: N6_6  and  C7_7 
REMARK    3  A    between atoms: N6_6  and  C9_9 
ROOT
ATOM      1  C4  ZIN A   1      17.597   2.207  11.914  0.00  0.00     0.247 C 
ATOM      2  O5  ZIN A   1      17.015   1.196  11.571  0.00  0.00    -0.268 OA
ATOM      3  N6  ZIN A   1      18.348   2.206  13.033  0.00  0.00    -0.314 N 
ENDROOT
BRANCH   3   4
ATOM      4  C7  ZIN A   1      19.048   3.424  13.446  0.00  0.00     0.128 C 
ATOM      5  C8  ZIN A   1      18.216   4.160  14.498  0.00  0.00     0.027 C 
ENDBRANCH   3   4
BRANCH   3   6
ATOM      6  C9  ZIN A   1      18.459   1.042  13.799  0.00  0.00     0.043 A 
ATOM      7  C14 ZIN A   1      19.488   0.142  13.552  0.00  0.00    -0.035 A 
ATOM      8  C13 ZIN A   1      19.598  -1.004  14.315  0.00  0.00     0.009 A 
ATOM      9  C15 ZIN A   1      20.492   0.424  12.464  0.00  0.00     0.050 C 
ATOM     10  C12 ZIN A   1      18.678  -1.264  15.314  0.00  0.00     0.001 A 
ATOM     11  C11 ZIN A   1      17.649  -0.373  15.558  0.00  0.00     0.002 A 
ATOM     12  C10 ZIN A   1      17.536   0.778  14.803  0.00  0.00     0.030 A 
ENDBRANCH   3   6
BRANCH   1  13
ATOM     13  C3  ZIN A   1      17.480   3.432  11.108  0.00  0.00     0.070 C 
ATOM     14  C2  ZIN A   1      18.171   3.552   9.977  0.00  0.00    -0.026 C 
ATOM     15  C1  ZIN A   1      19.073   2.433   9.522  0.00  0.00     0.036 C 
ENDBRANCH   1  13
TORSDOF 3
ENDMDL
MODEL 2
REMARK VINA RESULT:      -5.9      2.086      4.591
REMARK  3 active torsions:
REMARK  status: ('A' for Active; 'I' for Inactive)
REMARK    1  A    between atoms: C3_3  and  C4_4 
REMARK       I    between atoms: C4_4  and  N6_6 
REMARK    2  A    between atoms: N6_6  and  C7_7 
REMARK    3  A    between atoms: N6_6  and  C9_9 
ROOT
ATOM      1  C4  ZIN A   1      17.282  -0.189  11.666  0.00  0.00     0.247 C 
ATOM      2  O5  ZIN A   1      16.172   0.177  11.331  0.00  0.00    -0.268 OA
ATOM      3  N6  ZIN A   1      18.299   0.694  11.708  0.00  0.00    -0.314 N 
ENDROOT
BRANCH   3   4
ATOM      4  C7  ZIN A   1      19.636   0.253  12.111  0.00  0.00     0.128 C 
ATOM      5  C8  ZIN A   1      19.840   0.538  13.600  0.00  0.00     0.027 C 
ENDBRANCH   3   4
BRANCH   3   6
ATOM      6  C9  ZIN A   1      18.077   2.032  11.366  0.00  0.00     0.043 A 
ATOM      7  C14 ZIN A   1      18.346   2.475  10.077  0.00  0.00    -0.035 A 
ATOM      8  C13 ZIN A   1      18.119   3.795   9.742  0.00  0.00     0.009 A 
ATOM      9  C15 ZIN A   1      18.870   1.512   9.043  0.00  0.00     0.050 C 
ATOM     10  C12 ZIN A   1      17.638   4.679  10.690  0.00  0.00     0.001 A 
ATOM     11  C11 ZIN A   1      17.376   4.243  11.975  0.00  0.00     0.002 A 
ATOM     12  C10 ZIN A   1      17.594   2.922  12.316  0.00  0.00     0.030 A 
ENDBRANCH   3   6
BRANCH   1  13
ATOM     13  C3  ZIN A   1      17.516  -1.596  12.025  0.00  0.00     0.070 C 
ATOM     14  C2  ZIN A   1      17.811  -2.484  11.079  0.00  0.00    -0.026 C 
ATOM     15  C1  ZIN A   1      17.905  -2.048   9.639  0.00  0.00     0.036 C 
ENDBRANCH   1  13
TORSDOF 3
ENDMDL
MODEL 3
REMARK VINA RESULT:      -5.8      1.869      2.356
REMARK  3 active torsions:
REMARK  status: ('A' for Active; 'I' for Inactive)
REMARK    1  A    between atoms: C3_3  and  C4_4 
REMARK       I    between atoms: C4_4  and  N6_6 
REMARK    2  A    between atoms: N6_6  and  C7_7 
REMARK    3  A    between atoms: N6_6  and  C9_9 
ROOT
ATOM      1  C4  ZIN A   1      17.269   0.427  11.267  0.00  0.00     0.247 C 
ATOM      2  O5  ZIN A   1      16.224  -0.049  11.669  0.00  0.00    -0.268 OA
ATOM      3  N6  ZIN A   1      18.324   0.536  12.099  0.00  0.00    -0.314 N 
ENDROOT
BRANCH   3   4
ATOM      4  C7  ZIN A   1      19.581   1.109  11.616  0.00  0.00     0.128 C 
ATOM      5  C8  ZIN A   1      19.622   2.602  11.947  0.00  0.00     0.027 C 
ENDBRANCH   3   4
BRANCH   3   6
ATOM      6  C9  ZIN A   1      18.217   0.100  13.424  0.00  0.00     0.043 A 
ATOM      7  C14 ZIN A   1      18.667  -1.166  13.778  0.00  0.00    -0.035 A 
ATOM      8  C13 ZIN A   1      18.565  -1.590  15.088  0.00  0.00     0.009 A 
ATOM      9  C15 ZIN A   1      19.278  -2.068  12.738  0.00  0.00     0.050 C 
ATOM     10  C12 ZIN A   1      18.004  -0.763  16.044  0.00  0.00     0.001 A 
ATOM     11  C11 ZIN A   1      17.550   0.495  15.693  0.00  0.00     0.002 A 
ATOM     12  C10 ZIN A   1      17.654   0.928  14.386  0.00  0.00     0.030 A 
ENDBRANCH   3   6
BRANCH   1  13
ATOM     13  C3  ZIN A   1      17.381   0.885   9.875  0.00  0.00     0.070 C 
ATOM     14  C2  ZIN A   1      17.683   0.017   8.912  0.00  0.00    -0.026 C 
ATOM     15  C1  ZIN A   1      17.910  -1.434   9.248  0.00  0.00     0.036 C 
ENDBRANCH   1  13
TORSDOF 3
ENDMDL
MODEL 4
REMARK VINA RESULT:      -5.8      2.088      5.387
REMARK  3 active torsions:
REMARK  status: ('A' for Active; 'I' for Inactive)
REMARK    1  A    between atoms: C3_3  and  C4_4 
REMARK       I    between atoms: C4_4  and  N6_6 
REMARK    2  A    between atoms: N6_6  and  C7_7 
REMARK    3  A    between atoms: N6_6  and  C9_9 
ROOT
ATOM      1  C4  ZIN A   1      19.596  -0.325  12.925  0.00  0.00     0.247 C 
ATOM      2  O5  ZIN A   1      20.607   0.337  12.790  0.00  0.00    -0.268 OA
ATOM      3  N6  ZIN A   1      18.625  -0.269  11.991  0.00  0.00    -0.314 N 
ENDROOT
BRANCH   3   4
ATOM      4  C7  ZIN A   1      17.408  -1.066  12.153  0.00  0.00     0.128 C 
ATOM      5  C8  ZIN A   1      17.552  -2.380  11.384  0.00  0.00     0.027 C 
ENDBRANCH   3   4
BRANCH   3   6
ATOM      6  C9  ZIN A   1      18.782   0.550  10.869  0.00  0.00     0.043 A 
ATOM      7  C14 ZIN A   1      18.337   1.866  10.900  0.00  0.00    -0.035 A 
ATOM      8  C13 ZIN A   1      18.499   2.673   9.791  0.00  0.00     0.009 A 
ATOM      9  C15 ZIN A   1      17.692   2.415  12.146  0.00  0.00     0.050 C 
ATOM     10  C12 ZIN A   1      19.091   2.170   8.646  0.00  0.00     0.001 A 
ATOM     11  C11 ZIN A   1      19.529   0.860   8.611  0.00  0.00     0.002 A 
ATOM     12  C10 ZIN A   1      19.376   0.048   9.718  0.00  0.00     0.030 A 
ENDBRANCH   3   6
BRANCH   1  13
ATOM     13  C3  ZIN A   1      19.432  -1.186  14.105  0.00  0.00     0.070 C 
ATOM     14  C2  ZIN A   1      19.019  -0.663  15.257  0.00  0.00    -0.026 C 
ATOM     15  C1  ZIN A   1      18.719   0.811  15.352  0.00  0.00     0.036 C 
ENDBRANCH   1  13
TORSDOF 3
ENDMDL
MODEL 5
REMARK VINA RESULT:      -5.7      2.791      5.722
REMARK  3 active torsions:
REMARK  status: ('A' for Active; 'I' for Inactive)
REMARK    1  A    between atoms: C3_3  and  C4_4 
REMARK       I    between atoms: C4_4  and  N6_6 
REMARK    2  A    between atoms: N6_6  and  C7_7 
REMARK    3  A    between atoms: N6_6  and  C9_9 
ROOT
ATOM      1  C4  ZIN A   1      19.695  -1.143  11.456  0.00  0.00     0.247 C 
ATOM      2  O5  ZIN A   1      20.810  -0.863  11.059  0.00  0.00    -0.268 OA
ATOM      3  N6  ZIN A   1      18.612  -0.744  10.760  0.00  0.00    -0.314 N 
ENDROOT
BRANCH   3   4
ATOM      4  C7  ZIN A   1      17.270  -1.080  11.237  0.00  0.00     0.128 C 
ATOM      5  C8  ZIN A   1      16.644   0.144  11.906  0.00  0.00     0.027 C 
ENDBRANCH   3   4
BRANCH   3   6
ATOM      6  C9  ZIN A   1      18.771  -0.008   9.582  0.00  0.00     0.043 A 
ATOM      7  C14 ZIN A   1      18.738  -0.651   8.350  0.00  0.00    -0.035 A 
ATOM      8  C13 ZIN A   1      18.889   0.080   7.188  0.00  0.00     0.009 A 
ATOM      9  C15 ZIN A   1      18.522  -2.140   8.283  0.00  0.00     0.050 C 
ATOM     10  C12 ZIN A   1      19.087   1.448   7.249  0.00  0.00     0.001 A 
ATOM     11  C11 ZIN A   1      19.127   2.089   8.473  0.00  0.00     0.002 A 
ATOM     12  C10 ZIN A   1      18.970   1.365   9.639  0.00  0.00     0.030 A 
ENDBRANCH   3   6
BRANCH   1  13
ATOM     13  C3  ZIN A   1      19.528  -1.917  12.695  0.00  0.00     0.070 C 
ATOM     14  C2  ZIN A   1      19.572  -1.302  13.874  0.00  0.00    -0.026 C 
ATOM     15  C1  ZIN A   1      19.794   0.187  13.940  0.00  0.00     0.036 C 
ENDBRANCH   1  13
TORSDOF 3
ENDMDL
MODEL 6
REMARK VINA RESULT:      -5.7      3.805      4.725
REMARK  3 active torsions:
REMARK  status: ('A' for Active; 'I' for Inactive)
REMARK    1  A    between atoms: C3_3  and  C4_4 
REMARK       I    between atoms: C4_4  and  N6_6 
REMARK    2  A    between atoms: N6_6  and  C7_7 
REMARK    3  A    between atoms: N6_6  and  C9_9 
ROOT
ATOM      1  C4  ZIN A   1      19.547   0.164   9.908  0.00  0.00     0.247 C 
ATOM      2  O5  ZIN A   1      20.687  -0.181   9.666  0.00  0.00    -0.268 OA
ATOM      3  N6  ZIN A   1      18.623  -0.756  10.250  0.00  0.00    -0.314 N 
ENDROOT
BRANCH   3   4
ATOM      4  C7  ZIN A   1      17.249  -0.340  10.542  0.00  0.00     0.128 C 
ATOM      5  C8  ZIN A   1      17.053  -0.254  12.057  0.00  0.00     0.027 C 
ENDBRANCH   3   4
BRANCH   3   6
ATOM      6  C9  ZIN A   1      18.976  -2.106  10.327  0.00  0.00     0.043 A 
ATOM      7  C14 ZIN A   1      18.806  -2.934   9.225  0.00  0.00    -0.035 A 
ATOM      8  C13 ZIN A   1      19.162  -4.266   9.302  0.00  0.00     0.009 A 
ATOM      9  C15 ZIN A   1      18.247  -2.375   7.941  0.00  0.00     0.050 C 
ATOM     10  C12 ZIN A   1      19.675  -4.779  10.480  0.00  0.00     0.001 A 
ATOM     11  C11 ZIN A   1      19.840  -3.960  11.580  0.00  0.00     0.002 A 
ATOM     12  C10 ZIN A   1      19.492  -2.625  11.508  0.00  0.00     0.030 A 
ENDBRANCH   3   6
BRANCH   1  13
ATOM     13  C3  ZIN A   1      19.175   1.584   9.828  0.00  0.00     0.070 C 
ATOM     14  C2  ZIN A   1      18.948   2.146   8.643  0.00  0.00    -0.026 C 
ATOM     15  C1  ZIN A   1      19.071   1.327   7.384  0.00  0.00     0.036 C 
ENDBRANCH   1  13
TORSDOF 3
ENDMDL
MODEL 7
REMARK VINA RESULT:      -5.6      2.425      5.443
REMARK  3 active torsions:
REMARK  status: ('A' for Active; 'I' for Inactive)
REMARK    1  A    between atoms: C3_3  and  C4_4 
REMARK       I    between atoms: C4_4  and  N6_6 
REMARK    2  A    between atoms: N6_6  and  C7_7 
REMARK    3  A    between atoms: N6_6  and  C9_9 
ROOT
ATOM      1  C4  ZIN A   1      20.081   0.293  11.160  0.00  0.00     0.247 C 
ATOM      2  O5  ZIN A   1      20.250  -0.813  10.682  0.00  0.00    -0.268 OA
ATOM      3  N6  ZIN A   1      19.387   1.224  10.474  0.00  0.00    -0.314 N 
ENDROOT
BRANCH   3   4
ATOM      4  C7  ZIN A   1      19.184   2.555  11.049  0.00  0.00     0.128 C 
ATOM      5  C8  ZIN A   1      17.752   3.017  10.772  0.00  0.00     0.027 C 
ENDBRANCH   3   4
BRANCH   3   6
ATOM      6  C9  ZIN A   1      18.862   0.917   9.216  0.00  0.00     0.043 A 
ATOM      7  C14 ZIN A   1      17.701   0.161   9.112  0.00  0.00    -0.035 A 
ATOM      8  C13 ZIN A   1      17.181  -0.135   7.867  0.00  0.00     0.009 A 
ATOM      9  C15 ZIN A   1      17.003  -0.324  10.356  0.00  0.00     0.050 C 
ATOM     10  C12 ZIN A   1      17.822   0.309   6.724  0.00  0.00     0.001 A 
ATOM     11  C11 ZIN A   1      18.980   1.057   6.824  0.00  0.00     0.002 A 
ATOM     12  C10 ZIN A   1      19.502   1.362   8.066  0.00  0.00     0.030 A 
ENDBRANCH   3   6
BRANCH   1  13
ATOM     13  C3  ZIN A   1      20.633   0.615  12.484  0.00  0.00     0.070 C 
ATOM     14  C2  ZIN A   1      20.003   0.212  13.583  0.00  0.00    -0.026 C 
ATOM     15  C1  ZIN A   1      18.722  -0.575  13.473  0.00  0.00     0.036 C 
ENDBRANCH   1  13
TORSDOF 3
ENDMDL
MODEL 8
REMARK VINA RESULT:      -5.6      2.350      3.279
REMARK  3 active torsions:
REMARK  status: ('A' for Active; 'I' for Inactive)
REMARK    1  A    between atoms: C3_3  and  C4_4 
REMARK       I    between atoms: C4_4  and  N6_6 
REMARK    2  A    between atoms: N6_6  and  C7_7 
REMARK    3  A    between atoms: N6_6  and  C9_9 
ROOT
ATOM      1  C4  ZIN A   1      19.527   0.657   9.414  0.00  0.00     0.247 C 
ATOM      2  O5  ZIN A   1      20.371  -0.216   9.493  0.00  0.00    -0.268 OA
ATOM      3  N6  ZIN A   1      18.794   0.985  10.496  0.00  0.00    -0.314 N 
ENDROOT
BRANCH   3   4
ATOM      4  C7  ZIN A   1      17.778   2.035  10.401  0.00  0.00     0.128 C 
ATOM      5  C8  ZIN A   1      18.396   3.379  10.789  0.00  0.00     0.027 C 
ENDBRANCH   3   4
BRANCH   3   6
ATOM      6  C9  ZIN A   1      19.004   0.322  11.709  0.00  0.00     0.043 A 
ATOM      7  C14 ZIN A   1      18.304  -0.844  11.995  0.00  0.00    -0.035 A 
ATOM      8  C13 ZIN A   1      18.519  -1.499  13.192  0.00  0.00     0.009 A 
ATOM      9  C15 ZIN A   1      17.324  -1.400  10.995  0.00  0.00     0.050 C 
ATOM     10  C12 ZIN A   1      19.418  -0.989  14.111  0.00  0.00     0.001 A 
ATOM     11  C11 ZIN A   1      20.111   0.174  13.831  0.00  0.00     0.002 A 
ATOM     12  C10 ZIN A   1      19.906   0.831  12.634  0.00  0.00     0.030 A 
ENDBRANCH   3   6
BRANCH   1  13
ATOM     13  C3  ZIN A   1      19.307   1.354   8.138  0.00  0.00     0.070 C 
ATOM     14  C2  ZIN A   1      18.514   0.816   7.215  0.00  0.00    -0.026 C 
ATOM     15  C1  ZIN A   1      17.841  -0.508   7.477  0.00  0.00     0.036 C 
ENDBRANCH   1  13
TORSDOF 3
ENDMDL
MODEL 9
REMARK VINA RESULT:      -5.6      2.139      5.332
REMARK  3 active torsions:
REMARK  status: ('A' for Active; 'I' for Inactive)
REMARK    1  A    between atoms: C3_3  and  C4_4 
REMARK       I    between atoms: C4_4  and  N6_6 
REMARK    2  A    between atoms: N6_6  and  C7_7 
REMARK    3  A    between atoms: N6_6  and  C9_9 
ROOT
ATOM      1  C4  ZIN A   1      17.499   0.054  11.832  0.00  0.00     0.247 C 
ATOM      2  O5  ZIN A   1      16.518   0.572  11.332  0.00  0.00    -0.268 OA
ATOM      3  N6  ZIN A   1      18.618  -0.115  11.100  0.00  0.00    -0.314 N 
ENDROOT
BRANCH   3   4
ATOM      4  C7  ZIN A   1      19.798  -0.739  11.701  0.00  0.00     0.128 C 
ATOM      5  C8  ZIN A   1      19.817  -2.230  11.359  0.00  0.00     0.027 C 
ENDBRANCH   3   4
BRANCH   3   6
ATOM      6  C9  ZIN A   1      18.651   0.306   9.767  0.00  0.00     0.043 A 
ATOM      7  C14 ZIN A   1      19.073   1.592   9.454  0.00  0.00    -0.035 A 
ATOM      8  C13 ZIN A   1      19.111   2.003   8.136  0.00  0.00     0.009 A 
ATOM      9  C15 ZIN A   1      19.502   2.533  10.550  0.00  0.00     0.050 C 
ATOM     10  C12 ZIN A   1      18.717   1.140   7.129  0.00  0.00     0.001 A 
ATOM     11  C11 ZIN A   1      18.291  -0.138   7.438  0.00  0.00     0.002 A 
ATOM     12  C10 ZIN A   1      18.257  -0.558   8.753  0.00  0.00     0.030 A 
ENDBRANCH   3   6
BRANCH   1  13
ATOM     13  C3  ZIN A   1      17.464  -0.388  13.233  0.00  0.00     0.070 C 
ATOM     14  C2  ZIN A   1      17.688   0.485  14.212  0.00  0.00    -0.026 C 
ATOM     15  C1  ZIN A   1      17.980   1.927  13.884  0.00  0.00     0.036 C 
ENDBRANCH   1  13
TORSDOF 3
ENDMDL
