MODEL 1
REMARK VINA RESULT:      -6.7      0.000      0.000
REMARK  1 active torsions:
REMARK  status: ('A' for Active; 'I' for Inactive)
REMARK    1  A    between atoms: C10_10  and  C12_11 
ROOT
ATOM      1  C1  ZIN A   1      19.152   1.741   8.693  0.00  0.00     0.001 A 
ATOM      2  C2  ZIN A   1      19.522   0.661   9.472  0.00  0.00     0.001 A 
ATOM      3  C3  ZIN A   1      19.604  -0.595   8.908  0.00  0.00     0.008 A 
ATOM      4  C4  ZIN A   1      19.316  -0.785   7.563  0.00  0.00    -0.041 A 
ATOM      5  C5  ZIN A   1      18.944   0.289   6.787  0.00  0.00    -0.051 A 
ATOM      6  C6  ZIN A   1      18.865   1.554   7.356  0.00  0.00     0.007 A 
ATOM      7  C7  ZIN A   1      18.601   0.155   5.326  0.00  0.00     0.039 C 
ATOM      8  C8  ZIN A   1      19.140  -1.161   4.768  0.00  0.00     0.006 C 
ATOM      9  C9  ZIN A   1      18.683  -2.300   5.685  0.00  0.00     0.017 C 
ATOM     10  C10 ZIN A   1      19.433  -2.181   7.011  0.00  0.00     0.086 C 
ENDROOT
BRANCH  10  11
ATOM     11  C12 ZIN A   1      18.850  -3.157   8.001  0.00  0.00     0.081 A 
ATOM     12  N17 ZIN A   1      19.596  -3.974   8.707  0.00  0.00    -0.378 N 
ATOM     13  C16 ZIN A   1      18.733  -4.790   9.576  0.00  0.00     0.140 A 
ATOM     14  H32 ZIN A   1      20.563  -4.029   8.666  0.00  0.00     0.160 HD
ATOM     15  C15 ZIN A   1      17.314  -4.292   9.232  0.00  0.00     0.140 A 
ATOM     16  N13 ZIN A   1      17.559  -3.256   8.216  0.00  0.00    -0.378 N 
ATOM     17  H14 ZIN A   1      16.874  -2.729   7.774  0.00  0.00     0.160 HD
ENDBRANCH  10  11
TORSDOF 1
ENDMDL
MODEL 2
REMARK VINA RESULT:      -6.5      1.085      3.040
REMARK  1 active torsions:
REMARK  status: ('A' for Active; 'I' for Inactive)
REMARK    1  A    between atoms: C10_10  and  C12_11 
ROOT
ATOM      1  C1  ZIN A   1      19.155   0.143   4.711  0.00  0.00     0.001 A 
ATOM      2  C2  ZIN A   1      18.605  -1.118   4.851  0.00  0.00     0.001 A 
ATOM      3  C3  ZIN A   1      18.159  -1.537   6.087  0.00  0.00     0.008 A 
ATOM      4  C4  ZIN A   1      18.258  -0.704   7.193  0.00  0.00    -0.041 A 
ATOM      5  C5  ZIN A   1      18.808   0.550   7.055  0.00  0.00    -0.051 A 
ATOM      6  C6  ZIN A   1      19.254   0.973   5.810  0.00  0.00     0.007 A 
ATOM      7  C7  ZIN A   1      18.962   1.501   8.214  0.00  0.00     0.039 C 
ATOM      8  C8  ZIN A   1      18.060   1.082   9.374  0.00  0.00     0.006 C 
ATOM      9  C9  ZIN A   1      18.307  -0.402   9.669  0.00  0.00     0.017 C 
ATOM     10  C10 ZIN A   1      17.743  -1.223   8.510  0.00  0.00     0.086 C 
ENDROOT
BRANCH  10  11
ATOM     11  C12 ZIN A   1      18.159  -2.663   8.673  0.00  0.00     0.081 A 
ATOM     12  N17 ZIN A   1      17.355  -3.663   8.397  0.00  0.00    -0.378 N 
ATOM     13  C16 ZIN A   1      18.054  -4.932   8.655  0.00  0.00     0.140 A 
ATOM     14  H32 ZIN A   1      16.446  -3.579   8.069  0.00  0.00     0.160 HD
ATOM     15  C15 ZIN A   1      19.441  -4.476   9.152  0.00  0.00     0.140 A 
ATOM     16  N13 ZIN A   1      19.348  -3.007   9.107  0.00  0.00    -0.378 N 
ATOM     17  H14 ZIN A   1      20.055  -2.392   9.357  0.00  0.00     0.160 HD
ENDBRANCH  10  11
TORSDOF 1
ENDMDL
MODEL 3
REMARK VINA RESULT:      -6.4      7.634     10.115
REMARK  1 active torsions:
REMARK  status: ('A' for Active; 'I' for Inactive)
REMARK    1  A    between atoms: C10_10  and  C12_11 
ROOT
ATOM      1  C1  ZIN A   1      18.325  -1.402  15.574  0.00  0.00     0.001 A 
ATOM      2  C2  ZIN A   1      18.781  -0.618  14.530  0.00  0.00     0.001 A 
ATOM      3  C3  ZIN A   1      19.100   0.705  14.755  0.00  0.00     0.008 A 
ATOM      4  C4  ZIN A   1      18.965   1.258  16.021  0.00  0.00    -0.041 A 
ATOM      5  C5  ZIN A   1      18.506   0.480  17.060  0.00  0.00    -0.051 A 
ATOM      6  C6  ZIN A   1      18.189  -0.853  16.833  0.00  0.00     0.007 A 
ATOM      7  C7  ZIN A   1      18.319   1.018  18.455  0.00  0.00     0.039 C 
ATOM      8  C8  ZIN A   1      19.097   2.320  18.637  0.00  0.00     0.006 C 
ATOM      9  C9  ZIN A   1      18.735   3.264  17.486  0.00  0.00     0.017 C 
ATOM     10  C10 ZIN A   1      19.338   2.707  16.197  0.00  0.00     0.086 C 
ENDROOT
BRANCH  10  11
ATOM     11  C12 ZIN A   1      18.822   3.499  15.023  0.00  0.00     0.081 A 
ATOM     12  N17 ZIN A   1      19.615   3.977  14.093  0.00  0.00    -0.378 N 
ATOM     13  C16 ZIN A   1      18.810   4.694  13.091  0.00  0.00     0.140 A 
ATOM     14  H32 ZIN A   1      20.578   3.870  14.067  0.00  0.00     0.160 HD
ATOM     15  C15 ZIN A   1      17.370   4.550  13.626  0.00  0.00     0.140 A 
ATOM     16  N13 ZIN A   1      17.547   3.766  14.860  0.00  0.00    -0.378 N 
ATOM     17  H14 ZIN A   1      16.835   3.490  15.457  0.00  0.00     0.160 HD
ENDBRANCH  10  11
TORSDOF 1
ENDMDL
MODEL 4
REMARK VINA RESULT:      -6.4      2.094      3.831
REMARK  1 active torsions:
REMARK  status: ('A' for Active; 'I' for Inactive)
REMARK    1  A    between atoms: C10_10  and  C12_11 
ROOT
ATOM      1  C1  ZIN A   1      18.741   0.168   6.177  0.00  0.00     0.001 A 
ATOM      2  C2  ZIN A   1      18.256  -0.991   6.753  0.00  0.00     0.001 A 
ATOM      3  C3  ZIN A   1      17.942  -1.010   8.096  0.00  0.00     0.008 A 
ATOM      4  C4  ZIN A   1      18.110   0.126   8.876  0.00  0.00    -0.041 A 
ATOM      5  C5  ZIN A   1      18.597   1.279   8.305  0.00  0.00    -0.051 A 
ATOM      6  C6  ZIN A   1      18.909   1.298   6.951  0.00  0.00     0.007 A 
ATOM      7  C7  ZIN A   1      18.820   2.544   9.093  0.00  0.00     0.039 C 
ATOM      8  C8  ZIN A   1      18.046   2.499  10.410  0.00  0.00     0.006 C 
ATOM      9  C9  ZIN A   1      18.376   1.182  11.120  0.00  0.00     0.017 C 
ATOM     10  C10 ZIN A   1      17.740   0.037  10.333  0.00  0.00     0.086 C 
ENDROOT
BRANCH  10  11
ATOM     11  C12 ZIN A   1      18.223  -1.278  10.889  0.00  0.00     0.081 A 
ATOM     12  N17 ZIN A   1      17.401  -2.219  11.288  0.00  0.00    -0.378 N 
ATOM     13  C16 ZIN A   1      18.179  -3.371  11.771  0.00  0.00     0.140 A 
ATOM     14  H32 ZIN A   1      16.433  -2.167  11.264  0.00  0.00     0.160 HD
ATOM     15  C15 ZIN A   1      19.640  -2.913  11.584  0.00  0.00     0.140 A 
ATOM     16  N13 ZIN A   1      19.499  -1.563  11.015  0.00  0.00    -0.378 N 
ATOM     17  H14 ZIN A   1      20.232  -0.976  10.772  0.00  0.00     0.160 HD
ENDBRANCH  10  11
TORSDOF 1
ENDMDL
MODEL 5
REMARK VINA RESULT:      -6.3      3.504      5.634
REMARK  1 active torsions:
REMARK  status: ('A' for Active; 'I' for Inactive)
REMARK    1  A    between atoms: C10_10  and  C12_11 
ROOT
ATOM      1  C1  ZIN A   1      17.552  -1.976  11.146  0.00  0.00     0.001 A 
ATOM      2  C2  ZIN A   1      17.143  -0.814  11.773  0.00  0.00     0.001 A 
ATOM      3  C3  ZIN A   1      17.367   0.406  11.170  0.00  0.00     0.008 A 
ATOM      4  C4  ZIN A   1      18.002   0.478   9.938  0.00  0.00    -0.041 A 
ATOM      5  C5  ZIN A   1      18.413  -0.677   9.314  0.00  0.00    -0.051 A 
ATOM      6  C6  ZIN A   1      18.184  -1.906   9.921  0.00  0.00     0.007 A 
ATOM      7  C7  ZIN A   1      19.123  -0.674   7.985  0.00  0.00     0.039 C 
ATOM      8  C8  ZIN A   1      18.914   0.659   7.269  0.00  0.00     0.006 C 
ATOM      9  C9  ZIN A   1      19.272   1.791   8.239  0.00  0.00     0.017 C 
ATOM     10  C10 ZIN A   1      18.207   1.842   9.333  0.00  0.00     0.086 C 
ENDROOT
BRANCH  10  11
ATOM     11  C12 ZIN A   1      18.646   2.802  10.410  0.00  0.00     0.081 A 
ATOM     12  N17 ZIN A   1      17.867   3.754  10.865  0.00  0.00    -0.378 N 
ATOM     13  C16 ZIN A   1      18.582   4.511  11.905  0.00  0.00     0.140 A 
ATOM     14  H32 ZIN A   1      16.960   3.929  10.567  0.00  0.00     0.160 HD
ATOM     15  C15 ZIN A   1      19.956   3.813  11.966  0.00  0.00     0.140 A 
ATOM     16  N13 ZIN A   1      19.838   2.750  10.956  0.00  0.00    -0.378 N 
ATOM     17  H14 ZIN A   1      20.532   2.110  10.729  0.00  0.00     0.160 HD
ENDBRANCH  10  11
TORSDOF 1
ENDMDL
MODEL 6
REMARK VINA RESULT:      -6.3      5.253      7.041
REMARK  1 active torsions:
REMARK  status: ('A' for Active; 'I' for Inactive)
REMARK    1  A    between atoms: C10_10  and  C12_11 
ROOT
ATOM      1  C1  ZIN A   1      16.959   5.304  14.649  0.00  0.00     0.001 A 
ATOM      2  C2  ZIN A   1      18.092   4.543  14.866  0.00  0.00     0.001 A 
ATOM      3  C3  ZIN A   1      18.762   3.990  13.794  0.00  0.00     0.008 A 
ATOM      4  C4  ZIN A   1      18.307   4.190  12.498  0.00  0.00    -0.041 A 
ATOM      5  C5  ZIN A   1      17.176   4.945  12.281  0.00  0.00    -0.051 A 
ATOM      6  C6  ZIN A   1      16.504   5.504  13.361  0.00  0.00     0.007 A 
ATOM      7  C7  ZIN A   1      16.616   5.190  10.904  0.00  0.00     0.039 C 
ATOM      8  C8  ZIN A   1      17.669   4.895   9.837  0.00  0.00     0.006 C 
ATOM      9  C9  ZIN A   1      18.249   3.502  10.101  0.00  0.00     0.017 C 
ATOM     10  C10 ZIN A   1      19.091   3.565  11.375  0.00  0.00     0.086 C 
ENDROOT
BRANCH  10  11
ATOM     11  C12 ZIN A   1      19.498   2.168  11.771  0.00  0.00     0.081 A 
ATOM     12  N17 ZIN A   1      18.626   1.203  11.944  0.00  0.00    -0.378 N 
ATOM     13  C16 ZIN A   1      19.336  -0.030  12.321  0.00  0.00     0.140 A 
ATOM     14  H32 ZIN A   1      17.666   1.287  11.835  0.00  0.00     0.160 HD
ATOM     15  C15 ZIN A   1      20.815   0.408  12.345  0.00  0.00     0.140 A 
ATOM     16  N13 ZIN A   1      20.750   1.831  11.974  0.00  0.00    -0.378 N 
ATOM     17  H14 ZIN A   1      21.512   2.425  11.892  0.00  0.00     0.160 HD
ENDBRANCH  10  11
TORSDOF 1
ENDMDL
MODEL 7
REMARK VINA RESULT:      -6.3      3.590      5.427
REMARK  1 active torsions:
REMARK  status: ('A' for Active; 'I' for Inactive)
REMARK    1  A    between atoms: C10_10  and  C12_11 
ROOT
ATOM      1  C1  ZIN A   1      19.239   0.841   7.908  0.00  0.00     0.001 A 
ATOM      2  C2  ZIN A   1      18.917  -0.206   8.752  0.00  0.00     0.001 A 
ATOM      3  C3  ZIN A   1      18.369   0.056   9.990  0.00  0.00     0.008 A 
ATOM      4  C4  ZIN A   1      18.138   1.362  10.398  0.00  0.00    -0.041 A 
ATOM      5  C5  ZIN A   1      18.462   2.405   9.561  0.00  0.00    -0.051 A 
ATOM      6  C6  ZIN A   1      19.011   2.141   8.313  0.00  0.00     0.007 A 
ATOM      7  C7  ZIN A   1      18.255   3.848   9.944  0.00  0.00     0.039 C 
ATOM      8  C8  ZIN A   1      17.277   3.958  11.112  0.00  0.00     0.006 C 
ATOM      9  C9  ZIN A   1      17.745   3.014  12.225  0.00  0.00     0.017 C 
ATOM     10  C10 ZIN A   1      17.529   1.575  11.759  0.00  0.00     0.086 C 
ENDROOT
BRANCH  10  11
ATOM     11  C12 ZIN A   1      18.173   0.632  12.744  0.00  0.00     0.081 A 
ATOM     12  N17 ZIN A   1      19.407   0.786  13.163  0.00  0.00    -0.378 N 
ATOM     13  C16 ZIN A   1      19.734  -0.288  14.114  0.00  0.00     0.140 A 
ATOM     14  H32 ZIN A   1      20.007   1.498  12.893  0.00  0.00     0.160 HD
ATOM     15  C15 ZIN A   1      18.436  -1.120  14.166  0.00  0.00     0.140 A 
ATOM     16  N13 ZIN A   1      17.542  -0.406  13.240  0.00  0.00    -0.378 N 
ATOM     17  H14 ZIN A   1      16.629  -0.661  13.031  0.00  0.00     0.160 HD
ENDBRANCH  10  11
TORSDOF 1
ENDMDL
MODEL 8
REMARK VINA RESULT:      -6.2      3.597      4.917
REMARK  1 active torsions:
REMARK  status: ('A' for Active; 'I' for Inactive)
REMARK    1  A    between atoms: C10_10  and  C12_11 
ROOT
ATOM      1  C1  ZIN A   1      18.079   4.641  11.174  0.00  0.00     0.001 A 
ATOM      2  C2  ZIN A   1      18.629   4.111  12.326  0.00  0.00     0.001 A 
ATOM      3  C3  ZIN A   1      19.200   2.856  12.298  0.00  0.00     0.008 A 
ATOM      4  C4  ZIN A   1      19.226   2.119  11.122  0.00  0.00    -0.041 A 
ATOM      5  C5  ZIN A   1      18.676   2.644   9.975  0.00  0.00    -0.051 A 
ATOM      6  C6  ZIN A   1      18.104   3.909  10.004  0.00  0.00     0.007 A 
ATOM      7  C7  ZIN A   1      18.654   1.894   8.668  0.00  0.00     0.039 C 
ATOM      8  C8  ZIN A   1      19.670   0.754   8.687  0.00  0.00     0.006 C 
ATOM      9  C9  ZIN A   1      19.442  -0.076   9.955  0.00  0.00     0.017 C 
ATOM     10  C10 ZIN A   1      19.873   0.759  11.161  0.00  0.00     0.086 C 
ENDROOT
BRANCH  10  11
ATOM     11  C12 ZIN A   1      19.465   0.051  12.427  0.00  0.00     0.081 A 
ATOM     12  N17 ZIN A   1      20.315  -0.215  13.390  0.00  0.00    -0.378 N 
ATOM     13  C16 ZIN A   1      19.610  -0.905  14.483  0.00  0.00     0.140 A 
ATOM     14  H32 ZIN A   1      21.258   0.011  13.386  0.00  0.00     0.160 HD
ATOM     15  C15 ZIN A   1      18.161  -1.001  13.962  0.00  0.00     0.140 A 
ATOM     16  N13 ZIN A   1      18.234  -0.350  12.644  0.00  0.00    -0.378 N 
ATOM     17  H14 ZIN A   1      17.489  -0.234  12.033  0.00  0.00     0.160 HD
ENDBRANCH  10  11
TORSDOF 1
ENDMDL
MODEL 9
REMARK VINA RESULT:      -6.2      4.902      6.576
REMARK  1 active torsions:
REMARK  status: ('A' for Active; 'I' for Inactive)
REMARK    1  A    between atoms: C10_10  and  C12_11 
ROOT
ATOM      1  C1  ZIN A   1      17.784  -0.517  16.847  0.00  0.00     0.001 A 
ATOM      2  C2  ZIN A   1      18.498  -1.614  16.403  0.00  0.00     0.001 A 
ATOM      3  C3  ZIN A   1      19.034  -1.615  15.132  0.00  0.00     0.008 A 
ATOM      4  C4  ZIN A   1      18.861  -0.523  14.292  0.00  0.00    -0.041 A 
ATOM      5  C5  ZIN A   1      18.146   0.568  14.731  0.00  0.00    -0.051 A 
ATOM      6  C6  ZIN A   1      17.610   0.569  16.013  0.00  0.00     0.007 A 
ATOM      7  C7  ZIN A   1      17.904   1.780  13.869  0.00  0.00     0.039 C 
ATOM      8  C8  ZIN A   1      18.888   1.813  12.702  0.00  0.00     0.006 C 
ATOM      9  C9  ZIN A   1      18.848   0.453  11.997  0.00  0.00     0.017 C 
ATOM     10  C10 ZIN A   1      19.480  -0.588  12.921  0.00  0.00     0.086 C 
ENDROOT
BRANCH  10  11
ATOM     11  C12 ZIN A   1      19.263  -1.963  12.343  0.00  0.00     0.081 A 
ATOM     12  N17 ZIN A   1      20.255  -2.778  12.073  0.00  0.00    -0.378 N 
ATOM     13  C16 ZIN A   1      19.717  -4.034  11.527  0.00  0.00     0.140 A 
ATOM     14  H32 ZIN A   1      21.195  -2.585  12.217  0.00  0.00     0.160 HD
ATOM     15  C15 ZIN A   1      18.194  -3.791  11.520  0.00  0.00     0.140 A 
ATOM     16  N13 ZIN A   1      18.068  -2.430  12.067  0.00  0.00    -0.378 N 
ATOM     17  H14 ZIN A   1      17.233  -1.954  12.202  0.00  0.00     0.160 HD
ENDBRANCH  10  11
TORSDOF 1
ENDMDL
