MODEL 1
REMARK VINA RESULT:      -8.2      0.000      0.000
REMARK  6 active torsions:
REMARK  status: ('A' for Active; 'I' for Inactive)
REMARK    1  A    between atoms: O2_2  and  C3_3 
REMARK    2  A    between atoms: C6_6  and  C7_7 
REMARK    3  A    between atoms: C7_7  and  C9_9 
REMARK    4  A    between atoms: C10_10  and  O11_11 
REMARK    5  A    between atoms: C10_10  and  C12_12 
REMARK    6  A    between atoms: C15_15  and  C16_16 
ROOT
ATOM      1  C9  ZIN A   1      18.576   1.214  10.243  0.00  0.00     0.092 C 
ATOM      2  C10 ZIN A   1      19.369   1.630  11.267  0.00  0.00     0.079 C 
ENDROOT
BRANCH   2   3
ATOM      3  O11 ZIN A   1      20.357   2.525  11.038  0.00  0.00    -0.360 OA
ATOM      4  H30 ZIN A   1      21.152   2.142  10.642  0.00  0.00     0.217 HD
ENDBRANCH   2   3
BRANCH   2   5
ATOM      5  C12 ZIN A   1      19.154   1.104  12.628  0.00  0.00    -0.003 A 
ATOM      6  C21 ZIN A   1      19.176  -0.274  12.862  0.00  0.00     0.015 A 
ATOM      7  C20 ZIN A   1      18.978  -0.757  14.138  0.00  0.00     0.009 A 
ATOM      8  C15 ZIN A   1      18.748   0.118  15.185  0.00  0.00    -0.051 A 
ATOM      9  C14 ZIN A   1      18.718   1.483  14.961  0.00  0.00     0.009 A 
ATOM     10  C13 ZIN A   1      18.920   1.982  13.691  0.00  0.00     0.015 A 
BRANCH   8  11
ATOM     11  C16 ZIN A   1      18.527  -0.418  16.576  0.00  0.00    -0.024 C 
ATOM     12  C17 ZIN A   1      19.262  -1.750  16.733  0.00  0.00     0.019 C 
ATOM     13  C18 ZIN A   1      19.064   0.585  17.600  0.00  0.00     0.019 C 
ATOM     14  C19 ZIN A   1      17.030  -0.630  16.807  0.00  0.00     0.019 C 
ENDBRANCH   8  11
ENDBRANCH   2   5
BRANCH   1  15
ATOM     15  C7  ZIN A   1      18.782   1.718   8.941  0.00  0.00     0.184 C 
ATOM     16  O8  ZIN A   1      18.808   2.922   8.750  0.00  0.00    -0.287 OA
BRANCH  15  17
ATOM     17  C6  ZIN A   1      18.969   0.786   7.809  0.00  0.00     0.014 A 
ATOM     18  C5  ZIN A   1      18.976   1.269   6.498  0.00  0.00     0.018 A 
ATOM     19  C4  ZIN A   1      19.150   0.397   5.445  0.00  0.00     0.037 A 
ATOM     20  C3  ZIN A   1      19.318  -0.962   5.687  0.00  0.00     0.068 A 
ATOM     21  C23 ZIN A   1      19.306  -1.446   6.990  0.00  0.00     0.037 A 
ATOM     22  C22 ZIN A   1      19.139  -0.580   8.047  0.00  0.00     0.018 A 
BRANCH  20  23
ATOM     23  O2  ZIN A   1      19.489  -1.817   4.648  0.00  0.00    -0.356 OA
ATOM     24  C1  ZIN A   1      18.910  -3.118   4.776  0.00  0.00     0.210 C 
ENDBRANCH  20  23
ENDBRANCH  15  17
ENDBRANCH   1  15
TORSDOF 6
ENDMDL
MODEL 2
REMARK VINA RESULT:      -8.1      3.335      5.674
REMARK  6 active torsions:
REMARK  status: ('A' for Active; 'I' for Inactive)
REMARK    1  A    between atoms: O2_2  and  C3_3 
REMARK    2  A    between atoms: C6_6  and  C7_7 
REMARK    3  A    between atoms: C7_7  and  C9_9 
REMARK    4  A    between atoms: C10_10  and  O11_11 
REMARK    5  A    between atoms: C10_10  and  C12_12 
REMARK    6  A    between atoms: C15_15  and  C16_16 
ROOT
ATOM      1  C9  ZIN A   1      19.327  -1.253   6.545  0.00  0.00     0.092 C 
ATOM      2  C10 ZIN A   1      18.223  -0.507   6.824  0.00  0.00     0.079 C 
ENDROOT
BRANCH   2   3
ATOM      3  O11 ZIN A   1      17.118  -0.618   6.053  0.00  0.00    -0.360 OA
ATOM      4  H30 ZIN A   1      17.063   0.040   5.347  0.00  0.00     0.217 HD
ENDBRANCH   2   3
BRANCH   2   5
ATOM      5  C12 ZIN A   1      18.231   0.422   7.970  0.00  0.00    -0.003 A 
ATOM      6  C21 ZIN A   1      17.478   0.137   9.112  0.00  0.00     0.015 A 
ATOM      7  C20 ZIN A   1      17.494   1.008  10.180  0.00  0.00     0.009 A 
ATOM      8  C15 ZIN A   1      18.246   2.168  10.120  0.00  0.00    -0.051 A 
ATOM      9  C14 ZIN A   1      18.990   2.461   8.990  0.00  0.00     0.009 A 
ATOM     10  C13 ZIN A   1      18.988   1.596   7.916  0.00  0.00     0.015 A 
BRANCH   8  11
ATOM     11  C16 ZIN A   1      18.254   3.119  11.289  0.00  0.00    -0.024 C 
ATOM     12  C17 ZIN A   1      17.705   2.410  12.528  0.00  0.00     0.019 C 
ATOM     13  C18 ZIN A   1      19.688   3.582  11.560  0.00  0.00     0.019 C 
ATOM     14  C19 ZIN A   1      17.380   4.331  10.966  0.00  0.00     0.019 C 
ENDBRANCH   8  11
ENDBRANCH   2   5
BRANCH   1  15
ATOM     15  C7  ZIN A   1      19.319  -2.142   5.449  0.00  0.00     0.184 C 
ATOM     16  O8  ZIN A   1      19.553  -1.728   4.326  0.00  0.00    -0.287 OA
BRANCH  15  17
ATOM     17  C6  ZIN A   1      19.028  -3.575   5.663  0.00  0.00     0.014 A 
ATOM     18  C5  ZIN A   1      19.740  -4.299   6.622  0.00  0.00     0.018 A 
ATOM     19  C4  ZIN A   1      19.466  -5.635   6.818  0.00  0.00     0.037 A 
ATOM     20  C3  ZIN A   1      18.483  -6.263   6.062  0.00  0.00     0.068 A 
ATOM     21  C23 ZIN A   1      17.776  -5.546   5.102  0.00  0.00     0.037 A 
ATOM     22  C22 ZIN A   1      18.041  -4.209   4.905  0.00  0.00     0.018 A 
BRANCH  20  23
ATOM     23  O2  ZIN A   1      18.216  -7.579   6.258  0.00  0.00    -0.356 OA
ATOM     24  C1  ZIN A   1      17.017  -8.091   5.672  0.00  0.00     0.210 C 
ENDBRANCH  20  23
ENDBRANCH  15  17
ENDBRANCH   1  15
TORSDOF 6
ENDMDL
MODEL 3
REMARK VINA RESULT:      -8.0      2.531      8.533
REMARK  6 active torsions:
REMARK  status: ('A' for Active; 'I' for Inactive)
REMARK    1  A    between atoms: O2_2  and  C3_3 
REMARK    2  A    between atoms: C6_6  and  C7_7 
REMARK    3  A    between atoms: C7_7  and  C9_9 
REMARK    4  A    between atoms: C10_10  and  O11_11 
REMARK    5  A    between atoms: C10_10  and  C12_12 
REMARK    6  A    between atoms: C15_15  and  C16_16 
ROOT
ATOM      1  C9  ZIN A   1      17.872   3.048  12.328  0.00  0.00     0.092 C 
ATOM      2  C10 ZIN A   1      18.910   2.879  11.464  0.00  0.00     0.079 C 
ENDROOT
BRANCH   2   3
ATOM      3  O11 ZIN A   1      20.114   3.430  11.738  0.00  0.00    -0.360 OA
ATOM      4  H30 ZIN A   1      20.864   2.845  11.564  0.00  0.00     0.217 HD
ENDBRANCH   2   3
BRANCH   2   5
ATOM      5  C12 ZIN A   1      18.723   2.094  10.230  0.00  0.00    -0.003 A 
ATOM      6  C21 ZIN A   1      19.454   2.406   9.080  0.00  0.00     0.015 A 
ATOM      7  C20 ZIN A   1      19.277   1.665   7.932  0.00  0.00     0.009 A 
ATOM      8  C15 ZIN A   1      18.371   0.619   7.912  0.00  0.00    -0.051 A 
ATOM      9  C14 ZIN A   1      17.640   0.307   9.044  0.00  0.00     0.009 A 
ATOM     10  C13 ZIN A   1      17.810   1.036  10.202  0.00  0.00     0.015 A 
BRANCH   8  11
ATOM     11  C16 ZIN A   1      18.179  -0.184   6.651  0.00  0.00    -0.024 C 
ATOM     12  C17 ZIN A   1      16.715  -0.107   6.214  0.00  0.00     0.019 C 
ATOM     13  C18 ZIN A   1      19.072   0.383   5.545  0.00  0.00     0.019 C 
ATOM     14  C19 ZIN A   1      18.556  -1.643   6.913  0.00  0.00     0.019 C 
ENDBRANCH   8  11
ENDBRANCH   2   5
BRANCH   1  15
ATOM     15  C7  ZIN A   1      18.052   3.799  13.509  0.00  0.00     0.184 C 
ATOM     16  O8  ZIN A   1      17.857   5.002  13.502  0.00  0.00    -0.287 OA
BRANCH  15  17
ATOM     17  C6  ZIN A   1      18.475   3.126  14.755  0.00  0.00     0.014 A 
ATOM     18  C5  ZIN A   1      18.372   1.738  14.871  0.00  0.00     0.018 A 
ATOM     19  C4  ZIN A   1      18.767   1.114  16.035  0.00  0.00     0.037 A 
ATOM     20  C3  ZIN A   1      19.268   1.865  17.092  0.00  0.00     0.068 A 
ATOM     21  C23 ZIN A   1      19.367   3.248  16.981  0.00  0.00     0.037 A 
ATOM     22  C22 ZIN A   1      18.979   3.877  15.819  0.00  0.00     0.018 A 
BRANCH  20  23
ATOM     23  O2  ZIN A   1      19.657   1.248  18.236  0.00  0.00    -0.356 OA
ATOM     24  C1  ZIN A   1      19.256  -0.113  18.407  0.00  0.00     0.210 C 
ENDBRANCH  20  23
ENDBRANCH  15  17
ENDBRANCH   1  15
TORSDOF 6
ENDMDL
MODEL 4
REMARK VINA RESULT:      -7.9      2.392      8.593
REMARK  6 active torsions:
REMARK  status: ('A' for Active; 'I' for Inactive)
REMARK    1  A    between atoms: O2_2  and  C3_3 
REMARK    2  A    between atoms: C6_6  and  C7_7 
REMARK    3  A    between atoms: C7_7  and  C9_9 
REMARK    4  A    between atoms: C10_10  and  O11_11 
REMARK    5  A    between atoms: C10_10  and  C12_12 
REMARK    6  A    between atoms: C15_15  and  C16_16 
ROOT
ATOM      1  C9  ZIN A   1      17.810   2.264  12.099  0.00  0.00     0.092 C 
ATOM      2  C10 ZIN A   1      18.281   2.781  10.931  0.00  0.00     0.079 C 
ENDROOT
BRANCH   2   3
ATOM      3  O11 ZIN A   1      18.710   4.063  10.883  0.00  0.00    -0.360 OA
ATOM      4  H30 ZIN A   1      18.944   4.367   9.996  0.00  0.00     0.217 HD
ENDBRANCH   2   3
BRANCH   2   5
ATOM      5  C12 ZIN A   1      18.322   1.945   9.717  0.00  0.00    -0.003 A 
ATOM      6  C21 ZIN A   1      17.566   0.772   9.645  0.00  0.00     0.015 A 
ATOM      7  C20 ZIN A   1      17.606  -0.002   8.505  0.00  0.00     0.009 A 
ATOM      8  C15 ZIN A   1      18.400   0.375   7.436  0.00  0.00    -0.051 A 
ATOM      9  C14 ZIN A   1      19.156   1.532   7.502  0.00  0.00     0.009 A 
ATOM     10  C13 ZIN A   1      19.122   2.319   8.634  0.00  0.00     0.015 A 
BRANCH   8  11
ATOM     11  C16 ZIN A   1      18.444  -0.479   6.195  0.00  0.00    -0.024 C 
ATOM     12  C17 ZIN A   1      19.360   0.173   5.158  0.00  0.00     0.019 C 
ATOM     13  C18 ZIN A   1      18.982  -1.867   6.550  0.00  0.00     0.019 C 
ATOM     14  C19 ZIN A   1      17.033  -0.611   5.618  0.00  0.00     0.019 C 
ENDBRANCH   8  11
ENDBRANCH   2   5
BRANCH   1  15
ATOM     15  C7  ZIN A   1      17.771   3.064  13.260  0.00  0.00     0.184 C 
ATOM     16  O8  ZIN A   1      17.309   4.191  13.209  0.00  0.00    -0.287 OA
BRANCH  15  17
ATOM     17  C6  ZIN A   1      18.291   2.537  14.539  0.00  0.00     0.014 A 
ATOM     18  C5  ZIN A   1      18.309   1.159  14.773  0.00  0.00     0.018 A 
ATOM     19  C4  ZIN A   1      18.793   0.671  15.967  0.00  0.00     0.037 A 
ATOM     20  C3  ZIN A   1      19.263   1.547  16.939  0.00  0.00     0.068 A 
ATOM     21  C23 ZIN A   1      19.241   2.919  16.711  0.00  0.00     0.037 A 
ATOM     22  C22 ZIN A   1      18.763   3.413  15.518  0.00  0.00     0.018 A 
BRANCH  20  23
ATOM     23  O2  ZIN A   1      19.739   1.063  18.113  0.00  0.00    -0.356 OA
ATOM     24  C1  ZIN A   1      18.986   0.023  18.739  0.00  0.00     0.210 C 
ENDBRANCH  20  23
ENDBRANCH  15  17
ENDBRANCH   1  15
TORSDOF 6
ENDMDL
MODEL 5
REMARK VINA RESULT:      -7.6      2.252      3.237
REMARK  6 active torsions:
REMARK  status: ('A' for Active; 'I' for Inactive)
REMARK    1  A    between atoms: O2_2  and  C3_3 
REMARK    2  A    between atoms: C6_6  and  C7_7 
REMARK    3  A    between atoms: C7_7  and  C9_9 
REMARK    4  A    between atoms: C10_10  and  O11_11 
REMARK    5  A    between atoms: C10_10  and  C12_12 
REMARK    6  A    between atoms: C15_15  and  C16_16 
ROOT
ATOM      1  C9  ZIN A   1      19.028  -1.020  10.181  0.00  0.00     0.092 C 
ATOM      2  C10 ZIN A   1      20.000  -0.740  11.092  0.00  0.00     0.079 C 
ENDROOT
BRANCH   2   3
ATOM      3  O11 ZIN A   1      21.286  -0.616  10.692  0.00  0.00    -0.360 OA
ATOM      4  H30 ZIN A   1      21.810  -1.423  10.793  0.00  0.00     0.217 HD
ENDBRANCH   2   3
BRANCH   2   5
ATOM      5  C12 ZIN A   1      19.651  -0.571  12.515  0.00  0.00    -0.003 A 
ATOM      6  C21 ZIN A   1      19.769   0.681  13.124  0.00  0.00     0.015 A 
ATOM      7  C20 ZIN A   1      19.436   0.832  14.453  0.00  0.00     0.009 A 
ATOM      8  C15 ZIN A   1      18.996  -0.255  15.187  0.00  0.00    -0.051 A 
ATOM      9  C14 ZIN A   1      18.883  -1.500  14.594  0.00  0.00     0.009 A 
ATOM     10  C13 ZIN A   1      19.207  -1.665  13.263  0.00  0.00     0.015 A 
BRANCH   8  11
ATOM     11  C16 ZIN A   1      18.640  -0.084  16.642  0.00  0.00    -0.024 C 
ATOM     12  C17 ZIN A   1      19.081   1.301  17.116  0.00  0.00     0.019 C 
ATOM     13  C18 ZIN A   1      17.126  -0.225  16.816  0.00  0.00     0.019 C 
ATOM     14  C19 ZIN A   1      19.351  -1.157  17.469  0.00  0.00     0.019 C 
ENDBRANCH   8  11
ENDBRANCH   2   5
BRANCH   1  15
ATOM     15  C7  ZIN A   1      19.363  -1.181   8.820  0.00  0.00     0.184 C 
ATOM     16  O8  ZIN A   1      19.683  -0.213   8.151  0.00  0.00    -0.287 OA
BRANCH  15  17
ATOM     17  C6  ZIN A   1      19.326  -2.524   8.203  0.00  0.00     0.014 A 
ATOM     18  C5  ZIN A   1      19.047  -3.647   8.987  0.00  0.00     0.018 A 
ATOM     19  C4  ZIN A   1      19.014  -4.898   8.408  0.00  0.00     0.037 A 
ATOM     20  C3  ZIN A   1      19.259  -5.043   7.048  0.00  0.00     0.068 A 
ATOM     21  C23 ZIN A   1      19.542  -3.927   6.267  0.00  0.00     0.037 A 
ATOM     22  C22 ZIN A   1      19.571  -2.675   6.837  0.00  0.00     0.018 A 
BRANCH  20  23
ATOM     23  O2  ZIN A   1      19.225  -6.275   6.482  0.00  0.00    -0.356 OA
ATOM     24  C1  ZIN A   1      17.965  -6.725   5.980  0.00  0.00     0.210 C 
ENDBRANCH  20  23
ENDBRANCH  15  17
ENDBRANCH   1  15
TORSDOF 6
ENDMDL
MODEL 6
REMARK VINA RESULT:      -7.4      3.533      4.923
REMARK  6 active torsions:
REMARK  status: ('A' for Active; 'I' for Inactive)
REMARK    1  A    between atoms: O2_2  and  C3_3 
REMARK    2  A    between atoms: C6_6  and  C7_7 
REMARK    3  A    between atoms: C7_7  and  C9_9 
REMARK    4  A    between atoms: C10_10  and  O11_11 
REMARK    5  A    between atoms: C10_10  and  C12_12 
REMARK    6  A    between atoms: C15_15  and  C16_16 
ROOT
ATOM      1  C9  ZIN A   1      18.710   2.268  11.621  0.00  0.00     0.092 C 
ATOM      2  C10 ZIN A   1      19.460   3.330  12.025  0.00  0.00     0.079 C 
ENDROOT
BRANCH   2   3
ATOM      3  O11 ZIN A   1      20.775   3.386  11.714  0.00  0.00    -0.360 OA
ATOM      4  H30 ZIN A   1      21.349   3.589  12.465  0.00  0.00     0.217 HD
ENDBRANCH   2   3
BRANCH   2   5
ATOM      5  C12 ZIN A   1      18.839   4.419  12.802  0.00  0.00    -0.003 A 
ATOM      6  C21 ZIN A   1      17.515   4.792  12.556  0.00  0.00     0.015 A 
ATOM      7  C20 ZIN A   1      16.941   5.808  13.290  0.00  0.00     0.009 A 
ATOM      8  C15 ZIN A   1      17.676   6.465  14.262  0.00  0.00    -0.051 A 
ATOM      9  C14 ZIN A   1      18.989   6.106  14.506  0.00  0.00     0.009 A 
ATOM     10  C13 ZIN A   1      19.575   5.088  13.784  0.00  0.00     0.015 A 
BRANCH   8  11
ATOM     11  C16 ZIN A   1      17.043   7.579  15.055  0.00  0.00    -0.024 C 
ATOM     12  C17 ZIN A   1      17.613   7.583  16.475  0.00  0.00     0.019 C 
ATOM     13  C18 ZIN A   1      17.344   8.920  14.382  0.00  0.00     0.019 C 
ATOM     14  C19 ZIN A   1      15.529   7.366  15.114  0.00  0.00     0.019 C 
ENDBRANCH   8  11
ENDBRANCH   2   5
BRANCH   1  15
ATOM     15  C7  ZIN A   1      19.304   1.226  10.878  0.00  0.00     0.184 C 
ATOM     16  O8  ZIN A   1      20.186   0.548  11.376  0.00  0.00    -0.287 OA
BRANCH  15  17
ATOM     17  C6  ZIN A   1      18.856   0.956   9.496  0.00  0.00     0.014 A 
ATOM     18  C5  ZIN A   1      17.811   0.059   9.260  0.00  0.00     0.018 A 
ATOM     19  C4  ZIN A   1      17.397  -0.191   7.970  0.00  0.00     0.037 A 
ATOM     20  C3  ZIN A   1      18.017   0.449   6.903  0.00  0.00     0.068 A 
ATOM     21  C23 ZIN A   1      19.061   1.339   7.134  0.00  0.00     0.037 A 
ATOM     22  C22 ZIN A   1      19.476   1.597   8.421  0.00  0.00     0.018 A 
BRANCH  20  23
ATOM     23  O2  ZIN A   1      17.606   0.201   5.634  0.00  0.00    -0.356 OA
ATOM     24  C1  ZIN A   1      18.619  -0.099   4.672  0.00  0.00     0.210 C 
ENDBRANCH  20  23
ENDBRANCH  15  17
ENDBRANCH   1  15
TORSDOF 6
ENDMDL
MODEL 7
REMARK VINA RESULT:      -7.1      3.323      8.100
REMARK  6 active torsions:
REMARK  status: ('A' for Active; 'I' for Inactive)
REMARK    1  A    between atoms: O2_2  and  C3_3 
REMARK    2  A    between atoms: C6_6  and  C7_7 
REMARK    3  A    between atoms: C7_7  and  C9_9 
REMARK    4  A    between atoms: C10_10  and  O11_11 
REMARK    5  A    between atoms: C10_10  and  C12_12 
REMARK    6  A    between atoms: C15_15  and  C16_16 
ROOT
ATOM      1  C9  ZIN A   1      18.210   0.691  11.664  0.00  0.00     0.092 C 
ATOM      2  C10 ZIN A   1      17.218  -0.187  11.352  0.00  0.00     0.079 C 
ENDROOT
BRANCH   2   3
ATOM      3  O11 ZIN A   1      15.928   0.130  11.607  0.00  0.00    -0.360 OA
ATOM      4  H30 ZIN A   1      15.287  -0.420  11.137  0.00  0.00     0.217 HD
ENDBRANCH   2   3
BRANCH   2   5
ATOM      5  C12 ZIN A   1      17.549  -1.486  10.737  0.00  0.00    -0.003 A 
ATOM      6  C21 ZIN A   1      17.924  -1.552   9.393  0.00  0.00     0.015 A 
ATOM      7  C20 ZIN A   1      18.237  -2.770   8.826  0.00  0.00     0.009 A 
ATOM      8  C15 ZIN A   1      18.171  -3.926   9.583  0.00  0.00    -0.051 A 
ATOM      9  C14 ZIN A   1      17.794  -3.870  10.913  0.00  0.00     0.009 A 
ATOM     10  C13 ZIN A   1      17.484  -2.659  11.496  0.00  0.00     0.015 A 
BRANCH   8  11
ATOM     11  C16 ZIN A   1      18.508  -5.254   8.956  0.00  0.00    -0.024 C 
ATOM     12  C17 ZIN A   1      18.375  -5.150   7.435  0.00  0.00     0.019 C 
ATOM     13  C18 ZIN A   1      19.945  -5.638   9.316  0.00  0.00     0.019 C 
ATOM     14  C19 ZIN A   1      17.548  -6.324   9.479  0.00  0.00     0.019 C 
ENDBRANCH   8  11
ENDBRANCH   2   5
BRANCH   1  15
ATOM     15  C7  ZIN A   1      17.893   1.934  12.252  0.00  0.00     0.184 C 
ATOM     16  O8  ZIN A   1      17.204   2.737  11.646  0.00  0.00    -0.287 OA
BRANCH  15  17
ATOM     17  C6  ZIN A   1      18.394   2.262  13.603  0.00  0.00     0.014 A 
ATOM     18  C5  ZIN A   1      18.682   1.240  14.511  0.00  0.00     0.018 A 
ATOM     19  C4  ZIN A   1      19.149   1.549  15.770  0.00  0.00     0.037 A 
ATOM     20  C3  ZIN A   1      19.334   2.877  16.137  0.00  0.00     0.068 A 
ATOM     21  C23 ZIN A   1      19.043   3.897  15.237  0.00  0.00     0.037 A 
ATOM     22  C22 ZIN A   1      18.582   3.595  13.976  0.00  0.00     0.018 A 
BRANCH  20  23
ATOM     23  O2  ZIN A   1      19.794   3.178  17.377  0.00  0.00    -0.356 OA
ATOM     24  C1  ZIN A   1      18.957   2.830  18.482  0.00  0.00     0.210 C 
ENDBRANCH  20  23
ENDBRANCH  15  17
ENDBRANCH   1  15
TORSDOF 6
ENDMDL
MODEL 8
REMARK VINA RESULT:      -7.0      3.627      7.201
REMARK  6 active torsions:
REMARK  status: ('A' for Active; 'I' for Inactive)
REMARK    1  A    between atoms: O2_2  and  C3_3 
REMARK    2  A    between atoms: C6_6  and  C7_7 
REMARK    3  A    between atoms: C7_7  and  C9_9 
REMARK    4  A    between atoms: C10_10  and  O11_11 
REMARK    5  A    between atoms: C10_10  and  C12_12 
REMARK    6  A    between atoms: C15_15  and  C16_16 
ROOT
ATOM      1  C9  ZIN A   1      17.768   1.726  10.359  0.00  0.00     0.092 C 
ATOM      2  C10 ZIN A   1      18.724   0.813  10.034  0.00  0.00     0.079 C 
ENDROOT
BRANCH   2   3
ATOM      3  O11 ZIN A   1      19.941   1.228   9.616  0.00  0.00    -0.360 OA
ATOM      4  H30 ZIN A   1      20.388   1.824  10.233  0.00  0.00     0.217 HD
ENDBRANCH   2   3
BRANCH   2   5
ATOM      5  C12 ZIN A   1      18.433  -0.629  10.138  0.00  0.00    -0.003 A 
ATOM      6  C21 ZIN A   1      18.789  -1.494   9.100  0.00  0.00     0.015 A 
ATOM      7  C20 ZIN A   1      18.518  -2.842   9.206  0.00  0.00     0.009 A 
ATOM      8  C15 ZIN A   1      17.886  -3.337  10.334  0.00  0.00    -0.051 A 
ATOM      9  C14 ZIN A   1      17.524  -2.486  11.362  0.00  0.00     0.009 A 
ATOM     10  C13 ZIN A   1      17.793  -1.136  11.273  0.00  0.00     0.015 A 
BRANCH   8  11
ATOM     11  C16 ZIN A   1      17.587  -4.810  10.440  0.00  0.00    -0.024 C 
ATOM     12  C17 ZIN A   1      18.703  -5.608   9.762  0.00  0.00     0.019 C 
ATOM     13  C18 ZIN A   1      17.501  -5.207  11.916  0.00  0.00     0.019 C 
ATOM     14  C19 ZIN A   1      16.255  -5.111   9.752  0.00  0.00     0.019 C 
ENDBRANCH   8  11
ENDBRANCH   2   5
BRANCH   1  15
ATOM     15  C7  ZIN A   1      18.047   3.106  10.260  0.00  0.00     0.184 C 
ATOM     16  O8  ZIN A   1      18.449   3.573   9.208  0.00  0.00    -0.287 OA
BRANCH  15  17
ATOM     17  C6  ZIN A   1      17.853   3.985  11.432  0.00  0.00     0.014 A 
ATOM     18  C5  ZIN A   1      18.789   3.989  12.468  0.00  0.00     0.018 A 
ATOM     19  C4  ZIN A   1      18.604   4.810  13.559  0.00  0.00     0.037 A 
ATOM     20  C3  ZIN A   1      17.487   5.633  13.629  0.00  0.00     0.068 A 
ATOM     21  C23 ZIN A   1      16.550   5.628  12.602  0.00  0.00     0.037 A 
ATOM     22  C22 ZIN A   1      16.731   4.814  11.506  0.00  0.00     0.018 A 
BRANCH  20  23
ATOM     23  O2  ZIN A   1      17.308   6.441  14.705  0.00  0.00    -0.356 OA
ATOM     24  C1  ZIN A   1      16.322   6.040  15.660  0.00  0.00     0.210 C 
ENDBRANCH  20  23
ENDBRANCH  15  17
ENDBRANCH   1  15
TORSDOF 6
ENDMDL
MODEL 9
REMARK VINA RESULT:      -6.9      3.770      6.084
REMARK  6 active torsions:
REMARK  status: ('A' for Active; 'I' for Inactive)
REMARK    1  A    between atoms: O2_2  and  C3_3 
REMARK    2  A    between atoms: C6_6  and  C7_7 
REMARK    3  A    between atoms: C7_7  and  C9_9 
REMARK    4  A    between atoms: C10_10  and  O11_11 
REMARK    5  A    between atoms: C10_10  and  C12_12 
REMARK    6  A    between atoms: C15_15  and  C16_16 
ROOT
ATOM      1  C9  ZIN A   1      19.053  -2.194   7.932  0.00  0.00     0.092 C 
ATOM      2  C10 ZIN A   1      18.614  -0.995   7.460  0.00  0.00     0.079 C 
ENDROOT
BRANCH   2   3
ATOM      3  O11 ZIN A   1      18.248  -0.871   6.164  0.00  0.00    -0.360 OA
ATOM      4  H30 ZIN A   1      18.930  -0.485   5.597  0.00  0.00     0.217 HD
ENDBRANCH   2   3
BRANCH   2   5
ATOM      5  C12 ZIN A   1      18.539   0.170   8.362  0.00  0.00    -0.003 A 
ATOM      6  C21 ZIN A   1      19.186   1.362   8.025  0.00  0.00     0.015 A 
ATOM      7  C20 ZIN A   1      19.106   2.448   8.871  0.00  0.00     0.009 A 
ATOM      8  C15 ZIN A   1      18.396   2.356  10.055  0.00  0.00    -0.051 A 
ATOM      9  C14 ZIN A   1      17.758   1.178  10.398  0.00  0.00     0.009 A 
ATOM     10  C13 ZIN A   1      17.824   0.084   9.560  0.00  0.00     0.015 A 
BRANCH   8  11
ATOM     11  C16 ZIN A   1      18.318   3.546  10.977  0.00  0.00    -0.024 C 
ATOM     12  C17 ZIN A   1      17.370   3.233  12.137  0.00  0.00     0.019 C 
ATOM     13  C18 ZIN A   1      19.712   3.855  11.528  0.00  0.00     0.019 C 
ATOM     14  C19 ZIN A   1      17.795   4.757  10.204  0.00  0.00     0.019 C 
ENDBRANCH   8  11
ENDBRANCH   2   5
BRANCH   1  15
ATOM     15  C7  ZIN A   1      19.125  -3.308   7.069  0.00  0.00     0.184 C 
ATOM     16  O8  ZIN A   1      20.064  -3.426   6.301  0.00  0.00    -0.287 OA
BRANCH  15  17
ATOM     17  C6  ZIN A   1      18.061  -4.334   7.096  0.00  0.00     0.014 A 
ATOM     18  C5  ZIN A   1      17.481  -4.709   8.310  0.00  0.00     0.018 A 
ATOM     19  C4  ZIN A   1      16.490  -5.667   8.332  0.00  0.00     0.037 A 
ATOM     20  C3  ZIN A   1      16.067  -6.259   7.147  0.00  0.00     0.068 A 
ATOM     21  C23 ZIN A   1      16.647  -5.891   5.938  0.00  0.00     0.037 A 
ATOM     22  C22 ZIN A   1      17.634  -4.932   5.908  0.00  0.00     0.018 A 
BRANCH  20  23
ATOM     23  O2  ZIN A   1      15.091  -7.201   7.172  0.00  0.00    -0.356 OA
ATOM     24  C1  ZIN A   1      13.902  -6.883   7.898  0.00  0.00     0.210 C 
ENDBRANCH  20  23
ENDBRANCH  15  17
ENDBRANCH   1  15
TORSDOF 6
ENDMDL
