MODEL 1
REMARK VINA RESULT:      -6.3      0.000      0.000
REMARK  2 active torsions:
REMARK  status: ('A' for Active; 'I' for Inactive)
REMARK    1  A    between atoms: N1_1  and  N2_2 
REMARK    2  A    between atoms: N2_2  and  C3_3 
ROOT
ATOM      1  C3  <0> d   1      20.499   0.938  12.355  0.00  0.00     0.143 A 
ATOM      2  C4  <0> d   1      19.615   0.451  13.344  0.00  0.00     0.022 A 
ATOM      3  C5  <0> d   1      19.733  -0.826  13.902  0.00  0.00     0.016 A 
ATOM      4  C6  <0> d   1      18.841  -1.226  14.853  0.00  0.00     0.001 A 
ATOM      5  C7  <0> d   1      17.815  -0.385  15.275  0.00  0.00     0.001 A 
ATOM      6  C8  <0> d   1      17.671   0.866  14.752  0.00  0.00     0.014 A 
ATOM      7  C9  <0> d   1      18.570   1.309  13.774  0.00  0.00    -0.003 A 
ATOM      8  C10 <0> d   1      18.488   2.586  13.186  0.00  0.00     0.151 A 
ATOM      9  N11 <0> d   1      19.370   2.928  12.276  0.00  0.00    -0.185 NA
ATOM     10  N12 <0> d   1      20.317   2.160  11.885  0.00  0.00    -0.261 N 
ATOM     11  H13 <0> d   1      20.929   2.489  11.207  0.00  0.00     0.191 HD
ENDROOT
BRANCH   1  12
ATOM     12  N2  <0> d   1      21.541   0.151  11.890  0.00  0.00    -0.308 N 
ATOM     13  H16 <0> d   1      22.377   0.114  12.381  0.00  0.00     0.182 HD
BRANCH  12  14
ATOM     14  N1  <0> d   1      21.391  -0.572  10.741  0.00  0.00    -0.248 NA
ATOM     15  H14 <0> d   1      20.452  -0.492  10.383  0.00  0.00     0.143 HD
ATOM     16  H15 <0> d   1      22.068  -0.293  10.048  0.00  0.00     0.143 HD
ENDBRANCH  12  14
ENDBRANCH   1  12
TORSDOF 2
ENDMDL
MODEL 2
REMARK VINA RESULT:      -6.2      1.346      1.675
REMARK  2 active torsions:
REMARK  status: ('A' for Active; 'I' for Inactive)
REMARK    1  A    between atoms: N1_1  and  N2_2 
REMARK    2  A    between atoms: N2_2  and  C3_3 
ROOT
ATOM      1  C3  <0> d   1      19.813   0.680  13.725  0.00  0.00     0.143 A 
ATOM      2  C4  <0> d   1      19.051   0.072  14.749  0.00  0.00     0.022 A 
ATOM      3  C5  <0> d   1      19.201  -1.271  15.109  0.00  0.00     0.016 A 
ATOM      4  C6  <0> d   1      18.430  -1.787  16.108  0.00  0.00     0.001 A 
ATOM      5  C7  <0> d   1      17.495  -0.999  16.774  0.00  0.00     0.001 A 
ATOM      6  C8  <0> d   1      17.322   0.314  16.449  0.00  0.00     0.014 A 
ATOM      7  C9  <0> d   1      18.099   0.877  15.428  0.00  0.00    -0.003 A 
ATOM      8  C10 <0> d   1      17.981   2.223  15.034  0.00  0.00     0.151 A 
ATOM      9  N11 <0> d   1      18.745   2.676  14.069  0.00  0.00    -0.185 NA
ATOM     10  N12 <0> d   1      19.609   1.957  13.454  0.00  0.00    -0.261 N 
ATOM     11  H13 <0> d   1      20.136   2.369  12.751  0.00  0.00     0.191 HD
ENDROOT
BRANCH   1  12
ATOM     12  N2  <0> d   1      20.759  -0.048  13.023  0.00  0.00    -0.308 N 
ATOM     13  H16 <0> d   1      20.847  -1.003  13.175  0.00  0.00     0.182 HD
BRANCH  12  14
ATOM     14  N1  <0> d   1      21.568   0.577  12.117  0.00  0.00    -0.248 NA
ATOM     15  H14 <0> d   1      22.159   1.258  12.570  0.00  0.00     0.143 HD
ATOM     16  H15 <0> d   1      22.117  -0.093  11.600  0.00  0.00     0.143 HD
ENDBRANCH  12  14
ENDBRANCH   1  12
TORSDOF 2
ENDMDL
MODEL 3
REMARK VINA RESULT:      -6.2      3.647      5.180
REMARK  2 active torsions:
REMARK  status: ('A' for Active; 'I' for Inactive)
REMARK    1  A    between atoms: N1_1  and  N2_2 
REMARK    2  A    between atoms: N2_2  and  C3_3 
ROOT
ATOM      1  C3  <0> d   1      20.524  -0.986  10.694  0.00  0.00     0.143 A 
ATOM      2  C4  <0> d   1      19.625  -0.536   9.700  0.00  0.00     0.022 A 
ATOM      3  C5  <0> d   1      19.757   0.703   9.066  0.00  0.00     0.016 A 
ATOM      4  C6  <0> d   1      18.850   1.069   8.116  0.00  0.00     0.001 A 
ATOM      5  C7  <0> d   1      17.795   0.229   7.768  0.00  0.00     0.001 A 
ATOM      6  C8  <0> d   1      17.637  -0.986   8.366  0.00  0.00     0.014 A 
ATOM      7  C9  <0> d   1      18.551  -1.394   9.346  0.00  0.00    -0.003 A 
ATOM      8  C10 <0> d   1      18.456  -2.632  10.009  0.00  0.00     0.151 A 
ATOM      9  N11 <0> d   1      19.353  -2.942  10.915  0.00  0.00    -0.185 NA
ATOM     10  N12 <0> d   1      20.327  -2.175  11.238  0.00  0.00    -0.261 N 
ATOM     11  H13 <0> d   1      20.948  -2.479  11.919  0.00  0.00     0.191 HD
ENDROOT
BRANCH   1  12
ATOM     12  N2  <0> d   1      21.594  -0.199  11.087  0.00  0.00    -0.308 N 
ATOM     13  H16 <0> d   1      22.412  -0.197  10.565  0.00  0.00     0.182 HD
BRANCH  12  14
ATOM     14  N1  <0> d   1      21.497   0.575  12.209  0.00  0.00    -0.248 NA
ATOM     15  H14 <0> d   1      22.156   0.277  12.911  0.00  0.00     0.143 HD
ATOM     16  H15 <0> d   1      21.621   1.551  11.986  0.00  0.00     0.143 HD
ENDBRANCH  12  14
ENDBRANCH   1  12
TORSDOF 2
ENDMDL
MODEL 4
REMARK VINA RESULT:      -6.0      4.756      6.346
REMARK  2 active torsions:
REMARK  status: ('A' for Active; 'I' for Inactive)
REMARK    1  A    between atoms: N1_1  and  N2_2 
REMARK    2  A    between atoms: N2_2  and  C3_3 
ROOT
ATOM      1  C3  <0> d   1      19.768  -0.810   9.495  0.00  0.00     0.143 A 
ATOM      2  C4  <0> d   1      19.212  -0.294   8.302  0.00  0.00     0.022 A 
ATOM      3  C5  <0> d   1      19.370   1.039   7.908  0.00  0.00     0.016 A 
ATOM      4  C6  <0> d   1      18.804   1.464   6.742  0.00  0.00     0.001 A 
ATOM      5  C7  <0> d   1      18.071   0.593   5.940  0.00  0.00     0.001 A 
ATOM      6  C8  <0> d   1      17.897  -0.712   6.294  0.00  0.00     0.014 A 
ATOM      7  C9  <0> d   1      18.465  -1.182   7.485  0.00  0.00    -0.003 A 
ATOM      8  C10 <0> d   1      18.331  -2.514   7.920  0.00  0.00     0.151 A 
ATOM      9  N11 <0> d   1      18.895  -2.878   9.047  0.00  0.00    -0.185 NA
ATOM     10  N12 <0> d   1      19.573  -2.084   9.788  0.00  0.00    -0.261 N 
ATOM     11  H13 <0> d   1      19.958  -2.432  10.608  0.00  0.00     0.191 HD
ENDROOT
BRANCH   1  12
ATOM     12  N2  <0> d   1      20.507   0.003  10.338  0.00  0.00    -0.308 N 
ATOM     13  H16 <0> d   1      20.257   0.933  10.458  0.00  0.00     0.182 HD
BRANCH  12  14
ATOM     14  N1  <0> d   1      21.590  -0.503  10.999  0.00  0.00    -0.248 NA
ATOM     15  H14 <0> d   1      21.390  -1.417  11.374  0.00  0.00     0.143 HD
ATOM     16  H15 <0> d   1      22.401  -0.527  10.400  0.00  0.00     0.143 HD
ENDBRANCH  12  14
ENDBRANCH   1  12
TORSDOF 2
ENDMDL
MODEL 5
REMARK VINA RESULT:      -6.0      1.912      3.287
REMARK  2 active torsions:
REMARK  status: ('A' for Active; 'I' for Inactive)
REMARK    1  A    between atoms: N1_1  and  N2_2 
REMARK    2  A    between atoms: N2_2  and  C3_3 
ROOT
ATOM      1  C3  <0> d   1      20.478   0.645  12.219  0.00  0.00     0.143 A 
ATOM      2  C4  <0> d   1      19.541   1.554  11.678  0.00  0.00     0.022 A 
ATOM      3  C5  <0> d   1      19.481   1.856  10.314  0.00  0.00     0.016 A 
ATOM      4  C6  <0> d   1      18.548   2.744   9.865  0.00  0.00     0.001 A 
ATOM      5  C7  <0> d   1      17.657   3.356  10.744  0.00  0.00     0.001 A 
ATOM      6  C8  <0> d   1      17.689   3.085  12.080  0.00  0.00     0.014 A 
ATOM      7  C9  <0> d   1      18.634   2.177  12.574  0.00  0.00    -0.003 A 
ATOM      8  C10 <0> d   1      18.731   1.845  13.939  0.00  0.00     0.151 A 
ATOM      9  N11 <0> d   1      19.642   0.983  14.324  0.00  0.00    -0.185 NA
ATOM     10  N12 <0> d   1      20.463   0.415  13.521  0.00  0.00    -0.261 N 
ATOM     11  H13 <0> d   1      21.107  -0.211  13.886  0.00  0.00     0.191 HD
ENDROOT
BRANCH   1  12
ATOM     12  N2  <0> d   1      21.393   0.003  11.400  0.00  0.00    -0.308 N 
ATOM     13  H16 <0> d   1      22.214   0.452  11.145  0.00  0.00     0.182 HD
BRANCH  12  14
ATOM     14  N1  <0> d   1      21.138  -1.262  10.951  0.00  0.00    -0.248 NA
ATOM     15  H14 <0> d   1      21.278  -1.327   9.955  0.00  0.00     0.143 HD
ATOM     16  H15 <0> d   1      21.701  -1.940  11.443  0.00  0.00     0.143 HD
ENDBRANCH  12  14
ENDBRANCH   1  12
TORSDOF 2
ENDMDL
MODEL 6
REMARK VINA RESULT:      -6.0      3.553      4.243
REMARK  2 active torsions:
REMARK  status: ('A' for Active; 'I' for Inactive)
REMARK    1  A    between atoms: N1_1  and  N2_2 
REMARK    2  A    between atoms: N2_2  and  C3_3 
ROOT
ATOM      1  C3  <0> d   1      20.456  -0.685  10.341  0.00  0.00     0.143 A 
ATOM      2  C4  <0> d   1      19.649  -1.828  10.544  0.00  0.00     0.022 A 
ATOM      3  C5  <0> d   1      19.916  -2.777  11.536  0.00  0.00     0.016 A 
ATOM      4  C6  <0> d   1      19.091  -3.854  11.672  0.00  0.00     0.001 A 
ATOM      5  C7  <0> d   1      17.989  -4.025  10.838  0.00  0.00     0.001 A 
ATOM      6  C8  <0> d   1      17.699  -3.119   9.861  0.00  0.00     0.014 A 
ATOM      7  C9  <0> d   1      18.525  -2.000   9.694  0.00  0.00    -0.003 A 
ATOM      8  C10 <0> d   1      18.293  -1.022   8.709  0.00  0.00     0.151 A 
ATOM      9  N11 <0> d   1      19.113  -0.001   8.618  0.00  0.00    -0.185 NA
ATOM     10  N12 <0> d   1      20.127   0.163   9.383  0.00  0.00    -0.261 N 
ATOM     11  H13 <0> d   1      20.684   0.947   9.249  0.00  0.00     0.191 HD
ENDROOT
BRANCH   1  12
ATOM     12  N2  <0> d   1      21.567  -0.456  11.136  0.00  0.00    -0.308 N 
ATOM     13  H16 <0> d   1      22.361  -1.003  11.027  0.00  0.00     0.182 HD
BRANCH  12  14
ATOM     14  N1  <0> d   1      21.545   0.538  12.072  0.00  0.00    -0.248 NA
ATOM     15  H14 <0> d   1      22.394   1.080  12.044  0.00  0.00     0.143 HD
ATOM     16  H15 <0> d   1      20.734   1.127  11.954  0.00  0.00     0.143 HD
ENDBRANCH  12  14
ENDBRANCH   1  12
TORSDOF 2
ENDMDL
MODEL 7
REMARK VINA RESULT:      -5.9      2.861      4.152
REMARK  2 active torsions:
REMARK  status: ('A' for Active; 'I' for Inactive)
REMARK    1  A    between atoms: N1_1  and  N2_2 
REMARK    2  A    between atoms: N2_2  and  C3_3 
ROOT
ATOM      1  C3  <0> d   1      19.755   1.964  11.325  0.00  0.00     0.143 A 
ATOM      2  C4  <0> d   1      18.860   3.043  11.506  0.00  0.00     0.022 A 
ATOM      3  C5  <0> d   1      18.611   3.619  12.755  0.00  0.00     0.016 A 
ATOM      4  C6  <0> d   1      17.733   4.658  12.851  0.00  0.00     0.001 A 
ATOM      5  C7  <0> d   1      17.081   5.154  11.724  0.00  0.00     0.001 A 
ATOM      6  C8  <0> d   1      17.300   4.616  10.491  0.00  0.00     0.014 A 
ATOM      7  C9  <0> d   1      18.196   3.547  10.357  0.00  0.00    -0.003 A 
ATOM      8  C10 <0> d   1      18.477   2.939   9.119  0.00  0.00     0.151 A 
ATOM      9  N11 <0> d   1      19.330   1.943   9.076  0.00  0.00    -0.185 NA
ATOM     10  N12 <0> d   1      19.935   1.484  10.107  0.00  0.00    -0.261 N 
ATOM     11  H13 <0> d   1      20.552   0.744   9.990  0.00  0.00     0.191 HD
ENDROOT
BRANCH   1  12
ATOM     12  N2  <0> d   1      20.436   1.424  12.405  0.00  0.00    -0.308 N 
ATOM     13  H16 <0> d   1      20.132   1.605  13.308  0.00  0.00     0.182 HD
BRANCH  12  14
ATOM     14  N1  <0> d   1      21.533   0.638  12.196  0.00  0.00    -0.248 NA
ATOM     15  H14 <0> d   1      22.120   1.021  11.471  0.00  0.00     0.143 HD
ATOM     16  H15 <0> d   1      22.052   0.508  13.052  0.00  0.00     0.143 HD
ENDBRANCH  12  14
ENDBRANCH   1  12
TORSDOF 2
ENDMDL
MODEL 8
REMARK VINA RESULT:      -5.9      4.776      5.844
REMARK  2 active torsions:
REMARK  status: ('A' for Active; 'I' for Inactive)
REMARK    1  A    between atoms: N1_1  and  N2_2 
REMARK    2  A    between atoms: N2_2  and  C3_3 
ROOT
ATOM      1  C3  <0> d   1      19.921   0.006   9.353  0.00  0.00     0.143 A 
ATOM      2  C4  <0> d   1      19.333  -0.316   8.109  0.00  0.00     0.022 A 
ATOM      3  C5  <0> d   1      19.311  -1.616   7.596  0.00  0.00     0.016 A 
ATOM      4  C6  <0> d   1      18.724  -1.849   6.387  0.00  0.00     0.001 A 
ATOM      5  C7  <0> d   1      18.149  -0.813   5.656  0.00  0.00     0.001 A 
ATOM      6  C8  <0> d   1      18.154   0.467   6.126  0.00  0.00     0.014 A 
ATOM      7  C9  <0> d   1      18.748   0.742   7.365  0.00  0.00    -0.003 A 
ATOM      8  C10 <0> d   1      18.793   2.035   7.918  0.00  0.00     0.151 A 
ATOM      9  N11 <0> d   1      19.366   2.211   9.085  0.00  0.00    -0.185 NA
ATOM     10  N12 <0> d   1      19.894   1.262   9.764  0.00  0.00    -0.261 N 
ATOM     11  H13 <0> d   1      20.298   1.476  10.620  0.00  0.00     0.191 HD
ENDROOT
BRANCH   1  12
ATOM     12  N2  <0> d   1      20.511  -0.978  10.131  0.00  0.00    -0.308 N 
ATOM     13  H16 <0> d   1      20.185  -1.891  10.087  0.00  0.00     0.182 HD
BRANCH  12  14
ATOM     14  N1  <0> d   1      21.551  -0.663  10.959  0.00  0.00    -0.248 NA
ATOM     15  H14 <0> d   1      21.726   0.330  10.958  0.00  0.00     0.143 HD
ATOM     16  H15 <0> d   1      21.382  -1.001  11.894  0.00  0.00     0.143 HD
ENDBRANCH  12  14
ENDBRANCH   1  12
TORSDOF 2
ENDMDL
MODEL 9
REMARK VINA RESULT:      -5.9      5.850      7.289
REMARK  2 active torsions:
REMARK  status: ('A' for Active; 'I' for Inactive)
REMARK    1  A    between atoms: N1_1  and  N2_2 
REMARK    2  A    between atoms: N2_2  and  C3_3 
ROOT
ATOM      1  C3  <0> d   1      19.541  -2.309   6.416  0.00  0.00     0.143 A 
ATOM      2  C4  <0> d   1      19.334  -1.042   7.006  0.00  0.00     0.022 A 
ATOM      3  C5  <0> d   1      19.349  -0.839   8.390  0.00  0.00     0.016 A 
ATOM      4  C6  <0> d   1      19.141   0.414   8.885  0.00  0.00     0.001 A 
ATOM      5  C7  <0> d   1      18.912   1.494   8.036  0.00  0.00     0.001 A 
ATOM      6  C8  <0> d   1      18.889   1.331   6.682  0.00  0.00     0.014 A 
ATOM      7  C9  <0> d   1      19.100   0.058   6.139  0.00  0.00    -0.003 A 
ATOM      8  C10 <0> d   1      19.093  -0.191   4.754  0.00  0.00     0.151 A 
ATOM      9  N11 <0> d   1      19.300  -1.413   4.323  0.00  0.00    -0.185 NA
ATOM     10  N12 <0> d   1      19.514  -2.410   5.098  0.00  0.00    -0.261 N 
ATOM     11  H13 <0> d   1      19.659  -3.282   4.699  0.00  0.00     0.191 HD
ENDROOT
BRANCH   1  12
ATOM     12  N2  <0> d   1      19.774  -3.425   7.204  0.00  0.00    -0.308 N 
ATOM     13  H16 <0> d   1      19.198  -3.612   7.962  0.00  0.00     0.182 HD
BRANCH  12  14
ATOM     14  N1  <0> d   1      20.814  -4.261   6.914  0.00  0.00    -0.248 NA
ATOM     15  H14 <0> d   1      20.803  -4.530   5.943  0.00  0.00     0.143 HD
ATOM     16  H15 <0> d   1      21.696  -3.840   7.164  0.00  0.00     0.143 HD
ENDBRANCH  12  14
ENDBRANCH   1  12
TORSDOF 2
ENDMDL
