MODEL 1
REMARK VINA RESULT:      -6.5      0.000      0.000
REMARK  2 active torsions:
REMARK  status: ('A' for Active; 'I' for Inactive)
REMARK    1  A    between atoms: C6_6  and  C7_7 
REMARK    2  A    between atoms: C7_7  and  C10_9 
ROOT
ATOM      1  C7  <0> d   1      18.329   0.745  13.189  0.00  0.00     0.066 C 
ATOM      2  C9  <0> d   1      17.012   0.217  12.616  0.00  0.00     0.021 C 
ENDROOT
BRANCH   1   3
ATOM      3  C6  <0> d   1      18.513   0.222  14.590  0.00  0.00    -0.042 A 
ATOM      4  C5  <0> d   1      18.444  -1.137  14.834  0.00  0.00     0.008 A 
ATOM      5  C4  <0> d   1      18.613  -1.617  16.119  0.00  0.00     0.001 A 
ATOM      6  C3  <0> d   1      18.852  -0.739  17.159  0.00  0.00     0.007 A 
ATOM      7  C2  <0> d   1      18.923   0.619  16.915  0.00  0.00    -0.056 A 
ATOM      8  C1  <0> d   1      19.183   1.577  18.048  0.00  0.00     0.049 C 
ATOM      9  C16 <0> d   1      18.748   1.100  15.630  0.00  0.00    -0.049 A 
ATOM     10  C17 <0> d   1      18.823   2.581  15.364  0.00  0.00     0.049 C 
ENDBRANCH   1   3
BRANCH   1  11
ATOM     11  C10 <0> d   1      19.474   0.283  12.325  0.00  0.00     0.033 A 
ATOM     12  N14 <0> d   1      19.386  -0.558  11.284  0.00  0.00    -0.354 N 
ATOM     13  C13 <0> d   1      20.573  -0.730  10.769  0.00  0.00     0.180 A 
ATOM     14  H15 <0> d   1      18.569  -0.969  10.961  0.00  0.00     0.166 HD
ATOM     15  N12 <0> d   1      21.462  -0.004  11.479  0.00  0.00    -0.360 N 
ATOM     16  C11 <0> d   1      20.765   0.639  12.465  0.00  0.00     0.114 A 
ATOM     17  H28 <0> d   1      22.418   0.052  11.320  0.00  0.00     0.166 HD
ENDBRANCH   1  11
TORSDOF 2
ENDMDL
MODEL 2
REMARK VINA RESULT:      -6.4      3.514      7.342
REMARK  2 active torsions:
REMARK  status: ('A' for Active; 'I' for Inactive)
REMARK    1  A    between atoms: C6_6  and  C7_7 
REMARK    2  A    between atoms: C7_7  and  C10_9 
ROOT
ATOM      1  C7  <0> d   1      18.275  -0.570   9.808  0.00  0.00     0.066 C 
ATOM      2  C9  <0> d   1      17.011   0.137  10.301  0.00  0.00     0.021 C 
ENDROOT
BRANCH   1   3
ATOM      3  C6  <0> d   1      18.561  -0.155   8.388  0.00  0.00    -0.042 A 
ATOM      4  C5  <0> d   1      18.698   1.184   8.074  0.00  0.00     0.008 A 
ATOM      5  C4  <0> d   1      18.960   1.564   6.771  0.00  0.00     0.001 A 
ATOM      6  C3  <0> d   1      19.087   0.606   5.783  0.00  0.00     0.007 A 
ATOM      7  C2  <0> d   1      18.952  -0.733   6.097  0.00  0.00    -0.056 A 
ATOM      8  C1  <0> d   1      19.090  -1.778   5.021  0.00  0.00     0.049 C 
ATOM      9  C16 <0> d   1      18.684  -1.113   7.400  0.00  0.00    -0.049 A 
ATOM     10  C17 <0> d   1      18.535  -2.573   7.742  0.00  0.00     0.049 C 
ENDBRANCH   1   3
BRANCH   1  11
ATOM     11  C10 <0> d   1      19.438  -0.190  10.687  0.00  0.00     0.033 A 
ATOM     12  N14 <0> d   1      19.401   0.668  11.717  0.00  0.00    -0.354 N 
ATOM     13  C13 <0> d   1      20.588   0.752  12.251  0.00  0.00     0.180 A 
ATOM     14  H15 <0> d   1      18.613   1.145  12.022  0.00  0.00     0.166 HD
ATOM     15  N12 <0> d   1      21.429  -0.051  11.565  0.00  0.00    -0.360 N 
ATOM     16  C11 <0> d   1      20.700  -0.649  10.573  0.00  0.00     0.114 A 
ATOM     17  H28 <0> d   1      22.375  -0.180  11.741  0.00  0.00     0.166 HD
ENDBRANCH   1  11
TORSDOF 2
ENDMDL
MODEL 3
REMARK VINA RESULT:      -6.2      3.527      6.198
REMARK  2 active torsions:
REMARK  status: ('A' for Active; 'I' for Inactive)
REMARK    1  A    between atoms: C6_6  and  C7_7 
REMARK    2  A    between atoms: C7_7  and  C10_9 
ROOT
ATOM      1  C7  <0> d   1      17.437  -0.742  10.815  0.00  0.00     0.066 C 
ATOM      2  C9  <0> d   1      16.668  -0.097  11.970  0.00  0.00     0.021 C 
ENDROOT
BRANCH   1   3
ATOM      3  C6  <0> d   1      18.058   0.333   9.962  0.00  0.00    -0.042 A 
ATOM      4  C5  <0> d   1      18.535   1.491  10.548  0.00  0.00     0.008 A 
ATOM      5  C4  <0> d   1      19.105   2.477   9.766  0.00  0.00     0.001 A 
ATOM      6  C3  <0> d   1      19.200   2.306   8.398  0.00  0.00     0.007 A 
ATOM      7  C2  <0> d   1      18.725   1.148   7.812  0.00  0.00    -0.056 A 
ATOM      8  C1  <0> d   1      18.827   0.961   6.320  0.00  0.00     0.049 C 
ATOM      9  C16 <0> d   1      18.149   0.164   8.594  0.00  0.00    -0.049 A 
ATOM     10  C17 <0> d   1      17.629  -1.098   7.955  0.00  0.00     0.049 C 
ENDBRANCH   1   3
BRANCH   1  11
ATOM     11  C10 <0> d   1      18.519  -1.633  11.369  0.00  0.00     0.033 A 
ATOM     12  N14 <0> d   1      19.061  -2.692  10.751  0.00  0.00    -0.354 N 
ATOM     13  C13 <0> d   1      19.970  -3.223  11.523  0.00  0.00     0.180 A 
ATOM     14  H15 <0> d   1      18.821  -3.010   9.866  0.00  0.00     0.166 HD
ATOM     15  N12 <0> d   1      20.027  -2.517  12.672  0.00  0.00    -0.360 N 
ATOM     16  C11 <0> d   1      19.107  -1.508  12.574  0.00  0.00     0.114 A 
ATOM     17  H28 <0> d   1      20.611  -2.692  13.427  0.00  0.00     0.166 HD
ENDBRANCH   1  11
TORSDOF 2
ENDMDL
MODEL 4
REMARK VINA RESULT:      -5.8      4.351      6.338
REMARK  2 active torsions:
REMARK  status: ('A' for Active; 'I' for Inactive)
REMARK    1  A    between atoms: C6_6  and  C7_7 
REMARK    2  A    between atoms: C7_7  and  C10_9 
ROOT
ATOM      1  C7  <0> d   1      18.816   3.537  11.000  0.00  0.00     0.066 C 
ATOM      2  C9  <0> d   1      20.164   3.366  11.705  0.00  0.00     0.021 C 
ENDROOT
BRANCH   1   3
ATOM      3  C6  <0> d   1      18.183   2.186  10.791  0.00  0.00    -0.042 A 
ATOM      4  C5  <0> d   1      17.561   1.544  11.845  0.00  0.00     0.008 A 
ATOM      5  C4  <0> d   1      16.981   0.305  11.654  0.00  0.00     0.001 A 
ATOM      6  C3  <0> d   1      17.021  -0.293  10.408  0.00  0.00     0.007 A 
ATOM      7  C2  <0> d   1      17.642   0.350   9.353  0.00  0.00    -0.056 A 
ATOM      8  C1  <0> d   1      17.687  -0.301   7.995  0.00  0.00     0.049 C 
ATOM      9  C16 <0> d   1      18.228   1.587   9.547  0.00  0.00    -0.049 A 
ATOM     10  C17 <0> d   1      18.906   2.287   8.397  0.00  0.00     0.049 C 
ENDBRANCH   1   3
BRANCH   1  11
ATOM     11  C10 <0> d   1      17.911   4.391  11.849  0.00  0.00     0.033 A 
ATOM     12  N14 <0> d   1      18.139   4.764  13.117  0.00  0.00    -0.354 N 
ATOM     13  C13 <0> d   1      17.147   5.501  13.535  0.00  0.00     0.180 A 
ATOM     14  H15 <0> d   1      18.923   4.529  13.639  0.00  0.00     0.166 HD
ATOM     15  N12 <0> d   1      16.242   5.613  12.539  0.00  0.00    -0.360 N 
ATOM     16  C11 <0> d   1      16.726   4.909  11.470  0.00  0.00     0.114 A 
ATOM     17  H28 <0> d   1      15.404   6.101  12.575  0.00  0.00     0.166 HD
ENDBRANCH   1  11
TORSDOF 2
ENDMDL
MODEL 5
REMARK VINA RESULT:      -5.7      2.985      5.178
REMARK  2 active torsions:
REMARK  status: ('A' for Active; 'I' for Inactive)
REMARK    1  A    between atoms: C6_6  and  C7_7 
REMARK    2  A    between atoms: C7_7  and  C10_9 
ROOT
ATOM      1  C7  <0> d   1      19.077   0.311  12.513  0.00  0.00     0.066 C 
ATOM      2  C9  <0> d   1      20.501   0.404  13.068  0.00  0.00     0.021 C 
ENDROOT
BRANCH   1   3
ATOM      3  C6  <0> d   1      18.972   1.141  11.259  0.00  0.00    -0.042 A 
ATOM      4  C5  <0> d   1      19.468   0.654  10.065  0.00  0.00     0.008 A 
ATOM      5  C4  <0> d   1      19.372   1.415   8.915  0.00  0.00     0.001 A 
ATOM      6  C3  <0> d   1      18.778   2.662   8.960  0.00  0.00     0.007 A 
ATOM      7  C2  <0> d   1      18.280   3.149  10.154  0.00  0.00    -0.056 A 
ATOM      8  C1  <0> d   1      17.633   4.508  10.203  0.00  0.00     0.049 C 
ATOM      9  C16 <0> d   1      18.382   2.389  11.305  0.00  0.00    -0.049 A 
ATOM     10  C17 <0> d   1      17.841   2.921  12.608  0.00  0.00     0.049 C 
ENDBRANCH   1   3
BRANCH   1  11
ATOM     11  C10 <0> d   1      18.755  -1.126  12.194  0.00  0.00     0.033 A 
ATOM     12  N14 <0> d   1      19.628  -2.144  12.174  0.00  0.00    -0.354 N 
ATOM     13  C13 <0> d   1      18.999  -3.244  11.862  0.00  0.00     0.180 A 
ATOM     14  H15 <0> d   1      20.576  -2.075  12.369  0.00  0.00     0.166 HD
ATOM     15  N12 <0> d   1      17.696  -2.955  11.662  0.00  0.00    -0.360 N 
ATOM     16  C11 <0> d   1      17.541  -1.612  11.872  0.00  0.00     0.114 A 
ATOM     17  H28 <0> d   1      16.998  -3.583  11.414  0.00  0.00     0.166 HD
ENDBRANCH   1  11
TORSDOF 2
ENDMDL
MODEL 6
REMARK VINA RESULT:      -5.7      6.035      7.972
REMARK  2 active torsions:
REMARK  status: ('A' for Active; 'I' for Inactive)
REMARK    1  A    between atoms: C6_6  and  C7_7 
REMARK    2  A    between atoms: C7_7  and  C10_9 
ROOT
ATOM      1  C7  <0> d   1      19.410  -3.051   7.773  0.00  0.00     0.066 C 
ATOM      2  C9  <0> d   1      19.908  -3.915   6.612  0.00  0.00     0.021 C 
ENDROOT
BRANCH   1   3
ATOM      3  C6  <0> d   1      18.935  -1.723   7.243  0.00  0.00    -0.042 A 
ATOM      4  C5  <0> d   1      18.221  -1.666   6.061  0.00  0.00     0.008 A 
ATOM      5  C4  <0> d   1      17.786  -0.447   5.575  0.00  0.00     0.001 A 
ATOM      6  C3  <0> d   1      18.063   0.714   6.272  0.00  0.00     0.007 A 
ATOM      7  C2  <0> d   1      18.774   0.656   7.455  0.00  0.00    -0.056 A 
ATOM      8  C1  <0> d   1      19.077   1.921   8.216  0.00  0.00     0.049 C 
ATOM      9  C16 <0> d   1      19.215  -0.562   7.938  0.00  0.00    -0.049 A 
ATOM     10  C17 <0> d   1      19.993  -0.625   9.227  0.00  0.00     0.049 C 
ENDBRANCH   1   3
BRANCH   1  11
ATOM     11  C10 <0> d   1      18.270  -3.753   8.466  0.00  0.00     0.033 A 
ATOM     12  N14 <0> d   1      17.384  -4.577   7.890  0.00  0.00    -0.354 N 
ATOM     13  C13 <0> d   1      16.542  -5.003   8.792  0.00  0.00     0.180 A 
ATOM     14  H15 <0> d   1      17.374  -4.824   6.952  0.00  0.00     0.166 HD
ATOM     15  N12 <0> d   1      16.865  -4.450   9.980  0.00  0.00    -0.360 N 
ATOM     16  C11 <0> d   1      17.961  -3.657   9.774  0.00  0.00     0.114 A 
ATOM     17  H28 <0> d   1      16.405  -4.588  10.823  0.00  0.00     0.166 HD
ENDBRANCH   1  11
TORSDOF 2
ENDMDL
MODEL 7
REMARK VINA RESULT:      -5.7      3.059      5.157
REMARK  2 active torsions:
REMARK  status: ('A' for Active; 'I' for Inactive)
REMARK    1  A    between atoms: C6_6  and  C7_7 
REMARK    2  A    between atoms: C7_7  and  C10_9 
ROOT
ATOM      1  C7  <0> d   1      19.431   0.168   8.709  0.00  0.00     0.066 C 
ATOM      2  C9  <0> d   1      19.048   1.499   8.058  0.00  0.00     0.021 C 
ENDROOT
BRANCH   1   3
ATOM      3  C6  <0> d   1      18.685   0.012  10.010  0.00  0.00    -0.042 A 
ATOM      4  C5  <0> d   1      17.325   0.249  10.058  0.00  0.00     0.008 A 
ATOM      5  C4  <0> d   1      16.640   0.106  11.250  0.00  0.00     0.001 A 
ATOM      6  C3  <0> d   1      17.317  -0.275  12.394  0.00  0.00     0.007 A 
ATOM      7  C2  <0> d   1      18.677  -0.514  12.345  0.00  0.00    -0.056 A 
ATOM      8  C1  <0> d   1      19.415  -0.928  13.591  0.00  0.00     0.049 C 
ATOM      9  C16 <0> d   1      19.362  -0.365  11.153  0.00  0.00    -0.049 A 
ATOM     10  C17 <0> d   1      20.846  -0.623  11.101  0.00  0.00     0.049 C 
ENDBRANCH   1   3
BRANCH   1  11
ATOM     11  C10 <0> d   1      19.072  -0.966   7.784  0.00  0.00     0.033 A 
ATOM     12  N14 <0> d   1      19.584  -2.205   7.820  0.00  0.00    -0.354 N 
ATOM     13  C13 <0> d   1      19.040  -2.922   6.875  0.00  0.00     0.180 A 
ATOM     14  H15 <0> d   1      20.248  -2.520   8.453  0.00  0.00     0.166 HD
ATOM     15  N12 <0> d   1      18.165  -2.152   6.196  0.00  0.00    -0.360 N 
ATOM     16  C11 <0> d   1      18.184  -0.911   6.773  0.00  0.00     0.114 A 
ATOM     17  H28 <0> d   1      17.622  -2.426   5.439  0.00  0.00     0.166 HD
ENDBRANCH   1  11
TORSDOF 2
ENDMDL
MODEL 8
REMARK VINA RESULT:      -5.5      3.963      7.608
REMARK  2 active torsions:
REMARK  status: ('A' for Active; 'I' for Inactive)
REMARK    1  A    between atoms: C6_6  and  C7_7 
REMARK    2  A    between atoms: C7_7  and  C10_9 
ROOT
ATOM      1  C7  <0> d   1      18.583  -3.257   9.245  0.00  0.00     0.066 C 
ATOM      2  C9  <0> d   1      17.344  -4.154   9.229  0.00  0.00     0.021 C 
ENDROOT
BRANCH   1   3
ATOM      3  C6  <0> d   1      18.362  -2.077   8.334  0.00  0.00    -0.042 A 
ATOM      4  C5  <0> d   1      17.609  -1.002   8.767  0.00  0.00     0.008 A 
ATOM      5  C4  <0> d   1      17.406   0.080   7.932  0.00  0.00     0.001 A 
ATOM      6  C3  <0> d   1      17.957   0.088   6.664  0.00  0.00     0.007 A 
ATOM      7  C2  <0> d   1      18.712  -0.986   6.232  0.00  0.00    -0.056 A 
ATOM      8  C1  <0> d   1      19.313  -0.979   4.851  0.00  0.00     0.049 C 
ATOM      9  C16 <0> d   1      18.910  -2.071   7.066  0.00  0.00    -0.049 A 
ATOM     10  C17 <0> d   1      19.732  -3.244   6.595  0.00  0.00     0.049 C 
ENDBRANCH   1   3
BRANCH   1  11
ATOM     11  C10 <0> d   1      18.832  -2.769  10.649  0.00  0.00     0.033 A 
ATOM     12  N14 <0> d   1      17.935  -2.748  11.647  0.00  0.00    -0.354 N 
ATOM     13  C13 <0> d   1      18.498  -2.266  12.721  0.00  0.00     0.180 A 
ATOM     14  H15 <0> d   1      17.016  -3.050  11.581  0.00  0.00     0.166 HD
ATOM     15  N12 <0> d   1      19.779  -1.953  12.435  0.00  0.00    -0.360 N 
ATOM     16  C11 <0> d   1      19.991  -2.273  11.121  0.00  0.00     0.114 A 
ATOM     17  H28 <0> d   1      20.430  -1.572  13.047  0.00  0.00     0.166 HD
ENDBRANCH   1  11
TORSDOF 2
ENDMDL
MODEL 9
REMARK VINA RESULT:      -5.4      2.403      3.598
REMARK  2 active torsions:
REMARK  status: ('A' for Active; 'I' for Inactive)
REMARK    1  A    between atoms: C6_6  and  C7_7 
REMARK    2  A    between atoms: C7_7  and  C10_9 
ROOT
ATOM      1  C7  <0> d   1      17.507  -2.361  11.133  0.00  0.00     0.066 C 
ATOM      2  C9  <0> d   1      17.392  -3.858  11.430  0.00  0.00     0.021 C 
ENDROOT
BRANCH   1   3
ATOM      3  C6  <0> d   1      18.102  -1.657  12.325  0.00  0.00    -0.042 A 
ATOM      4  C5  <0> d   1      19.077  -2.280  13.080  0.00  0.00     0.008 A 
ATOM      5  C4  <0> d   1      19.623  -1.635  14.173  0.00  0.00     0.001 A 
ATOM      6  C3  <0> d   1      19.194  -0.365  14.512  0.00  0.00     0.007 A 
ATOM      7  C2  <0> d   1      18.219   0.259  13.756  0.00  0.00    -0.056 A 
ATOM      8  C1  <0> d   1      17.751   1.643  14.124  0.00  0.00     0.049 C 
ATOM      9  C16 <0> d   1      17.670  -0.390  12.665  0.00  0.00    -0.049 A 
ATOM     10  C17 <0> d   1      16.606   0.290  11.843  0.00  0.00     0.049 C 
ENDBRANCH   1   3
BRANCH   1  11
ATOM     11  C10 <0> d   1      18.394  -2.154   9.932  0.00  0.00     0.033 A 
ATOM     12  N14 <0> d   1      18.900  -0.983   9.519  0.00  0.00    -0.354 N 
ATOM     13  C13 <0> d   1      19.624  -1.180   8.451  0.00  0.00     0.180 A 
ATOM     14  H15 <0> d   1      18.756  -0.126   9.950  0.00  0.00     0.166 HD
ATOM     15  N12 <0> d   1      19.593  -2.493   8.144  0.00  0.00    -0.360 N 
ATOM     16  C11 <0> d   1      18.813  -3.112   9.083  0.00  0.00     0.114 A 
ATOM     17  H28 <0> d   1      20.040  -2.921   7.396  0.00  0.00     0.166 HD
ENDBRANCH   1  11
TORSDOF 2
ENDMDL
