MODEL 1
REMARK VINA RESULT:      -8.1      0.000      0.000
REMARK  4 active torsions:
REMARK  status: ('A' for Active; 'I' for Inactive)
REMARK    1  A    between atoms: C3_3  and  C4_4 
REMARK       I    between atoms: C4_4  and  N6_6 
REMARK    2  A    between atoms: N6_6  and  C7_7 
REMARK    3  A    between atoms: C18_16  and  C20_17 
REMARK    4  A    between atoms: C23_20  and  C24_21 
ROOT
ATOM      1  C4  RES d   1      17.859   1.389  14.544  0.00  0.00     0.257 C 
ATOM      2  O5  RES d   1      16.930   0.978  15.212  0.00  0.00    -0.267 OA
ATOM      3  N6  RES d   1      18.202   0.758  13.403  0.00  0.00    -0.342 N 
ATOM      4  H37 RES d   1      18.944   1.086  12.871  0.00  0.00     0.163 HD
ENDROOT
BRANCH   1   5
ATOM      5  C3  RES d   1      18.610   2.578  14.982  0.00  0.00     0.095 A 
ATOM      6  C2  RES d   1      19.348   2.751  16.126  0.00  0.00     0.093 A 
ATOM      7  C1  RES d   1      19.561   1.738  17.222  0.00  0.00     0.080 C 
ATOM      8  O33 RES d   1      19.834   3.994  16.082  0.00  0.00    -0.217 OA
ATOM      9  N32 RES d   1      19.514   4.597  15.088  0.00  0.00    -0.127 NA
ATOM     10  C23 RES d   1      18.756   3.880  14.297  0.00  0.00     0.116 A 
BRANCH  10  11
ATOM     11  C24 RES d   1      18.167   4.286  12.998  0.00  0.00     0.039 A 
ATOM     12  C30 RES d   1      18.850   4.024  11.810  0.00  0.00     0.048 A 
ATOM     13  C29 RES d   1      18.294   4.399  10.601  0.00  0.00     0.025 A 
ATOM     14 Cl31 RES d   1      20.385   3.216  11.848  0.00  0.00    -0.083 Cl
ATOM     15  C28 RES d   1      17.071   5.043  10.570  0.00  0.00     0.003 A 
ATOM     16  C27 RES d   1      16.392   5.311  11.745  0.00  0.00     0.025 A 
ATOM     17  C25 RES d   1      16.935   4.936  12.960  0.00  0.00     0.048 A 
ATOM     18 Cl26 RES d   1      16.083   5.274  14.434  0.00  0.00    -0.083 Cl
ENDBRANCH  10  11
ENDBRANCH   1   5
BRANCH   3  19
ATOM     19  C7  RES d   1      17.454  -0.425  12.969  0.00  0.00     0.199 C 
ATOM     20  C12 RES d   1      16.835  -0.284  11.575  0.00  0.00     0.160 C 
ATOM     21  N11 RES d   1      17.855  -1.252  11.110  0.00  0.00    -0.219 NA
ATOM     22  S14 RES d   1      17.233   1.280  10.709  0.00  0.00    -0.135 SA
ATOM     23  C9  RES d   1      18.325  -1.509  12.368  0.00  0.00     0.227 C 
ATOM     24  C18 RES d   1      18.822  -0.712  10.149  0.00  0.00     0.186 C 
ATOM     25  O10 RES d   1      19.126  -2.297  12.824  0.00  0.00    -0.277 OA
ATOM     26  C15 RES d   1      18.179   0.468   9.353  0.00  0.00     0.029 C 
ATOM     27  C16 RES d   1      17.247  -0.035   8.249  0.00  0.00     0.029 C 
ATOM     28  C17 RES d   1      19.253   1.398   8.788  0.00  0.00     0.029 C 
BRANCH  24  29
ATOM     29  C20 RES d   1      19.216  -1.804   9.189  0.00  0.00     0.193 C 
ATOM     30  O21 RES d   1      18.834  -2.947   9.376  0.00  0.00    -0.647 OA
ATOM     31  O22 RES d   1      19.916  -1.546   8.225  0.00  0.00    -0.647 OA
ENDBRANCH  24  29
ENDBRANCH   3  19
TORSDOF 4
ENDMDL
MODEL 2
REMARK VINA RESULT:      -8.1      0.013      1.654
REMARK  4 active torsions:
REMARK  status: ('A' for Active; 'I' for Inactive)
REMARK    1  A    between atoms: C3_3  and  C4_4 
REMARK       I    between atoms: C4_4  and  N6_6 
REMARK    2  A    between atoms: N6_6  and  C7_7 
REMARK    3  A    between atoms: C18_16  and  C20_17 
REMARK    4  A    between atoms: C23_20  and  C24_21 
ROOT
ATOM      1  C4  RES d   1      17.858   1.396  14.550  0.00  0.00     0.257 C 
ATOM      2  O5  RES d   1      16.938   0.978  15.225  0.00  0.00    -0.267 OA
ATOM      3  N6  RES d   1      18.190   0.772  13.402  0.00  0.00    -0.342 N 
ATOM      4  H37 RES d   1      18.926   1.106  12.864  0.00  0.00     0.163 HD
ENDROOT
BRANCH   1   5
ATOM      5  C3  RES d   1      18.610   2.584  14.986  0.00  0.00     0.095 A 
ATOM      6  C2  RES d   1      19.347   2.758  16.132  0.00  0.00     0.093 A 
ATOM      7  C1  RES d   1      19.556   1.748  17.230  0.00  0.00     0.080 C 
ATOM      8  O33 RES d   1      19.835   4.000  16.085  0.00  0.00    -0.217 OA
ATOM      9  N32 RES d   1      19.518   4.602  15.089  0.00  0.00    -0.127 NA
ATOM     10  C23 RES d   1      18.760   3.885  14.299  0.00  0.00     0.116 A 
BRANCH  10  11
ATOM     11  C24 RES d   1      18.176   4.288  12.998  0.00  0.00     0.039 A 
ATOM     12  C30 RES d   1      16.938   4.931  12.957  0.00  0.00     0.048 A 
ATOM     13  C29 RES d   1      16.401   5.311  11.741  0.00  0.00     0.025 A 
ATOM     14 Cl31 RES d   1      16.082   5.266  14.429  0.00  0.00    -0.083 Cl
ATOM     15  C28 RES d   1      17.081   5.044  10.568  0.00  0.00     0.003 A 
ATOM     16  C27 RES d   1      18.306   4.401  10.601  0.00  0.00     0.025 A 
ATOM     17  C25 RES d   1      18.857   4.022  11.811  0.00  0.00     0.048 A 
ATOM     18 Cl26 RES d   1      20.394   3.216  11.852  0.00  0.00    -0.083 Cl
ENDBRANCH  10  11
ENDBRANCH   1   5
BRANCH   3  19
ATOM     19  C7  RES d   1      17.442  -0.410  12.968  0.00  0.00     0.199 C 
ATOM     20  C12 RES d   1      16.825  -0.271  11.573  0.00  0.00     0.160 C 
ATOM     21  N11 RES d   1      17.844  -1.241  11.112  0.00  0.00    -0.219 NA
ATOM     22  S14 RES d   1      17.227   1.291  10.705  0.00  0.00    -0.135 SA
ATOM     23  C9  RES d   1      18.312  -1.497  12.371  0.00  0.00     0.227 C 
ATOM     24  C18 RES d   1      18.813  -0.704  10.151  0.00  0.00     0.186 C 
ATOM     25  O10 RES d   1      19.110  -2.286  12.830  0.00  0.00    -0.277 OA
ATOM     26  C15 RES d   1      18.173   0.474   9.352  0.00  0.00     0.029 C 
ATOM     27  C16 RES d   1      17.242  -0.029   8.248  0.00  0.00     0.029 C 
ATOM     28  C17 RES d   1      19.249   1.402   8.786  0.00  0.00     0.029 C 
BRANCH  24  29
ATOM     29  C20 RES d   1      19.207  -1.799   9.194  0.00  0.00     0.193 C 
ATOM     30  O21 RES d   1      18.806  -2.937   9.371  0.00  0.00    -0.647 OA
ATOM     31  O22 RES d   1      19.926  -1.548   8.242  0.00  0.00    -0.647 OA
ENDBRANCH  24  29
ENDBRANCH   3  19
TORSDOF 4
ENDMDL
MODEL 3
REMARK VINA RESULT:      -7.9      3.410      7.936
REMARK  4 active torsions:
REMARK  status: ('A' for Active; 'I' for Inactive)
REMARK    1  A    between atoms: C3_3  and  C4_4 
REMARK       I    between atoms: C4_4  and  N6_6 
REMARK    2  A    between atoms: N6_6  and  C7_7 
REMARK    3  A    between atoms: C18_16  and  C20_17 
REMARK    4  A    between atoms: C23_20  and  C24_21 
ROOT
ATOM      1  C4  RES d   1      17.700  -1.020   8.267  0.00  0.00     0.257 C 
ATOM      2  O5  RES d   1      16.737  -0.659   7.619  0.00  0.00    -0.267 OA
ATOM      3  N6  RES d   1      17.925  -0.497   9.489  0.00  0.00    -0.342 N 
ATOM      4  H37 RES d   1      18.694  -0.785  10.006  0.00  0.00     0.163 HD
ENDROOT
BRANCH   1   5
ATOM      5  C3  RES d   1      18.621  -2.029   7.718  0.00  0.00     0.095 A 
ATOM      6  C2  RES d   1      19.405  -1.951   6.593  0.00  0.00     0.093 A 
ATOM      7  C1  RES d   1      19.502  -0.785   5.643  0.00  0.00     0.080 C 
ATOM      8  O33 RES d   1      20.059  -3.112   6.504  0.00  0.00    -0.217 OA
ATOM      9  N32 RES d   1      19.802  -3.876   7.400  0.00  0.00    -0.127 NA
ATOM     10  C23 RES d   1      18.930  -3.377   8.240  0.00  0.00     0.116 A 
BRANCH  10  11
ATOM     11  C24 RES d   1      18.372  -4.023   9.452  0.00  0.00     0.039 A 
ATOM     12  C30 RES d   1      17.250  -4.846   9.351  0.00  0.00     0.048 A 
ATOM     13  C29 RES d   1      16.738  -5.451  10.484  0.00  0.00     0.025 A 
ATOM     14 Cl31 RES d   1      16.509  -5.122   7.807  0.00  0.00    -0.083 Cl
ATOM     15  C28 RES d   1      17.327  -5.232  11.715  0.00  0.00     0.003 A 
ATOM     16  C27 RES d   1      18.436  -4.412  11.822  0.00  0.00     0.025 A 
ATOM     17  C25 RES d   1      18.962  -3.806  10.697  0.00  0.00     0.048 A 
ATOM     18 Cl26 RES d   1      20.353  -2.777  10.833  0.00  0.00    -0.083 Cl
ENDBRANCH  10  11
ENDBRANCH   1   5
BRANCH   3  19
ATOM     19  C7  RES d   1      17.008   0.507  10.035  0.00  0.00     0.199 C 
ATOM     20  C12 RES d   1      16.579   0.228  11.479  0.00  0.00     0.160 C 
ATOM     21  N11 RES d   1      17.431   1.375  11.870  0.00  0.00    -0.219 NA
ATOM     22  S14 RES d   1      17.367  -1.235  12.249  0.00  0.00    -0.135 SA
ATOM     23  C9  RES d   1      17.706   1.736  10.581  0.00  0.00     0.227 C 
ATOM     24  C18 RES d   1      18.581   1.028  12.711  0.00  0.00     0.186 C 
ATOM     25  O10 RES d   1      18.282   2.674  10.072  0.00  0.00    -0.277 OA
ATOM     26  C15 RES d   1      18.271  -0.265  13.528  0.00  0.00     0.029 C 
ATOM     27  C16 RES d   1      17.379   0.028  14.737  0.00  0.00     0.029 C 
ATOM     28  C17 RES d   1      19.561  -0.969  13.952  0.00  0.00     0.029 C 
BRANCH  24  29
ATOM     29  C20 RES d   1      18.850   2.166  13.661  0.00  0.00     0.193 C 
ATOM     30  O21 RES d   1      18.226   3.208  13.557  0.00  0.00    -0.647 OA
ATOM     31  O22 RES d   1      19.691   2.044  14.535  0.00  0.00    -0.647 OA
ENDBRANCH  24  29
ENDBRANCH   3  19
TORSDOF 4
ENDMDL
MODEL 4
REMARK VINA RESULT:      -7.9      3.411      7.915
REMARK  4 active torsions:
REMARK  status: ('A' for Active; 'I' for Inactive)
REMARK    1  A    between atoms: C3_3  and  C4_4 
REMARK       I    between atoms: C4_4  and  N6_6 
REMARK    2  A    between atoms: N6_6  and  C7_7 
REMARK    3  A    between atoms: C18_16  and  C20_17 
REMARK    4  A    between atoms: C23_20  and  C24_21 
ROOT
ATOM      1  C4  RES d   1      17.700  -1.004   8.256  0.00  0.00     0.257 C 
ATOM      2  O5  RES d   1      16.745  -0.624   7.606  0.00  0.00    -0.267 OA
ATOM      3  N6  RES d   1      17.920  -0.502   9.488  0.00  0.00    -0.342 N 
ATOM      4  H37 RES d   1      18.682  -0.805  10.006  0.00  0.00     0.163 HD
ENDROOT
BRANCH   1   5
ATOM      5  C3  RES d   1      18.615  -2.013   7.698  0.00  0.00     0.095 A 
ATOM      6  C2  RES d   1      19.394  -1.932   6.570  0.00  0.00     0.093 A 
ATOM      7  C1  RES d   1      19.488  -0.763   5.623  0.00  0.00     0.080 C 
ATOM      8  O33 RES d   1      20.044  -3.094   6.472  0.00  0.00    -0.217 OA
ATOM      9  N32 RES d   1      19.791  -3.862   7.367  0.00  0.00    -0.127 NA
ATOM     10  C23 RES d   1      18.925  -3.364   8.214  0.00  0.00     0.116 A 
BRANCH  10  11
ATOM     11  C24 RES d   1      18.372  -4.013   9.426  0.00  0.00     0.039 A 
ATOM     12  C30 RES d   1      18.968  -3.796  10.669  0.00  0.00     0.048 A 
ATOM     13  C29 RES d   1      18.444  -4.400  11.797  0.00  0.00     0.025 A 
ATOM     14 Cl31 RES d   1      20.354  -2.760  10.800  0.00  0.00    -0.083 Cl
ATOM     15  C28 RES d   1      17.340  -5.226  11.693  0.00  0.00     0.003 A 
ATOM     16  C27 RES d   1      16.749  -5.450  10.463  0.00  0.00     0.025 A 
ATOM     17  C25 RES d   1      17.259  -4.848   9.328  0.00  0.00     0.048 A 
ATOM     18 Cl26 RES d   1      16.516  -5.130   7.785  0.00  0.00    -0.083 Cl
ENDBRANCH  10  11
ENDBRANCH   1   5
BRANCH   3  19
ATOM     19  C7  RES d   1      17.009   0.502  10.043  0.00  0.00     0.199 C 
ATOM     20  C12 RES d   1      16.579   0.213  11.484  0.00  0.00     0.160 C 
ATOM     21  N11 RES d   1      17.436   1.353  11.884  0.00  0.00    -0.219 NA
ATOM     22  S14 RES d   1      17.361  -1.259  12.242  0.00  0.00    -0.135 SA
ATOM     23  C9  RES d   1      17.712   1.724  10.597  0.00  0.00     0.227 C 
ATOM     24  C18 RES d   1      18.586   0.994  12.721  0.00  0.00     0.186 C 
ATOM     25  O10 RES d   1      18.293   2.662  10.096  0.00  0.00    -0.277 OA
ATOM     26  C15 RES d   1      18.270  -0.305  13.528  0.00  0.00     0.029 C 
ATOM     27  C16 RES d   1      17.380  -0.017  14.739  0.00  0.00     0.029 C 
ATOM     28  C17 RES d   1      19.557  -1.018  13.946  0.00  0.00     0.029 C 
BRANCH  24  29
ATOM     29  C20 RES d   1      18.860   2.122  13.681  0.00  0.00     0.193 C 
ATOM     30  O21 RES d   1      18.288   3.190  13.545  0.00  0.00    -0.647 OA
ATOM     31  O22 RES d   1      19.654   1.968  14.592  0.00  0.00    -0.647 OA
ENDBRANCH  24  29
ENDBRANCH   3  19
TORSDOF 4
ENDMDL
MODEL 5
REMARK VINA RESULT:      -7.8      2.785      6.801
REMARK  4 active torsions:
REMARK  status: ('A' for Active; 'I' for Inactive)
REMARK    1  A    between atoms: C3_3  and  C4_4 
REMARK       I    between atoms: C4_4  and  N6_6 
REMARK    2  A    between atoms: N6_6  and  C7_7 
REMARK    3  A    between atoms: C18_16  and  C20_17 
REMARK    4  A    between atoms: C23_20  and  C24_21 
ROOT
ATOM      1  C4  RES d   1      19.203  -2.754  11.649  0.00  0.00     0.257 C 
ATOM      2  O5  RES d   1      20.346  -3.170  11.651  0.00  0.00    -0.267 OA
ATOM      3  N6  RES d   1      18.870  -1.693  12.411  0.00  0.00    -0.342 N 
ATOM      4  H37 RES d   1      17.958  -1.362  12.409  0.00  0.00     0.163 HD
ENDROOT
BRANCH   1   5
ATOM      5  C3  RES d   1      18.183  -3.411  10.815  0.00  0.00     0.095 A 
ATOM      6  C2  RES d   1      17.454  -4.543  11.085  0.00  0.00     0.093 A 
ATOM      7  C1  RES d   1      17.536  -5.390  12.328  0.00  0.00     0.080 C 
ATOM      8  O33 RES d   1      16.664  -4.747  10.029  0.00  0.00    -0.217 OA
ATOM      9  N32 RES d   1      16.792  -3.915   9.166  0.00  0.00    -0.127 NA
ATOM     10  C23 RES d   1      17.690  -3.014   9.479  0.00  0.00     0.116 A 
BRANCH  10  11
ATOM     11  C24 RES d   1      18.121  -1.850   8.668  0.00  0.00     0.039 A 
ATOM     12  C30 RES d   1      17.609  -0.581   8.941  0.00  0.00     0.048 A 
ATOM     13  C29 RES d   1      18.019   0.502   8.186  0.00  0.00     0.025 A 
ATOM     14 Cl31 RES d   1      16.471  -0.360  10.233  0.00  0.00    -0.083 Cl
ATOM     15  C28 RES d   1      18.924   0.327   7.156  0.00  0.00     0.003 A 
ATOM     16  C27 RES d   1      19.430  -0.930   6.877  0.00  0.00     0.025 A 
ATOM     17  C25 RES d   1      19.033  -2.020   7.628  0.00  0.00     0.048 A 
ATOM     18 Cl26 RES d   1      19.669  -3.596   7.277  0.00  0.00    -0.083 Cl
ENDBRANCH  10  11
ENDBRANCH   1   5
BRANCH   3  19
ATOM     19  C7  RES d   1      19.886  -1.040  13.241  0.00  0.00     0.199 C 
ATOM     20  C12 RES d   1      20.402   0.279  12.658  0.00  0.00     0.160 C 
ATOM     21  N11 RES d   1      19.655   0.958  13.742  0.00  0.00    -0.219 NA
ATOM     22  S14 RES d   1      19.582   0.811  11.109  0.00  0.00    -0.135 SA
ATOM     23  C9  RES d   1      19.309  -0.207  14.367  0.00  0.00     0.227 C 
ATOM     24  C18 RES d   1      18.551   1.809  13.288  0.00  0.00     0.186 C 
ATOM     25  O10 RES d   1      18.757  -0.472  15.414  0.00  0.00    -0.277 OA
ATOM     26  C15 RES d   1      18.838   2.328  11.844  0.00  0.00     0.029 C 
ATOM     27  C16 RES d   1      19.834   3.490  11.846  0.00  0.00     0.029 C 
ATOM     28  C17 RES d   1      17.542   2.713  11.130  0.00  0.00     0.029 C 
BRANCH  24  29
ATOM     29  C20 RES d   1      18.425   2.984  14.223  0.00  0.00     0.193 C 
ATOM     30  O21 RES d   1      17.479   3.746  14.119  0.00  0.00    -0.647 OA
ATOM     31  O22 RES d   1      19.267   3.172  15.083  0.00  0.00    -0.647 OA
ENDBRANCH  24  29
ENDBRANCH   3  19
TORSDOF 4
ENDMDL
MODEL 6
REMARK VINA RESULT:      -7.8      2.893      4.915
REMARK  4 active torsions:
REMARK  status: ('A' for Active; 'I' for Inactive)
REMARK    1  A    between atoms: C3_3  and  C4_4 
REMARK       I    between atoms: C4_4  and  N6_6 
REMARK    2  A    between atoms: N6_6  and  C7_7 
REMARK    3  A    between atoms: C18_16  and  C20_17 
REMARK    4  A    between atoms: C23_20  and  C24_21 
ROOT
ATOM      1  C4  RES d   1      17.854  -0.317  10.576  0.00  0.00     0.257 C 
ATOM      2  O5  RES d   1      16.745  -0.393  11.068  0.00  0.00    -0.267 OA
ATOM      3  N6  RES d   1      18.583  -1.434  10.380  0.00  0.00    -0.342 N 
ATOM      4  H37 RES d   1      19.469  -1.372   9.989  0.00  0.00     0.163 HD
ENDROOT
BRANCH   1   5
ATOM      5  C3  RES d   1      18.401   0.996  10.195  0.00  0.00     0.095 A 
ATOM      6  C2  RES d   1      18.661   1.483   8.938  0.00  0.00     0.093 A 
ATOM      7  C1  RES d   1      18.441   0.766   7.631  0.00  0.00     0.080 C 
ATOM      8  O33 RES d   1      19.153   2.714   9.101  0.00  0.00    -0.217 OA
ATOM      9  N32 RES d   1      19.223   3.052  10.256  0.00  0.00    -0.127 NA
ATOM     10  C23 RES d   1      18.805   2.116  11.071  0.00  0.00     0.116 A 
BRANCH  10  11
ATOM     11  C24 RES d   1      18.751   2.167  12.552  0.00  0.00     0.039 A 
ATOM     12  C30 RES d   1      17.933   3.100  13.189  0.00  0.00     0.048 A 
ATOM     13  C29 RES d   1      17.882   3.139  14.570  0.00  0.00     0.025 A 
ATOM     14 Cl31 RES d   1      16.973   4.201  12.252  0.00  0.00    -0.083 Cl
ATOM     15  C28 RES d   1      18.647   2.263  15.318  0.00  0.00     0.003 A 
ATOM     16  C27 RES d   1      19.464   1.339  14.692  0.00  0.00     0.025 A 
ATOM     17  C25 RES d   1      19.520   1.287  13.312  0.00  0.00     0.048 A 
ATOM     18 Cl26 RES d   1      20.546   0.127  12.527  0.00  0.00    -0.083 Cl
ENDBRANCH  10  11
ENDBRANCH   1   5
BRANCH   3  19
ATOM     19  C7  RES d   1      18.039  -2.739  10.760  0.00  0.00     0.199 C 
ATOM     20  C12 RES d   1      17.509  -3.553   9.575  0.00  0.00     0.160 C 
ATOM     21  N11 RES d   1      18.684  -4.437   9.759  0.00  0.00    -0.219 NA
ATOM     22  S14 RES d   1      17.753  -2.775   7.935  0.00  0.00    -0.135 SA
ATOM     23  C9  RES d   1      19.091  -3.819  10.909  0.00  0.00     0.227 C 
ATOM     24  C18 RES d   1      19.636  -4.436   8.644  0.00  0.00     0.186 C 
ATOM     25  O10 RES d   1      19.956  -4.045  11.728  0.00  0.00    -0.277 OA
ATOM     26  C15 RES d   1      18.898  -4.079   7.316  0.00  0.00     0.029 C 
ATOM     27  C16 RES d   1      18.126  -5.276   6.756  0.00  0.00     0.029 C 
ATOM     28  C17 RES d   1      19.872  -3.518   6.280  0.00  0.00     0.029 C 
BRANCH  24  29
ATOM     29  C20 RES d   1      20.245  -5.809   8.522  0.00  0.00     0.193 C 
ATOM     30  O21 RES d   1      19.645  -6.781   8.949  0.00  0.00    -0.647 OA
ATOM     31  O22 RES d   1      21.336  -5.947   7.997  0.00  0.00    -0.647 OA
ENDBRANCH  24  29
ENDBRANCH   3  19
TORSDOF 4
ENDMDL
MODEL 7
REMARK VINA RESULT:      -7.7      2.357      4.288
REMARK  4 active torsions:
REMARK  status: ('A' for Active; 'I' for Inactive)
REMARK    1  A    between atoms: C3_3  and  C4_4 
REMARK       I    between atoms: C4_4  and  N6_6 
REMARK    2  A    between atoms: N6_6  and  C7_7 
REMARK    3  A    between atoms: C18_16  and  C20_17 
REMARK    4  A    between atoms: C23_20  and  C24_21 
ROOT
ATOM      1  C4  RES d   1      17.993   3.254  14.016  0.00  0.00     0.257 C 
ATOM      2  O5  RES d   1      17.029   3.990  13.923  0.00  0.00    -0.267 OA
ATOM      3  N6  RES d   1      18.254   2.359  13.041  0.00  0.00    -0.342 N 
ATOM      4  H37 RES d   1      19.022   1.772  13.116  0.00  0.00     0.163 HD
ENDROOT
BRANCH   1   5
ATOM      5  C3  RES d   1      18.874   3.339  15.192  0.00  0.00     0.095 A 
ATOM      6  C2  RES d   1      19.627   4.403  15.623  0.00  0.00     0.093 A 
ATOM      7  C1  RES d   1      19.726   5.758  14.971  0.00  0.00     0.080 C 
ATOM      8  O33 RES d   1      20.259   4.000  16.727  0.00  0.00    -0.217 OA
ATOM      9  N32 RES d   1      20.002   2.864  17.038  0.00  0.00    -0.127 NA
ATOM     10  C23 RES d   1      19.166   2.301  16.203  0.00  0.00     0.116 A 
BRANCH  10  11
ATOM     11  C24 RES d   1      18.629   0.919  16.256  0.00  0.00     0.039 A 
ATOM     12  C30 RES d   1      17.713   0.563  17.246  0.00  0.00     0.048 A 
ATOM     13  C29 RES d   1      17.212  -0.724  17.288  0.00  0.00     0.025 A 
ATOM     14 Cl31 RES d   1      17.194   1.737  18.414  0.00  0.00    -0.083 Cl
ATOM     15  C28 RES d   1      17.626  -1.660  16.358  0.00  0.00     0.003 A 
ATOM     16  C27 RES d   1      18.538  -1.315  15.378  0.00  0.00     0.025 A 
ATOM     17  C25 RES d   1      19.043  -0.029  15.322  0.00  0.00     0.048 A 
ATOM     18 Cl26 RES d   1      20.188   0.403  14.091  0.00  0.00    -0.083 Cl
ENDBRANCH  10  11
ENDBRANCH   1   5
BRANCH   3  19
ATOM     19  C7  RES d   1      17.377   2.275  11.871  0.00  0.00     0.199 C 
ATOM     20  C12 RES d   1      18.128   2.063  10.553  0.00  0.00     0.160 C 
ATOM     21  N11 RES d   1      17.587   0.684  10.558  0.00  0.00    -0.219 NA
ATOM     22  S14 RES d   1      19.940   1.863  10.722  0.00  0.00    -0.135 SA
ATOM     23  C9  RES d   1      16.789   0.897  11.648  0.00  0.00     0.227 C 
ATOM     24  C18 RES d   1      18.596  -0.372  10.684  0.00  0.00     0.186 C 
ATOM     25  O10 RES d   1      15.942   0.240  12.215  0.00  0.00    -0.277 OA
ATOM     26  C15 RES d   1      19.960   0.125  10.111  0.00  0.00     0.029 C 
ATOM     27  C16 RES d   1      19.986   0.074   8.582  0.00  0.00     0.029 C 
ATOM     28  C17 RES d   1      21.127  -0.662  10.709  0.00  0.00     0.029 C 
BRANCH  24  29
ATOM     29  C20 RES d   1      18.139  -1.578   9.905  0.00  0.00     0.193 C 
ATOM     30  O21 RES d   1      18.489  -2.694  10.248  0.00  0.00    -0.647 OA
ATOM     31  O22 RES d   1      17.418  -1.438   8.932  0.00  0.00    -0.647 OA
ENDBRANCH  24  29
ENDBRANCH   3  19
TORSDOF 4
ENDMDL
MODEL 8
REMARK VINA RESULT:      -7.6      2.463      4.524
REMARK  4 active torsions:
REMARK  status: ('A' for Active; 'I' for Inactive)
REMARK    1  A    between atoms: C3_3  and  C4_4 
REMARK       I    between atoms: C4_4  and  N6_6 
REMARK    2  A    between atoms: N6_6  and  C7_7 
REMARK    3  A    between atoms: C18_16  and  C20_17 
REMARK    4  A    between atoms: C23_20  and  C24_21 
ROOT
ATOM      1  C4  RES d   1      19.249   2.583  11.033  0.00  0.00     0.257 C 
ATOM      2  O5  RES d   1      20.414   2.923  11.111  0.00  0.00    -0.267 OA
ATOM      3  N6  RES d   1      18.907   1.519  10.279  0.00  0.00    -0.342 N 
ATOM      4  H37 RES d   1      17.977   1.248  10.216  0.00  0.00     0.163 HD
ENDROOT
BRANCH   1   5
ATOM      5  C3  RES d   1      18.213   3.333  11.762  0.00  0.00     0.095 A 
ATOM      6  C2  RES d   1      17.490   4.423  11.343  0.00  0.00     0.093 A 
ATOM      7  C1  RES d   1      17.598   5.115  10.009  0.00  0.00     0.080 C 
ATOM      8  O33 RES d   1      16.679   4.752  12.351  0.00  0.00    -0.217 OA
ATOM      9  N32 RES d   1      16.789   4.029  13.310  0.00  0.00    -0.127 NA
ATOM     10  C23 RES d   1      17.692   3.099  13.125  0.00  0.00     0.116 A 
BRANCH  10  11
ATOM     11  C24 RES d   1      18.106   2.041  14.079  0.00  0.00     0.039 A 
ATOM     12  C30 RES d   1      17.651   0.733  13.911  0.00  0.00     0.048 A 
ATOM     13  C29 RES d   1      18.044  -0.250  14.799  0.00  0.00     0.025 A 
ATOM     14 Cl31 RES d   1      16.604   0.338  12.584  0.00  0.00    -0.083 Cl
ATOM     15  C28 RES d   1      18.877   0.063  15.857  0.00  0.00     0.003 A 
ATOM     16  C27 RES d   1      19.327   1.359  16.032  0.00  0.00     0.025 A 
ATOM     17  C25 RES d   1      18.945   2.350  15.147  0.00  0.00     0.048 A 
ATOM     18 Cl26 RES d   1      19.510   3.977  15.368  0.00  0.00    -0.083 Cl
ENDBRANCH  10  11
ENDBRANCH   1   5
BRANCH   3  19
ATOM     19  C7  RES d   1      19.938   0.773   9.554  0.00  0.00     0.199 C 
ATOM     20  C12 RES d   1      20.384  -0.509  10.263  0.00  0.00     0.160 C 
ATOM     21  N11 RES d   1      19.667  -1.252   9.201  0.00  0.00    -0.219 NA
ATOM     22  S14 RES d   1      19.475  -0.892  11.807  0.00  0.00    -0.135 SA
ATOM     23  C9  RES d   1      19.388  -0.131   8.469  0.00  0.00     0.227 C 
ATOM     24  C18 RES d   1      18.515  -2.031   9.665  0.00  0.00     0.186 C 
ATOM     25  O10 RES d   1      18.895   0.065   7.379  0.00  0.00    -0.277 OA
ATOM     26  C15 RES d   1      18.717  -2.441  11.158  0.00  0.00     0.029 C 
ATOM     27  C16 RES d   1      19.674  -3.628  11.296  0.00  0.00     0.029 C 
ATOM     28  C17 RES d   1      17.377  -2.731  11.834  0.00  0.00     0.029 C 
BRANCH  24  29
ATOM     29  C20 RES d   1      18.395  -3.273   8.820  0.00  0.00     0.193 C 
ATOM     30  O21 RES d   1      19.315  -3.607   8.094  0.00  0.00    -0.647 OA
ATOM     31  O22 RES d   1      17.378  -3.944   8.863  0.00  0.00    -0.647 OA
ENDBRANCH  24  29
ENDBRANCH   3  19
TORSDOF 4
ENDMDL
MODEL 9
REMARK VINA RESULT:      -7.5      3.434      7.462
REMARK  4 active torsions:
REMARK  status: ('A' for Active; 'I' for Inactive)
REMARK    1  A    between atoms: C3_3  and  C4_4 
REMARK       I    between atoms: C4_4  and  N6_6 
REMARK    2  A    between atoms: N6_6  and  C7_7 
REMARK    3  A    between atoms: C18_16  and  C20_17 
REMARK    4  A    between atoms: C23_20  and  C24_21 
ROOT
ATOM      1  C4  RES d   1      18.056  -3.453   9.356  0.00  0.00     0.257 C 
ATOM      2  O5  RES d   1      16.950  -3.958   9.333  0.00  0.00    -0.267 OA
ATOM      3  N6  RES d   1      18.369  -2.558  10.315  0.00  0.00    -0.342 N 
ATOM      4  H37 RES d   1      19.251  -2.155  10.332  0.00  0.00     0.163 HD
ENDROOT
BRANCH   1   5
ATOM      5  C3  RES d   1      19.053  -3.818   8.336  0.00  0.00     0.095 A 
ATOM      6  C2  RES d   1      19.827  -4.950   8.263  0.00  0.00     0.093 A 
ATOM      7  C1  RES d   1      19.832  -6.102   9.234  0.00  0.00     0.080 C 
ATOM      8  O33 RES d   1      20.579  -4.826   7.166  0.00  0.00    -0.217 OA
ATOM      9  N32 RES d   1      20.377  -3.803   6.560  0.00  0.00    -0.127 NA
ATOM     10  C23 RES d   1      19.469  -3.058   7.138  0.00  0.00     0.116 A 
BRANCH  10  11
ATOM     11  C24 RES d   1      18.967  -1.736   6.691  0.00  0.00     0.039 A 
ATOM     12  C30 RES d   1      19.252  -0.592   7.436  0.00  0.00     0.048 A 
ATOM     13  C29 RES d   1      18.787   0.638   7.012  0.00  0.00     0.025 A 
ATOM     14 Cl31 RES d   1      20.201  -0.710   8.885  0.00  0.00    -0.083 Cl
ATOM     15  C28 RES d   1      18.031   0.733   5.858  0.00  0.00     0.003 A 
ATOM     16  C27 RES d   1      17.739  -0.399   5.118  0.00  0.00     0.025 A 
ATOM     17  C25 RES d   1      18.204  -1.634   5.529  0.00  0.00     0.048 A 
ATOM     18 Cl26 RES d   1      17.837  -3.053   4.600  0.00  0.00    -0.083 Cl
ENDBRANCH  10  11
ENDBRANCH   1   5
BRANCH   3  19
ATOM     19  C7  RES d   1      17.376  -2.195  11.329  0.00  0.00     0.199 C 
ATOM     20  C12 RES d   1      17.988  -1.802  12.677  0.00  0.00     0.160 C 
ATOM     21  N11 RES d   1      17.588  -0.410  12.363  0.00  0.00    -0.219 NA
ATOM     22  S14 RES d   1      19.819  -1.773  12.713  0.00  0.00    -0.135 SA
ATOM     23  C9  RES d   1      16.903  -0.759  11.232  0.00  0.00     0.227 C 
ATOM     24  C18 RES d   1      18.703   0.526  12.189  0.00  0.00     0.186 C 
ATOM     25  O10 RES d   1      16.194  -0.155  10.455  0.00  0.00    -0.277 OA
ATOM     26  C15 RES d   1      19.938   0.040  13.012  0.00  0.00     0.029 C 
ATOM     27  C16 RES d   1      19.793   0.370  14.499  0.00  0.00     0.029 C 
ATOM     28  C17 RES d   1      21.236   0.615  12.443  0.00  0.00     0.029 C 
BRANCH  24  29
ATOM     29  C20 RES d   1      18.279   1.885  12.682  0.00  0.00     0.193 C 
ATOM     30  O21 RES d   1      17.409   1.981  13.531  0.00  0.00    -0.647 OA
ATOM     31  O22 RES d   1      18.805   2.888  12.233  0.00  0.00    -0.647 OA
ENDBRANCH  24  29
ENDBRANCH   3  19
TORSDOF 4
ENDMDL
