MODEL 1
REMARK VINA RESULT:      -6.7      0.000      0.000
REMARK  9 active torsions:
REMARK  status: ('A' for Active; 'I' for Inactive)
REMARK    1  A    between atoms: C2_2  and  C3_3 
REMARK       I    between atoms: C2_2  and  N18_18 
REMARK    2  A    between atoms: C3_3  and  C4_4 
REMARK    3  A    between atoms: C4_4  and  C5_5 
REMARK    4  A    between atoms: C5_5  and  C6_6 
REMARK    5  A    between atoms: C6_6  and  C7_7 
REMARK    6  A    between atoms: C7_7  and  C8_8 
REMARK    7  A    between atoms: C8_8  and  C9_9 
REMARK       I    between atoms: C9_9  and  N11_11 
REMARK    8  A    between atoms: N11_11  and  C12_12 
REMARK    9  A    between atoms: N18_18  and  O19_19 
ROOT
ATOM      1  C7  <0> d   1      18.459   2.451   9.789  0.00  0.00     0.009 C 
ENDROOT
BRANCH   1   2
ATOM      2  C6  <0> d   1      19.216   2.223   8.478  0.00  0.00     0.000 C 
BRANCH   2   3
ATOM      3  C5  <0> d   1      18.543   1.097   7.691  0.00  0.00     0.000 C 
BRANCH   3   4
ATOM      4  C4  <0> d   1      17.933   0.087   8.664  0.00  0.00     0.009 C 
BRANCH   4   5
ATOM      5  C3  <0> d   1      18.788  -1.181   8.687  0.00  0.00     0.105 C 
BRANCH   5   6
ATOM      6  C2  <0> d   1      19.657  -1.180   9.918  0.00  0.00     0.240 C 
ATOM      7  O1  <0> d   1      19.287  -1.752  10.921  0.00  0.00    -0.271 OA
ATOM      8  N18 <0> d   1      20.842  -0.539   9.905  0.00  0.00    -0.237 N 
ATOM      9  H38 <0> d   1      21.138  -0.081   9.103  0.00  0.00     0.197 HD
BRANCH   8  10
ATOM     10  O19 <0> d   1      21.656  -0.532  11.064  0.00  0.00    -0.287 OA
ATOM     11  H39 <0> d   1      22.558  -0.846  10.914  0.00  0.00     0.244 HD
ENDBRANCH   8  10
ENDBRANCH   5   6
ENDBRANCH   4   5
ENDBRANCH   3   4
ENDBRANCH   2   3
ENDBRANCH   1   2
BRANCH   1  12
ATOM     12  C8  <0> d   1      19.460   2.617  10.934  0.00  0.00     0.103 C 
BRANCH  12  13
ATOM     13  C9  <0> d   1      19.047   1.747  12.093  0.00  0.00     0.222 C 
ATOM     14  O10 <0> d   1      17.897   1.372  12.190  0.00  0.00    -0.273 OA
ATOM     15  N11 <0> d   1      19.954   1.386  13.022  0.00  0.00    -0.327 N 
ATOM     16  H32 <0> d   1      20.886   1.630  12.909  0.00  0.00     0.169 HD
BRANCH  15  17
ATOM     17  C12 <0> d   1      19.551   0.660  14.148  0.00  0.00     0.034 A 
ATOM     18  C17 <0> d   1      19.140   1.326  15.295  0.00  0.00     0.029 A 
ATOM     19  C16 <0> d   1      18.736   0.607  16.403  0.00  0.00     0.002 A 
ATOM     20  C15 <0> d   1      18.753  -0.776  16.374  0.00  0.00     0.000 A 
ATOM     21  C14 <0> d   1      19.169  -1.442  15.236  0.00  0.00     0.002 A 
ATOM     22  C13 <0> d   1      19.567  -0.728  14.123  0.00  0.00     0.029 A 
ENDBRANCH  15  17
ENDBRANCH  12  13
ENDBRANCH   1  12
TORSDOF 9
ENDMDL
MODEL 2
REMARK VINA RESULT:      -6.4      2.740      6.646
REMARK  9 active torsions:
REMARK  status: ('A' for Active; 'I' for Inactive)
REMARK    1  A    between atoms: C2_2  and  C3_3 
REMARK       I    between atoms: C2_2  and  N18_18 
REMARK    2  A    between atoms: C3_3  and  C4_4 
REMARK    3  A    between atoms: C4_4  and  C5_5 
REMARK    4  A    between atoms: C5_5  and  C6_6 
REMARK    5  A    between atoms: C6_6  and  C7_7 
REMARK    6  A    between atoms: C7_7  and  C8_8 
REMARK    7  A    between atoms: C8_8  and  C9_9 
REMARK       I    between atoms: C9_9  and  N11_11 
REMARK    8  A    between atoms: N11_11  and  C12_12 
REMARK    9  A    between atoms: N18_18  and  O19_19 
ROOT
ATOM      1  C7  <0> d   1      19.146  -1.258  14.323  0.00  0.00     0.009 C 
ENDROOT
BRANCH   1   2
ATOM      2  C6  <0> d   1      19.088  -1.362  15.849  0.00  0.00     0.000 C 
BRANCH   2   3
ATOM      3  C5  <0> d   1      17.641  -1.196  16.317  0.00  0.00     0.000 C 
BRANCH   3   4
ATOM      4  C4  <0> d   1      17.408   0.252  16.752  0.00  0.00     0.009 C 
BRANCH   4   5
ATOM      5  C3  <0> d   1      18.149   0.516  18.065  0.00  0.00     0.105 C 
BRANCH   5   6
ATOM      6  C2  <0> d   1      19.119   1.653  17.875  0.00  0.00     0.240 C 
ATOM      7  O1  <0> d   1      19.787   2.042  18.809  0.00  0.00    -0.271 OA
ATOM      8  N18 <0> d   1      19.240   2.241  16.669  0.00  0.00    -0.237 N 
ATOM      9  H38 <0> d   1      18.705   1.930  15.921  0.00  0.00     0.197 HD
BRANCH   8  10
ATOM     10  O19 <0> d   1      20.146   3.315  16.491  0.00  0.00    -0.287 OA
ATOM     11  H39 <0> d   1      19.997   3.826  15.684  0.00  0.00     0.244 HD
ENDBRANCH   8  10
ENDBRANCH   5   6
ENDBRANCH   4   5
ENDBRANCH   3   4
ENDBRANCH   2   3
ENDBRANCH   1   2
BRANCH   1  12
ATOM     12  C8  <0> d   1      19.936  -0.010  13.927  0.00  0.00     0.103 C 
BRANCH  12  13
ATOM     13  C9  <0> d   1      19.015   0.976  13.256  0.00  0.00     0.222 C 
ATOM     14  O10 <0> d   1      17.887   0.644  12.955  0.00  0.00    -0.273 OA
ATOM     15  N11 <0> d   1      19.444   2.225  12.988  0.00  0.00    -0.327 N 
ATOM     16  H32 <0> d   1      20.321   2.511  13.287  0.00  0.00     0.169 HD
BRANCH  15  17
ATOM     17  C12 <0> d   1      18.624   3.109  12.278  0.00  0.00     0.034 A 
ATOM     18  C17 <0> d   1      18.725   3.195  10.896  0.00  0.00     0.029 A 
ATOM     19  C16 <0> d   1      17.909   4.064  10.198  0.00  0.00     0.002 A 
ATOM     20  C15 <0> d   1      17.000   4.857  10.876  0.00  0.00     0.000 A 
ATOM     21  C14 <0> d   1      16.902   4.778  12.253  0.00  0.00     0.002 A 
ATOM     22  C13 <0> d   1      17.711   3.906  12.956  0.00  0.00     0.029 A 
ENDBRANCH  15  17
ENDBRANCH  12  13
ENDBRANCH   1  12
TORSDOF 9
ENDMDL
MODEL 3
REMARK VINA RESULT:      -6.4      2.291      4.354
REMARK  9 active torsions:
REMARK  status: ('A' for Active; 'I' for Inactive)
REMARK    1  A    between atoms: C2_2  and  C3_3 
REMARK       I    between atoms: C2_2  and  N18_18 
REMARK    2  A    between atoms: C3_3  and  C4_4 
REMARK    3  A    between atoms: C4_4  and  C5_5 
REMARK    4  A    between atoms: C5_5  and  C6_6 
REMARK    5  A    between atoms: C6_6  and  C7_7 
REMARK    6  A    between atoms: C7_7  and  C8_8 
REMARK    7  A    between atoms: C8_8  and  C9_9 
REMARK       I    between atoms: C9_9  and  N11_11 
REMARK    8  A    between atoms: N11_11  and  C12_12 
REMARK    9  A    between atoms: N18_18  and  O19_19 
ROOT
ATOM      1  C7  <0> d   1      18.489   1.269   8.692  0.00  0.00     0.009 C 
ENDROOT
BRANCH   1   2
ATOM      2  C6  <0> d   1      18.835   2.699   9.114  0.00  0.00     0.000 C 
BRANCH   2   3
ATOM      3  C5  <0> d   1      18.029   3.073  10.359  0.00  0.00     0.000 C 
BRANCH   3   4
ATOM      4  C4  <0> d   1      18.973   3.623  11.430  0.00  0.00     0.009 C 
BRANCH   4   5
ATOM      5  C3  <0> d   1      18.856   2.772  12.697  0.00  0.00     0.105 C 
BRANCH   5   6
ATOM      6  C2  <0> d   1      19.619   1.487  12.512  0.00  0.00     0.240 C 
ATOM      7  O1  <0> d   1      19.113   0.430  12.828  0.00  0.00    -0.271 OA
ATOM      8  N18 <0> d   1      20.865   1.510  12.000  0.00  0.00    -0.237 N 
ATOM      9  H38 <0> d   1      21.270   2.354  11.747  0.00  0.00     0.197 HD
BRANCH   8  10
ATOM     10  O19 <0> d   1      21.585   0.303  11.831  0.00  0.00    -0.287 OA
ATOM     11  H39 <0> d   1      21.424  -0.138  10.986  0.00  0.00     0.244 HD
ENDBRANCH   8  10
ENDBRANCH   5   6
ENDBRANCH   4   5
ENDBRANCH   3   4
ENDBRANCH   2   3
ENDBRANCH   1   2
BRANCH   1  12
ATOM     12  C8  <0> d   1      19.747   0.400   8.756  0.00  0.00     0.103 C 
BRANCH  12  13
ATOM     13  C9  <0> d   1      19.371  -0.998   9.175  0.00  0.00     0.222 C 
ATOM     14  O10 <0> d   1      19.135  -1.840   8.335  0.00  0.00    -0.273 OA
ATOM     15  N11 <0> d   1      19.296  -1.311  10.484  0.00  0.00    -0.327 N 
ATOM     16  H32 <0> d   1      19.549  -0.658  11.154  0.00  0.00     0.169 HD
BRANCH  15  17
ATOM     17  C12 <0> d   1      18.853  -2.580  10.875  0.00  0.00     0.034 A 
ATOM     18  C17 <0> d   1      17.501  -2.810  11.091  0.00  0.00     0.029 A 
ATOM     19  C16 <0> d   1      17.067  -4.065  11.471  0.00  0.00     0.002 A 
ATOM     20  C15 <0> d   1      17.980  -5.090  11.646  0.00  0.00     0.000 A 
ATOM     21  C14 <0> d   1      19.328  -4.862  11.437  0.00  0.00     0.002 A 
ATOM     22  C13 <0> d   1      19.767  -3.611  11.051  0.00  0.00     0.029 A 
ENDBRANCH  15  17
ENDBRANCH  12  13
ENDBRANCH   1  12
TORSDOF 9
ENDMDL
MODEL 4
REMARK VINA RESULT:      -6.2      2.395      2.874
REMARK  9 active torsions:
REMARK  status: ('A' for Active; 'I' for Inactive)
REMARK    1  A    between atoms: C2_2  and  C3_3 
REMARK       I    between atoms: C2_2  and  N18_18 
REMARK    2  A    between atoms: C3_3  and  C4_4 
REMARK    3  A    between atoms: C4_4  and  C5_5 
REMARK    4  A    between atoms: C5_5  and  C6_6 
REMARK    5  A    between atoms: C6_6  and  C7_7 
REMARK    6  A    between atoms: C7_7  and  C8_8 
REMARK    7  A    between atoms: C8_8  and  C9_9 
REMARK       I    between atoms: C9_9  and  N11_11 
REMARK    8  A    between atoms: N11_11  and  C12_12 
REMARK    9  A    between atoms: N18_18  and  O19_19 
ROOT
ATOM      1  C7  <0> d   1      18.362   2.659   9.979  0.00  0.00     0.009 C 
ENDROOT
BRANCH   1   2
ATOM      2  C6  <0> d   1      19.237   2.306   8.773  0.00  0.00     0.000 C 
BRANCH   2   3
ATOM      3  C5  <0> d   1      18.668   1.069   8.076  0.00  0.00     0.000 C 
BRANCH   3   4
ATOM      4  C4  <0> d   1      18.996   1.130   6.583  0.00  0.00     0.009 C 
BRANCH   4   5
ATOM      5  C3  <0> d   1      18.240   0.021   5.848  0.00  0.00     0.105 C 
BRANCH   5   6
ATOM      6  C2  <0> d   1      19.189  -1.101   5.519  0.00  0.00     0.240 C 
ATOM      7  O1  <0> d   1      19.923  -1.012   4.557  0.00  0.00    -0.271 OA
ATOM      8  N18 <0> d   1      19.219  -2.206   6.288  0.00  0.00    -0.237 N 
ATOM      9  H38 <0> d   1      18.631  -2.279   7.057  0.00  0.00     0.197 HD
BRANCH   8  10
ATOM     10  O19 <0> d   1      20.106  -3.265   5.975  0.00  0.00    -0.287 OA
ATOM     11  H39 <0> d   1      19.890  -4.102   6.409  0.00  0.00     0.244 HD
ENDBRANCH   8  10
ENDBRANCH   5   6
ENDBRANCH   4   5
ENDBRANCH   3   4
ENDBRANCH   2   3
ENDBRANCH   1   2
BRANCH   1  12
ATOM     12  C8  <0> d   1      19.233   2.740  11.234  0.00  0.00     0.103 C 
BRANCH  12  13
ATOM     13  C9  <0> d   1      18.826   1.657  12.200  0.00  0.00     0.222 C 
ATOM     14  O10 <0> d   1      17.922   0.900  11.915  0.00  0.00    -0.273 OA
ATOM     15  N11 <0> d   1      19.463   1.532  13.381  0.00  0.00    -0.327 N 
ATOM     16  H32 <0> d   1      20.228   2.094  13.580  0.00  0.00     0.169 HD
BRANCH  15  17
ATOM     17  C12 <0> d   1      19.022   0.591  14.318  0.00  0.00     0.034 A 
ATOM     18  C17 <0> d   1      19.597  -0.672  14.359  0.00  0.00     0.029 A 
ATOM     19  C16 <0> d   1      19.164  -1.596  15.289  0.00  0.00     0.002 A 
ATOM     20  C15 <0> d   1      18.150  -1.269  16.171  0.00  0.00     0.000 A 
ATOM     21  C14 <0> d   1      17.571  -0.014  16.128  0.00  0.00     0.002 A 
ATOM     22  C13 <0> d   1      18.005   0.917  15.204  0.00  0.00     0.029 A 
ENDBRANCH  15  17
ENDBRANCH  12  13
ENDBRANCH   1  12
TORSDOF 9
ENDMDL
MODEL 5
REMARK VINA RESULT:      -6.1      1.454      5.318
REMARK  9 active torsions:
REMARK  status: ('A' for Active; 'I' for Inactive)
REMARK    1  A    between atoms: C2_2  and  C3_3 
REMARK       I    between atoms: C2_2  and  N18_18 
REMARK    2  A    between atoms: C3_3  and  C4_4 
REMARK    3  A    between atoms: C4_4  and  C5_5 
REMARK    4  A    between atoms: C5_5  and  C6_6 
REMARK    5  A    between atoms: C6_6  and  C7_7 
REMARK    6  A    between atoms: C7_7  and  C8_8 
REMARK    7  A    between atoms: C8_8  and  C9_9 
REMARK       I    between atoms: C9_9  and  N11_11 
REMARK    8  A    between atoms: N11_11  and  C12_12 
REMARK    9  A    between atoms: N18_18  and  O19_19 
ROOT
ATOM      1  C7  <0> d   1      17.802   2.182  13.714  0.00  0.00     0.009 C 
ENDROOT
BRANCH   1   2
ATOM      2  C6  <0> d   1      18.410   1.214  14.732  0.00  0.00     0.000 C 
BRANCH   2   3
ATOM      3  C5  <0> d   1      17.903  -0.203  14.455  0.00  0.00     0.000 C 
BRANCH   3   4
ATOM      4  C4  <0> d   1      19.085  -1.106  14.098  0.00  0.00     0.009 C 
BRANCH   4   5
ATOM      5  C3  <0> d   1      18.703  -2.002  12.918  0.00  0.00     0.105 C 
BRANCH   5   6
ATOM      6  C2  <0> d   1      19.619  -1.719  11.755  0.00  0.00     0.240 C 
ATOM      7  O1  <0> d   1      19.453  -2.292  10.699  0.00  0.00    -0.271 OA
ATOM      8  N18 <0> d   1      20.625  -0.833  11.890  0.00  0.00    -0.237 N 
ATOM      9  H38 <0> d   1      20.758  -0.375  12.734  0.00  0.00     0.197 HD
BRANCH   8  10
ATOM     10  O19 <0> d   1      21.490  -0.571  10.800  0.00  0.00    -0.287 OA
ATOM     11  H39 <0> d   1      21.561   0.365  10.569  0.00  0.00     0.244 HD
ENDBRANCH   8  10
ENDBRANCH   5   6
ENDBRANCH   4   5
ENDBRANCH   3   4
ENDBRANCH   2   3
ENDBRANCH   1   2
BRANCH   1  12
ATOM     12  C8  <0> d   1      18.864   2.572  12.685  0.00  0.00     0.103 C 
BRANCH  12  13
ATOM     13  C9  <0> d   1      18.384   2.206  11.304  0.00  0.00     0.222 C 
ATOM     14  O10 <0> d   1      17.245   2.459  10.971  0.00  0.00    -0.273 OA
ATOM     15  N11 <0> d   1      19.219   1.595  10.440  0.00  0.00    -0.327 N 
ATOM     16  H32 <0> d   1      20.147   1.453  10.682  0.00  0.00     0.169 HD
BRANCH  15  17
ATOM     17  C12 <0> d   1      18.746   1.168   9.194  0.00  0.00     0.034 A 
ATOM     18  C17 <0> d   1      17.722   0.234   9.121  0.00  0.00     0.029 A 
ATOM     19  C16 <0> d   1      17.253  -0.180   7.890  0.00  0.00     0.002 A 
ATOM     20  C15 <0> d   1      17.812   0.325   6.730  0.00  0.00     0.000 A 
ATOM     21  C14 <0> d   1      18.837   1.251   6.800  0.00  0.00     0.002 A 
ATOM     22  C13 <0> d   1      19.306   1.674   8.028  0.00  0.00     0.029 A 
ENDBRANCH  15  17
ENDBRANCH  12  13
ENDBRANCH   1  12
TORSDOF 9
ENDMDL
MODEL 6
REMARK VINA RESULT:      -6.1      1.484      2.223
REMARK  9 active torsions:
REMARK  status: ('A' for Active; 'I' for Inactive)
REMARK    1  A    between atoms: C2_2  and  C3_3 
REMARK       I    between atoms: C2_2  and  N18_18 
REMARK    2  A    between atoms: C3_3  and  C4_4 
REMARK    3  A    between atoms: C4_4  and  C5_5 
REMARK    4  A    between atoms: C5_5  and  C6_6 
REMARK    5  A    between atoms: C6_6  and  C7_7 
REMARK    6  A    between atoms: C7_7  and  C8_8 
REMARK    7  A    between atoms: C8_8  and  C9_9 
REMARK       I    between atoms: C9_9  and  N11_11 
REMARK    8  A    between atoms: N11_11  and  C12_12 
REMARK    9  A    between atoms: N18_18  and  O19_19 
ROOT
ATOM      1  C7  <0> d   1      18.343   3.385  10.986  0.00  0.00     0.009 C 
ENDROOT
BRANCH   1   2
ATOM      2  C6  <0> d   1      18.469   3.231   9.469  0.00  0.00     0.000 C 
BRANCH   2   3
ATOM      3  C5  <0> d   1      19.333   2.010   9.150  0.00  0.00     0.000 C 
BRANCH   3   4
ATOM      4  C4  <0> d   1      18.466   0.927   8.503  0.00  0.00     0.009 C 
BRANCH   4   5
ATOM      5  C3  <0> d   1      18.764  -0.424   9.157  0.00  0.00     0.105 C 
BRANCH   5   6
ATOM      6  C2  <0> d   1      17.946  -0.564  10.414  0.00  0.00     0.240 C 
ATOM      7  O1  <0> d   1      18.335  -1.278  11.315  0.00  0.00    -0.271 OA
ATOM      8  N18 <0> d   1      16.779   0.098  10.537  0.00  0.00    -0.237 N 
ATOM      9  H38 <0> d   1      16.467   0.668   9.817  0.00  0.00     0.197 HD
BRANCH   8  10
ATOM     10  O19 <0> d   1      16.006  -0.039  11.715  0.00  0.00    -0.287 OA
ATOM     11  H39 <0> d   1      15.065  -0.193  11.554  0.00  0.00     0.244 HD
ENDBRANCH   8  10
ENDBRANCH   5   6
ENDBRANCH   4   5
ENDBRANCH   3   4
ENDBRANCH   2   3
ENDBRANCH   1   2
BRANCH   1  12
ATOM     12  C8  <0> d   1      19.495   2.648  11.671  0.00  0.00     0.103 C 
BRANCH  12  13
ATOM     13  C9  <0> d   1      18.964   1.866  12.845  0.00  0.00     0.222 C 
ATOM     14  O10 <0> d   1      17.769   1.800  13.039  0.00  0.00    -0.273 OA
ATOM     15  N11 <0> d   1      19.818   1.243  13.681  0.00  0.00    -0.327 N 
ATOM     16  H32 <0> d   1      20.769   1.240  13.489  0.00  0.00     0.169 HD
BRANCH  15  17
ATOM     17  C12 <0> d   1      19.332   0.599  14.825  0.00  0.00     0.034 A 
ATOM     18  C17 <0> d   1      19.104  -0.770  14.809  0.00  0.00     0.029 A 
ATOM     19  C16 <0> d   1      18.630  -1.404  15.941  0.00  0.00     0.002 A 
ATOM     20  C15 <0> d   1      18.373  -0.673  17.087  0.00  0.00     0.000 A 
ATOM     21  C14 <0> d   1      18.594   0.692  17.104  0.00  0.00     0.002 A 
ATOM     22  C13 <0> d   1      19.074   1.330  15.977  0.00  0.00     0.029 A 
ENDBRANCH  15  17
ENDBRANCH  12  13
ENDBRANCH   1  12
TORSDOF 9
ENDMDL
MODEL 7
REMARK VINA RESULT:      -6.1      3.040      7.321
REMARK  9 active torsions:
REMARK  status: ('A' for Active; 'I' for Inactive)
REMARK    1  A    between atoms: C2_2  and  C3_3 
REMARK       I    between atoms: C2_2  and  N18_18 
REMARK    2  A    between atoms: C3_3  and  C4_4 
REMARK    3  A    between atoms: C4_4  and  C5_5 
REMARK    4  A    between atoms: C5_5  and  C6_6 
REMARK    5  A    between atoms: C6_6  and  C7_7 
REMARK    6  A    between atoms: C7_7  and  C8_8 
REMARK    7  A    between atoms: C8_8  and  C9_9 
REMARK       I    between atoms: C9_9  and  N11_11 
REMARK    8  A    between atoms: N11_11  and  C12_12 
REMARK    9  A    between atoms: N18_18  and  O19_19 
ROOT
ATOM      1  C7  <0> d   1      19.437  -1.381  13.766  0.00  0.00     0.009 C 
ENDROOT
BRANCH   1   2
ATOM      2  C6  <0> d   1      19.075  -1.250  15.248  0.00  0.00     0.000 C 
BRANCH   2   3
ATOM      3  C5  <0> d   1      17.949  -0.227  15.409  0.00  0.00     0.000 C 
BRANCH   3   4
ATOM      4  C4  <0> d   1      17.354  -0.340  16.814  0.00  0.00     0.009 C 
BRANCH   4   5
ATOM      5  C3  <0> d   1      18.485  -0.397  17.843  0.00  0.00     0.105 C 
BRANCH   5   6
ATOM      6  C2  <0> d   1      18.697   0.972  18.434  0.00  0.00     0.240 C 
ATOM      7  O1  <0> d   1      19.801   1.474  18.420  0.00  0.00    -0.271 OA
ATOM      8  N18 <0> d   1      17.661   1.638  18.981  0.00  0.00    -0.237 N 
ATOM      9  H38 <0> d   1      16.778   1.237  18.993  0.00  0.00     0.197 HD
BRANCH   8  10
ATOM     10  O19 <0> d   1      17.861   2.923  19.542  0.00  0.00    -0.287 OA
ATOM     11  H39 <0> d   1      18.539   3.447  19.095  0.00  0.00     0.244 HD
ENDBRANCH   8  10
ENDBRANCH   5   6
ENDBRANCH   4   5
ENDBRANCH   3   4
ENDBRANCH   2   3
ENDBRANCH   1   2
BRANCH   1  12
ATOM     12  C8  <0> d   1      18.158  -1.532  12.940  0.00  0.00     0.103 C 
BRANCH  12  13
ATOM     13  C9  <0> d   1      18.436  -1.148  11.509  0.00  0.00     0.222 C 
ATOM     14  O10 <0> d   1      19.248  -1.774  10.861  0.00  0.00    -0.273 OA
ATOM     15  N11 <0> d   1      17.784  -0.109  10.951  0.00  0.00    -0.327 N 
ATOM     16  H32 <0> d   1      17.088   0.349  11.447  0.00  0.00     0.169 HD
BRANCH  15  17
ATOM     17  C12 <0> d   1      18.112   0.308   9.656  0.00  0.00     0.034 A 
ATOM     18  C17 <0> d   1      19.082   1.283   9.463  0.00  0.00     0.029 A 
ATOM     19  C16 <0> d   1      19.407   1.687   8.183  0.00  0.00     0.002 A 
ATOM     20  C15 <0> d   1      18.760   1.131   7.095  0.00  0.00     0.000 A 
ATOM     21  C14 <0> d   1      17.789   0.165   7.285  0.00  0.00     0.002 A 
ATOM     22  C13 <0> d   1      17.463  -0.249   8.562  0.00  0.00     0.029 A 
ENDBRANCH  15  17
ENDBRANCH  12  13
ENDBRANCH   1  12
TORSDOF 9
ENDMDL
MODEL 8
REMARK VINA RESULT:      -6.1      1.316      1.656
REMARK  9 active torsions:
REMARK  status: ('A' for Active; 'I' for Inactive)
REMARK    1  A    between atoms: C2_2  and  C3_3 
REMARK       I    between atoms: C2_2  and  N18_18 
REMARK    2  A    between atoms: C3_3  and  C4_4 
REMARK    3  A    between atoms: C4_4  and  C5_5 
REMARK    4  A    between atoms: C5_5  and  C6_6 
REMARK    5  A    between atoms: C6_6  and  C7_7 
REMARK    6  A    between atoms: C7_7  and  C8_8 
REMARK    7  A    between atoms: C8_8  and  C9_9 
REMARK       I    between atoms: C9_9  and  N11_11 
REMARK    8  A    between atoms: N11_11  and  C12_12 
REMARK    9  A    between atoms: N18_18  and  O19_19 
ROOT
ATOM      1  C7  <0> d   1      19.343   1.804   8.480  0.00  0.00     0.009 C 
ENDROOT
BRANCH   1   2
ATOM      2  C6  <0> d   1      18.578   1.042   7.396  0.00  0.00     0.000 C 
BRANCH   2   3
ATOM      3  C5  <0> d   1      17.746  -0.067   8.042  0.00  0.00     0.000 C 
BRANCH   3   4
ATOM      4  C4  <0> d   1      18.636  -1.281   8.313  0.00  0.00     0.009 C 
BRANCH   4   5
ATOM      5  C3  <0> d   1      18.378  -1.796   9.731  0.00  0.00     0.105 C 
BRANCH   5   6
ATOM      6  C2  <0> d   1      19.633  -1.656  10.553  0.00  0.00     0.240 C 
ATOM      7  O1  <0> d   1      19.773  -2.314  11.562  0.00  0.00    -0.271 OA
ATOM      8  N18 <0> d   1      20.597  -0.797  10.169  0.00  0.00    -0.237 N 
ATOM      9  H38 <0> d   1      20.486  -0.270   9.362  0.00  0.00     0.197 HD
BRANCH   8  10
ATOM     10  O19 <0> d   1      21.774  -0.659  10.945  0.00  0.00    -0.287 OA
ATOM     11  H39 <0> d   1      22.120  -1.494  11.288  0.00  0.00     0.244 HD
ENDBRANCH   8  10
ENDBRANCH   5   6
ENDBRANCH   4   5
ENDBRANCH   3   4
ENDBRANCH   2   3
ENDBRANCH   1   2
BRANCH   1  12
ATOM     12  C8  <0> d   1      18.349   2.475   9.430  0.00  0.00     0.103 C 
BRANCH  12  13
ATOM     13  C9  <0> d   1      18.611   2.013  10.840  0.00  0.00     0.222 C 
ATOM     14  O10 <0> d   1      19.743   1.757  11.194  0.00  0.00    -0.273 OA
ATOM     15  N11 <0> d   1      17.588   1.881  11.707  0.00  0.00    -0.327 N 
ATOM     16  H32 <0> d   1      16.693   2.148  11.445  0.00  0.00     0.169 HD
BRANCH  15  17
ATOM     17  C12 <0> d   1      17.817   1.360  12.986  0.00  0.00     0.034 A 
ATOM     18  C17 <0> d   1      18.163   2.206  14.031  0.00  0.00     0.029 A 
ATOM     19  C16 <0> d   1      18.382   1.689  15.293  0.00  0.00     0.002 A 
ATOM     20  C15 <0> d   1      18.268   0.328  15.513  0.00  0.00     0.000 A 
ATOM     21  C14 <0> d   1      17.929  -0.518  14.473  0.00  0.00     0.002 A 
ATOM     22  C13 <0> d   1      17.702  -0.006  13.210  0.00  0.00     0.029 A 
ENDBRANCH  15  17
ENDBRANCH  12  13
ENDBRANCH   1  12
TORSDOF 9
ENDMDL
MODEL 9
REMARK VINA RESULT:      -5.9      2.655      5.659
REMARK  9 active torsions:
REMARK  status: ('A' for Active; 'I' for Inactive)
REMARK    1  A    between atoms: C2_2  and  C3_3 
REMARK       I    between atoms: C2_2  and  N18_18 
REMARK    2  A    between atoms: C3_3  and  C4_4 
REMARK    3  A    between atoms: C4_4  and  C5_5 
REMARK    4  A    between atoms: C5_5  and  C6_6 
REMARK    5  A    between atoms: C6_6  and  C7_7 
REMARK    6  A    between atoms: C7_7  and  C8_8 
REMARK    7  A    between atoms: C8_8  and  C9_9 
REMARK       I    between atoms: C9_9  and  N11_11 
REMARK    8  A    between atoms: N11_11  and  C12_12 
REMARK    9  A    between atoms: N18_18  and  O19_19 
ROOT
ATOM      1  C7  <0> d   1      18.802   0.632   7.228  0.00  0.00     0.009 C 
ENDROOT
BRANCH   1   2
ATOM      2  C6  <0> d   1      19.336   1.828   8.020  0.00  0.00     0.000 C 
BRANCH   2   3
ATOM      3  C5  <0> d   1      18.403   2.120   9.196  0.00  0.00     0.000 C 
BRANCH   3   4
ATOM      4  C4  <0> d   1      19.229   2.552  10.408  0.00  0.00     0.009 C 
BRANCH   4   5
ATOM      5  C3  <0> d   1      18.941   1.615  11.583  0.00  0.00     0.105 C 
BRANCH   5   6
ATOM      6  C2  <0> d   1      20.129   0.719  11.815  0.00  0.00     0.240 C 
ATOM      7  O1  <0> d   1      20.551   0.550  12.939  0.00  0.00    -0.271 OA
ATOM      8  N18 <0> d   1      20.727   0.109  10.773  0.00  0.00    -0.237 N 
ATOM      9  H38 <0> d   1      20.390   0.244   9.873  0.00  0.00     0.197 HD
BRANCH   8  10
ATOM     10  O19 <0> d   1      21.849  -0.728  10.989  0.00  0.00    -0.287 OA
ATOM     11  H39 <0> d   1      22.093  -1.265  10.223  0.00  0.00     0.244 HD
ENDBRANCH   8  10
ENDBRANCH   5   6
ENDBRANCH   4   5
ENDBRANCH   3   4
ENDBRANCH   2   3
ENDBRANCH   1   2
BRANCH   1  12
ATOM     12  C8  <0> d   1      17.673  -0.036   8.014  0.00  0.00     0.103 C 
BRANCH  12  13
ATOM     13  C9  <0> d   1      18.114  -1.406   8.461  0.00  0.00     0.222 C 
ATOM     14  O10 <0> d   1      18.904  -1.520   9.375  0.00  0.00    -0.273 OA
ATOM     15  N11 <0> d   1      17.633  -2.504   7.846  0.00  0.00    -0.327 N 
ATOM     16  H32 <0> d   1      16.951  -2.416   7.162  0.00  0.00     0.169 HD
BRANCH  15  17
ATOM     17  C12 <0> d   1      18.115  -3.770   8.196  0.00  0.00     0.034 A 
ATOM     18  C17 <0> d   1      19.326  -4.219   7.686  0.00  0.00     0.029 A 
ATOM     19  C16 <0> d   1      19.802  -5.467   8.039  0.00  0.00     0.002 A 
ATOM     20  C15 <0> d   1      19.069  -6.273   8.889  0.00  0.00     0.000 A 
ATOM     21  C14 <0> d   1      17.859  -5.832   9.393  0.00  0.00     0.002 A 
ATOM     22  C13 <0> d   1      17.380  -4.582   9.050  0.00  0.00     0.029 A 
ENDBRANCH  15  17
ENDBRANCH  12  13
ENDBRANCH   1  12
TORSDOF 9
ENDMDL
