MODEL 1
REMARK VINA RESULT:      -7.5      0.000      0.000
REMARK  10 active torsions:
REMARK  status: ('A' for Active; 'I' for Inactive)
REMARK    1  A    between atoms: O2_2  and  C3_3 
REMARK    2  A    between atoms: C3_3  and  C4_4 
REMARK    3  A    between atoms: C4_4  and  O5_5 
REMARK    4  A    between atoms: O5_5  and  C6_6 
REMARK    5  A    between atoms: C6_6  and  C8_8 
REMARK    6  A    between atoms: C14_14  and  C15_15 
REMARK    7  A    between atoms: C15_15  and  O17_17 
REMARK    8  A    between atoms: O17_17  and  C18_18 
REMARK    9  A    between atoms: C21_21  and  C23_22 
REMARK   10  A    between atoms: C27_26  and  N28_27 
ROOT
ATOM      1  C8  ZIN A   1      19.123  -0.872  11.137  0.00  0.00     0.052 C 
ATOM      2  C9  ZIN A   1      18.205  -1.069  12.099  0.00  0.00     0.018 C 
ATOM      3  C10 ZIN A   1      18.054  -0.055  13.203  0.00  0.00     0.069 C 
ATOM      4  N11 ZIN A   1      17.408  -2.181  12.089  0.00  0.00    -0.362 N 
ATOM      5  C12 ZIN A   1      17.751  -3.271  11.337  0.00  0.00     0.018 C 
ATOM      6  C13 ZIN A   1      17.114  -4.605  11.626  0.00  0.00     0.069 C 
ATOM      7  C14 ZIN A   1      18.649  -3.165  10.342  0.00  0.00     0.052 C 
ATOM      8  C21 ZIN A   1      19.298  -1.850  10.010  0.00  0.00     0.101 C 
ATOM      9  H42 ZIN A   1      16.595  -2.197  12.619  0.00  0.00     0.165 HD
ENDROOT
BRANCH   8  10
ATOM     10  C23 ZIN A   1      18.676  -1.292   8.756  0.00  0.00    -0.042 A 
ATOM     11  C31 ZIN A   1      19.339  -1.400   7.547  0.00  0.00     0.044 A 
ATOM     12  C27 ZIN A   1      18.766  -0.892   6.397  0.00  0.00     0.103 A 
ATOM     13  C26 ZIN A   1      17.534  -0.268   6.455  0.00  0.00     0.036 A 
ATOM     14  C25 ZIN A   1      16.873  -0.156   7.664  0.00  0.00     0.003 A 
ATOM     15  C24 ZIN A   1      17.445  -0.667   8.815  0.00  0.00     0.008 A 
BRANCH  12  16
ATOM     16  N28 ZIN A   1      19.473  -1.014   5.102  0.00  0.00    -0.116 N 
ATOM     17  O29 ZIN A   1      19.739  -0.015   4.457  0.00  0.00    -0.532 OA
ATOM     18  O30 ZIN A   1      19.789  -2.112   4.682  0.00  0.00    -0.532 OA
ENDBRANCH  12  16
ENDBRANCH   8  10
BRANCH   1  19
ATOM     19  C6  ZIN A   1      19.936   0.284  11.183  0.00  0.00     0.292 C 
ATOM     20  O7  ZIN A   1      20.880   0.334  11.948  0.00  0.00    -0.259 OA
BRANCH  19  21
ATOM     21  O5  ZIN A   1      19.664   1.333  10.377  0.00  0.00    -0.316 OA
BRANCH  21  22
ATOM     22  C4  ZIN A   1      19.212   2.534  11.006  0.00  0.00     0.205 C 
BRANCH  22  23
ATOM     23  C3  ZIN A   1      17.969   3.052  10.280  0.00  0.00     0.193 C 
BRANCH  23  24
ATOM     24  O2  ZIN A   1      16.954   3.365  11.236  0.00  0.00    -0.394 OA
ATOM     25  C1  ZIN A   1      16.917   4.743  11.612  0.00  0.00     0.201 C 
ENDBRANCH  23  24
ENDBRANCH  22  23
ENDBRANCH  21  22
ENDBRANCH  19  21
ENDBRANCH   1  19
BRANCH   7  26
ATOM     26  C15 ZIN A   1      18.985  -4.314   9.589  0.00  0.00     0.292 C 
ATOM     27  O16 ZIN A   1      19.981  -4.955   9.868  0.00  0.00    -0.259 OA
BRANCH  26  28
ATOM     28  O17 ZIN A   1      18.200  -4.700   8.561  0.00  0.00    -0.313 OA
BRANCH  28  29
ATOM     29  C18 ZIN A   1      18.316  -6.058   8.131  0.00  0.00     0.124 C 
ATOM     30  C19 ZIN A   1      17.087  -6.845   8.590  0.00  0.00     0.040 C 
ATOM     31  C20 ZIN A   1      18.409  -6.103   6.605  0.00  0.00     0.040 C 
ENDBRANCH  28  29
ENDBRANCH  26  28
ENDBRANCH   7  26
TORSDOF 10
ENDMDL
MODEL 2
REMARK VINA RESULT:      -7.3      3.063      6.824
REMARK  10 active torsions:
REMARK  status: ('A' for Active; 'I' for Inactive)
REMARK    1  A    between atoms: O2_2  and  C3_3 
REMARK    2  A    between atoms: C3_3  and  C4_4 
REMARK    3  A    between atoms: C4_4  and  O5_5 
REMARK    4  A    between atoms: O5_5  and  C6_6 
REMARK    5  A    between atoms: C6_6  and  C8_8 
REMARK    6  A    between atoms: C14_14  and  C15_15 
REMARK    7  A    between atoms: C15_15  and  O17_17 
REMARK    8  A    between atoms: O17_17  and  C18_18 
REMARK    9  A    between atoms: C21_21  and  C23_22 
REMARK   10  A    between atoms: C27_26  and  N28_27 
ROOT
ATOM      1  C8  ZIN A   1      18.416  -1.306  12.019  0.00  0.00     0.052 C 
ATOM      2  C9  ZIN A   1      19.386  -2.103  12.500  0.00  0.00     0.018 C 
ATOM      3  C10 ZIN A   1      19.912  -3.231  11.652  0.00  0.00     0.069 C 
ATOM      4  N11 ZIN A   1      19.900  -1.902  13.752  0.00  0.00    -0.362 N 
ATOM      5  C12 ZIN A   1      19.219  -1.145  14.665  0.00  0.00     0.018 C 
ATOM      6  C13 ZIN A   1      19.568  -1.249  16.127  0.00  0.00     0.069 C 
ATOM      7  C14 ZIN A   1      18.243  -0.308  14.274  0.00  0.00     0.052 C 
ATOM      8  C21 ZIN A   1      17.872  -0.160  12.824  0.00  0.00     0.101 C 
ATOM      9  H42 ZIN A   1      20.752  -2.299  13.993  0.00  0.00     0.165 HD
ENDROOT
BRANCH   8  10
ATOM     10  C23 ZIN A   1      18.430   1.136  12.298  0.00  0.00    -0.042 A 
ATOM     11  C31 ZIN A   1      17.574   2.127  11.851  0.00  0.00     0.044 A 
ATOM     12  C27 ZIN A   1      18.087   3.318  11.373  0.00  0.00     0.103 A 
ATOM     13  C26 ZIN A   1      19.454   3.516  11.332  0.00  0.00     0.036 A 
ATOM     14  C25 ZIN A   1      20.309   2.525  11.774  0.00  0.00     0.003 A 
ATOM     15  C24 ZIN A   1      19.797   1.334  12.255  0.00  0.00     0.008 A 
BRANCH  12  16
ATOM     16  N28 ZIN A   1      17.171   4.381  10.901  0.00  0.00    -0.116 N 
ATOM     17  O29 ZIN A   1      17.406   4.972   9.862  0.00  0.00    -0.532 OA
ATOM     18  O30 ZIN A   1      16.180   4.664  11.551  0.00  0.00    -0.532 OA
ENDBRANCH  12  16
ENDBRANCH   8  10
BRANCH   1  19
ATOM     19  C6  ZIN A   1      17.903  -1.548  10.723  0.00  0.00     0.292 C 
ATOM     20  O7  ZIN A   1      17.044  -2.393  10.558  0.00  0.00    -0.259 OA
BRANCH  19  21
ATOM     21  O5  ZIN A   1      18.365  -0.840   9.671  0.00  0.00    -0.316 OA
BRANCH  21  22
ATOM     22  C4  ZIN A   1      17.406  -0.085   8.927  0.00  0.00     0.205 C 
BRANCH  22  23
ATOM     23  C3  ZIN A   1      17.602  -0.347   7.432  0.00  0.00     0.193 C 
BRANCH  23  24
ATOM     24  O2  ZIN A   1      18.526   0.604   6.899  0.00  0.00    -0.394 OA
ATOM     25  C1  ZIN A   1      19.026   0.265   5.604  0.00  0.00     0.201 C 
ENDBRANCH  23  24
ENDBRANCH  22  23
ENDBRANCH  21  22
ENDBRANCH  19  21
ENDBRANCH   1  19
BRANCH   7  26
ATOM     26  C15 ZIN A   1      17.555   0.455  15.246  0.00  0.00     0.292 C 
ATOM     27  O16 ZIN A   1      16.838  -0.098  16.059  0.00  0.00    -0.259 OA
BRANCH  26  28
ATOM     28  O17 ZIN A   1      17.694   1.798  15.273  0.00  0.00    -0.313 OA
BRANCH  28  29
ATOM     29  C18 ZIN A   1      18.971   2.310  15.655  0.00  0.00     0.124 C 
ATOM     30  C19 ZIN A   1      19.112   3.751  15.164  0.00  0.00     0.040 C 
ATOM     31  C20 ZIN A   1      19.099   2.276  17.180  0.00  0.00     0.040 C 
ENDBRANCH  28  29
ENDBRANCH  26  28
ENDBRANCH   7  26
TORSDOF 10
ENDMDL
MODEL 3
REMARK VINA RESULT:      -7.3      3.240      8.919
REMARK  10 active torsions:
REMARK  status: ('A' for Active; 'I' for Inactive)
REMARK    1  A    between atoms: O2_2  and  C3_3 
REMARK    2  A    between atoms: C3_3  and  C4_4 
REMARK    3  A    between atoms: C4_4  and  O5_5 
REMARK    4  A    between atoms: O5_5  and  C6_6 
REMARK    5  A    between atoms: C6_6  and  C8_8 
REMARK    6  A    between atoms: C14_14  and  C15_15 
REMARK    7  A    between atoms: C15_15  and  O17_17 
REMARK    8  A    between atoms: O17_17  and  C18_18 
REMARK    9  A    between atoms: C21_21  and  C23_22 
REMARK   10  A    between atoms: C27_26  and  N28_27 
ROOT
ATOM      1  C8  ZIN A   1      19.118   0.846  11.742  0.00  0.00     0.052 C 
ATOM      2  C9  ZIN A   1      18.170   1.004  10.802  0.00  0.00     0.018 C 
ATOM      3  C10 ZIN A   1      17.981  -0.057   9.748  0.00  0.00     0.069 C 
ATOM      4  N11 ZIN A   1      17.376   2.118  10.789  0.00  0.00    -0.362 N 
ATOM      5  C12 ZIN A   1      17.746   3.238  11.482  0.00  0.00     0.018 C 
ATOM      6  C13 ZIN A   1      17.104   4.561  11.156  0.00  0.00     0.069 C 
ATOM      7  C14 ZIN A   1      18.675   3.172  12.451  0.00  0.00     0.052 C 
ATOM      8  C21 ZIN A   1      19.332   1.870  12.819  0.00  0.00     0.101 C 
ATOM      9  H42 ZIN A   1      16.547   2.114  10.286  0.00  0.00     0.165 HD
ENDROOT
BRANCH   8  10
ATOM     10  C23 ZIN A   1      18.749   1.370  14.115  0.00  0.00    -0.042 A 
ATOM     11  C31 ZIN A   1      19.363   1.680  15.315  0.00  0.00     0.044 A 
ATOM     12  C27 ZIN A   1      18.825   1.224  16.504  0.00  0.00     0.103 A 
ATOM     13  C26 ZIN A   1      17.680   0.451  16.493  0.00  0.00     0.036 A 
ATOM     14  C25 ZIN A   1      17.069   0.137  15.294  0.00  0.00     0.003 A 
ATOM     15  C24 ZIN A   1      17.605   0.595  14.105  0.00  0.00     0.008 A 
BRANCH  12  16
ATOM     16  N28 ZIN A   1      19.478   1.562  17.788  0.00  0.00    -0.116 N 
ATOM     17  O29 ZIN A   1      19.963   0.680  18.476  0.00  0.00    -0.532 OA
ATOM     18  O30 ZIN A   1      19.533   2.721  18.158  0.00  0.00    -0.532 OA
ENDBRANCH  12  16
ENDBRANCH   8  10
BRANCH   1  19
ATOM     19  C6  ZIN A   1      19.926  -0.315  11.719  0.00  0.00     0.292 C 
ATOM     20  O7  ZIN A   1      20.978  -0.311  11.109  0.00  0.00    -0.259 OA
BRANCH  19  21
ATOM     21  O5  ZIN A   1      19.530  -1.426  12.376  0.00  0.00    -0.316 OA
BRANCH  21  22
ATOM     22  C4  ZIN A   1      19.721  -2.675  11.709  0.00  0.00     0.205 C 
BRANCH  22  23
ATOM     23  C3  ZIN A   1      18.415  -3.473  11.739  0.00  0.00     0.193 C 
BRANCH  23  24
ATOM     24  O2  ZIN A   1      17.912  -3.614  10.409  0.00  0.00    -0.394 OA
ATOM     25  C1  ZIN A   1      18.929  -3.649   9.405  0.00  0.00     0.201 C 
ENDBRANCH  23  24
ENDBRANCH  22  23
ENDBRANCH  21  22
ENDBRANCH  19  21
ENDBRANCH   1  19
BRANCH   7  26
ATOM     26  C15 ZIN A   1      19.039   4.352  13.142  0.00  0.00     0.292 C 
ATOM     27  O16 ZIN A   1      20.032   4.971  12.810  0.00  0.00    -0.259 OA
BRANCH  26  28
ATOM     28  O17 ZIN A   1      18.283   4.791  14.171  0.00  0.00    -0.313 OA
BRANCH  28  29
ATOM     29  C18 ZIN A   1      18.247   6.201  14.394  0.00  0.00     0.124 C 
ATOM     30  C19 ZIN A   1      16.821   6.715  14.184  0.00  0.00     0.040 C 
ATOM     31  C20 ZIN A   1      18.691   6.503  15.826  0.00  0.00     0.040 C 
ENDBRANCH  28  29
ENDBRANCH  26  28
ENDBRANCH   7  26
TORSDOF 10
ENDMDL
MODEL 4
REMARK VINA RESULT:      -7.3      1.570      6.111
REMARK  10 active torsions:
REMARK  status: ('A' for Active; 'I' for Inactive)
REMARK    1  A    between atoms: O2_2  and  C3_3 
REMARK    2  A    between atoms: C3_3  and  C4_4 
REMARK    3  A    between atoms: C4_4  and  O5_5 
REMARK    4  A    between atoms: O5_5  and  C6_6 
REMARK    5  A    between atoms: C6_6  and  C8_8 
REMARK    6  A    between atoms: C14_14  and  C15_15 
REMARK    7  A    between atoms: C15_15  and  O17_17 
REMARK    8  A    between atoms: O17_17  and  C18_18 
REMARK    9  A    between atoms: C21_21  and  C23_22 
REMARK   10  A    between atoms: C27_26  and  N28_27 
ROOT
ATOM      1  C8  ZIN A   1      18.337  -2.756  10.559  0.00  0.00     0.052 C 
ATOM      2  C9  ZIN A   1      19.586  -2.955  11.016  0.00  0.00     0.018 C 
ATOM      3  C10 ZIN A   1      20.085  -4.360  11.235  0.00  0.00     0.069 C 
ATOM      4  N11 ZIN A   1      20.409  -1.896  11.287  0.00  0.00    -0.362 N 
ATOM      5  C12 ZIN A   1      19.889  -0.640  11.446  0.00  0.00     0.018 C 
ATOM      6  C13 ZIN A   1      20.712   0.425  12.122  0.00  0.00     0.069 C 
ATOM      7  C14 ZIN A   1      18.654  -0.346  11.006  0.00  0.00     0.052 C 
ATOM      8  C21 ZIN A   1      17.804  -1.374  10.312  0.00  0.00     0.101 C 
ATOM      9  H42 ZIN A   1      21.366  -2.036  11.366  0.00  0.00     0.165 HD
ENDROOT
BRANCH   8  10
ATOM     10  C23 ZIN A   1      17.794  -1.094   8.832  0.00  0.00    -0.042 A 
ATOM     11  C31 ZIN A   1      18.662  -1.770   7.994  0.00  0.00     0.044 A 
ATOM     12  C27 ZIN A   1      18.649  -1.515   6.636  0.00  0.00     0.103 A 
ATOM     13  C26 ZIN A   1      17.776  -0.579   6.115  0.00  0.00     0.036 A 
ATOM     14  C25 ZIN A   1      16.911   0.100   6.953  0.00  0.00     0.003 A 
ATOM     15  C24 ZIN A   1      16.922  -0.157   8.312  0.00  0.00     0.008 A 
BRANCH  12  16
ATOM     16  N28 ZIN A   1      19.574  -2.243   5.738  0.00  0.00    -0.116 N 
ATOM     17  O29 ZIN A   1      20.038  -3.317   6.080  0.00  0.00    -0.532 OA
ATOM     18  O30 ZIN A   1      19.872  -1.769   4.656  0.00  0.00    -0.532 OA
ENDBRANCH  12  16
ENDBRANCH   8  10
BRANCH   1  19
ATOM     19  C6  ZIN A   1      17.512  -3.875  10.297  0.00  0.00     0.292 C 
ATOM     20  O7  ZIN A   1      16.630  -4.175  11.079  0.00  0.00    -0.259 OA
BRANCH  19  21
ATOM     21  O5  ZIN A   1      17.702  -4.607   9.180  0.00  0.00    -0.316 OA
BRANCH  21  22
ATOM     22  C4  ZIN A   1      17.177  -5.937   9.179  0.00  0.00     0.205 C 
BRANCH  22  23
ATOM     23  C3  ZIN A   1      17.000  -6.413   7.736  0.00  0.00     0.193 C 
BRANCH  23  24
ATOM     24  O2  ZIN A   1      15.719  -6.002   7.252  0.00  0.00    -0.394 OA
ATOM     25  C1  ZIN A   1      14.695  -6.001   8.248  0.00  0.00     0.201 C 
ENDBRANCH  23  24
ENDBRANCH  22  23
ENDBRANCH  21  22
ENDBRANCH  19  21
ENDBRANCH   1  19
BRANCH   7  26
ATOM     26  C15 ZIN A   1      18.146   0.961  11.194  0.00  0.00     0.292 C 
ATOM     27  O16 ZIN A   1      17.176   1.141  11.906  0.00  0.00    -0.259 OA
BRANCH  26  28
ATOM     28  O17 ZIN A   1      18.739   2.009  10.583  0.00  0.00    -0.313 OA
BRANCH  28  29
ATOM     29  C18 ZIN A   1      18.412   3.312  11.069  0.00  0.00     0.124 C 
ATOM     30  C19 ZIN A   1      19.628   3.913  11.775  0.00  0.00     0.040 C 
ATOM     31  C20 ZIN A   1      18.010   4.208   9.896  0.00  0.00     0.040 C 
ENDBRANCH  28  29
ENDBRANCH  26  28
ENDBRANCH   7  26
TORSDOF 10
ENDMDL
MODEL 5
REMARK VINA RESULT:      -7.3      2.432      5.322
REMARK  10 active torsions:
REMARK  status: ('A' for Active; 'I' for Inactive)
REMARK    1  A    between atoms: O2_2  and  C3_3 
REMARK    2  A    between atoms: C3_3  and  C4_4 
REMARK    3  A    between atoms: C4_4  and  O5_5 
REMARK    4  A    between atoms: O5_5  and  C6_6 
REMARK    5  A    between atoms: C6_6  and  C8_8 
REMARK    6  A    between atoms: C14_14  and  C15_15 
REMARK    7  A    between atoms: C15_15  and  O17_17 
REMARK    8  A    between atoms: O17_17  and  C18_18 
REMARK    9  A    between atoms: C21_21  and  C23_22 
REMARK   10  A    between atoms: C27_26  and  N28_27 
ROOT
ATOM      1  C8  ZIN A   1      18.405   1.076  11.039  0.00  0.00     0.052 C 
ATOM      2  C9  ZIN A   1      19.365   1.881  10.551  0.00  0.00     0.018 C 
ATOM      3  C10 ZIN A   1      19.912   2.993  11.408  0.00  0.00     0.069 C 
ATOM      4  N11 ZIN A   1      19.850   1.703   9.284  0.00  0.00    -0.362 N 
ATOM      5  C12 ZIN A   1      19.147   0.963   8.373  0.00  0.00     0.018 C 
ATOM      6  C13 ZIN A   1      19.463   1.094   6.906  0.00  0.00     0.069 C 
ATOM      7  C14 ZIN A   1      18.180   0.120   8.771  0.00  0.00     0.052 C 
ATOM      8  C21 ZIN A   1      17.842  -0.054  10.226  0.00  0.00     0.101 C 
ATOM      9  H42 ZIN A   1      20.697   2.104   9.031  0.00  0.00     0.165 HD
ENDROOT
BRANCH   8  10
ATOM     10  C23 ZIN A   1      18.410  -1.361  10.715  0.00  0.00    -0.042 A 
ATOM     11  C31 ZIN A   1      17.567  -2.420  10.996  0.00  0.00     0.044 A 
ATOM     12  C27 ZIN A   1      18.089  -3.620  11.441  0.00  0.00     0.103 A 
ATOM     13  C26 ZIN A   1      19.453  -3.759  11.613  0.00  0.00     0.036 A 
ATOM     14  C25 ZIN A   1      20.296  -2.699  11.337  0.00  0.00     0.003 A 
ATOM     15  C24 ZIN A   1      19.774  -1.499  10.889  0.00  0.00     0.008 A 
BRANCH  12  16
ATOM     16  N28 ZIN A   1      17.187  -4.755  11.735  0.00  0.00    -0.116 N 
ATOM     17  O29 ZIN A   1      17.404  -5.475  12.694  0.00  0.00    -0.532 OA
ATOM     18  O30 ZIN A   1      16.225  -4.971  11.019  0.00  0.00    -0.532 OA
ENDBRANCH  12  16
ENDBRANCH   8  10
BRANCH   1  19
ATOM     19  C6  ZIN A   1      17.922   1.294  12.351  0.00  0.00     0.292 C 
ATOM     20  O7  ZIN A   1      16.939   1.988  12.528  0.00  0.00    -0.259 OA
BRANCH  19  21
ATOM     21  O5  ZIN A   1      18.550   0.732  13.404  0.00  0.00    -0.316 OA
BRANCH  21  22
ATOM     22  C4  ZIN A   1      17.844  -0.292  14.108  0.00  0.00     0.205 C 
BRANCH  22  23
ATOM     23  C3  ZIN A   1      18.844  -1.306  14.670  0.00  0.00     0.193 C 
BRANCH  23  24
ATOM     24  O2  ZIN A   1      18.504  -1.610  16.024  0.00  0.00    -0.394 OA
ATOM     25  C1  ZIN A   1      17.420  -0.833  16.539  0.00  0.00     0.201 C 
ENDBRANCH  23  24
ENDBRANCH  22  23
ENDBRANCH  21  22
ENDBRANCH  19  21
ENDBRANCH   1  19
BRANCH   7  26
ATOM     26  C15 ZIN A   1      17.469  -0.624   7.800  0.00  0.00     0.292 C 
ATOM     27  O16 ZIN A   1      16.664  -0.070   7.076  0.00  0.00    -0.259 OA
BRANCH  26  28
ATOM     28  O17 ZIN A   1      17.684  -1.951   7.678  0.00  0.00    -0.313 OA
BRANCH  28  29
ATOM     29  C18 ZIN A   1      18.995  -2.363   7.285  0.00  0.00     0.124 C 
ATOM     30  C19 ZIN A   1      19.288  -3.749   7.859  0.00  0.00     0.040 C 
ATOM     31  C20 ZIN A   1      19.077  -2.415   5.759  0.00  0.00     0.040 C 
ENDBRANCH  28  29
ENDBRANCH  26  28
ENDBRANCH   7  26
TORSDOF 10
ENDMDL
MODEL 6
REMARK VINA RESULT:      -7.0      1.919      5.010
REMARK  10 active torsions:
REMARK  status: ('A' for Active; 'I' for Inactive)
REMARK    1  A    between atoms: O2_2  and  C3_3 
REMARK    2  A    between atoms: C3_3  and  C4_4 
REMARK    3  A    between atoms: C4_4  and  O5_5 
REMARK    4  A    between atoms: O5_5  and  C6_6 
REMARK    5  A    between atoms: C6_6  and  C8_8 
REMARK    6  A    between atoms: C14_14  and  C15_15 
REMARK    7  A    between atoms: C15_15  and  O17_17 
REMARK    8  A    between atoms: O17_17  and  C18_18 
REMARK    9  A    between atoms: C21_21  and  C23_22 
REMARK   10  A    between atoms: C27_26  and  N28_27 
ROOT
ATOM      1  C8  ZIN A   1      18.179  -1.332   6.968  0.00  0.00     0.052 C 
ATOM      2  C9  ZIN A   1      19.096  -1.745   6.076  0.00  0.00     0.018 C 
ATOM      3  C10 ZIN A   1      19.424  -0.876   4.889  0.00  0.00     0.069 C 
ATOM      4  N11 ZIN A   1      19.734  -2.945   6.232  0.00  0.00    -0.362 N 
ATOM      5  C12 ZIN A   1      19.219  -3.898   7.067  0.00  0.00     0.018 C 
ATOM      6  C13 ZIN A   1      19.679  -5.327   6.940  0.00  0.00     0.069 C 
ATOM      7  C14 ZIN A   1      18.308  -3.574   8.001  0.00  0.00     0.052 C 
ATOM      8  C21 ZIN A   1      17.832  -2.158   8.174  0.00  0.00     0.101 C 
ATOM      9  H42 ZIN A   1      20.556  -3.121   5.748  0.00  0.00     0.165 HD
ENDROOT
BRANCH   8  10
ATOM     10  C23 ZIN A   1      18.477  -1.563   9.397  0.00  0.00    -0.042 A 
ATOM     11  C31 ZIN A   1      17.695  -1.146  10.459  0.00  0.00     0.044 A 
ATOM     12  C27 ZIN A   1      18.288  -0.604  11.583  0.00  0.00     0.103 A 
ATOM     13  C26 ZIN A   1      19.662  -0.470  11.644  0.00  0.00     0.036 A 
ATOM     14  C25 ZIN A   1      20.444  -0.882  10.581  0.00  0.00     0.003 A 
ATOM     15  C24 ZIN A   1      19.851  -1.428   9.458  0.00  0.00     0.008 A 
BRANCH  12  16
ATOM     16  N28 ZIN A   1      17.451  -0.163  12.721  0.00  0.00    -0.116 N 
ATOM     17  O29 ZIN A   1      17.667  -0.594  13.840  0.00  0.00    -0.532 OA
ATOM     18  O30 ZIN A   1      16.546   0.632  12.540  0.00  0.00    -0.532 OA
ENDBRANCH  12  16
ENDBRANCH   8  10
BRANCH   1  19
ATOM     19  C6  ZIN A   1      17.533  -0.089   6.771  0.00  0.00     0.292 C 
ATOM     20  O7  ZIN A   1      16.790   0.065   5.821  0.00  0.00    -0.259 OA
BRANCH  19  21
ATOM     21  O5  ZIN A   1      17.741   0.924   7.637  0.00  0.00    -0.316 OA
BRANCH  21  22
ATOM     22  C4  ZIN A   1      19.023   1.554   7.602  0.00  0.00     0.205 C 
BRANCH  22  23
ATOM     23  C3  ZIN A   1      19.290   2.241   8.943  0.00  0.00     0.193 C 
BRANCH  23  24
ATOM     24  O2  ZIN A   1      18.085   2.271   9.711  0.00  0.00    -0.394 OA
ATOM     25  C1  ZIN A   1      18.044   3.313  10.687  0.00  0.00     0.201 C 
ENDBRANCH  23  24
ENDBRANCH  22  23
ENDBRANCH  21  22
ENDBRANCH  19  21
ENDBRANCH   1  19
BRANCH   7  26
ATOM     26  C15 ZIN A   1      17.791  -4.587   8.843  0.00  0.00     0.292 C 
ATOM     27  O16 ZIN A   1      16.645  -4.969   8.704  0.00  0.00    -0.259 OA
BRANCH  26  28
ATOM     28  O17 ZIN A   1      18.572  -5.131   9.801  0.00  0.00    -0.313 OA
BRANCH  28  29
ATOM     29  C18 ZIN A   1      18.504  -4.546  11.102  0.00  0.00     0.124 C 
ATOM     30  C19 ZIN A   1      17.694  -5.454  12.029  0.00  0.00     0.040 C 
ATOM     31  C20 ZIN A   1      19.918  -4.378  11.661  0.00  0.00     0.040 C 
ENDBRANCH  28  29
ENDBRANCH  26  28
ENDBRANCH   7  26
TORSDOF 10
ENDMDL
MODEL 7
REMARK VINA RESULT:      -6.9      2.379      3.618
REMARK  10 active torsions:
REMARK  status: ('A' for Active; 'I' for Inactive)
REMARK    1  A    between atoms: O2_2  and  C3_3 
REMARK    2  A    between atoms: C3_3  and  C4_4 
REMARK    3  A    between atoms: C4_4  and  O5_5 
REMARK    4  A    between atoms: O5_5  and  C6_6 
REMARK    5  A    between atoms: C6_6  and  C8_8 
REMARK    6  A    between atoms: C14_14  and  C15_15 
REMARK    7  A    between atoms: C15_15  and  O17_17 
REMARK    8  A    between atoms: O17_17  and  C18_18 
REMARK    9  A    between atoms: C21_21  and  C23_22 
REMARK   10  A    between atoms: C27_26  and  N28_27 
ROOT
ATOM      1  C8  ZIN A   1      18.508  -4.058  10.051  0.00  0.00     0.052 C 
ATOM      2  C9  ZIN A   1      17.409  -4.608  10.595  0.00  0.00     0.018 C 
ATOM      3  C10 ZIN A   1      17.258  -4.643  12.094  0.00  0.00     0.069 C 
ATOM      4  N11 ZIN A   1      16.426  -5.136   9.804  0.00  0.00    -0.362 N 
ATOM      5  C12 ZIN A   1      16.682  -5.445   8.496  0.00  0.00     0.018 C 
ATOM      6  C13 ZIN A   1      15.755  -6.373   7.755  0.00  0.00     0.069 C 
ATOM      7  C14 ZIN A   1      17.751  -4.930   7.865  0.00  0.00     0.052 C 
ATOM      8  C21 ZIN A   1      18.694  -3.988   8.562  0.00  0.00     0.101 C 
ATOM      9  H42 ZIN A   1      15.542  -5.294  10.173  0.00  0.00     0.165 HD
ENDROOT
BRANCH   8  10
ATOM     10  C23 ZIN A   1      18.434  -2.582   8.086  0.00  0.00    -0.042 A 
ATOM     11  C31 ZIN A   1      19.067  -2.108   6.952  0.00  0.00     0.044 A 
ATOM     12  C27 ZIN A   1      18.825  -0.820   6.514  0.00  0.00     0.103 A 
ATOM     13  C26 ZIN A   1      17.957  -0.003   7.213  0.00  0.00     0.036 A 
ATOM     14  C25 ZIN A   1      17.327  -0.476   8.349  0.00  0.00     0.003 A 
ATOM     15  C24 ZIN A   1      17.566  -1.765   8.786  0.00  0.00     0.008 A 
BRANCH  12  16
ATOM     16  N28 ZIN A   1      19.498  -0.314   5.297  0.00  0.00    -0.116 N 
ATOM     17  O29 ZIN A   1      19.573   0.886   5.095  0.00  0.00    -0.532 OA
ATOM     18  O30 ZIN A   1      19.979  -1.096   4.497  0.00  0.00    -0.532 OA
ENDBRANCH  12  16
ENDBRANCH   8  10
BRANCH   1  19
ATOM     19  C6  ZIN A   1      19.508  -3.528  10.899  0.00  0.00     0.292 C 
ATOM     20  O7  ZIN A   1      20.299  -4.273  11.446  0.00  0.00    -0.259 OA
BRANCH  19  21
ATOM     21  O5  ZIN A   1      19.585  -2.196  11.101  0.00  0.00    -0.316 OA
BRANCH  21  22
ATOM     22  C4  ZIN A   1      19.349  -1.727  12.431  0.00  0.00     0.205 C 
BRANCH  22  23
ATOM     23  C3  ZIN A   1      17.961  -1.088  12.506  0.00  0.00     0.193 C 
BRANCH  23  24
ATOM     24  O2  ZIN A   1      17.725  -0.618  13.835  0.00  0.00    -0.394 OA
ATOM     25  C1  ZIN A   1      18.550  -1.236  14.824  0.00  0.00     0.201 C 
ENDBRANCH  23  24
ENDBRANCH  22  23
ENDBRANCH  21  22
ENDBRANCH  19  21
ENDBRANCH   1  19
BRANCH   7  26
ATOM     26  C15 ZIN A   1      17.989  -5.276   6.514  0.00  0.00     0.292 C 
ATOM     27  O16 ZIN A   1      18.960  -5.948   6.220  0.00  0.00    -0.259 OA
BRANCH  26  28
ATOM     28  O17 ZIN A   1      17.139  -4.861   5.551  0.00  0.00    -0.313 OA
BRANCH  28  29
ATOM     29  C18 ZIN A   1      17.719  -4.354   4.349  0.00  0.00     0.124 C 
ATOM     30  C19 ZIN A   1      17.470  -5.339   3.206  0.00  0.00     0.040 C 
ATOM     31  C20 ZIN A   1      17.084  -3.005   4.006  0.00  0.00     0.040 C 
ENDBRANCH  28  29
ENDBRANCH  26  28
ENDBRANCH   7  26
TORSDOF 10
ENDMDL
MODEL 8
REMARK VINA RESULT:      -6.5      2.563      4.560
REMARK  10 active torsions:
REMARK  status: ('A' for Active; 'I' for Inactive)
REMARK    1  A    between atoms: O2_2  and  C3_3 
REMARK    2  A    between atoms: C3_3  and  C4_4 
REMARK    3  A    between atoms: C4_4  and  O5_5 
REMARK    4  A    between atoms: O5_5  and  C6_6 
REMARK    5  A    between atoms: C6_6  and  C8_8 
REMARK    6  A    between atoms: C14_14  and  C15_15 
REMARK    7  A    between atoms: C15_15  and  O17_17 
REMARK    8  A    between atoms: O17_17  and  C18_18 
REMARK    9  A    between atoms: C21_21  and  C23_22 
REMARK   10  A    between atoms: C27_26  and  N28_27 
ROOT
ATOM      1  C8  ZIN A   1      18.696  -3.890  10.637  0.00  0.00     0.052 C 
ATOM      2  C9  ZIN A   1      17.592  -4.639  10.808  0.00  0.00     0.018 C 
ATOM      3  C10 ZIN A   1      17.209  -5.097  12.191  0.00  0.00     0.069 C 
ATOM      4  N11 ZIN A   1      16.814  -4.991   9.740  0.00  0.00    -0.362 N 
ATOM      5  C12 ZIN A   1      17.309  -4.909   8.467  0.00  0.00     0.018 C 
ATOM      6  C13 ZIN A   1      16.622  -5.654   7.352  0.00  0.00     0.069 C 
ATOM      7  C14 ZIN A   1      18.399  -4.171   8.199  0.00  0.00     0.052 C 
ATOM      8  C21 ZIN A   1      19.107  -3.399   9.279  0.00  0.00     0.101 C 
ATOM      9  H42 ZIN A   1      15.906  -5.301   9.885  0.00  0.00     0.165 HD
ENDROOT
BRANCH   8  10
ATOM     10  C23 ZIN A   1      18.770  -1.937   9.147  0.00  0.00    -0.042 A 
ATOM     11  C31 ZIN A   1      17.961  -1.326  10.088  0.00  0.00     0.044 A 
ATOM     12  C27 ZIN A   1      17.655   0.016   9.968  0.00  0.00     0.103 A 
ATOM     13  C26 ZIN A   1      18.150   0.746   8.905  0.00  0.00     0.036 A 
ATOM     14  C25 ZIN A   1      18.955   0.135   7.962  0.00  0.00     0.003 A 
ATOM     15  C24 ZIN A   1      19.264  -1.207   8.083  0.00  0.00     0.008 A 
BRANCH  12  16
ATOM     16  N28 ZIN A   1      16.794   0.671  10.979  0.00  0.00    -0.116 N 
ATOM     17  O29 ZIN A   1      17.004   1.827  11.301  0.00  0.00    -0.532 OA
ATOM     18  O30 ZIN A   1      15.875   0.055  11.487  0.00  0.00    -0.532 OA
ENDBRANCH  12  16
ENDBRANCH   8  10
BRANCH   1  19
ATOM     19  C6  ZIN A   1      19.482  -3.552  11.764  0.00  0.00     0.292 C 
ATOM     20  O7  ZIN A   1      20.654  -3.872  11.805  0.00  0.00    -0.259 OA
BRANCH  19  21
ATOM     21  O5  ZIN A   1      18.931  -2.872  12.791  0.00  0.00    -0.316 OA
BRANCH  21  22
ATOM     22  C4  ZIN A   1      19.604  -1.685  13.218  0.00  0.00     0.205 C 
BRANCH  22  23
ATOM     23  C3  ZIN A   1      18.598  -0.740  13.879  0.00  0.00     0.193 C 
BRANCH  23  24
ATOM     24  O2  ZIN A   1      19.063  -0.388  15.184  0.00  0.00    -0.394 OA
ATOM     25  C1  ZIN A   1      18.812  -1.383  16.178  0.00  0.00     0.201 C 
ENDBRANCH  23  24
ENDBRANCH  22  23
ENDBRANCH  21  22
ENDBRANCH  19  21
ENDBRANCH   1  19
BRANCH   7  26
ATOM     26  C15 ZIN A   1      18.887  -4.114   6.873  0.00  0.00     0.292 C 
ATOM     27  O16 ZIN A   1      19.926  -4.677   6.581  0.00  0.00    -0.259 OA
BRANCH  26  28
ATOM     28  O17 ZIN A   1      18.200  -3.435   5.930  0.00  0.00    -0.313 OA
BRANCH  28  29
ATOM     29  C18 ZIN A   1      18.872  -3.180   4.695  0.00  0.00     0.124 C 
ATOM     30  C19 ZIN A   1      18.112  -3.853   3.552  0.00  0.00     0.040 C 
ATOM     31  C20 ZIN A   1      18.932  -1.672   4.449  0.00  0.00     0.040 C 
ENDBRANCH  28  29
ENDBRANCH  26  28
ENDBRANCH   7  26
TORSDOF 10
ENDMDL
MODEL 9
REMARK VINA RESULT:      -6.4      2.307      5.154
REMARK  10 active torsions:
REMARK  status: ('A' for Active; 'I' for Inactive)
REMARK    1  A    between atoms: O2_2  and  C3_3 
REMARK    2  A    between atoms: C3_3  and  C4_4 
REMARK    3  A    between atoms: C4_4  and  O5_5 
REMARK    4  A    between atoms: O5_5  and  C6_6 
REMARK    5  A    between atoms: C6_6  and  C8_8 
REMARK    6  A    between atoms: C14_14  and  C15_15 
REMARK    7  A    between atoms: C15_15  and  O17_17 
REMARK    8  A    between atoms: O17_17  and  C18_18 
REMARK    9  A    between atoms: C21_21  and  C23_22 
REMARK   10  A    between atoms: C27_26  and  N28_27 
ROOT
ATOM      1  C8  ZIN A   1      18.196  -2.388   7.652  0.00  0.00     0.052 C 
ATOM      2  C9  ZIN A   1      18.930  -2.934   6.668  0.00  0.00     0.018 C 
ATOM      3  C10 ZIN A   1      19.613  -2.041   5.663  0.00  0.00     0.069 C 
ATOM      4  N11 ZIN A   1      19.065  -4.291   6.566  0.00  0.00    -0.362 N 
ATOM      5  C12 ZIN A   1      18.193  -5.123   7.214  0.00  0.00     0.018 C 
ATOM      6  C13 ZIN A   1      18.089  -6.566   6.795  0.00  0.00     0.069 C 
ATOM      7  C14 ZIN A   1      17.429  -4.667   8.222  0.00  0.00     0.052 C 
ATOM      8  C21 ZIN A   1      17.511  -3.238   8.683  0.00  0.00     0.101 C 
ATOM      9  H42 ZIN A   1      19.782  -4.667   6.030  0.00  0.00     0.165 HD
ENDROOT
BRANCH   8  10
ATOM     10  C23 ZIN A   1      18.277  -3.178   9.978  0.00  0.00    -0.042 A 
ATOM     11  C31 ZIN A   1      17.860  -2.332  10.990  0.00  0.00     0.044 A 
ATOM     12  C27 ZIN A   1      18.561  -2.280  12.180  0.00  0.00     0.103 A 
ATOM     13  C26 ZIN A   1      19.684  -3.066  12.356  0.00  0.00     0.036 A 
ATOM     14  C25 ZIN A   1      20.104  -3.907  11.343  0.00  0.00     0.003 A 
ATOM     15  C24 ZIN A   1      19.401  -3.962  10.154  0.00  0.00     0.008 A 
BRANCH  12  16
ATOM     16  N28 ZIN A   1      18.110  -1.380  13.265  0.00  0.00    -0.116 N 
ATOM     17  O29 ZIN A   1      17.326  -0.479  13.024  0.00  0.00    -0.532 OA
ATOM     18  O30 ZIN A   1      18.522  -1.541  14.400  0.00  0.00    -0.532 OA
ENDBRANCH  12  16
ENDBRANCH   8  10
BRANCH   1  19
ATOM     19  C6  ZIN A   1      18.072  -0.980   7.722  0.00  0.00     0.292 C 
ATOM     20  O7  ZIN A   1      17.071  -0.436   7.297  0.00  0.00    -0.259 OA
BRANCH  19  21
ATOM     21  O5  ZIN A   1      19.065  -0.242   8.261  0.00  0.00    -0.316 OA
BRANCH  21  22
ATOM     22  C4  ZIN A   1      18.782   1.136   8.517  0.00  0.00     0.205 C 
BRANCH  22  23
ATOM     23  C3  ZIN A   1      18.557   1.339  10.017  0.00  0.00     0.193 C 
BRANCH  23  24
ATOM     24  O2  ZIN A   1      19.625   0.730  10.746  0.00  0.00    -0.394 OA
ATOM     25  C1  ZIN A   1      20.024   1.458  11.909  0.00  0.00     0.201 C 
ENDBRANCH  23  24
ENDBRANCH  22  23
ENDBRANCH  21  22
ENDBRANCH  19  21
ENDBRANCH   1  19
BRANCH   7  26
ATOM     26  C15 ZIN A   1      16.533  -5.554   8.865  0.00  0.00     0.292 C 
ATOM     27  O16 ZIN A   1      16.961  -6.437   9.583  0.00  0.00    -0.259 OA
BRANCH  26  28
ATOM     28  O17 ZIN A   1      15.203  -5.418   8.682  0.00  0.00    -0.313 OA
BRANCH  28  29
ATOM     29  C18 ZIN A   1      14.534  -6.467   7.980  0.00  0.00     0.124 C 
ATOM     30  C19 ZIN A   1      13.051  -6.466   8.351  0.00  0.00     0.040 C 
ATOM     31  C20 ZIN A   1      14.683  -6.249   6.473  0.00  0.00     0.040 C 
ENDBRANCH  28  29
ENDBRANCH  26  28
ENDBRANCH   7  26
TORSDOF 10
ENDMDL
