MODEL 1
REMARK VINA RESULT:      -6.9      0.000      0.000
REMARK  8 active torsions:
REMARK  status: ('A' for Active; 'I' for Inactive)
REMARK    1  A    between atoms: O2_2  and  C3_3 
REMARK    2  A    between atoms: C3_3  and  N4_4 
REMARK       I    between atoms: N4_4  and  C5_5 
REMARK    3  A    between atoms: C5_5  and  C7_7 
REMARK    4  A    between atoms: C7_7  and  C8_8 
REMARK    5  A    between atoms: C16_16  and  C17_17 
REMARK    6  A    between atoms: C20_20  and  C21_21 
REMARK    7  A    between atoms: C21_21  and  O22_22 
REMARK    8  A    between atoms: O22_22  and  C23_23 
REMARK       I    between atoms: C23_23  and  N24_24 
ROOT
ATOM      1  C3  ZIN A   1      18.110  -4.322   9.320  0.00  0.00     0.250 C 
ATOM      2  C13 ZIN A   1      17.422  -3.567  10.446  0.00  0.00     0.285 C 
ATOM      3  O14 ZIN A   1      16.628  -3.873  11.310  0.00  0.00    -0.267 OA
ATOM      4  N15 ZIN A   1      18.044  -2.426  10.103  0.00  0.00    -0.288 N 
ATOM      5  C16 ZIN A   1      17.895  -1.044  10.313  0.00  0.00     0.121 C 
ATOM      6  C20 ZIN A   1      18.307  -0.186   9.390  0.00  0.00    -0.013 C 
ATOM      7  C26 ZIN A   1      18.993  -0.477   8.096  0.00  0.00     0.115 C 
ATOM      8  S27 ZIN A   1      18.746  -2.196   7.556  0.00  0.00    -0.133 SA
ATOM      9  C28 ZIN A   1      18.978  -3.081   9.133  0.00  0.00     0.221 C 
ENDROOT
BRANCH   1  10
ATOM     10  O2  ZIN A   1      18.837  -5.470   9.760  0.00  0.00    -0.355 OA
ATOM     11  C1  ZIN A   1      20.074  -5.673   9.073  0.00  0.00     0.205 C 
ENDBRANCH   1  10
BRANCH   1  12
ATOM     12  N4  ZIN A   1      17.236  -4.604   8.179  0.00  0.00    -0.319 N 
ATOM     13  C5  ZIN A   1      16.451  -5.699   8.185  0.00  0.00     0.225 C 
ATOM     14  O6  ZIN A   1      16.467  -6.451   9.137  0.00  0.00    -0.273 OA
ATOM     15  H33 ZIN A   1      17.223  -4.003   7.417  0.00  0.00     0.166 HD
BRANCH  13  16
ATOM     16  C7  ZIN A   1      15.552  -5.989   7.012  0.00  0.00     0.148 C 
BRANCH  16  17
ATOM     17  C8  ZIN A   1      14.305  -6.685   7.493  0.00  0.00    -0.009 A 
ATOM     18  S12 ZIN A   1      14.034  -8.423   7.452  0.00  0.00    -0.106 SA
ATOM     19  C11 ZIN A   1      12.440  -8.222   8.169  0.00  0.00     0.050 A 
ATOM     20  C10 ZIN A   1      12.207  -6.926   8.383  0.00  0.00     0.008 A 
ATOM     21  C9  ZIN A   1      13.236  -6.078   8.011  0.00  0.00     0.015 A 
ENDBRANCH  16  17
ENDBRANCH  13  16
ENDBRANCH   1  12
BRANCH   5  22
ATOM     22  C17 ZIN A   1      17.281  -0.549  11.556  0.00  0.00     0.227 C 
ATOM     23  O18 ZIN A   1      16.108  -0.202  11.563  0.00  0.00    -0.643 OA
ATOM     24  O19 ZIN A   1      17.945  -0.484  12.582  0.00  0.00    -0.643 OA
ENDBRANCH   5  22
BRANCH   6  25
ATOM     25  C21 ZIN A   1      18.050   1.269   9.684  0.00  0.00     0.218 C 
BRANCH  25  26
ATOM     26  O22 ZIN A   1      19.317   1.964   9.834  0.00  0.00    -0.300 OA
BRANCH  26  27
ATOM     27  C23 ZIN A   1      19.640   2.385  11.072  0.00  0.00     0.358 C 
ATOM     28  N24 ZIN A   1      20.360   1.589  11.887  0.00  0.00    -0.346 N 
ATOM     29  H41 ZIN A   1      20.646   0.714  11.582  0.00  0.00     0.161 HD
ATOM     30  H42 ZIN A   1      20.592   1.891  12.779  0.00  0.00     0.161 HD
ATOM     31  O25 ZIN A   1      19.281   3.481  11.455  0.00  0.00    -0.239 OA
ENDBRANCH  26  27
ENDBRANCH  25  26
ENDBRANCH   6  25
TORSDOF 8
ENDMDL
MODEL 2
REMARK VINA RESULT:      -6.9      6.769      9.464
REMARK  8 active torsions:
REMARK  status: ('A' for Active; 'I' for Inactive)
REMARK    1  A    between atoms: O2_2  and  C3_3 
REMARK    2  A    between atoms: C3_3  and  N4_4 
REMARK       I    between atoms: N4_4  and  C5_5 
REMARK    3  A    between atoms: C5_5  and  C7_7 
REMARK    4  A    between atoms: C7_7  and  C8_8 
REMARK    5  A    between atoms: C16_16  and  C17_17 
REMARK    6  A    between atoms: C20_20  and  C21_21 
REMARK    7  A    between atoms: C21_21  and  O22_22 
REMARK    8  A    between atoms: O22_22  and  C23_23 
REMARK       I    between atoms: C23_23  and  N24_24 
ROOT
ATOM      1  C3  ZIN A   1      18.621   4.577  15.240  0.00  0.00     0.250 C 
ATOM      2  C13 ZIN A   1      17.680   5.186  14.215  0.00  0.00     0.285 C 
ATOM      3  O14 ZIN A   1      16.801   6.020  14.261  0.00  0.00    -0.267 OA
ATOM      4  N15 ZIN A   1      18.208   4.432  13.235  0.00  0.00    -0.288 N 
ATOM      5  C16 ZIN A   1      17.865   3.995  11.944  0.00  0.00     0.121 C 
ATOM      6  C20 ZIN A   1      18.313   2.830  11.499  0.00  0.00    -0.013 C 
ATOM      7  C26 ZIN A   1      19.225   1.865  12.184  0.00  0.00     0.115 C 
ATOM      8  S27 ZIN A   1      19.272   2.121  13.983  0.00  0.00    -0.133 SA
ATOM      9  C28 ZIN A   1      19.355   3.941  14.063  0.00  0.00     0.221 C 
ENDROOT
BRANCH   1  10
ATOM     10  O2  ZIN A   1      19.401   5.543  15.947  0.00  0.00    -0.355 OA
ATOM     11  C1  ZIN A   1      20.539   6.015  15.223  0.00  0.00     0.205 C 
ENDBRANCH   1  10
BRANCH   1  12
ATOM     12  N4  ZIN A   1      17.978   3.604  16.127  0.00  0.00    -0.319 N 
ATOM     13  C5  ZIN A   1      18.669   3.065  17.150  0.00  0.00     0.225 C 
ATOM     14  O6  ZIN A   1      19.824   3.386  17.338  0.00  0.00    -0.273 OA
ATOM     15  H33 ZIN A   1      17.055   3.346  15.976  0.00  0.00     0.166 HD
BRANCH  13  16
ATOM     16  C7  ZIN A   1      18.009   2.064  18.062  0.00  0.00     0.148 C 
BRANCH  16  17
ATOM     17  C8  ZIN A   1      18.241   0.672  17.534  0.00  0.00    -0.009 A 
ATOM     18  S12 ZIN A   1      17.175  -0.182  16.424  0.00  0.00    -0.106 SA
ATOM     19  C11 ZIN A   1      18.240  -1.582  16.432  0.00  0.00     0.050 A 
ATOM     20  C10 ZIN A   1      19.281  -1.347  17.231  0.00  0.00     0.008 A 
ATOM     21  C9  ZIN A   1      19.282  -0.104  17.839  0.00  0.00     0.015 A 
ENDBRANCH  16  17
ENDBRANCH  13  16
ENDBRANCH   1  12
BRANCH   5  22
ATOM     22  C17 ZIN A   1      17.008   4.831  11.086  0.00  0.00     0.227 C 
ATOM     23  O18 ZIN A   1      17.506   5.511  10.201  0.00  0.00    -0.643 OA
ATOM     24  O19 ZIN A   1      15.797   4.844  11.261  0.00  0.00    -0.643 OA
ENDBRANCH   5  22
BRANCH   6  25
ATOM     25  C21 ZIN A   1      17.842   2.426  10.125  0.00  0.00     0.218 C 
BRANCH  25  26
ATOM     26  O22 ZIN A   1      18.907   2.649   9.163  0.00  0.00    -0.300 OA
BRANCH  26  27
ATOM     27  C23 ZIN A   1      19.291   1.594   8.421  0.00  0.00     0.358 C 
ATOM     28  N24 ZIN A   1      19.971   0.581   8.992  0.00  0.00    -0.346 N 
ATOM     29  H41 ZIN A   1      20.183   0.611   9.939  0.00  0.00     0.161 HD
ATOM     30  H42 ZIN A   1      20.248  -0.180   8.458  0.00  0.00     0.161 HD
ATOM     31  O25 ZIN A   1      19.027   1.555   7.235  0.00  0.00    -0.239 OA
ENDBRANCH  26  27
ENDBRANCH  25  26
ENDBRANCH   6  25
TORSDOF 8
ENDMDL
MODEL 3
REMARK VINA RESULT:      -6.8      1.346      2.066
REMARK  8 active torsions:
REMARK  status: ('A' for Active; 'I' for Inactive)
REMARK    1  A    between atoms: O2_2  and  C3_3 
REMARK    2  A    between atoms: C3_3  and  N4_4 
REMARK       I    between atoms: N4_4  and  C5_5 
REMARK    3  A    between atoms: C5_5  and  C7_7 
REMARK    4  A    between atoms: C7_7  and  C8_8 
REMARK    5  A    between atoms: C16_16  and  C17_17 
REMARK    6  A    between atoms: C20_20  and  C21_21 
REMARK    7  A    between atoms: C21_21  and  O22_22 
REMARK    8  A    between atoms: O22_22  and  C23_23 
REMARK       I    between atoms: C23_23  and  N24_24 
ROOT
ATOM      1  C3  ZIN A   1      18.113  -4.134   9.499  0.00  0.00     0.250 C 
ATOM      2  C13 ZIN A   1      17.525  -3.330  10.646  0.00  0.00     0.285 C 
ATOM      3  O14 ZIN A   1      16.830  -3.601  11.602  0.00  0.00    -0.267 OA
ATOM      4  N15 ZIN A   1      18.081  -2.198  10.180  0.00  0.00    -0.288 N 
ATOM      5  C16 ZIN A   1      17.921  -0.810  10.328  0.00  0.00     0.121 C 
ATOM      6  C20 ZIN A   1      18.216   0.002   9.322  0.00  0.00    -0.013 C 
ATOM      7  C26 ZIN A   1      18.774  -0.349   7.983  0.00  0.00     0.115 C 
ATOM      8  S27 ZIN A   1      18.516  -2.100   7.566  0.00  0.00    -0.133 SA
ATOM      9  C28 ZIN A   1      18.927  -2.890   9.157  0.00  0.00     0.221 C 
ENDROOT
BRANCH   1  10
ATOM     10  O2  ZIN A   1      18.909  -5.242   9.924  0.00  0.00    -0.355 OA
ATOM     11  C1  ZIN A   1      20.032  -5.508   9.080  0.00  0.00     0.205 C 
ENDBRANCH   1  10
BRANCH   1  12
ATOM     12  N4  ZIN A   1      17.135  -4.496   8.470  0.00  0.00    -0.319 N 
ATOM     13  C5  ZIN A   1      16.375  -5.599   8.621  0.00  0.00     0.225 C 
ATOM     14  O6  ZIN A   1      16.500  -6.291   9.610  0.00  0.00    -0.273 OA
ATOM     15  H33 ZIN A   1      17.035  -3.944   7.679  0.00  0.00     0.166 HD
BRANCH  13  16
ATOM     16  C7  ZIN A   1      15.369  -5.972   7.564  0.00  0.00     0.148 C 
BRANCH  16  17
ATOM     17  C8  ZIN A   1      16.080  -6.220   6.259  0.00  0.00    -0.009 A 
ATOM     18  S12 ZIN A   1      17.514  -7.219   6.059  0.00  0.00    -0.106 SA
ATOM     19  C11 ZIN A   1      17.542  -6.888   4.332  0.00  0.00     0.050 A 
ATOM     20  C10 ZIN A   1      16.528  -6.081   4.016  0.00  0.00     0.008 A 
ATOM     21  C9  ZIN A   1      15.721  -5.712   5.078  0.00  0.00     0.015 A 
ENDBRANCH  16  17
ENDBRANCH  13  16
ENDBRANCH   1  12
BRANCH   5  22
ATOM     22  C17 ZIN A   1      17.424  -0.257  11.599  0.00  0.00     0.227 C 
ATOM     23  O18 ZIN A   1      16.229  -0.040  11.746  0.00  0.00    -0.643 OA
ATOM     24  O19 ZIN A   1      18.207  -0.013  12.508  0.00  0.00    -0.643 OA
ENDBRANCH   5  22
BRANCH   6  25
ATOM     25  C21 ZIN A   1      17.955   1.467   9.562  0.00  0.00     0.218 C 
BRANCH  25  26
ATOM     26  O22 ZIN A   1      19.220   2.171   9.681  0.00  0.00    -0.300 OA
BRANCH  26  27
ATOM     27  C23 ZIN A   1      19.488   2.748  10.867  0.00  0.00     0.358 C 
ATOM     28  N24 ZIN A   1      20.382   2.186  11.704  0.00  0.00    -0.346 N 
ATOM     29  H41 ZIN A   1      20.834   1.366  11.451  0.00  0.00     0.161 HD
ATOM     30  H42 ZIN A   1      20.575   2.602  12.559  0.00  0.00     0.161 HD
ATOM     31  O25 ZIN A   1      18.921   3.776  11.185  0.00  0.00    -0.239 OA
ENDBRANCH  26  27
ENDBRANCH  25  26
ENDBRANCH   6  25
TORSDOF 8
ENDMDL
MODEL 4
REMARK VINA RESULT:      -6.8      5.430      8.344
REMARK  8 active torsions:
REMARK  status: ('A' for Active; 'I' for Inactive)
REMARK    1  A    between atoms: O2_2  and  C3_3 
REMARK    2  A    between atoms: C3_3  and  N4_4 
REMARK       I    between atoms: N4_4  and  C5_5 
REMARK    3  A    between atoms: C5_5  and  C7_7 
REMARK    4  A    between atoms: C7_7  and  C8_8 
REMARK    5  A    between atoms: C16_16  and  C17_17 
REMARK    6  A    between atoms: C20_20  and  C21_21 
REMARK    7  A    between atoms: C21_21  and  O22_22 
REMARK    8  A    between atoms: O22_22  and  C23_23 
REMARK       I    between atoms: C23_23  and  N24_24 
ROOT
ATOM      1  C3  ZIN A   1      18.444   3.356  12.039  0.00  0.00     0.250 C 
ATOM      2  C13 ZIN A   1      19.220   4.184  13.049  0.00  0.00     0.285 C 
ATOM      3  O14 ZIN A   1      20.003   5.106  12.968  0.00  0.00    -0.267 OA
ATOM      4  N15 ZIN A   1      18.693   3.487  14.072  0.00  0.00    -0.288 N 
ATOM      5  C16 ZIN A   1      18.967   3.242  15.428  0.00  0.00     0.121 C 
ATOM      6  C20 ZIN A   1      18.612   2.088  15.977  0.00  0.00    -0.013 C 
ATOM      7  C26 ZIN A   1      17.874   0.952  15.349  0.00  0.00     0.115 C 
ATOM      8  S27 ZIN A   1      17.958   0.997  13.533  0.00  0.00    -0.133 SA
ATOM      9  C28 ZIN A   1      17.684   2.773  13.226  0.00  0.00     0.221 C 
ENDROOT
BRANCH   1  10
ATOM     10  O2  ZIN A   1      17.629   4.137  11.163  0.00  0.00    -0.355 OA
ATOM     11  C1  ZIN A   1      16.642   4.923  11.835  0.00  0.00     0.205 C 
ENDBRANCH   1  10
BRANCH   1  12
ATOM     12  N4  ZIN A   1      19.265   2.373  11.327  0.00  0.00    -0.319 N 
ATOM     13  C5  ZIN A   1      18.725   1.632  10.340  0.00  0.00     0.225 C 
ATOM     14  O6  ZIN A   1      17.559   1.779  10.040  0.00  0.00    -0.273 OA
ATOM     15  H33 ZIN A   1      20.197   2.254  11.568  0.00  0.00     0.166 HD
BRANCH  13  16
ATOM     16  C7  ZIN A   1      19.568   0.620   9.608  0.00  0.00     0.148 C 
BRANCH  16  17
ATOM     17  C8  ZIN A   1      18.992   0.384   8.236  0.00  0.00    -0.009 A 
ATOM     18  S12 ZIN A   1      18.124  -1.063   7.737  0.00  0.00    -0.106 SA
ATOM     19  C11 ZIN A   1      17.898  -0.406   6.121  0.00  0.00     0.050 A 
ATOM     20  C10 ZIN A   1      18.463   0.799   6.046  0.00  0.00     0.008 A 
ATOM     21  C9  ZIN A   1      19.067   1.235   7.212  0.00  0.00     0.015 A 
ENDBRANCH  16  17
ENDBRANCH  13  16
ENDBRANCH   1  12
BRANCH   5  22
ATOM     22  C17 ZIN A   1      19.650   4.264  16.239  0.00  0.00     0.227 C 
ATOM     23  O18 ZIN A   1      19.004   5.163  16.759  0.00  0.00    -0.643 OA
ATOM     24  O19 ZIN A   1      20.863   4.214  16.391  0.00  0.00    -0.643 OA
ENDBRANCH   5  22
BRANCH   6  25
ATOM     25  C21 ZIN A   1      19.002   1.900  17.421  0.00  0.00     0.218 C 
BRANCH  25  26
ATOM     26  O22 ZIN A   1      17.804   1.812  18.238  0.00  0.00    -0.300 OA
BRANCH  26  27
ATOM     27  C23 ZIN A   1      17.502   2.883  18.996  0.00  0.00     0.358 C 
ATOM     28  N24 ZIN A   1      18.482   3.700  19.429  0.00  0.00    -0.346 N 
ATOM     29  H41 ZIN A   1      19.405   3.517  19.194  0.00  0.00     0.161 HD
ATOM     30  H42 ZIN A   1      18.265   4.471  19.976  0.00  0.00     0.161 HD
ATOM     31  O25 ZIN A   1      16.346   3.111  19.293  0.00  0.00    -0.239 OA
ENDBRANCH  26  27
ENDBRANCH  25  26
ENDBRANCH   6  25
TORSDOF 8
ENDMDL
MODEL 5
REMARK VINA RESULT:      -6.8      4.348      8.166
REMARK  8 active torsions:
REMARK  status: ('A' for Active; 'I' for Inactive)
REMARK    1  A    between atoms: O2_2  and  C3_3 
REMARK    2  A    between atoms: C3_3  and  N4_4 
REMARK       I    between atoms: N4_4  and  C5_5 
REMARK    3  A    between atoms: C5_5  and  C7_7 
REMARK    4  A    between atoms: C7_7  and  C8_8 
REMARK    5  A    between atoms: C16_16  and  C17_17 
REMARK    6  A    between atoms: C20_20  and  C21_21 
REMARK    7  A    between atoms: C21_21  and  O22_22 
REMARK    8  A    between atoms: O22_22  and  C23_23 
REMARK       I    between atoms: C23_23  and  N24_24 
ROOT
ATOM      1  C3  ZIN A   1      19.371   1.016  11.280  0.00  0.00     0.250 C 
ATOM      2  C13 ZIN A   1      18.725   1.471   9.982  0.00  0.00     0.285 C 
ATOM      3  O14 ZIN A   1      18.123   2.465   9.637  0.00  0.00    -0.267 OA
ATOM      4  N15 ZIN A   1      19.086   0.331   9.366  0.00  0.00    -0.288 N 
ATOM      5  C16 ZIN A   1      18.729  -0.404   8.222  0.00  0.00     0.121 C 
ATOM      6  C20 ZIN A   1      18.854  -1.724   8.218  0.00  0.00    -0.013 C 
ATOM      7  C26 ZIN A   1      19.395  -2.606   9.295  0.00  0.00     0.115 C 
ATOM      8  S27 ZIN A   1      19.379  -1.796  10.923  0.00  0.00    -0.133 SA
ATOM      9  C28 ZIN A   1      19.976  -0.132  10.477  0.00  0.00     0.221 C 
ENDROOT
BRANCH   1  10
ATOM     10  O2  ZIN A   1      20.341   1.933  11.789  0.00  0.00    -0.355 OA
ATOM     11  C1  ZIN A   1      19.918   3.299  11.764  0.00  0.00     0.205 C 
ENDBRANCH   1  10
BRANCH   1  12
ATOM     12  N4  ZIN A   1      18.411   0.579  12.296  0.00  0.00    -0.319 N 
ATOM     13  C5  ZIN A   1      18.836   0.267  13.536  0.00  0.00     0.225 C 
ATOM     14  O6  ZIN A   1      20.014   0.348  13.811  0.00  0.00    -0.273 OA
ATOM     15  H33 ZIN A   1      17.468   0.514  12.076  0.00  0.00     0.166 HD
BRANCH  13  16
ATOM     16  C7  ZIN A   1      17.848  -0.182  14.581  0.00  0.00     0.148 C 
BRANCH  16  17
ATOM     17  C8  ZIN A   1      18.418   0.070  15.953  0.00  0.00    -0.009 A 
ATOM     18  S12 ZIN A   1      18.674   1.657  16.668  0.00  0.00    -0.106 SA
ATOM     19  C11 ZIN A   1      19.310   0.926  18.136  0.00  0.00     0.050 A 
ATOM     20  C10 ZIN A   1      19.302  -0.402  18.013  0.00  0.00     0.008 A 
ATOM     21  C9  ZIN A   1      18.810  -0.875  16.809  0.00  0.00     0.015 A 
ENDBRANCH  16  17
ENDBRANCH  13  16
ENDBRANCH   1  12
BRANCH   5  22
ATOM     22  C17 ZIN A   1      18.216   0.291   7.030  0.00  0.00     0.227 C 
ATOM     23  O18 ZIN A   1      18.957   1.012   6.376  0.00  0.00    -0.643 OA
ATOM     24  O19 ZIN A   1      17.048   0.147   6.694  0.00  0.00    -0.643 OA
ENDBRANCH   5  22
BRANCH   6  25
ATOM     25  C21 ZIN A   1      18.391  -2.424   6.966  0.00  0.00     0.218 C 
BRANCH  25  26
ATOM     26  O22 ZIN A   1      19.533  -2.685   6.107  0.00  0.00    -0.300 OA
BRANCH  26  27
ATOM     27  C23 ZIN A   1      19.377  -2.443   4.792  0.00  0.00     0.358 C 
ATOM     28  N24 ZIN A   1      18.772  -3.356   4.007  0.00  0.00    -0.346 N 
ATOM     29  H41 ZIN A   1      18.448  -4.186   4.389  0.00  0.00     0.161 HD
ATOM     30  H42 ZIN A   1      18.659  -3.181   3.059  0.00  0.00     0.161 HD
ATOM     31  O25 ZIN A   1      19.783  -1.402   4.313  0.00  0.00    -0.239 OA
ENDBRANCH  26  27
ENDBRANCH  25  26
ENDBRANCH   6  25
TORSDOF 8
ENDMDL
MODEL 6
REMARK VINA RESULT:      -6.7      4.634      6.049
REMARK  8 active torsions:
REMARK  status: ('A' for Active; 'I' for Inactive)
REMARK    1  A    between atoms: O2_2  and  C3_3 
REMARK    2  A    between atoms: C3_3  and  N4_4 
REMARK       I    between atoms: N4_4  and  C5_5 
REMARK    3  A    between atoms: C5_5  and  C7_7 
REMARK    4  A    between atoms: C7_7  and  C8_8 
REMARK    5  A    between atoms: C16_16  and  C17_17 
REMARK    6  A    between atoms: C20_20  and  C21_21 
REMARK    7  A    between atoms: C21_21  and  O22_22 
REMARK    8  A    between atoms: O22_22  and  C23_23 
REMARK       I    between atoms: C23_23  and  N24_24 
ROOT
ATOM      1  C3  ZIN A   1      19.381  -0.645  11.493  0.00  0.00     0.250 C 
ATOM      2  C13 ZIN A   1      18.828  -0.897  12.885  0.00  0.00     0.285 C 
ATOM      3  O14 ZIN A   1      18.329  -1.853  13.439  0.00  0.00    -0.267 OA
ATOM      4  N15 ZIN A   1      19.112   0.363  13.260  0.00  0.00    -0.288 N 
ATOM      5  C16 ZIN A   1      18.738   1.268  14.268  0.00  0.00     0.121 C 
ATOM      6  C20 ZIN A   1      18.748   2.571  14.023  0.00  0.00    -0.013 C 
ATOM      7  C26 ZIN A   1      19.167   3.276  12.775  0.00  0.00     0.115 C 
ATOM      8  S27 ZIN A   1      19.158   2.176  11.327  0.00  0.00    -0.133 SA
ATOM      9  C28 ZIN A   1      19.915   0.677  12.036  0.00  0.00     0.221 C 
ENDROOT
BRANCH   1  10
ATOM     10  O2  ZIN A   1      20.406  -1.562  11.108  0.00  0.00    -0.355 OA
ATOM     11  C1  ZIN A   1      20.036  -2.937  11.242  0.00  0.00     0.205 C 
ENDBRANCH   1  10
BRANCH   1  12
ATOM     12  N4  ZIN A   1      18.347  -0.483  10.468  0.00  0.00    -0.319 N 
ATOM     13  C5  ZIN A   1      18.696  -0.333   9.175  0.00  0.00     0.225 C 
ATOM     14  O6  ZIN A   1      19.868  -0.332   8.860  0.00  0.00    -0.273 OA
ATOM     15  H33 ZIN A   1      17.410  -0.482  10.720  0.00  0.00     0.166 HD
BRANCH  13  16
ATOM     16  C7  ZIN A   1      17.633  -0.166   8.121  0.00  0.00     0.148 C 
BRANCH  16  17
ATOM     17  C8  ZIN A   1      18.223  -0.448   6.763  0.00  0.00    -0.009 A 
ATOM     18  S12 ZIN A   1      18.552  -2.049   6.113  0.00  0.00    -0.106 SA
ATOM     19  C11 ZIN A   1      19.166  -1.350   4.620  0.00  0.00     0.050 A 
ATOM     20  C10 ZIN A   1      19.100  -0.019   4.690  0.00  0.00     0.008 A 
ATOM     21  C9  ZIN A   1      18.580   0.479   5.872  0.00  0.00     0.015 A 
ENDBRANCH  16  17
ENDBRANCH  13  16
ENDBRANCH   1  12
BRANCH   5  22
ATOM     22  C17 ZIN A   1      18.334   0.772  15.594  0.00  0.00     0.227 C 
ATOM     23  O18 ZIN A   1      19.157   0.695  16.495  0.00  0.00    -0.643 OA
ATOM     24  O19 ZIN A   1      17.175   0.434  15.793  0.00  0.00    -0.643 OA
ENDBRANCH   5  22
BRANCH   6  25
ATOM     25  C21 ZIN A   1      18.275   3.455  15.149  0.00  0.00     0.218 C 
BRANCH  25  26
ATOM     26  O22 ZIN A   1      19.162   4.599  15.272  0.00  0.00    -0.300 OA
BRANCH  26  27
ATOM     27  C23 ZIN A   1      20.206   4.475  16.112  0.00  0.00     0.358 C 
ATOM     28  N24 ZIN A   1      21.314   5.218  15.926  0.00  0.00    -0.346 N 
ATOM     29  H41 ZIN A   1      21.358   5.845  15.186  0.00  0.00     0.161 HD
ATOM     30  H42 ZIN A   1      22.066   5.129  16.531  0.00  0.00     0.161 HD
ATOM     31  O25 ZIN A   1      20.150   3.689  17.039  0.00  0.00    -0.239 OA
ENDBRANCH  26  27
ENDBRANCH  25  26
ENDBRANCH   6  25
TORSDOF 8
ENDMDL
MODEL 7
REMARK VINA RESULT:      -6.7      3.687      7.469
REMARK  8 active torsions:
REMARK  status: ('A' for Active; 'I' for Inactive)
REMARK    1  A    between atoms: O2_2  and  C3_3 
REMARK    2  A    between atoms: C3_3  and  N4_4 
REMARK       I    between atoms: N4_4  and  C5_5 
REMARK    3  A    between atoms: C5_5  and  C7_7 
REMARK    4  A    between atoms: C7_7  and  C8_8 
REMARK    5  A    between atoms: C16_16  and  C17_17 
REMARK    6  A    between atoms: C20_20  and  C21_21 
REMARK    7  A    between atoms: C21_21  and  O22_22 
REMARK    8  A    between atoms: O22_22  and  C23_23 
REMARK       I    between atoms: C23_23  and  N24_24 
ROOT
ATOM      1  C3  ZIN A   1      18.398  -3.095  10.861  0.00  0.00     0.250 C 
ATOM      2  C13 ZIN A   1      19.194  -3.985   9.922  0.00  0.00     0.285 C 
ATOM      3  O14 ZIN A   1      19.972  -4.902  10.078  0.00  0.00    -0.267 OA
ATOM      4  N15 ZIN A   1      18.694  -3.351   8.846  0.00  0.00    -0.288 N 
ATOM      5  C16 ZIN A   1      19.001  -3.191   7.484  0.00  0.00     0.121 C 
ATOM      6  C20 ZIN A   1      18.663  -2.073   6.857  0.00  0.00    -0.013 C 
ATOM      7  C26 ZIN A   1      17.915  -0.898   7.397  0.00  0.00     0.115 C 
ATOM      8  S27 ZIN A   1      17.955  -0.831   9.213  0.00  0.00    -0.133 SA
ATOM      9  C28 ZIN A   1      17.668  -2.585   9.622  0.00  0.00     0.221 C 
ENDROOT
BRANCH   1  10
ATOM     10  O2  ZIN A   1      17.559  -3.819  11.763  0.00  0.00    -0.355 OA
ATOM     11  C1  ZIN A   1      16.653  -4.718  11.120  0.00  0.00     0.205 C 
ENDBRANCH   1  10
BRANCH   1  12
ATOM     12  N4  ZIN A   1      19.205  -2.072  11.530  0.00  0.00    -0.319 N 
ATOM     13  C5  ZIN A   1      18.636  -1.249  12.433  0.00  0.00     0.225 C 
ATOM     14  O6  ZIN A   1      17.456  -1.356  12.693  0.00  0.00    -0.273 OA
ATOM     15  H33 ZIN A   1      20.148  -1.985  11.321  0.00  0.00     0.166 HD
BRANCH  13  16
ATOM     16  C7  ZIN A   1      19.466  -0.196  13.121  0.00  0.00     0.148 C 
BRANCH  16  17
ATOM     17  C8  ZIN A   1      19.193  -0.229  14.602  0.00  0.00    -0.009 A 
ATOM     18  S12 ZIN A   1      18.772   1.166  15.587  0.00  0.00    -0.106 SA
ATOM     19  C11 ZIN A   1      18.671   0.159  17.025  0.00  0.00     0.050 A 
ATOM     20  C10 ZIN A   1      18.951  -1.105  16.706  0.00  0.00     0.008 A 
ATOM     21  C9  ZIN A   1      19.240  -1.320  15.369  0.00  0.00     0.015 A 
ENDBRANCH  16  17
ENDBRANCH  13  16
ENDBRANCH   1  12
BRANCH   5  22
ATOM     22  C17 ZIN A   1      19.699  -4.262   6.754  0.00  0.00     0.227 C 
ATOM     23  O18 ZIN A   1      20.920  -4.261   6.687  0.00  0.00    -0.643 OA
ATOM     24  O19 ZIN A   1      19.056  -5.153   6.214  0.00  0.00    -0.643 OA
ENDBRANCH   5  22
BRANCH   6  25
ATOM     25  C21 ZIN A   1      19.087  -1.974   5.414  0.00  0.00     0.218 C 
BRANCH  25  26
ATOM     26  O22 ZIN A   1      17.911  -1.869   4.569  0.00  0.00    -0.300 OA
BRANCH  26  27
ATOM     27  C23 ZIN A   1      17.481  -2.998   3.976  0.00  0.00     0.358 C 
ATOM     28  N24 ZIN A   1      18.370  -3.861   3.446  0.00  0.00    -0.346 N 
ATOM     29  H41 ZIN A   1      19.319  -3.669   3.493  0.00  0.00     0.161 HD
ATOM     30  H42 ZIN A   1      18.060  -4.675   3.019  0.00  0.00     0.161 HD
ATOM     31  O25 ZIN A   1      16.291  -3.239   3.917  0.00  0.00    -0.239 OA
ENDBRANCH  26  27
ENDBRANCH  25  26
ENDBRANCH   6  25
TORSDOF 8
ENDMDL
MODEL 8
REMARK VINA RESULT:      -6.5      4.457      7.905
REMARK  8 active torsions:
REMARK  status: ('A' for Active; 'I' for Inactive)
REMARK    1  A    between atoms: O2_2  and  C3_3 
REMARK    2  A    between atoms: C3_3  and  N4_4 
REMARK       I    between atoms: N4_4  and  C5_5 
REMARK    3  A    between atoms: C5_5  and  C7_7 
REMARK    4  A    between atoms: C7_7  and  C8_8 
REMARK    5  A    between atoms: C16_16  and  C17_17 
REMARK    6  A    between atoms: C20_20  and  C21_21 
REMARK    7  A    between atoms: C21_21  and  O22_22 
REMARK    8  A    between atoms: O22_22  and  C23_23 
REMARK       I    between atoms: C23_23  and  N24_24 
ROOT
ATOM      1  C3  ZIN A   1      18.472   2.704  12.061  0.00  0.00     0.250 C 
ATOM      2  C13 ZIN A   1      19.163   3.680  12.998  0.00  0.00     0.285 C 
ATOM      3  O14 ZIN A   1      19.899   4.631  12.841  0.00  0.00    -0.267 OA
ATOM      4  N15 ZIN A   1      18.635   3.070  14.074  0.00  0.00    -0.288 N 
ATOM      5  C16 ZIN A   1      18.869   2.990  15.457  0.00  0.00     0.121 C 
ATOM      6  C20 ZIN A   1      18.554   1.885  16.119  0.00  0.00    -0.013 C 
ATOM      7  C26 ZIN A   1      17.903   0.646  15.597  0.00  0.00     0.115 C 
ATOM      8  S27 ZIN A   1      18.054   0.498  13.791  0.00  0.00    -0.133 SA
ATOM      9  C28 ZIN A   1      17.699   2.212  13.280  0.00  0.00     0.221 C 
ENDROOT
BRANCH   1  10
ATOM     10  O2  ZIN A   1      17.651   3.337  11.078  0.00  0.00    -0.355 OA
ATOM     11  C1  ZIN A   1      16.947   4.484  11.560  0.00  0.00     0.205 C 
ENDBRANCH   1  10
BRANCH   1  12
ATOM     12  N4  ZIN A   1      19.371   1.698  11.490  0.00  0.00    -0.319 N 
ATOM     13  C5  ZIN A   1      18.956   0.925  10.467  0.00  0.00     0.225 C 
ATOM     14  O6  ZIN A   1      17.837   1.064  10.018  0.00  0.00    -0.273 OA
ATOM     15  H33 ZIN A   1      20.265   1.586  11.850  0.00  0.00     0.166 HD
BRANCH  13  16
ATOM     16  C7  ZIN A   1      19.879  -0.110   9.880  0.00  0.00     0.148 C 
BRANCH  16  17
ATOM     17  C8  ZIN A   1      19.434  -1.484  10.310  0.00  0.00    -0.009 A 
ATOM     18  S12 ZIN A   1      18.364  -2.536   9.391  0.00  0.00    -0.106 SA
ATOM     19  C11 ZIN A   1      18.464  -3.774  10.635  0.00  0.00     0.050 A 
ATOM     20  C10 ZIN A   1      19.250  -3.350  11.626  0.00  0.00     0.008 A 
ATOM     21  C9  ZIN A   1      19.785  -2.086  11.447  0.00  0.00     0.015 A 
ENDBRANCH  16  17
ENDBRANCH  13  16
ENDBRANCH   1  12
BRANCH   5  22
ATOM     22  C17 ZIN A   1      19.464   4.132  16.172  0.00  0.00     0.227 C 
ATOM     23  O18 ZIN A   1      18.758   5.065  16.529  0.00  0.00    -0.643 OA
ATOM     24  O19 ZIN A   1      20.665   4.147  16.407  0.00  0.00    -0.643 OA
ENDBRANCH   5  22
BRANCH   6  25
ATOM     25  C21 ZIN A   1      18.897   1.878  17.587  0.00  0.00     0.218 C 
BRANCH  25  26
ATOM     26  O22 ZIN A   1      17.674   1.877  18.370  0.00  0.00    -0.300 OA
BRANCH  26  27
ATOM     27  C23 ZIN A   1      17.415   2.979  19.099  0.00  0.00     0.358 C 
ATOM     28  N24 ZIN A   1      18.424   3.785  19.484  0.00  0.00    -0.346 N 
ATOM     29  H41 ZIN A   1      19.337   3.571  19.235  0.00  0.00     0.161 HD
ATOM     30  H42 ZIN A   1      18.238   4.578  20.010  0.00  0.00     0.161 HD
ATOM     31  O25 ZIN A   1      16.271   3.247  19.411  0.00  0.00    -0.239 OA
ENDBRANCH  26  27
ENDBRANCH  25  26
ENDBRANCH   6  25
TORSDOF 8
ENDMDL
MODEL 9
REMARK VINA RESULT:      -6.3      3.716      7.187
REMARK  8 active torsions:
REMARK  status: ('A' for Active; 'I' for Inactive)
REMARK    1  A    between atoms: O2_2  and  C3_3 
REMARK    2  A    between atoms: C3_3  and  N4_4 
REMARK       I    between atoms: N4_4  and  C5_5 
REMARK    3  A    between atoms: C5_5  and  C7_7 
REMARK    4  A    between atoms: C7_7  and  C8_8 
REMARK    5  A    between atoms: C16_16  and  C17_17 
REMARK    6  A    between atoms: C20_20  and  C21_21 
REMARK    7  A    between atoms: C21_21  and  O22_22 
REMARK    8  A    between atoms: O22_22  and  C23_23 
REMARK       I    between atoms: C23_23  and  N24_24 
ROOT
ATOM      1  C3  ZIN A   1      18.790  -3.104  11.186  0.00  0.00     0.250 C 
ATOM      2  C13 ZIN A   1      19.475  -4.095  10.260  0.00  0.00     0.285 C 
ATOM      3  O14 ZIN A   1      20.284  -4.984  10.418  0.00  0.00    -0.267 OA
ATOM      4  N15 ZIN A   1      18.827  -3.593   9.193  0.00  0.00    -0.288 N 
ATOM      5  C16 ZIN A   1      18.952  -3.592   7.793  0.00  0.00     0.121 C 
ATOM      6  C20 ZIN A   1      18.514  -2.557   7.091  0.00  0.00    -0.013 C 
ATOM      7  C26 ZIN A   1      17.820  -1.330   7.584  0.00  0.00     0.115 C 
ATOM      8  S27 ZIN A   1      18.094  -1.050   9.360  0.00  0.00    -0.133 SA
ATOM      9  C28 ZIN A   1      17.896  -2.745  10.003  0.00  0.00     0.221 C 
ENDROOT
BRANCH   1  10
ATOM     10  O2  ZIN A   1      18.089  -3.720  12.268  0.00  0.00    -0.355 OA
ATOM     11  C1  ZIN A   1      17.082  -4.647  11.855  0.00  0.00     0.205 C 
ENDBRANCH   1  10
BRANCH   1  12
ATOM     12  N4  ZIN A   1      19.657  -2.006  11.621  0.00  0.00    -0.319 N 
ATOM     13  C5  ZIN A   1      19.224  -1.133  12.552  0.00  0.00     0.225 C 
ATOM     14  O6  ZIN A   1      18.117  -1.257  13.031  0.00  0.00    -0.273 OA
ATOM     15  H33 ZIN A   1      20.542  -1.906  11.237  0.00  0.00     0.166 HD
BRANCH  13  16
ATOM     16  C7  ZIN A   1      20.116  -0.004  12.999  0.00  0.00     0.148 C 
BRANCH  16  17
ATOM     17  C8  ZIN A   1      19.513   1.310  12.577  0.00  0.00    -0.009 A 
ATOM     18  S12 ZIN A   1      18.548   2.361  13.607  0.00  0.00    -0.106 SA
ATOM     19  C11 ZIN A   1      18.351   3.516  12.296  0.00  0.00     0.050 A 
ATOM     20  C10 ZIN A   1      18.983   3.071  11.209  0.00  0.00     0.008 A 
ATOM     21  C9  ZIN A   1      19.624   1.854  11.364  0.00  0.00     0.015 A 
ENDBRANCH  16  17
ENDBRANCH  13  16
ENDBRANCH   1  12
BRANCH   5  22
ATOM     22  C17 ZIN A   1      19.570  -4.739   7.107  0.00  0.00     0.227 C 
ATOM     23  O18 ZIN A   1      18.868  -5.637   6.663  0.00  0.00    -0.643 OA
ATOM     24  O19 ZIN A   1      20.786  -4.794   6.983  0.00  0.00    -0.643 OA
ENDBRANCH   5  22
BRANCH   6  25
ATOM     25  C21 ZIN A   1      18.747  -2.626   5.603  0.00  0.00     0.218 C 
BRANCH  25  26
ATOM     26  O22 ZIN A   1      19.662  -1.570   5.206  0.00  0.00    -0.300 OA
BRANCH  26  27
ATOM     27  C23 ZIN A   1      19.116  -0.436   4.729  0.00  0.00     0.358 C 
ATOM     28  N24 ZIN A   1      19.628   0.759   5.082  0.00  0.00    -0.346 N 
ATOM     29  H41 ZIN A   1      20.391   0.802   5.679  0.00  0.00     0.161 HD
ATOM     30  H42 ZIN A   1      19.234   1.576   4.739  0.00  0.00     0.161 HD
ATOM     31  O25 ZIN A   1      18.159  -0.490   3.981  0.00  0.00    -0.239 OA
ENDBRANCH  26  27
ENDBRANCH  25  26
ENDBRANCH   6  25
TORSDOF 8
ENDMDL
