MODEL 1
REMARK VINA RESULT:      -2.4      0.000      0.000
REMARK  0 active torsions:
REMARK  status: ('A' for Active; 'I' for Inactive)
ROOT
ATOM      1  C1  <0> d   1      17.418  -1.321   4.720  0.00  0.00     0.126 C 
ATOM      2  S2  <0> d   1      18.846  -0.207   4.618  0.00  0.00     0.006 S 
ATOM      3  C3  <0> d   1      18.765   0.704   6.184  0.00  0.00     0.126 C 
ATOM      4  O4  <0> d   1      20.042  -0.973   4.576  0.00  0.00    -0.259 OA
ENDROOT
TORSDOF 0
ENDMDL
MODEL 2
REMARK VINA RESULT:      -2.3     12.755     13.176
REMARK  0 active torsions:
REMARK  status: ('A' for Active; 'I' for Inactive)
ROOT
ATOM      1  C1  <0> d   1      17.374   1.374  18.674  0.00  0.00     0.126 C 
ATOM      2  S2  <0> d   1      18.821   0.351  18.288  0.00  0.00     0.006 S 
ATOM      3  C3  <0> d   1      18.616   0.006  16.519  0.00  0.00     0.126 C 
ATOM      4  O4  <0> d   1      20.006   1.111  18.488  0.00  0.00    -0.259 OA
ENDROOT
TORSDOF 0
ENDMDL
MODEL 3
REMARK VINA RESULT:      -2.3      0.597      2.093
REMARK  0 active torsions:
REMARK  status: ('A' for Active; 'I' for Inactive)
ROOT
ATOM      1  C1  <0> d   1      18.641   0.713   6.157  0.00  0.00     0.126 C 
ATOM      2  S2  <0> d   1      18.994  -0.949   5.522  0.00  0.00     0.006 S 
ATOM      3  C3  <0> d   1      17.447  -1.405   4.691  0.00  0.00     0.126 C 
ATOM      4  O4  <0> d   1      20.043  -0.879   4.566  0.00  0.00    -0.259 OA
ENDROOT
TORSDOF 0
ENDMDL
MODEL 4
REMARK VINA RESULT:      -2.2      1.822      2.194
REMARK  0 active torsions:
REMARK  status: ('A' for Active; 'I' for Inactive)
ROOT
ATOM      1  C1  <0> d   1      17.397  -1.647   4.384  0.00  0.00     0.126 C 
ATOM      2  S2  <0> d   1      18.936  -1.573   5.341  0.00  0.00     0.006 S 
ATOM      3  C3  <0> d   1      19.264  -3.316   5.720  0.00  0.00     0.126 C 
ATOM      4  O4  <0> d   1      19.979  -1.063   4.521  0.00  0.00    -0.259 OA
ENDROOT
TORSDOF 0
ENDMDL
MODEL 5
REMARK VINA RESULT:      -2.1      6.201      6.902
REMARK  0 active torsions:
REMARK  status: ('A' for Active; 'I' for Inactive)
ROOT
ATOM      1  C1  <0> d   1      19.687   3.289  11.552  0.00  0.00     0.126 C 
ATOM      2  S2  <0> d   1      18.339   3.261  10.339  0.00  0.00     0.006 S 
ATOM      3  C3  <0> d   1      18.966   2.141   9.057  0.00  0.00     0.126 C 
ATOM      4  O4  <0> d   1      17.177   2.697  10.933  0.00  0.00    -0.259 OA
ENDROOT
TORSDOF 0
ENDMDL
MODEL 6
REMARK VINA RESULT:      -2.0      7.277      7.658
REMARK  0 active torsions:
REMARK  status: ('A' for Active; 'I' for Inactive)
ROOT
ATOM      1  C1  <0> d   1      17.699  -0.270  13.537  0.00  0.00     0.126 C 
ATOM      2  S2  <0> d   1      17.306  -0.285  11.766  0.00  0.00     0.006 S 
ATOM      3  C3  <0> d   1      17.542  -2.026  11.311  0.00  0.00     0.126 C 
ATOM      4  O4  <0> d   1      15.943   0.072  11.580  0.00  0.00    -0.259 OA
ENDROOT
TORSDOF 0
ENDMDL
MODEL 7
REMARK VINA RESULT:      -2.0      7.090      7.091
REMARK  0 active torsions:
REMARK  status: ('A' for Active; 'I' for Inactive)
ROOT
ATOM      1  C1  <0> d   1      17.590  -2.121  11.665  0.00  0.00     0.126 C 
ATOM      2  S2  <0> d   1      17.262  -0.402  12.144  0.00  0.00     0.006 S 
ATOM      3  C3  <0> d   1      18.622   0.505  11.358  0.00  0.00     0.126 C 
ATOM      4  O4  <0> d   1      16.026   0.018  11.583  0.00  0.00    -0.259 OA
ENDROOT
TORSDOF 0
ENDMDL
MODEL 8
REMARK VINA RESULT:      -1.9      6.561      7.008
REMARK  0 active torsions:
REMARK  status: ('A' for Active; 'I' for Inactive)
ROOT
ATOM      1  C1  <0> d   1      18.802   2.409   9.320  0.00  0.00     0.126 C 
ATOM      2  S2  <0> d   1      18.163   2.655  10.999  0.00  0.00     0.006 S 
ATOM      3  C3  <0> d   1      19.501   3.568  11.816  0.00  0.00     0.126 C 
ATOM      4  O4  <0> d   1      16.998   3.467  10.948  0.00  0.00    -0.259 OA
ENDROOT
TORSDOF 0
ENDMDL
MODEL 9
REMARK VINA RESULT:      -1.9      8.482      8.733
REMARK  0 active torsions:
REMARK  status: ('A' for Active; 'I' for Inactive)
ROOT
ATOM      1  C1  <0> d   1      16.429   5.446  12.706  0.00  0.00     0.126 C 
ATOM      2  S2  <0> d   1      17.487   4.732  11.417  0.00  0.00     0.006 S 
ATOM      3  C3  <0> d   1      19.054   4.450  12.286  0.00  0.00     0.126 C 
ATOM      4  O4  <0> d   1      16.947   3.486  10.997  0.00  0.00    -0.259 OA
ENDROOT
TORSDOF 0
ENDMDL
