MODEL 1
REMARK VINA RESULT:      -9.1      0.000      0.000
REMARK  4 active torsions:
REMARK  status: ('A' for Active; 'I' for Inactive)
REMARK    1  A    between atoms: N11_10  and  N12_11 
REMARK       I    between atoms: N12_11  and  C13_12 
REMARK    2  A    between atoms: C13_12  and  C15_14 
REMARK    3  A    between atoms: C20_19  and  S21_20 
REMARK    4  A    between atoms: S21_20  and  N22_21 
ROOT
ATOM      1  N12 ZIN A   1      18.380   0.976  11.935  0.00  0.00    -0.263 N 
ATOM      2  C13 ZIN A   1      19.397   0.608  12.739  0.00  0.00     0.270 C 
ATOM      3  O14 ZIN A   1      20.512   0.458  12.279  0.00  0.00    -0.266 OA
ATOM      4  H35 ZIN A   1      17.490   1.097  12.301  0.00  0.00     0.190 HD
ENDROOT
BRANCH   2   5
ATOM      5  C15 ZIN A   1      19.156   0.389  14.181  0.00  0.00     0.035 A 
ATOM      6  C25 ZIN A   1      19.307   1.441  15.085  0.00  0.00     0.044 A 
ATOM      7  C20 ZIN A   1      19.075   1.231  16.428  0.00  0.00     0.102 A 
ATOM      8  C18 ZIN A   1      18.703  -0.023  16.882  0.00  0.00     0.057 A 
ATOM      9  C17 ZIN A   1      18.557  -1.073  15.990  0.00  0.00     0.026 A 
ATOM     10 Cl19 ZIN A   1      18.419  -0.282  18.575  0.00  0.00    -0.083 Cl
ATOM     11  C16 ZIN A   1      18.780  -0.874  14.644  0.00  0.00     0.019 A 
BRANCH   7  12
ATOM     12  S21 ZIN A   1      19.260   2.560  17.571  0.00  0.00     0.258 S 
ATOM     13  O23 ZIN A   1      19.770   1.991  18.769  0.00  0.00    -0.201 OA
ATOM     14  O24 ZIN A   1      19.915   3.606  16.867  0.00  0.00    -0.201 OA
BRANCH  12  15
ATOM     15  N22 ZIN A   1      17.741   3.115  17.926  0.00  0.00    -0.324 N 
ATOM     16  H38 ZIN A   1      17.123   2.555  18.421  0.00  0.00     0.169 HD
ATOM     17  H39 ZIN A   1      17.469   4.001  17.639  0.00  0.00     0.169 HD
ENDBRANCH  12  15
ENDBRANCH   7  12
ENDBRANCH   2   5
BRANCH   1  18
ATOM     18  N11 ZIN A   1      18.608   1.185  10.567  0.00  0.00    -0.284 N 
ATOM     19  C2  ZIN A   1      19.050   2.448   9.971  0.00  0.00     0.109 A 
ATOM     20  C1  ZIN A   1      18.021   3.549  10.235  0.00  0.00     0.034 C 
ATOM     21  C4  ZIN A   1      19.156   2.168   8.463  0.00  0.00     0.067 A 
ATOM     22  C5  ZIN A   1      18.750   0.718   8.316  0.00  0.00    -0.028 A 
ATOM     23  C10 ZIN A   1      18.448   0.216   9.572  0.00  0.00     0.057 A 
ATOM     24  C6  ZIN A   1      18.654  -0.087   7.198  0.00  0.00     0.009 A 
ATOM     25  C9  ZIN A   1      18.044  -1.115   9.690  0.00  0.00     0.031 A 
ATOM     26  C8  ZIN A   1      17.949  -1.915   8.572  0.00  0.00     0.002 A 
ATOM     27  C7  ZIN A   1      18.253  -1.405   7.324  0.00  0.00     0.001 A 
ENDBRANCH   1  18
TORSDOF 4
ENDMDL
MODEL 2
REMARK VINA RESULT:      -8.8      1.560      2.688
REMARK  4 active torsions:
REMARK  status: ('A' for Active; 'I' for Inactive)
REMARK    1  A    between atoms: N11_10  and  N12_11 
REMARK       I    between atoms: N12_11  and  C13_12 
REMARK    2  A    between atoms: C13_12  and  C15_14 
REMARK    3  A    between atoms: C20_19  and  S21_20 
REMARK    4  A    between atoms: S21_20  and  N22_21 
ROOT
ATOM      1  N12 ZIN A   1      18.940  -0.912  11.937  0.00  0.00    -0.263 N 
ATOM      2  C13 ZIN A   1      17.972  -0.531  12.795  0.00  0.00     0.270 C 
ATOM      3  O14 ZIN A   1      16.834  -0.378  12.398  0.00  0.00    -0.266 OA
ATOM      4  H35 ZIN A   1      19.848  -1.035  12.253  0.00  0.00     0.190 HD
ENDROOT
BRANCH   2   5
ATOM      5  C15 ZIN A   1      18.296  -0.302  14.219  0.00  0.00     0.035 A 
ATOM      6  C25 ZIN A   1      18.342   0.998  14.726  0.00  0.00     0.044 A 
ATOM      7  C20 ZIN A   1      18.639   1.206  16.057  0.00  0.00     0.102 A 
ATOM      8  C18 ZIN A   1      18.900   0.128  16.887  0.00  0.00     0.057 A 
ATOM      9  C17 ZIN A   1      18.862  -1.163  16.388  0.00  0.00     0.026 A 
ATOM     10 Cl19 ZIN A   1      19.280   0.398  18.560  0.00  0.00    -0.083 Cl
ATOM     11  C16 ZIN A   1      18.561  -1.384  15.060  0.00  0.00     0.019 A 
BRANCH   7  12
ATOM     12  S21 ZIN A   1      18.692   2.845  16.700  0.00  0.00     0.258 S 
ATOM     13  O23 ZIN A   1      17.839   2.858  17.836  0.00  0.00    -0.201 OA
ATOM     14  O24 ZIN A   1      20.064   3.211  16.754  0.00  0.00    -0.201 OA
BRANCH  12  15
ATOM     15  N22 ZIN A   1      17.988   3.836  15.575  0.00  0.00    -0.324 N 
ATOM     16  H38 ZIN A   1      18.480   4.590  15.217  0.00  0.00     0.169 HD
ATOM     17  H39 ZIN A   1      17.082   3.660  15.275  0.00  0.00     0.169 HD
ENDBRANCH  12  15
ENDBRANCH   7  12
ENDBRANCH   2   5
BRANCH   1  18
ATOM     18  N11 ZIN A   1      18.633  -1.130  10.587  0.00  0.00    -0.284 N 
ATOM     19  C2  ZIN A   1      18.121  -2.385  10.032  0.00  0.00     0.109 A 
ATOM     20  C1  ZIN A   1      19.128  -3.515  10.257  0.00  0.00     0.034 C 
ATOM     21  C4  ZIN A   1      17.945  -2.121   8.527  0.00  0.00     0.067 A 
ATOM     22  C5  ZIN A   1      18.386  -0.686   8.339  0.00  0.00    -0.028 A 
ATOM     23  C10 ZIN A   1      18.770  -0.179   9.571  0.00  0.00     0.057 A 
ATOM     24  C6  ZIN A   1      18.448   0.101   7.207  0.00  0.00     0.009 A 
ATOM     25  C9  ZIN A   1      19.221   1.140   9.649  0.00  0.00     0.031 A 
ATOM     26  C8  ZIN A   1      19.281   1.923   8.517  0.00  0.00     0.002 A 
ATOM     27  C7  ZIN A   1      18.895   1.407   7.293  0.00  0.00     0.001 A 
ENDBRANCH   1  18
TORSDOF 4
ENDMDL
MODEL 3
REMARK VINA RESULT:      -8.7      4.794      8.246
REMARK  4 active torsions:
REMARK  status: ('A' for Active; 'I' for Inactive)
REMARK    1  A    between atoms: N11_10  and  N12_11 
REMARK       I    between atoms: N12_11  and  C13_12 
REMARK    2  A    between atoms: C13_12  and  C15_14 
REMARK    3  A    between atoms: C20_19  and  S21_20 
REMARK    4  A    between atoms: S21_20  and  N22_21 
ROOT
ATOM      1  N12 ZIN A   1      19.052   1.330  11.104  0.00  0.00    -0.263 N 
ATOM      2  C13 ZIN A   1      18.087   0.903  10.265  0.00  0.00     0.270 C 
ATOM      3  O14 ZIN A   1      16.951   0.754  10.671  0.00  0.00    -0.266 OA
ATOM      4  H35 ZIN A   1      19.958   1.449  10.781  0.00  0.00     0.190 HD
ENDROOT
BRANCH   2   5
ATOM      5  C15 ZIN A   1      18.410   0.617   8.852  0.00  0.00     0.035 A 
ATOM      6  C25 ZIN A   1      18.391  -0.697   8.380  0.00  0.00     0.044 A 
ATOM      7  C20 ZIN A   1      18.688  -0.957   7.059  0.00  0.00     0.102 A 
ATOM      8  C18 ZIN A   1      19.014   0.082   6.203  0.00  0.00     0.057 A 
ATOM      9  C17 ZIN A   1      19.041   1.387   6.666  0.00  0.00     0.026 A 
ATOM     10 Cl19 ZIN A   1      19.394  -0.253   4.542  0.00  0.00    -0.083 Cl
ATOM     11  C16 ZIN A   1      18.741   1.660   7.984  0.00  0.00     0.019 A 
BRANCH   7  12
ATOM     12  S21 ZIN A   1      18.658  -2.614   6.461  0.00  0.00     0.258 S 
ATOM     13  O23 ZIN A   1      17.777  -2.621   5.346  0.00  0.00    -0.201 OA
ATOM     14  O24 ZIN A   1      20.012  -3.037   6.385  0.00  0.00    -0.201 OA
BRANCH  12  15
ATOM     15  N22 ZIN A   1      17.941  -3.543   7.629  0.00  0.00    -0.324 N 
ATOM     16  H38 ZIN A   1      18.370  -3.654   8.492  0.00  0.00     0.169 HD
ATOM     17  H39 ZIN A   1      17.092  -3.977   7.450  0.00  0.00     0.169 HD
ENDBRANCH  12  15
ENDBRANCH   7  12
ENDBRANCH   2   5
BRANCH   1  18
ATOM     18  N11 ZIN A   1      18.745   1.601  12.445  0.00  0.00    -0.284 N 
ATOM     19  C2  ZIN A   1      18.263   2.887  12.955  0.00  0.00     0.109 A 
ATOM     20  C1  ZIN A   1      19.300   3.983  12.697  0.00  0.00     0.034 C 
ATOM     21  C4  ZIN A   1      18.074   2.679  14.466  0.00  0.00     0.067 A 
ATOM     22  C5  ZIN A   1      18.478   1.240  14.705  0.00  0.00    -0.028 A 
ATOM     23  C10 ZIN A   1      18.853   0.682  13.493  0.00  0.00     0.057 A 
ATOM     24  C6  ZIN A   1      18.514   0.490  15.863  0.00  0.00     0.009 A 
ATOM     25  C9  ZIN A   1      19.270  -0.650  13.461  0.00  0.00     0.031 A 
ATOM     26  C8  ZIN A   1      19.306  -1.395  14.620  0.00  0.00     0.002 A 
ATOM     27  C7  ZIN A   1      18.929  -0.829  15.824  0.00  0.00     0.001 A 
ENDBRANCH   1  18
TORSDOF 4
ENDMDL
MODEL 4
REMARK VINA RESULT:      -8.3      5.069      8.339
REMARK  4 active torsions:
REMARK  status: ('A' for Active; 'I' for Inactive)
REMARK    1  A    between atoms: N11_10  and  N12_11 
REMARK       I    between atoms: N12_11  and  C13_12 
REMARK    2  A    between atoms: C13_12  and  C15_14 
REMARK    3  A    between atoms: C20_19  and  S21_20 
REMARK    4  A    between atoms: S21_20  and  N22_21 
ROOT
ATOM      1  N12 ZIN A   1      19.082   1.422  10.242  0.00  0.00    -0.263 N 
ATOM      2  C13 ZIN A   1      18.134   0.649   9.674  0.00  0.00     0.270 C 
ATOM      3  O14 ZIN A   1      17.058   0.506  10.221  0.00  0.00    -0.266 OA
ATOM      4  H35 ZIN A   1      19.940   1.537   9.806  0.00  0.00     0.190 HD
ENDROOT
BRANCH   2   5
ATOM      5  C15 ZIN A   1      18.404  -0.024   8.386  0.00  0.00     0.035 A 
ATOM      6  C25 ZIN A   1      18.707  -1.387   8.358  0.00  0.00     0.044 A 
ATOM      7  C20 ZIN A   1      18.952  -2.011   7.153  0.00  0.00     0.102 A 
ATOM      8  C18 ZIN A   1      18.909  -1.287   5.974  0.00  0.00     0.057 A 
ATOM      9  C17 ZIN A   1      18.616   0.067   5.996  0.00  0.00     0.026 A 
ATOM     10 Cl19 ZIN A   1      19.226  -2.078   4.461  0.00  0.00    -0.083 Cl
ATOM     11  C16 ZIN A   1      18.363   0.701   7.194  0.00  0.00     0.019 A 
BRANCH   7  12
ATOM     12  S21 ZIN A   1      19.327  -3.733   7.115  0.00  0.00     0.258 S 
ATOM     13  O23 ZIN A   1      18.159  -4.387   6.640  0.00  0.00    -0.201 OA
ATOM     14  O24 ZIN A   1      20.596  -3.852   6.486  0.00  0.00    -0.201 OA
BRANCH  12  15
ATOM     15  N22 ZIN A   1      19.534  -4.223   8.683  0.00  0.00    -0.324 N 
ATOM     16  H38 ZIN A   1      20.418  -4.215   9.082  0.00  0.00     0.169 HD
ATOM     17  H39 ZIN A   1      18.771  -4.520   9.203  0.00  0.00     0.169 HD
ENDBRANCH  12  15
ENDBRANCH   7  12
ENDBRANCH   2   5
BRANCH   1  18
ATOM     18  N11 ZIN A   1      18.825   2.061  11.463  0.00  0.00    -0.284 N 
ATOM     19  C2  ZIN A   1      19.303   1.603  12.769  0.00  0.00     0.109 A 
ATOM     20  C1  ZIN A   1      18.748   0.212  13.081  0.00  0.00     0.034 C 
ATOM     21  C4  ZIN A   1      18.766   2.630  13.780  0.00  0.00     0.067 A 
ATOM     22  C5  ZIN A   1      17.997   3.625  12.938  0.00  0.00    -0.028 A 
ATOM     23  C10 ZIN A   1      18.075   3.232  11.612  0.00  0.00     0.057 A 
ATOM     24  C6  ZIN A   1      17.298   4.762  13.293  0.00  0.00     0.009 A 
ATOM     25  C9  ZIN A   1      17.436   4.002  10.638  0.00  0.00     0.031 A 
ATOM     26  C8  ZIN A   1      16.739   5.136  10.996  0.00  0.00     0.002 A 
ATOM     27  C7  ZIN A   1      16.668   5.519  12.323  0.00  0.00     0.001 A 
ENDBRANCH   1  18
TORSDOF 4
ENDMDL
MODEL 5
REMARK VINA RESULT:      -8.3      4.504      7.403
REMARK  4 active torsions:
REMARK  status: ('A' for Active; 'I' for Inactive)
REMARK    1  A    between atoms: N11_10  and  N12_11 
REMARK       I    between atoms: N12_11  and  C13_12 
REMARK    2  A    between atoms: C13_12  and  C15_14 
REMARK    3  A    between atoms: C20_19  and  S21_20 
REMARK    4  A    between atoms: S21_20  and  N22_21 
ROOT
ATOM      1  N12 ZIN A   1      18.315  -0.233  12.151  0.00  0.00    -0.263 N 
ATOM      2  C13 ZIN A   1      19.471  -0.740  11.678  0.00  0.00     0.270 C 
ATOM      3  O14 ZIN A   1      20.506  -0.114  11.803  0.00  0.00    -0.266 OA
ATOM      4  H35 ZIN A   1      17.490  -0.732  12.053  0.00  0.00     0.190 HD
ENDROOT
BRANCH   2   5
ATOM      5  C15 ZIN A   1      19.480  -2.057  11.007  0.00  0.00     0.035 A 
ATOM      6  C25 ZIN A   1      19.172  -2.154   9.649  0.00  0.00     0.044 A 
ATOM      7  C20 ZIN A   1      19.188  -3.385   9.027  0.00  0.00     0.102 A 
ATOM      8  C18 ZIN A   1      19.498  -4.525   9.750  0.00  0.00     0.057 A 
ATOM      9  C17 ZIN A   1      19.799  -4.436  11.100  0.00  0.00     0.026 A 
ATOM     10 Cl19 ZIN A   1      19.510  -6.072   8.962  0.00  0.00    -0.083 Cl
ATOM     11  C16 ZIN A   1      19.792  -3.210  11.731  0.00  0.00     0.019 A 
BRANCH   7  12
ATOM     12  S21 ZIN A   1      18.805  -3.508   7.311  0.00  0.00     0.258 S 
ATOM     13  O23 ZIN A   1      20.048  -3.573   6.627  0.00  0.00    -0.201 OA
ATOM     14  O24 ZIN A   1      17.800  -4.507   7.196  0.00  0.00    -0.201 OA
BRANCH  12  15
ATOM     15  N22 ZIN A   1      18.099  -2.079   6.864  0.00  0.00    -0.324 N 
ATOM     16  H38 ZIN A   1      18.458  -1.238   7.186  0.00  0.00     0.169 HD
ATOM     17  H39 ZIN A   1      17.325  -2.084   6.278  0.00  0.00     0.169 HD
ENDBRANCH  12  15
ENDBRANCH   7  12
ENDBRANCH   2   5
BRANCH   1  18
ATOM     18  N11 ZIN A   1      18.307   1.016  12.788  0.00  0.00    -0.284 N 
ATOM     19  C2  ZIN A   1      18.553   1.235  14.215  0.00  0.00     0.109 A 
ATOM     20  C1  ZIN A   1      17.499   0.507  15.053  0.00  0.00     0.034 C 
ATOM     21  C4  ZIN A   1      18.437   2.755  14.417  0.00  0.00     0.067 A 
ATOM     22  C5  ZIN A   1      18.124   3.299  13.041  0.00  0.00    -0.028 A 
ATOM     23  C10 ZIN A   1      18.064   2.237  12.152  0.00  0.00     0.057 A 
ATOM     24  C6  ZIN A   1      17.912   4.591  12.604  0.00  0.00     0.009 A 
ATOM     25  C9  ZIN A   1      17.785   2.494  10.808  0.00  0.00     0.031 A 
ATOM     26  C8  ZIN A   1      17.573   3.785  10.376  0.00  0.00     0.002 A 
ATOM     27  C7  ZIN A   1      17.636   4.837  11.271  0.00  0.00     0.001 A 
ENDBRANCH   1  18
TORSDOF 4
ENDMDL
MODEL 6
REMARK VINA RESULT:      -8.2      2.010      3.152
REMARK  4 active torsions:
REMARK  status: ('A' for Active; 'I' for Inactive)
REMARK    1  A    between atoms: N11_10  and  N12_11 
REMARK       I    between atoms: N12_11  and  C13_12 
REMARK    2  A    between atoms: C13_12  and  C15_14 
REMARK    3  A    between atoms: C20_19  and  S21_20 
REMARK    4  A    between atoms: S21_20  and  N22_21 
ROOT
ATOM      1  N12 ZIN A   1      19.121   0.358  11.981  0.00  0.00    -0.263 N 
ATOM      2  C13 ZIN A   1      18.066   0.754  12.721  0.00  0.00     0.270 C 
ATOM      3  O14 ZIN A   1      16.939   0.456  12.380  0.00  0.00    -0.266 OA
ATOM      4  H35 ZIN A   1      20.021   0.595  12.252  0.00  0.00     0.190 HD
ENDROOT
BRANCH   2   5
ATOM      5  C15 ZIN A   1      18.282   1.550  13.947  0.00  0.00     0.035 A 
ATOM      6  C25 ZIN A   1      18.341   0.919  15.192  0.00  0.00     0.044 A 
ATOM      7  C20 ZIN A   1      18.549   1.667  16.331  0.00  0.00     0.102 A 
ATOM      8  C18 ZIN A   1      18.688   3.043  16.244  0.00  0.00     0.057 A 
ATOM      9  C17 ZIN A   1      18.625   3.675  15.014  0.00  0.00     0.026 A 
ATOM     10 Cl19 ZIN A   1      18.943   3.979  17.685  0.00  0.00    -0.083 Cl
ATOM     11  C16 ZIN A   1      18.424   2.937  13.866  0.00  0.00     0.019 A 
BRANCH   7  12
ATOM     12  S21 ZIN A   1      18.629   0.872  17.902  0.00  0.00     0.258 S 
ATOM     13  O23 ZIN A   1      19.903   1.189  18.446  0.00  0.00    -0.201 OA
ATOM     14  O24 ZIN A   1      17.406   1.166  18.563  0.00  0.00    -0.201 OA
BRANCH  12  15
ATOM     15  N22 ZIN A   1      18.631  -0.760  17.625  0.00  0.00    -0.324 N 
ATOM     16  H38 ZIN A   1      19.050  -1.116  16.825  0.00  0.00     0.169 HD
ATOM     17  H39 ZIN A   1      18.214  -1.360  18.262  0.00  0.00     0.169 HD
ENDBRANCH  12  15
ENDBRANCH   7  12
ENDBRANCH   2   5
BRANCH   1  18
ATOM     18  N11 ZIN A   1      18.916  -0.397  10.818  0.00  0.00    -0.284 N 
ATOM     19  C2  ZIN A   1      18.657  -1.839  10.785  0.00  0.00     0.109 A 
ATOM     20  C1  ZIN A   1      19.835  -2.604  11.390  0.00  0.00     0.034 C 
ATOM     21  C4  ZIN A   1      18.503  -2.189   9.296  0.00  0.00     0.067 A 
ATOM     22  C5  ZIN A   1      18.694  -0.873   8.574  0.00  0.00    -0.028 A 
ATOM     23  C10 ZIN A   1      18.929   0.116   9.517  0.00  0.00     0.057 A 
ATOM     24  C6  ZIN A   1      18.666  -0.565   7.229  0.00  0.00     0.009 A 
ATOM     25  C9  ZIN A   1      19.138   1.427   9.086  0.00  0.00     0.031 A 
ATOM     26  C8  ZIN A   1      19.110   1.730   7.742  0.00  0.00     0.002 A 
ATOM     27  C7  ZIN A   1      18.874   0.736   6.809  0.00  0.00     0.001 A 
ENDBRANCH   1  18
TORSDOF 4
ENDMDL
MODEL 7
REMARK VINA RESULT:      -8.2      4.802      8.146
REMARK  4 active torsions:
REMARK  status: ('A' for Active; 'I' for Inactive)
REMARK    1  A    between atoms: N11_10  and  N12_11 
REMARK       I    between atoms: N12_11  and  C13_12 
REMARK    2  A    between atoms: C13_12  and  C15_14 
REMARK    3  A    between atoms: C20_19  and  S21_20 
REMARK    4  A    between atoms: S21_20  and  N22_21 
ROOT
ATOM      1  N12 ZIN A   1      19.112  -1.043  12.596  0.00  0.00    -0.263 N 
ATOM      2  C13 ZIN A   1      18.185  -1.681  11.852  0.00  0.00     0.270 C 
ATOM      3  O14 ZIN A   1      17.008  -1.412  11.987  0.00  0.00    -0.266 OA
ATOM      4  H35 ZIN A   1      20.051  -1.256  12.489  0.00  0.00     0.190 HD
ENDROOT
BRANCH   2   5
ATOM      5  C15 ZIN A   1      18.602  -2.707  10.874  0.00  0.00     0.035 A 
ATOM      6  C25 ZIN A   1      18.463  -2.468   9.505  0.00  0.00     0.044 A 
ATOM      7  C20 ZIN A   1      18.860  -3.428   8.597  0.00  0.00     0.102 A 
ATOM      8  C18 ZIN A   1      19.385  -4.630   9.042  0.00  0.00     0.057 A 
ATOM      9  C17 ZIN A   1      19.520  -4.875  10.398  0.00  0.00     0.026 A 
ATOM     10 Cl19 ZIN A   1      19.876  -5.836   7.893  0.00  0.00    -0.083 Cl
ATOM     11  C16 ZIN A   1      19.133  -3.921  11.316  0.00  0.00     0.019 A 
BRANCH   7  12
ATOM     12  S21 ZIN A   1      18.691  -3.126   6.870  0.00  0.00     0.258 S 
ATOM     13  O23 ZIN A   1      20.004  -2.925   6.368  0.00  0.00    -0.201 OA
ATOM     14  O24 ZIN A   1      17.813  -4.127   6.372  0.00  0.00    -0.201 OA
BRANCH  12  15
ATOM     15  N22 ZIN A   1      17.898  -1.682   6.700  0.00  0.00    -0.324 N 
ATOM     16  H38 ZIN A   1      18.345  -0.854   6.933  0.00  0.00     0.169 HD
ATOM     17  H39 ZIN A   1      16.987  -1.666   6.368  0.00  0.00     0.169 HD
ENDBRANCH  12  15
ENDBRANCH   7  12
ENDBRANCH   2   5
BRANCH   1  18
ATOM     18  N11 ZIN A   1      18.716  -0.069  13.523  0.00  0.00    -0.284 N 
ATOM     19  C2  ZIN A   1      18.221   1.267  13.182  0.00  0.00     0.109 A 
ATOM     20  C1  ZIN A   1      19.290   2.051  12.419  0.00  0.00     0.034 C 
ATOM     21  C4  ZIN A   1      17.922   1.944  14.530  0.00  0.00     0.067 A 
ATOM     22  C5  ZIN A   1      18.286   0.905  15.566  0.00  0.00    -0.028 A 
ATOM     23  C10 ZIN A   1      18.736  -0.231  14.912  0.00  0.00     0.057 A 
ATOM     24  C6  ZIN A   1      18.229   0.942  16.945  0.00  0.00     0.009 A 
ATOM     25  C9  ZIN A   1      19.133  -1.336  15.667  0.00  0.00     0.031 A 
ATOM     26  C8  ZIN A   1      19.076  -1.294  17.043  0.00  0.00     0.002 A 
ATOM     27  C7  ZIN A   1      18.624  -0.157  17.687  0.00  0.00     0.001 A 
ENDBRANCH   1  18
TORSDOF 4
ENDMDL
MODEL 8
REMARK VINA RESULT:      -8.1      2.220      3.095
REMARK  4 active torsions:
REMARK  status: ('A' for Active; 'I' for Inactive)
REMARK    1  A    between atoms: N11_10  and  N12_11 
REMARK       I    between atoms: N12_11  and  C13_12 
REMARK    2  A    between atoms: C13_12  and  C15_14 
REMARK    3  A    between atoms: C20_19  and  S21_20 
REMARK    4  A    between atoms: S21_20  and  N22_21 
ROOT
ATOM      1  N12 ZIN A   1      18.405  -0.053  12.096  0.00  0.00    -0.263 N 
ATOM      2  C13 ZIN A   1      19.421   0.559  12.738  0.00  0.00     0.270 C 
ATOM      3  O14 ZIN A   1      20.558   0.441  12.326  0.00  0.00    -0.266 OA
ATOM      4  H35 ZIN A   1      17.498   0.041  12.424  0.00  0.00     0.190 HD
ENDROOT
BRANCH   2   5
ATOM      5  C15 ZIN A   1      19.151   1.373  13.941  0.00  0.00     0.035 A 
ATOM      6  C25 ZIN A   1      19.169   0.781  15.206  0.00  0.00     0.044 A 
ATOM      7  C20 ZIN A   1      18.922   1.547  16.326  0.00  0.00     0.102 A 
ATOM      8  C18 ZIN A   1      18.647   2.899  16.197  0.00  0.00     0.057 A 
ATOM      9  C17 ZIN A   1      18.621   3.490  14.944  0.00  0.00     0.026 A 
ATOM     10 Cl19 ZIN A   1      18.330   3.856  17.611  0.00  0.00    -0.083 Cl
ATOM     11  C16 ZIN A   1      18.872   2.736  13.817  0.00  0.00     0.019 A 
BRANCH   7  12
ATOM     12  S21 ZIN A   1      18.951   0.804  17.923  0.00  0.00     0.258 S 
ATOM     13  O23 ZIN A   1      19.912   1.523  18.683  0.00  0.00    -0.201 OA
ATOM     14  O24 ZIN A   1      17.595   0.659  18.322  0.00  0.00    -0.201 OA
BRANCH  12  15
ATOM     15  N22 ZIN A   1      19.551  -0.728  17.739  0.00  0.00    -0.324 N 
ATOM     16  H38 ZIN A   1      20.337  -0.879  17.191  0.00  0.00     0.169 HD
ATOM     17  H39 ZIN A   1      19.116  -1.475  18.180  0.00  0.00     0.169 HD
ENDBRANCH  12  15
ENDBRANCH   7  12
ENDBRANCH   2   5
BRANCH   1  18
ATOM     18  N11 ZIN A   1      18.661  -0.824  10.954  0.00  0.00    -0.284 N 
ATOM     19  C2  ZIN A   1      18.952  -0.287   9.623  0.00  0.00     0.109 A 
ATOM     20  C1  ZIN A   1      17.773   0.546   9.117  0.00  0.00     0.034 C 
ATOM     21  C4  ZIN A   1      19.159  -1.519   8.726  0.00  0.00     0.067 A 
ATOM     22  C5  ZIN A   1      18.962  -2.700   9.650  0.00  0.00    -0.028 A 
ATOM     23  C10 ZIN A   1      18.677  -2.222  10.920  0.00  0.00     0.057 A 
ATOM     24  C6  ZIN A   1      19.024  -4.058   9.410  0.00  0.00     0.009 A 
ATOM     25  C9  ZIN A   1      18.453  -3.135  11.952  0.00  0.00     0.031 A 
ATOM     26  C8  ZIN A   1      18.515  -4.489  11.708  0.00  0.00     0.002 A 
ATOM     27  C7  ZIN A   1      18.801  -4.956  10.438  0.00  0.00     0.001 A 
ENDBRANCH   1  18
TORSDOF 4
ENDMDL
MODEL 9
REMARK VINA RESULT:      -8.1      4.652      7.694
REMARK  4 active torsions:
REMARK  status: ('A' for Active; 'I' for Inactive)
REMARK    1  A    between atoms: N11_10  and  N12_11 
REMARK       I    between atoms: N12_11  and  C13_12 
REMARK    2  A    between atoms: C13_12  and  C15_14 
REMARK    3  A    between atoms: C20_19  and  S21_20 
REMARK    4  A    between atoms: S21_20  and  N22_21 
ROOT
ATOM      1  N12 ZIN A   1      18.810   0.172  11.139  0.00  0.00    -0.263 N 
ATOM      2  C13 ZIN A   1      18.002  -0.906  11.181  0.00  0.00     0.270 C 
ATOM      3  O14 ZIN A   1      16.896  -0.817  11.677  0.00  0.00    -0.266 OA
ATOM      4  H35 ZIN A   1      19.692   0.102  10.743  0.00  0.00     0.190 HD
ENDROOT
BRANCH   2   5
ATOM      5  C15 ZIN A   1      18.461  -2.195  10.625  0.00  0.00     0.035 A 
ATOM      6  C25 ZIN A   1      18.447  -2.409   9.245  0.00  0.00     0.044 A 
ATOM      7  C20 ZIN A   1      18.883  -3.612   8.731  0.00  0.00     0.102 A 
ATOM      8  C18 ZIN A   1      19.325  -4.612   9.582  0.00  0.00     0.057 A 
ATOM      9  C17 ZIN A   1      19.336  -4.408  10.952  0.00  0.00     0.026 A 
ATOM     10 Cl19 ZIN A   1      19.865  -6.127   8.929  0.00  0.00    -0.083 Cl
ATOM     11  C16 ZIN A   1      18.908  -3.207  11.478  0.00  0.00     0.019 A 
BRANCH   7  12
ATOM     12  S21 ZIN A   1      18.871  -3.881   6.990  0.00  0.00     0.258 S 
ATOM     13  O23 ZIN A   1      20.225  -3.818   6.565  0.00  0.00    -0.201 OA
ATOM     14  O24 ZIN A   1      18.036  -5.009   6.764  0.00  0.00    -0.201 OA
BRANCH  12  15
ATOM     15  N22 ZIN A   1      18.104  -2.586   6.300  0.00  0.00    -0.324 N 
ATOM     16  H38 ZIN A   1      18.622  -1.841   5.958  0.00  0.00     0.169 HD
ATOM     17  H39 ZIN A   1      17.136  -2.572   6.238  0.00  0.00     0.169 HD
ENDBRANCH  12  15
ENDBRANCH   7  12
ENDBRANCH   2   5
BRANCH   1  18
ATOM     18  N11 ZIN A   1      18.374   1.396  11.666  0.00  0.00    -0.284 N 
ATOM     19  C2  ZIN A   1      17.692   2.445  10.906  0.00  0.00     0.109 A 
ATOM     20  C1  ZIN A   1      18.591   2.953   9.776  0.00  0.00     0.034 C 
ATOM     21  C4  ZIN A   1      17.422   3.570  11.919  0.00  0.00     0.067 A 
ATOM     22  C5  ZIN A   1      17.994   3.053  13.221  0.00  0.00    -0.028 A 
ATOM     23  C10 ZIN A   1      18.526   1.793  12.998  0.00  0.00     0.057 A 
ATOM     24  C6  ZIN A   1      18.045   3.624  14.477  0.00  0.00     0.009 A 
ATOM     25  C9  ZIN A   1      19.116   1.109  14.063  0.00  0.00     0.031 A 
ATOM     26  C8  ZIN A   1      19.166   1.682  15.315  0.00  0.00     0.002 A 
ATOM     27  C7  ZIN A   1      18.631   2.940  15.527  0.00  0.00     0.001 A 
ENDBRANCH   1  18
TORSDOF 4
ENDMDL
