MODEL 1
REMARK VINA RESULT:      -8.2      0.000      0.000
REMARK  2 active torsions:
REMARK  status: ('A' for Active; 'I' for Inactive)
REMARK    1  A    between atoms: N6_6  and  C7_7 
REMARK    2  A    between atoms: C7_7  and  C8_8 
ROOT
ATOM      1  C8  ZIN A   1      18.749   1.867  10.660  0.00  0.00     0.079 C 
ATOM      2  C10 ZIN A   1      19.450   0.669  11.299  0.00  0.00     0.020 C 
ATOM      3  C11 ZIN A   1      18.832  -0.643  10.799  0.00  0.00     0.059 C 
ATOM      4  C12 ZIN A   1      18.908  -0.651   9.291  0.00  0.00     0.026 A 
ATOM      5  C13 ZIN A   1      18.936   0.525   8.548  0.00  0.00     0.045 A 
ATOM      6  C14 ZIN A   1      19.018   0.129   7.152  0.00  0.00     0.007 A 
ATOM      7  C15 ZIN A   1      19.079   0.851   5.961  0.00  0.00     0.015 A 
ATOM      8  C16 ZIN A   1      19.150   0.119   4.788  0.00  0.00     0.001 A 
ATOM      9  C17 ZIN A   1      19.162  -1.265   4.791  0.00  0.00     0.002 A 
ATOM     10  C18 ZIN A   1      19.101  -2.001   5.963  0.00  0.00     0.030 A 
ATOM     11  C19 ZIN A   1      19.029  -1.288   7.157  0.00  0.00     0.045 A 
ATOM     12  N20 ZIN A   1      18.959  -1.706   8.461  0.00  0.00    -0.353 N 
ATOM     13  C21 ZIN A   1      18.940  -3.108   8.888  0.00  0.00     0.156 C 
ATOM     14  C22 ZIN A   1      18.886   1.803   9.154  0.00  0.00     0.168 C 
ATOM     15  O23 ZIN A   1      18.947   2.816   8.488  0.00  0.00    -0.292 OA
ENDROOT
BRANCH   1  16
ATOM     16  C7  ZIN A   1      19.386   3.160  11.172  0.00  0.00     0.142 C 
BRANCH  16  17
ATOM     17  N6  ZIN A   1      18.520   3.762  12.190  0.00  0.00    -0.343 N 
ATOM     18  C2  ZIN A   1      17.486   4.601  11.967  0.00  0.00     0.101 A 
ATOM     19  C1  ZIN A   1      17.017   5.079  10.617  0.00  0.00     0.091 C 
ATOM     20  N3  ZIN A   1      16.955   4.925  13.115  0.00  0.00    -0.246 NA
ATOM     21  C4  ZIN A   1      17.628   4.314  14.101  0.00  0.00     0.136 A 
ATOM     22  C5  ZIN A   1      18.613   3.584  13.543  0.00  0.00     0.111 A 
ENDBRANCH  16  17
ENDBRANCH   1  16
TORSDOF 2
ENDMDL
MODEL 2
REMARK VINA RESULT:      -7.9      2.985      3.868
REMARK  2 active torsions:
REMARK  status: ('A' for Active; 'I' for Inactive)
REMARK    1  A    between atoms: N6_6  and  C7_7 
REMARK    2  A    between atoms: C7_7  and  C8_8 
ROOT
ATOM      1  C8  ZIN A   1      18.858  -1.081  12.993  0.00  0.00     0.079 C 
ATOM      2  C10 ZIN A   1      19.327  -2.450  12.503  0.00  0.00     0.020 C 
ATOM      3  C11 ZIN A   1      18.511  -2.891  11.283  0.00  0.00     0.059 C 
ATOM      4  C12 ZIN A   1      18.628  -1.816  10.228  0.00  0.00     0.026 A 
ATOM      5  C13 ZIN A   1      18.876  -0.487  10.556  0.00  0.00     0.045 A 
ATOM      6  C14 ZIN A   1      18.929   0.244   9.301  0.00  0.00     0.007 A 
ATOM      7  C15 ZIN A   1      19.147   1.585   8.990  0.00  0.00     0.015 A 
ATOM      8  C16 ZIN A   1      19.127   1.928   7.649  0.00  0.00     0.001 A 
ATOM      9  C17 ZIN A   1      18.903   0.988   6.657  0.00  0.00     0.002 A 
ATOM     10  C18 ZIN A   1      18.685  -0.349   6.945  0.00  0.00     0.030 A 
ATOM     11  C19 ZIN A   1      18.701  -0.720   8.287  0.00  0.00     0.045 A 
ATOM     12  N20 ZIN A   1      18.523  -1.937   8.894  0.00  0.00    -0.353 N 
ATOM     13  C21 ZIN A   1      18.254  -3.192   8.187  0.00  0.00     0.156 C 
ATOM     14  C22 ZIN A   1      19.026  -0.054  11.895  0.00  0.00     0.168 C 
ATOM     15  O23 ZIN A   1      19.276   1.105  12.155  0.00  0.00    -0.292 OA
ENDROOT
BRANCH   1  16
ATOM     16  C7  ZIN A   1      19.690  -0.664  14.208  0.00  0.00     0.142 C 
BRANCH  16  17
ATOM     17  N6  ZIN A   1      18.805  -0.450  15.356  0.00  0.00    -0.343 N 
ATOM     18  C2  ZIN A   1      18.548   0.730  15.961  0.00  0.00     0.101 A 
ATOM     19  C1  ZIN A   1      19.124   2.065  15.563  0.00  0.00     0.091 C 
ATOM     20  N3  ZIN A   1      17.714   0.524  16.944  0.00  0.00    -0.246 NA
ATOM     21  C4  ZIN A   1      17.416  -0.782  17.003  0.00  0.00     0.136 A 
ATOM     22  C5  ZIN A   1      18.090  -1.410  16.021  0.00  0.00     0.111 A 
ENDBRANCH  16  17
ENDBRANCH   1  16
TORSDOF 2
ENDMDL
MODEL 3
REMARK VINA RESULT:      -7.8      3.138      7.619
REMARK  2 active torsions:
REMARK  status: ('A' for Active; 'I' for Inactive)
REMARK    1  A    between atoms: N6_6  and  C7_7 
REMARK    2  A    between atoms: C7_7  and  C8_8 
ROOT
ATOM      1  C8  ZIN A   1      19.348   0.523  11.207  0.00  0.00     0.079 C 
ATOM      2  C10 ZIN A   1      19.870   1.936  11.460  0.00  0.00     0.020 C 
ATOM      3  C11 ZIN A   1      19.005   2.647  12.508  0.00  0.00     0.059 C 
ATOM      4  C12 ZIN A   1      18.984   1.794  13.754  0.00  0.00     0.026 A 
ATOM      5  C13 ZIN A   1      19.168   0.416  13.707  0.00  0.00     0.045 A 
ATOM      6  C14 ZIN A   1      19.092  -0.058  15.079  0.00  0.00     0.007 A 
ATOM      7  C15 ZIN A   1      19.203  -1.321  15.656  0.00  0.00     0.015 A 
ATOM      8  C16 ZIN A   1      19.074  -1.395  17.032  0.00  0.00     0.001 A 
ATOM      9  C17 ZIN A   1      18.846  -0.270  17.806  0.00  0.00     0.002 A 
ATOM     10  C18 ZIN A   1      18.733   0.994  17.252  0.00  0.00     0.030 A 
ATOM     11  C19 ZIN A   1      18.860   1.096  15.869  0.00  0.00     0.045 A 
ATOM     12  N20 ZIN A   1      18.799   2.178  15.029  0.00  0.00    -0.353 N 
ATOM     13  C21 ZIN A   1      18.566   3.558  15.460  0.00  0.00     0.156 C 
ATOM     14  C22 ZIN A   1      19.377  -0.277  12.491  0.00  0.00     0.168 C 
ATOM     15  O23 ZIN A   1      19.570  -1.476  12.477  0.00  0.00    -0.292 OA
ENDROOT
BRANCH   1  16
ATOM     16  C7  ZIN A   1      20.229  -0.164  10.161  0.00  0.00     0.142 C 
BRANCH  16  17
ATOM     17  N6  ZIN A   1      19.389  -0.686   9.081  0.00  0.00    -0.343 N 
ATOM     18  C2  ZIN A   1      18.918   0.010   8.024  0.00  0.00     0.101 A 
ATOM     19  C1  ZIN A   1      19.175   1.469   7.748  0.00  0.00     0.091 C 
ATOM     20  N3  ZIN A   1      18.209  -0.792   7.276  0.00  0.00    -0.246 NA
ATOM     21  C4  ZIN A   1      18.198  -2.014   7.827  0.00  0.00     0.136 A 
ATOM     22  C5  ZIN A   1      18.927  -1.969   8.959  0.00  0.00     0.111 A 
ENDBRANCH  16  17
ENDBRANCH   1  16
TORSDOF 2
ENDMDL
MODEL 4
REMARK VINA RESULT:      -7.7      3.538      7.560
REMARK  2 active torsions:
REMARK  status: ('A' for Active; 'I' for Inactive)
REMARK    1  A    between atoms: N6_6  and  C7_7 
REMARK    2  A    between atoms: C7_7  and  C8_8 
ROOT
ATOM      1  C8  ZIN A   1      18.277   0.456  12.278  0.00  0.00     0.079 C 
ATOM      2  C10 ZIN A   1      17.741  -0.859  12.841  0.00  0.00     0.020 C 
ATOM      3  C11 ZIN A   1      18.647  -1.368  13.969  0.00  0.00     0.059 C 
ATOM      4  C12 ZIN A   1      18.751  -0.281  15.012  0.00  0.00     0.026 A 
ATOM      5  C13 ZIN A   1      18.592   1.064  14.692  0.00  0.00     0.045 A 
ATOM      6  C14 ZIN A   1      18.751   1.805  15.932  0.00  0.00     0.007 A 
ATOM      7  C15 ZIN A   1      18.696   3.162  16.243  0.00  0.00     0.015 A 
ATOM      8  C16 ZIN A   1      18.901   3.510  17.567  0.00  0.00     0.001 A 
ATOM      9  C17 ZIN A   1      19.147   2.560  18.543  0.00  0.00     0.002 A 
ATOM     10  C18 ZIN A   1      19.205   1.206  18.255  0.00  0.00     0.030 A 
ATOM     11  C19 ZIN A   1      19.002   0.829  16.930  0.00  0.00     0.045 A 
ATOM     12  N20 ZIN A   1      18.996  -0.402  16.327  0.00  0.00    -0.353 N 
ATOM     13  C21 ZIN A   1      19.225  -1.672  17.020  0.00  0.00     0.156 C 
ATOM     14  C22 ZIN A   1      18.332   1.501  13.371  0.00  0.00     0.168 C 
ATOM     15  O23 ZIN A   1      18.163   2.678  13.122  0.00  0.00    -0.292 OA
ENDROOT
BRANCH   1  16
ATOM     16  C7  ZIN A   1      17.355   0.943  11.158  0.00  0.00     0.142 C 
BRANCH  16  17
ATOM     17  N6  ZIN A   1      18.126   1.094   9.922  0.00  0.00    -0.343 N 
ATOM     18  C2  ZIN A   1      18.531   2.257   9.367  0.00  0.00     0.101 A 
ATOM     19  C1  ZIN A   1      18.270   3.633   9.923  0.00  0.00     0.091 C 
ATOM     20  N3  ZIN A   1      19.192   1.991   8.273  0.00  0.00    -0.246 NA
ATOM     21  C4  ZIN A   1      19.227   0.664   8.090  0.00  0.00     0.136 A 
ATOM     22  C5  ZIN A   1      18.563   0.084   9.108  0.00  0.00     0.111 A 
ENDBRANCH  16  17
ENDBRANCH   1  16
TORSDOF 2
ENDMDL
MODEL 5
REMARK VINA RESULT:      -7.7      2.544      7.237
REMARK  2 active torsions:
REMARK  status: ('A' for Active; 'I' for Inactive)
REMARK    1  A    between atoms: N6_6  and  C7_7 
REMARK    2  A    between atoms: C7_7  and  C8_8 
ROOT
ATOM      1  C8  ZIN A   1      18.819   0.759   9.939  0.00  0.00     0.079 C 
ATOM      2  C10 ZIN A   1      19.220   2.205  10.229  0.00  0.00     0.020 C 
ATOM      3  C11 ZIN A   1      18.304   2.811  11.299  0.00  0.00     0.059 C 
ATOM      4  C12 ZIN A   1      18.365   1.927  12.522  0.00  0.00     0.026 A 
ATOM      5  C13 ZIN A   1      18.667   0.571  12.437  0.00  0.00     0.045 A 
ATOM      6  C14 ZIN A   1      18.642   0.057  13.796  0.00  0.00     0.007 A 
ATOM      7  C15 ZIN A   1      18.865  -1.208  14.338  0.00  0.00     0.015 A 
ATOM      8  C16 ZIN A   1      18.752  -1.328  15.713  0.00  0.00     0.001 A 
ATOM      9  C17 ZIN A   1      18.434  -0.248  16.517  0.00  0.00     0.002 A 
ATOM     10  C18 ZIN A   1      18.208   1.016  15.998  0.00  0.00     0.030 A 
ATOM     11  C19 ZIN A   1      18.316   1.165  14.618  0.00  0.00     0.045 A 
ATOM     12  N20 ZIN A   1      18.157   2.259  13.807  0.00  0.00    -0.353 N 
ATOM     13  C21 ZIN A   1      17.809   3.602  14.277  0.00  0.00     0.156 C 
ATOM     14  C22 ZIN A   1      18.926  -0.069  11.201  0.00  0.00     0.168 C 
ATOM     15  O23 ZIN A   1      19.221  -1.246  11.155  0.00  0.00    -0.292 OA
ENDROOT
BRANCH   1  16
ATOM     16  C7  ZIN A   1      19.749   0.178   8.872  0.00  0.00     0.142 C 
BRANCH  16  17
ATOM     17  N6  ZIN A   1      19.003  -0.011   7.625  0.00  0.00    -0.343 N 
ATOM     18  C2  ZIN A   1      18.414  -1.153   7.210  0.00  0.00     0.101 A 
ATOM     19  C1  ZIN A   1      18.406  -2.461   7.959  0.00  0.00     0.091 C 
ATOM     20  N3  ZIN A   1      17.847  -0.935   6.054  0.00  0.00    -0.246 NA
ATOM     21  C4  ZIN A   1      18.056   0.339   5.693  0.00  0.00     0.136 A 
ATOM     22  C5  ZIN A   1      18.781   0.934   6.660  0.00  0.00     0.111 A 
ENDBRANCH  16  17
ENDBRANCH   1  16
TORSDOF 2
ENDMDL
MODEL 6
REMARK VINA RESULT:      -7.6      2.059      2.835
REMARK  2 active torsions:
REMARK  status: ('A' for Active; 'I' for Inactive)
REMARK    1  A    between atoms: N6_6  and  C7_7 
REMARK    2  A    between atoms: C7_7  and  C8_8 
ROOT
ATOM      1  C8  ZIN A   1      19.281  -0.602  11.168  0.00  0.00     0.079 C 
ATOM      2  C10 ZIN A   1      19.814  -2.033  11.114  0.00  0.00     0.020 C 
ATOM      3  C11 ZIN A   1      18.962  -2.887  10.166  0.00  0.00     0.059 C 
ATOM      4  C12 ZIN A   1      18.947  -2.213   8.815  0.00  0.00     0.026 A 
ATOM      5  C13 ZIN A   1      19.122  -0.840   8.675  0.00  0.00     0.045 A 
ATOM      6  C14 ZIN A   1      19.055  -0.559   7.251  0.00  0.00     0.007 A 
ATOM      7  C15 ZIN A   1      19.162   0.615   6.507  0.00  0.00     0.015 A 
ATOM      8  C16 ZIN A   1      19.044   0.498   5.132  0.00  0.00     0.001 A 
ATOM      9  C17 ZIN A   1      18.830  -0.724   4.519  0.00  0.00     0.002 A 
ATOM     10  C18 ZIN A   1      18.720  -1.901   5.239  0.00  0.00     0.030 A 
ATOM     11  C19 ZIN A   1      18.836  -1.812   6.624  0.00  0.00     0.045 A 
ATOM     12  N20 ZIN A   1      18.775  -2.769   7.604  0.00  0.00    -0.353 N 
ATOM     13  C21 ZIN A   1      18.554  -4.197   7.364  0.00  0.00     0.156 C 
ATOM     14  C22 ZIN A   1      19.316   0.014   9.786  0.00  0.00     0.168 C 
ATOM     15  O23 ZIN A   1      19.501   1.205   9.637  0.00  0.00    -0.292 OA
ENDROOT
BRANCH   1  16
ATOM     16  C7  ZIN A   1      20.149   0.228  12.116  0.00  0.00     0.142 C 
BRANCH  16  17
ATOM     17  N6  ZIN A   1      19.308   0.810  13.165  0.00  0.00    -0.343 N 
ATOM     18  C2  ZIN A   1      18.943   0.216  14.321  0.00  0.00     0.101 A 
ATOM     19  C1  ZIN A   1      19.340  -1.170  14.760  0.00  0.00     0.091 C 
ATOM     20  N3  ZIN A   1      18.195   1.043  14.999  0.00  0.00    -0.246 NA
ATOM     21  C4  ZIN A   1      18.054   2.181  14.304  0.00  0.00     0.136 A 
ATOM     22  C5  ZIN A   1      18.739   2.055  13.152  0.00  0.00     0.111 A 
ENDBRANCH  16  17
ENDBRANCH   1  16
TORSDOF 2
ENDMDL
MODEL 7
REMARK VINA RESULT:      -7.5      2.631      7.241
REMARK  2 active torsions:
REMARK  status: ('A' for Active; 'I' for Inactive)
REMARK    1  A    between atoms: N6_6  and  C7_7 
REMARK    2  A    between atoms: C7_7  and  C8_8 
ROOT
ATOM      1  C8  ZIN A   1      18.309  -2.415   9.985  0.00  0.00     0.079 C 
ATOM      2  C10 ZIN A   1      17.473  -2.664  11.240  0.00  0.00     0.020 C 
ATOM      3  C11 ZIN A   1      18.010  -1.836  12.414  0.00  0.00     0.059 C 
ATOM      4  C12 ZIN A   1      18.026  -0.385  11.995  0.00  0.00     0.026 A 
ATOM      5  C13 ZIN A   1      18.142  -0.005  10.662  0.00  0.00     0.045 A 
ATOM      6  C14 ZIN A   1      18.114   1.448  10.643  0.00  0.00     0.007 A 
ATOM      7  C15 ZIN A   1      18.186   2.387   9.617  0.00  0.00     0.015 A 
ATOM      8  C16 ZIN A   1      18.127   3.721   9.983  0.00  0.00     0.001 A 
ATOM      9  C17 ZIN A   1      18.001   4.111  11.305  0.00  0.00     0.002 A 
ATOM     10  C18 ZIN A   1      17.928   3.193  12.339  0.00  0.00     0.030 A 
ATOM     11  C19 ZIN A   1      17.985   1.845  11.998  0.00  0.00     0.045 A 
ATOM     12  N20 ZIN A   1      17.940   0.710  12.768  0.00  0.00    -0.353 N 
ATOM     13  C21 ZIN A   1      17.816   0.696  14.227  0.00  0.00     0.156 C 
ATOM     14  C22 ZIN A   1      18.261  -0.949   9.615  0.00  0.00     0.168 C 
ATOM     15  O23 ZIN A   1      18.326  -0.595   8.455  0.00  0.00    -0.292 OA
ENDROOT
BRANCH   1  16
ATOM     16  C7  ZIN A   1      17.752  -3.250   8.830  0.00  0.00     0.142 C 
BRANCH  16  17
ATOM     17  N6  ZIN A   1      18.710  -4.301   8.480  0.00  0.00    -0.343 N 
ATOM     18  C2  ZIN A   1      18.729  -5.561   8.966  0.00  0.00     0.101 A 
ATOM     19  C1  ZIN A   1      17.758  -6.132   9.967  0.00  0.00     0.091 C 
ATOM     20  N3  ZIN A   1      19.726  -6.205   8.421  0.00  0.00    -0.246 NA
ATOM     21  C4  ZIN A   1      20.374  -5.385   7.581  0.00  0.00     0.136 A 
ATOM     22  C5  ZIN A   1      19.756  -4.188   7.606  0.00  0.00     0.111 A 
ENDBRANCH  16  17
ENDBRANCH   1  16
TORSDOF 2
ENDMDL
MODEL 8
REMARK VINA RESULT:      -7.4      3.801      7.269
REMARK  2 active torsions:
REMARK  status: ('A' for Active; 'I' for Inactive)
REMARK    1  A    between atoms: N6_6  and  C7_7 
REMARK    2  A    between atoms: C7_7  and  C8_8 
ROOT
ATOM      1  C8  ZIN A   1      18.176  -0.594  12.660  0.00  0.00     0.079 C 
ATOM      2  C10 ZIN A   1      17.776  -0.440  14.127  0.00  0.00     0.020 C 
ATOM      3  C11 ZIN A   1      18.475   0.775  14.749  0.00  0.00     0.059 C 
ATOM      4  C12 ZIN A   1      18.135   1.987  13.915  0.00  0.00     0.026 A 
ATOM      5  C13 ZIN A   1      17.810   1.886  12.566  0.00  0.00     0.045 A 
ATOM      6  C14 ZIN A   1      17.539   3.237  12.105  0.00  0.00     0.007 A 
ATOM      7  C15 ZIN A   1      17.166   3.763  10.869  0.00  0.00     0.015 A 
ATOM      8  C16 ZIN A   1      16.992   5.135  10.799  0.00  0.00     0.001 A 
ATOM      9  C17 ZIN A   1      17.178   5.952  11.901  0.00  0.00     0.002 A 
ATOM     10  C18 ZIN A   1      17.548   5.449  13.137  0.00  0.00     0.030 A 
ATOM     11  C19 ZIN A   1      17.729   4.072  13.234  0.00  0.00     0.045 A 
ATOM     12  N20 ZIN A   1      18.088   3.276  14.292  0.00  0.00    -0.353 N 
ATOM     13  C21 ZIN A   1      18.380   3.763  15.642  0.00  0.00     0.156 C 
ATOM     14  C22 ZIN A   1      17.785   0.645  11.886  0.00  0.00     0.168 C 
ATOM     15  O23 ZIN A   1      17.465   0.577  10.716  0.00  0.00    -0.292 OA
ENDROOT
BRANCH   1  16
ATOM     16  C7  ZIN A   1      17.464  -1.810  12.064  0.00  0.00     0.142 C 
BRANCH  16  17
ATOM     17  N6  ZIN A   1      18.444  -2.862  11.785  0.00  0.00    -0.343 N 
ATOM     18  C2  ZIN A   1      18.173  -4.151  11.486  0.00  0.00     0.101 A 
ATOM     19  C1  ZIN A   1      16.797  -4.757  11.377  0.00  0.00     0.091 C 
ATOM     20  N3  ZIN A   1      19.300  -4.784  11.301  0.00  0.00    -0.246 NA
ATOM     21  C4  ZIN A   1      20.319  -3.931  11.478  0.00  0.00     0.136 A 
ATOM     22  C5  ZIN A   1      19.806  -2.725  11.785  0.00  0.00     0.111 A 
ENDBRANCH  16  17
ENDBRANCH   1  16
TORSDOF 2
ENDMDL
MODEL 9
REMARK VINA RESULT:      -7.4      1.689      6.911
REMARK  2 active torsions:
REMARK  status: ('A' for Active; 'I' for Inactive)
REMARK    1  A    between atoms: N6_6  and  C7_7 
REMARK    2  A    between atoms: C7_7  and  C8_8 
ROOT
ATOM      1  C8  ZIN A   1      18.283  -0.264   9.881  0.00  0.00     0.079 C 
ATOM      2  C10 ZIN A   1      17.284  -0.866  10.868  0.00  0.00     0.020 C 
ATOM      3  C11 ZIN A   1      17.859  -0.851  12.290  0.00  0.00     0.059 C 
ATOM      4  C12 ZIN A   1      18.235   0.572  12.627  0.00  0.00     0.026 A 
ATOM      5  C13 ZIN A   1      18.572   1.497  11.645  0.00  0.00     0.045 A 
ATOM      6  C14 ZIN A   1      18.863   2.743  12.334  0.00  0.00     0.007 A 
ATOM      7  C15 ZIN A   1      19.247   4.008  11.892  0.00  0.00     0.015 A 
ATOM      8  C16 ZIN A   1      19.440   4.978  12.860  0.00  0.00     0.001 A 
ATOM      9  C17 ZIN A   1      19.261   4.713  14.206  0.00  0.00     0.002 A 
ATOM     10  C18 ZIN A   1      18.879   3.463  14.666  0.00  0.00     0.030 A 
ATOM     11  C19 ZIN A   1      18.678   2.469  13.713  0.00  0.00     0.045 A 
ATOM     12  N20 ZIN A   1      18.306   1.155  13.835  0.00  0.00    -0.353 N 
ATOM     13  C21 ZIN A   1      18.026   0.482  15.106  0.00  0.00     0.156 C 
ATOM     14  C22 ZIN A   1      18.594   1.165  10.269  0.00  0.00     0.168 C 
ATOM     15  O23 ZIN A   1      18.858   1.999   9.426  0.00  0.00    -0.292 OA
ENDROOT
BRANCH   1  16
ATOM     16  C7  ZIN A   1      17.685  -0.289   8.473  0.00  0.00     0.142 C 
BRANCH  16  17
ATOM     17  N6  ZIN A   1      18.466  -1.193   7.626  0.00  0.00    -0.343 N 
ATOM     18  C2  ZIN A   1      18.999  -0.901   6.420  0.00  0.00     0.101 A 
ATOM     19  C1  ZIN A   1      18.896   0.425   5.712  0.00  0.00     0.091 C 
ATOM     20  N3  ZIN A   1      19.623  -1.956   5.972  0.00  0.00    -0.246 NA
ATOM     21  C4  ZIN A   1      19.508  -2.950   6.864  0.00  0.00     0.136 A 
ATOM     22  C5  ZIN A   1      18.784  -2.495   7.905  0.00  0.00     0.111 A 
ENDBRANCH  16  17
ENDBRANCH   1  16
TORSDOF 2
ENDMDL
