MODEL 1
REMARK VINA RESULT:      -6.4      0.000      0.000
REMARK  6 active torsions:
REMARK  status: ('A' for Active; 'I' for Inactive)
REMARK       I    between atoms: N1_1  and  C2_2 
REMARK    1  A    between atoms: C2_2  and  C4_4 
REMARK    2  A    between atoms: N6_6  and  C7_7 
REMARK    3  A    between atoms: C10_9  and  C12_10 
REMARK    4  A    between atoms: C12_10  and  O13_11 
REMARK    5  A    between atoms: C14_12  and  O16_13 
REMARK    6  A    between atoms: C17_14  and  O19_15 
ROOT
ATOM      1  C7  <0> d   1      19.241  -1.576  10.207  0.00  0.00     0.279 C 
ATOM      2  O9  <0> d   1      17.949  -1.265  10.772  0.00  0.00    -0.352 OA
ATOM      3  C10 <0> d   1      18.188  -0.595  12.021  0.00  0.00     0.179 C 
ATOM      4  C14 <0> d   1      19.565   0.088  11.919  0.00  0.00     0.182 C 
ATOM      5  C17 <0> d   1      20.087  -0.315  10.516  0.00  0.00     0.200 C 
ENDROOT
BRANCH   1   6
ATOM      6  N6  <0> d   1      19.133  -1.783   8.760  0.00  0.00    -0.229 N 
ATOM      7  N5  <0> d   1      19.464  -0.933   7.850  0.00  0.00    -0.143 NA
ATOM      8  C4  <0> d   1      19.229  -1.463   6.671  0.00  0.00     0.238 A 
ATOM      9  N21 <0> d   1      18.727  -2.697   6.865  0.00  0.00    -0.216 NA
ATOM     10  C20 <0> d   1      18.674  -2.896   8.157  0.00  0.00     0.234 A 
BRANCH   8  11
ATOM     11  C2  <0> d   1      19.468  -0.818   5.363  0.00  0.00     0.288 C 
ATOM     12  N1  <0> d   1      19.463   0.526   5.262  0.00  0.00    -0.363 N 
ATOM     13  H22 <0> d   1      19.620   0.949   4.404  0.00  0.00     0.159 HD
ATOM     14  H23 <0> d   1      19.298   1.070   6.049  0.00  0.00     0.159 HD
ATOM     15  O3  <0> d   1      19.670  -1.499   4.376  0.00  0.00    -0.264 OA
ENDBRANCH   8  11
ENDBRANCH   1   6
BRANCH   5  16
ATOM     16  O19 <0> d   1      21.481  -0.629  10.561  0.00  0.00    -0.388 OA
ATOM     17  H28 <0> d   1      21.971  -0.350   9.775  0.00  0.00     0.210 HD
ENDBRANCH   5  16
BRANCH   4  18
ATOM     18  O16 <0> d   1      20.442  -0.398  12.936  0.00  0.00    -0.390 OA
ATOM     19  H27 <0> d   1      20.161  -1.235  13.332  0.00  0.00     0.210 HD
ENDBRANCH   4  18
BRANCH   3  20
ATOM     20  C12 <0> d   1      17.100   0.453  12.266  0.00  0.00     0.198 C 
BRANCH  20  21
ATOM     21  O13 <0> d   1      15.926   0.102  11.532  0.00  0.00    -0.398 OA
ATOM     22  H26 <0> d   1      15.311   0.835  11.398  0.00  0.00     0.209 HD
ENDBRANCH  20  21
ENDBRANCH   3  20
TORSDOF 6
ENDMDL
MODEL 2
REMARK VINA RESULT:      -6.4      1.443      1.944
REMARK  6 active torsions:
REMARK  status: ('A' for Active; 'I' for Inactive)
REMARK       I    between atoms: N1_1  and  C2_2 
REMARK    1  A    between atoms: C2_2  and  C4_4 
REMARK    2  A    between atoms: N6_6  and  C7_7 
REMARK    3  A    between atoms: C10_9  and  C12_10 
REMARK    4  A    between atoms: C12_10  and  O13_11 
REMARK    5  A    between atoms: C14_12  and  O16_13 
REMARK    6  A    between atoms: C17_14  and  O19_15 
ROOT
ATOM      1  C7  <0> d   1      19.058  -0.571  10.103  0.00  0.00     0.279 C 
ATOM      2  O9  <0> d   1      18.671   0.818  10.184  0.00  0.00    -0.352 OA
ATOM      3  C10 <0> d   1      19.260   1.347  11.385  0.00  0.00     0.179 C 
ATOM      4  C14 <0> d   1      20.517   0.510  11.687  0.00  0.00     0.182 C 
ATOM      5  C17 <0> d   1      20.536  -0.566  10.571  0.00  0.00     0.200 C 
ENDROOT
BRANCH   1   6
ATOM      6  N6  <0> d   1      18.955  -1.054   8.723  0.00  0.00    -0.229 N 
ATOM      7  N5  <0> d   1      19.389  -0.441   7.676  0.00  0.00    -0.143 NA
ATOM      8  C4  <0> d   1      19.121  -1.172   6.618  0.00  0.00     0.238 A 
ATOM      9  N21 <0> d   1      18.489  -2.285   7.033  0.00  0.00    -0.216 NA
ATOM     10  C20 <0> d   1      18.392  -2.213   8.336  0.00  0.00     0.234 A 
BRANCH   8  11
ATOM     11  C2  <0> d   1      19.450  -0.830   5.217  0.00  0.00     0.288 C 
ATOM     12  N1  <0> d   1      19.542   0.461   4.842  0.00  0.00    -0.363 N 
ATOM     13  H22 <0> d   1      19.758   0.685   3.923  0.00  0.00     0.159 HD
ATOM     14  H23 <0> d   1      19.389   1.166   5.490  0.00  0.00     0.159 HD
ATOM     15  O3  <0> d   1      19.637  -1.714   4.404  0.00  0.00    -0.264 OA
ENDBRANCH   8  11
ENDBRANCH   1   6
BRANCH   5  16
ATOM     16  O19 <0> d   1      20.913  -1.840  11.097  0.00  0.00    -0.388 OA
ATOM     17  H28 <0> d   1      20.461  -2.075  11.920  0.00  0.00     0.210 HD
ENDBRANCH   5  16
BRANCH   4  18
ATOM     18  O16 <0> d   1      20.412  -0.105  12.972  0.00  0.00    -0.390 OA
ATOM     19  H27 <0> d   1      21.223  -0.061  13.497  0.00  0.00     0.210 HD
ENDBRANCH   4  18
BRANCH   3  20
ATOM     20  C12 <0> d   1      19.645   2.813  11.172  0.00  0.00     0.198 C 
BRANCH  20  21
ATOM     21  O13 <0> d   1      20.930   3.057  11.748  0.00  0.00    -0.398 OA
ATOM     22  H26 <0> d   1      21.508   2.282  11.763  0.00  0.00     0.209 HD
ENDBRANCH  20  21
ENDBRANCH   3  20
TORSDOF 6
ENDMDL
MODEL 3
REMARK VINA RESULT:      -6.4      3.017      4.453
REMARK  6 active torsions:
REMARK  status: ('A' for Active; 'I' for Inactive)
REMARK       I    between atoms: N1_1  and  C2_2 
REMARK    1  A    between atoms: C2_2  and  C4_4 
REMARK    2  A    between atoms: N6_6  and  C7_7 
REMARK    3  A    between atoms: C10_9  and  C12_10 
REMARK    4  A    between atoms: C12_10  and  O13_11 
REMARK    5  A    between atoms: C14_12  and  O16_13 
REMARK    6  A    between atoms: C17_14  and  O19_15 
ROOT
ATOM      1  C7  <0> d   1      19.578  -0.449   9.819  0.00  0.00     0.279 C 
ATOM      2  O9  <0> d   1      18.433  -1.328   9.790  0.00  0.00    -0.352 OA
ATOM      3  C10 <0> d   1      18.804  -2.522  10.501  0.00  0.00     0.179 C 
ATOM      4  C14 <0> d   1      19.898  -2.131  11.514  0.00  0.00     0.182 C 
ATOM      5  C17 <0> d   1      20.135  -0.621  11.255  0.00  0.00     0.200 C 
ENDROOT
BRANCH   1   6
ATOM      6  N6  <0> d   1      19.167   0.939   9.588  0.00  0.00    -0.229 N 
ATOM      7  N5  <0> d   1      18.465   1.660  10.392  0.00  0.00    -0.143 NA
ATOM      8  C4  <0> d   1      18.293   2.847   9.854  0.00  0.00     0.238 A 
ATOM      9  N21 <0> d   1      18.915   2.854   8.661  0.00  0.00    -0.216 NA
ATOM     10  C20 <0> d   1      19.460   1.675   8.500  0.00  0.00     0.234 A 
BRANCH   8  11
ATOM     11  C2  <0> d   1      17.543   3.973  10.450  0.00  0.00     0.288 C 
ATOM     12  N1  <0> d   1      17.558   5.183   9.856  0.00  0.00    -0.363 N 
ATOM     13  H22 <0> d   1      17.066   5.921  10.247  0.00  0.00     0.159 HD
ATOM     14  H23 <0> d   1      18.063   5.315   9.038  0.00  0.00     0.159 HD
ATOM     15  O3  <0> d   1      16.913   3.808  11.477  0.00  0.00    -0.264 OA
ENDBRANCH   8  11
ENDBRANCH   1   6
BRANCH   5  16
ATOM     16  O19 <0> d   1      21.528  -0.307  11.308  0.00  0.00    -0.388 OA
ATOM     17  H28 <0> d   1      21.987  -0.415  10.463  0.00  0.00     0.210 HD
ENDBRANCH   5  16
BRANCH   4  18
ATOM     18  O16 <0> d   1      21.094  -2.873  11.270  0.00  0.00    -0.390 OA
ATOM     19  H27 <0> d   1      21.848  -2.329  11.005  0.00  0.00     0.210 HD
ENDBRANCH   4  18
BRANCH   3  20
ATOM     20  C12 <0> d   1      17.587  -3.087  11.237  0.00  0.00     0.198 C 
BRANCH  20  21
ATOM     21  O13 <0> d   1      16.906  -2.030  11.916  0.00  0.00    -0.398 OA
ATOM     22  H26 <0> d   1      17.493  -1.353  12.279  0.00  0.00     0.209 HD
ENDBRANCH  20  21
ENDBRANCH   3  20
TORSDOF 6
ENDMDL
MODEL 4
REMARK VINA RESULT:      -6.3      4.758      7.719
REMARK  6 active torsions:
REMARK  status: ('A' for Active; 'I' for Inactive)
REMARK       I    between atoms: N1_1  and  C2_2 
REMARK    1  A    between atoms: C2_2  and  C4_4 
REMARK    2  A    between atoms: N6_6  and  C7_7 
REMARK    3  A    between atoms: C10_9  and  C12_10 
REMARK    4  A    between atoms: C12_10  and  O13_11 
REMARK    5  A    between atoms: C14_12  and  O16_13 
REMARK    6  A    between atoms: C17_14  and  O19_15 
ROOT
ATOM      1  C7  <0> d   1      19.061   0.678  12.913  0.00  0.00     0.279 C 
ATOM      2  O9  <0> d   1      18.655  -0.707  12.863  0.00  0.00    -0.352 OA
ATOM      3  C10 <0> d   1      19.223  -1.268  11.668  0.00  0.00     0.179 C 
ATOM      4  C14 <0> d   1      20.488  -0.454  11.335  0.00  0.00     0.182 C 
ATOM      5  C17 <0> d   1      20.533   0.644  12.429  0.00  0.00     0.200 C 
ENDROOT
BRANCH   1   6
ATOM      6  N6  <0> d   1      18.979   1.189  14.284  0.00  0.00    -0.229 N 
ATOM      7  N5  <0> d   1      19.303   0.542  15.350  0.00  0.00    -0.143 NA
ATOM      8  C4  <0> d   1      19.098   1.316  16.392  0.00  0.00     0.238 A 
ATOM      9  N21 <0> d   1      18.622   2.494  15.946  0.00  0.00    -0.216 NA
ATOM     10  C20 <0> d   1      18.555   2.416  14.641  0.00  0.00     0.234 A 
BRANCH   8  11
ATOM     11  C2  <0> d   1      19.340   0.956  17.805  0.00  0.00     0.288 C 
ATOM     12  N1  <0> d   1      19.156  -0.314  18.219  0.00  0.00    -0.363 N 
ATOM     13  H22 <0> d   1      19.315  -0.549  19.146  0.00  0.00     0.159 HD
ATOM     14  H23 <0> d   1      18.860  -0.990  17.590  0.00  0.00     0.159 HD
ATOM     15  O3  <0> d   1      19.706   1.805  18.595  0.00  0.00    -0.264 OA
ENDBRANCH   8  11
ENDBRANCH   1   6
BRANCH   5  16
ATOM     16  O19 <0> d   1      20.922   1.902  11.874  0.00  0.00    -0.388 OA
ATOM     17  H28 <0> d   1      21.485   2.431  12.456  0.00  0.00     0.210 HD
ENDBRANCH   5  16
BRANCH   4  18
ATOM     18  O16 <0> d   1      20.378   0.137  10.040  0.00  0.00    -0.390 OA
ATOM     19  H27 <0> d   1      20.915   0.933   9.922  0.00  0.00     0.210 HD
ENDBRANCH   4  18
BRANCH   3  20
ATOM     20  C12 <0> d   1      19.591  -2.734  11.905  0.00  0.00     0.198 C 
BRANCH  20  21
ATOM     21  O13 <0> d   1      20.889  -2.993  11.367  0.00  0.00    -0.398 OA
ATOM     22  H26 <0> d   1      21.542  -2.310  11.569  0.00  0.00     0.209 HD
ENDBRANCH  20  21
ENDBRANCH   3  20
TORSDOF 6
ENDMDL
MODEL 5
REMARK VINA RESULT:      -6.2      4.475      7.202
REMARK  6 active torsions:
REMARK  status: ('A' for Active; 'I' for Inactive)
REMARK       I    between atoms: N1_1  and  C2_2 
REMARK    1  A    between atoms: C2_2  and  C4_4 
REMARK    2  A    between atoms: N6_6  and  C7_7 
REMARK    3  A    between atoms: C10_9  and  C12_10 
REMARK    4  A    between atoms: C12_10  and  O13_11 
REMARK    5  A    between atoms: C14_12  and  O16_13 
REMARK    6  A    between atoms: C17_14  and  O19_15 
ROOT
ATOM      1  C7  <0> d   1      19.405   1.401  12.080  0.00  0.00     0.279 C 
ATOM      2  O9  <0> d   1      18.216   0.748  11.588  0.00  0.00    -0.352 OA
ATOM      3  C10 <0> d   1      18.646  -0.257  10.654  0.00  0.00     0.179 C 
ATOM      4  C14 <0> d   1      20.075  -0.672  11.053  0.00  0.00     0.182 C 
ATOM      5  C17 <0> d   1      20.413   0.238  12.261  0.00  0.00     0.200 C 
ENDROOT
BRANCH   1   6
ATOM      6  N6  <0> d   1      19.138   2.057  13.364  0.00  0.00    -0.229 N 
ATOM      7  N5  <0> d   1      19.182   1.493  14.521  0.00  0.00    -0.143 NA
ATOM      8  C4  <0> d   1      18.886   2.388  15.438  0.00  0.00     0.238 A 
ATOM      9  N21 <0> d   1      18.646   3.556  14.814  0.00  0.00    -0.216 NA
ATOM     10  C20 <0> d   1      18.807   3.351  13.531  0.00  0.00     0.234 A 
BRANCH   8  11
ATOM     11  C2  <0> d   1      18.823   2.152  16.896  0.00  0.00     0.288 C 
ATOM     12  N1  <0> d   1      17.777   1.487  17.427  0.00  0.00    -0.363 N 
ATOM     13  H22 <0> d   1      17.736   1.332  18.383  0.00  0.00     0.159 HD
ATOM     14  H23 <0> d   1      17.065   1.165  16.852  0.00  0.00     0.159 HD
ATOM     15  O3  <0> d   1      19.713   2.559  17.617  0.00  0.00    -0.264 OA
ENDBRANCH   8  11
ENDBRANCH   1   6
BRANCH   5  16
ATOM     16  O19 <0> d   1      21.761   0.707  12.185  0.00  0.00    -0.388 OA
ATOM     17  H28 <0> d   1      21.994   1.345  12.874  0.00  0.00     0.210 HD
ENDBRANCH   5  16
BRANCH   4  18
ATOM     18  O16 <0> d   1      20.985  -0.433   9.978  0.00  0.00    -0.390 OA
ATOM     19  H27 <0> d   1      21.576  -1.175   9.790  0.00  0.00     0.210 HD
ENDBRANCH   4  18
BRANCH   3  20
ATOM     20  C12 <0> d   1      17.711  -1.466  10.723  0.00  0.00     0.198 C 
BRANCH  20  21
ATOM     21  O13 <0> d   1      16.871  -1.354  11.874  0.00  0.00    -0.398 OA
ATOM     22  H26 <0> d   1      17.071  -0.593  12.435  0.00  0.00     0.209 HD
ENDBRANCH  20  21
ENDBRANCH   3  20
TORSDOF 6
ENDMDL
MODEL 6
REMARK VINA RESULT:      -6.2      1.458      1.627
REMARK  6 active torsions:
REMARK  status: ('A' for Active; 'I' for Inactive)
REMARK       I    between atoms: N1_1  and  C2_2 
REMARK    1  A    between atoms: C2_2  and  C4_4 
REMARK    2  A    between atoms: N6_6  and  C7_7 
REMARK    3  A    between atoms: C10_9  and  C12_10 
REMARK    4  A    between atoms: C12_10  and  O13_11 
REMARK    5  A    between atoms: C14_12  and  O16_13 
REMARK    6  A    between atoms: C17_14  and  O19_15 
ROOT
ATOM      1  C7  <0> d   1      19.336  -1.407  11.247  0.00  0.00     0.279 C 
ATOM      2  O9  <0> d   1      18.210  -0.760  11.877  0.00  0.00    -0.352 OA
ATOM      3  C10 <0> d   1      18.743   0.256  12.745  0.00  0.00     0.179 C 
ATOM      4  C14 <0> d   1      20.108   0.680  12.170  0.00  0.00     0.182 C 
ATOM      5  C17 <0> d   1      20.303  -0.236  10.935  0.00  0.00     0.200 C 
ENDROOT
BRANCH   1   6
ATOM      6  N6  <0> d   1      18.920  -2.076  10.010  0.00  0.00    -0.229 N 
ATOM      7  N5  <0> d   1      19.294  -1.757   8.820  0.00  0.00    -0.143 NA
ATOM      8  C4  <0> d   1      18.720  -2.574   7.965  0.00  0.00     0.238 A 
ATOM      9  N21 <0> d   1      17.954  -3.432   8.663  0.00  0.00    -0.216 NA
ATOM     10  C20 <0> d   1      18.083  -3.126   9.929  0.00  0.00     0.234 A 
BRANCH   8  11
ATOM     11  C2  <0> d   1      18.882  -2.551   6.495  0.00  0.00     0.288 C 
ATOM     12  N1  <0> d   1      17.891  -2.076   5.715  0.00  0.00    -0.363 N 
ATOM     13  H22 <0> d   1      17.997  -2.061   4.751  0.00  0.00     0.159 HD
ATOM     14  H23 <0> d   1      17.070  -1.752   6.118  0.00  0.00     0.159 HD
ATOM     15  O3  <0> d   1      19.909  -2.961   5.990  0.00  0.00    -0.264 OA
ENDBRANCH   8  11
ENDBRANCH   1   6
BRANCH   5  16
ATOM     16  O19 <0> d   1      21.654  -0.694  10.848  0.00  0.00    -0.388 OA
ATOM     17  H28 <0> d   1      22.255  -0.266  11.474  0.00  0.00     0.210 HD
ENDBRANCH   5  16
BRANCH   4  18
ATOM     18  O16 <0> d   1      21.145   0.458  13.126  0.00  0.00    -0.390 OA
ATOM     19  H27 <0> d   1      22.038   0.515  12.760  0.00  0.00     0.210 HD
ENDBRANCH   4  18
BRANCH   3  20
ATOM     20  C12 <0> d   1      17.794   1.456  12.783  0.00  0.00     0.198 C 
BRANCH  20  21
ATOM     21  O13 <0> d   1      17.084   1.542  11.546  0.00  0.00    -0.398 OA
ATOM     22  H26 <0> d   1      17.565   1.181  10.790  0.00  0.00     0.209 HD
ENDBRANCH  20  21
ENDBRANCH   3  20
TORSDOF 6
ENDMDL
MODEL 7
REMARK VINA RESULT:      -6.1      4.245      6.473
REMARK  6 active torsions:
REMARK  status: ('A' for Active; 'I' for Inactive)
REMARK       I    between atoms: N1_1  and  C2_2 
REMARK    1  A    between atoms: C2_2  and  C4_4 
REMARK    2  A    between atoms: N6_6  and  C7_7 
REMARK    3  A    between atoms: C10_9  and  C12_10 
REMARK    4  A    between atoms: C12_10  and  O13_11 
REMARK    5  A    between atoms: C14_12  and  O16_13 
REMARK    6  A    between atoms: C17_14  and  O19_15 
ROOT
ATOM      1  C7  <0> d   1      19.604   1.778  10.788  0.00  0.00     0.279 C 
ATOM      2  O9  <0> d   1      19.141   1.150   9.573  0.00  0.00    -0.352 OA
ATOM      3  C10 <0> d   1      19.879  -0.076   9.429  0.00  0.00     0.179 C 
ATOM      4  C14 <0> d   1      20.297  -0.528  10.841  0.00  0.00     0.182 C 
ATOM      5  C17 <0> d   1      19.769   0.593  11.772  0.00  0.00     0.200 C 
ENDROOT
BRANCH   1   6
ATOM      6  N6  <0> d   1      18.606   2.729  11.287  0.00  0.00    -0.229 N 
ATOM      7  N5  <0> d   1      18.556   3.210  12.481  0.00  0.00    -0.143 NA
ATOM      8  C4  <0> d   1      17.530   4.027  12.564  0.00  0.00     0.238 A 
ATOM      9  N21 <0> d   1      16.918   4.047  11.366  0.00  0.00    -0.216 NA
ATOM     10  C20 <0> d   1      17.588   3.247  10.575  0.00  0.00     0.234 A 
BRANCH   8  11
ATOM     11  C2  <0> d   1      17.117   4.787  13.764  0.00  0.00     0.288 C 
ATOM     12  N1  <0> d   1      16.094   5.662  13.689  0.00  0.00    -0.363 N 
ATOM     13  H22 <0> d   1      15.823   6.159  14.475  0.00  0.00     0.159 HD
ATOM     14  H23 <0> d   1      15.631   5.795  12.846  0.00  0.00     0.159 HD
ATOM     15  O3  <0> d   1      17.699   4.623  14.818  0.00  0.00    -0.264 OA
ENDBRANCH   8  11
ENDBRANCH   1   6
BRANCH   5  16
ATOM     16  O19 <0> d   1      20.722   0.900  12.792  0.00  0.00    -0.388 OA
ATOM     17  H28 <0> d   1      21.208   1.723  12.641  0.00  0.00     0.210 HD
ENDBRANCH   5  16
BRANCH   4  18
ATOM     18  O16 <0> d   1      21.719  -0.627  10.934  0.00  0.00    -0.390 OA
ATOM     19  H27 <0> d   1      22.144  -0.962  10.133  0.00  0.00     0.210 HD
ENDBRANCH   4  18
BRANCH   3  20
ATOM     20  C12 <0> d   1      18.993  -1.142   8.779  0.00  0.00     0.198 C 
BRANCH  20  21
ATOM     21  O13 <0> d   1      19.810  -2.209   8.293  0.00  0.00    -0.398 OA
ATOM     22  H26 <0> d   1      20.701  -1.938   8.038  0.00  0.00     0.209 HD
ENDBRANCH  20  21
ENDBRANCH   3  20
TORSDOF 6
ENDMDL
MODEL 8
REMARK VINA RESULT:      -5.9      3.197      3.821
REMARK  6 active torsions:
REMARK  status: ('A' for Active; 'I' for Inactive)
REMARK       I    between atoms: N1_1  and  C2_2 
REMARK    1  A    between atoms: C2_2  and  C4_4 
REMARK    2  A    between atoms: N6_6  and  C7_7 
REMARK    3  A    between atoms: C10_9  and  C12_10 
REMARK    4  A    between atoms: C12_10  and  O13_11 
REMARK    5  A    between atoms: C14_12  and  O16_13 
REMARK    6  A    between atoms: C17_14  and  O19_15 
ROOT
ATOM      1  C7  <0> d   1      18.571   2.028  10.938  0.00  0.00     0.279 C 
ATOM      2  O9  <0> d   1      17.354   2.804  10.921  0.00  0.00    -0.352 OA
ATOM      3  C10 <0> d   1      17.467   3.784  11.966  0.00  0.00     0.179 C 
ATOM      4  C14 <0> d   1      18.969   4.052  12.183  0.00  0.00     0.182 C 
ATOM      5  C17 <0> d   1      19.675   3.085  11.198  0.00  0.00     0.200 C 
ENDROOT
BRANCH   1   6
ATOM      6  N6  <0> d   1      18.781   1.370   9.645  0.00  0.00    -0.229 N 
ATOM      7  N5  <0> d   1      18.685   0.105   9.420  0.00  0.00    -0.143 NA
ATOM      8  C4  <0> d   1      18.941  -0.117   8.149  0.00  0.00     0.238 A 
ATOM      9  N21 <0> d   1      19.209   1.067   7.568  0.00  0.00    -0.216 NA
ATOM     10  C20 <0> d   1      19.105   1.986   8.493  0.00  0.00     0.234 A 
BRANCH   8  11
ATOM     11  C2  <0> d   1      18.939  -1.434   7.478  0.00  0.00     0.288 C 
ATOM     12  N1  <0> d   1      19.631  -2.463   8.009  0.00  0.00    -0.363 N 
ATOM     13  H22 <0> d   1      19.629  -3.326   7.569  0.00  0.00     0.159 HD
ATOM     14  H23 <0> d   1      20.133  -2.336   8.829  0.00  0.00     0.159 HD
ATOM     15  O3  <0> d   1      18.313  -1.591   6.448  0.00  0.00    -0.264 OA
ENDBRANCH   8  11
ENDBRANCH   1   6
BRANCH   5  16
ATOM     16  O19 <0> d   1      20.825   2.491  11.802  0.00  0.00    -0.388 OA
ATOM     17  H28 <0> d   1      21.278   1.850  11.238  0.00  0.00     0.210 HD
ENDBRANCH   5  16
BRANCH   4  18
ATOM     18  O16 <0> d   1      19.341   3.753  13.529  0.00  0.00    -0.390 OA
ATOM     19  H27 <0> d   1      20.210   4.095  13.783  0.00  0.00     0.210 HD
ENDBRANCH   4  18
BRANCH   3  20
ATOM     20  C12 <0> d   1      16.760   5.075  11.547  0.00  0.00     0.198 C 
BRANCH  20  21
ATOM     21  O13 <0> d   1      17.080   5.373  10.186  0.00  0.00    -0.398 OA
ATOM     22  H26 <0> d   1      16.869   6.279   9.922  0.00  0.00     0.209 HD
ENDBRANCH  20  21
ENDBRANCH   3  20
TORSDOF 6
ENDMDL
MODEL 9
REMARK VINA RESULT:      -5.9      2.733      5.838
REMARK  6 active torsions:
REMARK  status: ('A' for Active; 'I' for Inactive)
REMARK       I    between atoms: N1_1  and  C2_2 
REMARK    1  A    between atoms: C2_2  and  C4_4 
REMARK    2  A    between atoms: N6_6  and  C7_7 
REMARK    3  A    between atoms: C10_9  and  C12_10 
REMARK    4  A    between atoms: C12_10  and  O13_11 
REMARK    5  A    between atoms: C14_12  and  O16_13 
REMARK    6  A    between atoms: C17_14  and  O19_15 
ROOT
ATOM      1  C7  <0> d   1      18.347  -2.177   8.919  0.00  0.00     0.279 C 
ATOM      2  O9  <0> d   1      18.696  -3.575   8.826  0.00  0.00    -0.352 OA
ATOM      3  C10 <0> d   1      18.912  -3.860   7.433  0.00  0.00     0.179 C 
ATOM      4  C14 <0> d   1      19.344  -2.544   6.757  0.00  0.00     0.182 C 
ATOM      5  C17 <0> d   1      19.292  -1.495   7.897  0.00  0.00     0.200 C 
ENDROOT
BRANCH   1   6
ATOM      6  N6  <0> d   1      18.600  -1.673  10.273  0.00  0.00    -0.229 N 
ATOM      7  N5  <0> d   1      19.564  -0.891  10.616  0.00  0.00    -0.143 NA
ATOM      8  C4  <0> d   1      19.474  -0.652  11.906  0.00  0.00     0.238 A 
ATOM      9  N21 <0> d   1      18.406  -1.322  12.377  0.00  0.00    -0.216 NA
ATOM     10  C20 <0> d   1      17.863  -1.948  11.364  0.00  0.00     0.234 A 
BRANCH   8  11
ATOM     11  C2  <0> d   1      20.387   0.197  12.700  0.00  0.00     0.288 C 
ATOM     12  N1  <0> d   1      21.539   0.640  12.157  0.00  0.00    -0.363 N 
ATOM     13  H22 <0> d   1      22.138   1.197  12.678  0.00  0.00     0.159 HD
ATOM     14  H23 <0> d   1      21.770   0.398  11.247  0.00  0.00     0.159 HD
ATOM     15  O3  <0> d   1      20.100   0.497  13.842  0.00  0.00    -0.264 OA
ENDBRANCH   8  11
ENDBRANCH   1   6
BRANCH   5  16
ATOM     16  O19 <0> d   1      18.741  -0.262   7.430  0.00  0.00    -0.388 OA
ATOM     17  H28 <0> d   1      18.163   0.177   8.069  0.00  0.00     0.210 HD
ENDBRANCH   5  16
BRANCH   4  18
ATOM     18  O16 <0> d   1      18.433  -2.194   5.714  0.00  0.00    -0.390 OA
ATOM     19  H27 <0> d   1      17.509  -2.395   5.915  0.00  0.00     0.210 HD
ENDBRANCH   4  18
BRANCH   3  20
ATOM     20  C12 <0> d   1      20.013  -4.912   7.283  0.00  0.00     0.198 C 
BRANCH  20  21
ATOM     21  O13 <0> d   1      21.214  -4.284   6.832  0.00  0.00    -0.398 OA
ATOM     22  H26 <0> d   1      21.872  -4.147   7.527  0.00  0.00     0.209 HD
ENDBRANCH  20  21
ENDBRANCH   3  20
TORSDOF 6
ENDMDL
