MODEL 1
REMARK VINA RESULT:      -5.4      0.000      0.000
REMARK  10 active torsions:
REMARK  status: ('A' for Active; 'I' for Inactive)
REMARK    1  A    between atoms: C2_2  and  C3_3 
REMARK    2  A    between atoms: C3_3  and  C4_4 
REMARK    3  A    between atoms: C4_4  and  C5_5 
REMARK    4  A    between atoms: C5_5  and  N6_6 
REMARK    5  A    between atoms: N6_6  and  C9_9 
REMARK    6  A    between atoms: C9_9  and  C10_10 
REMARK    7  A    between atoms: C10_10  and  C11_11 
REMARK    8  A    between atoms: C11_11  and  O12_12 
REMARK    9  A    between atoms: C11_11  and  P13_13 
REMARK   10  A    between atoms: C11_11  and  P17_17 
ROOT
ATOM      1  C11 ZIN A   1      18.894   2.175  12.400  0.00  0.00     0.286 C 
ENDROOT
BRANCH   1   2
ATOM      2  C10 ZIN A   1      18.071   2.504  13.646  0.00  0.00     0.096 C 
BRANCH   2   3
ATOM      3  C9  ZIN A   1      18.793   3.572  14.468  0.00  0.00     0.238 C 
BRANCH   3   4
ATOM      4  N6  ZIN A   1      19.548   2.928  15.552  0.00  0.00    -0.075 N 
ATOM      5  H7  ZIN A   1      20.438   2.610  15.200  0.00  0.00     0.279 HD
ATOM      6  C8  ZIN A   1      19.767   3.893  16.638  0.00  0.00     0.269 C 
BRANCH   4   7
ATOM      7  C5  ZIN A   1      18.787   1.781  16.065  0.00  0.00     0.234 C 
BRANCH   7   8
ATOM      8  C4  ZIN A   1      19.196   1.502  17.513  0.00  0.00     0.028 C 
BRANCH   8   9
ATOM      9  C3  ZIN A   1      18.532   0.209  17.991  0.00  0.00     0.001 C 
BRANCH   9  10
ATOM     10  C2  ZIN A   1      17.558  -0.289  16.921  0.00  0.00    -0.005 C 
ATOM     11  C1  ZIN A   1      18.067  -1.611  16.344  0.00  0.00     0.005 C 
ENDBRANCH   9  10
ENDBRANCH   8   9
ENDBRANCH   7   8
ENDBRANCH   4   7
ENDBRANCH   3   4
ENDBRANCH   2   3
ENDBRANCH   1   2
BRANCH   1  12
ATOM     12  O12 ZIN A   1      20.043   3.023  12.352  0.00  0.00    -0.365 OA
ATOM     13  H39 ZIN A   1      20.652   2.820  11.630  0.00  0.00     0.212 HD
ENDBRANCH   1  12
BRANCH   1  14
ATOM     14  P13 ZIN A   1      19.428   0.433  12.466  0.00  0.00     0.310 P 
ATOM     15  O14 ZIN A   1      20.601   0.285  13.493  0.00  0.00    -0.637 OA
ATOM     16  O15 ZIN A   1      18.225  -0.464  12.915  0.00  0.00    -0.637 OA
ATOM     17  O16 ZIN A   1      19.916  -0.019  11.047  0.00  0.00    -0.637 OA
ENDBRANCH   1  14
BRANCH   1  18
ATOM     18  P17 ZIN A   1      17.878   2.444  10.911  0.00  0.00     0.310 P 
ATOM     19  O18 ZIN A   1      18.811   2.717   9.684  0.00  0.00    -0.637 OA
ATOM     20  O19 ZIN A   1      17.010   1.169  10.633  0.00  0.00    -0.637 OA
ATOM     21  O20 ZIN A   1      16.937   3.677  11.136  0.00  0.00    -0.637 OA
ENDBRANCH   1  18
TORSDOF 10
ENDMDL
MODEL 2
REMARK VINA RESULT:      -5.4      6.260      7.542
REMARK  10 active torsions:
REMARK  status: ('A' for Active; 'I' for Inactive)
REMARK    1  A    between atoms: C2_2  and  C3_3 
REMARK    2  A    between atoms: C3_3  and  C4_4 
REMARK    3  A    between atoms: C4_4  and  C5_5 
REMARK    4  A    between atoms: C5_5  and  N6_6 
REMARK    5  A    between atoms: N6_6  and  C9_9 
REMARK    6  A    between atoms: C9_9  and  C10_10 
REMARK    7  A    between atoms: C10_10  and  C11_11 
REMARK    8  A    between atoms: C11_11  and  O12_12 
REMARK    9  A    between atoms: C11_11  and  P13_13 
REMARK   10  A    between atoms: C11_11  and  P17_17 
ROOT
ATOM      1  C11 ZIN A   1      18.888  -1.590   7.626  0.00  0.00     0.286 C 
ENDROOT
BRANCH   1   2
ATOM      2  C10 ZIN A   1      17.984  -2.470   8.491  0.00  0.00     0.096 C 
BRANCH   2   3
ATOM      3  C9  ZIN A   1      18.472  -2.434   9.939  0.00  0.00     0.238 C 
BRANCH   3   4
ATOM      4  N6  ZIN A   1      19.556  -3.410  10.116  0.00  0.00    -0.075 N 
ATOM      5  H7  ZIN A   1      20.308  -3.196   9.480  0.00  0.00     0.279 HD
ATOM      6  C8  ZIN A   1      20.049  -3.350  11.498  0.00  0.00     0.269 C 
BRANCH   4   7
ATOM      7  C5  ZIN A   1      19.048  -4.760   9.837  0.00  0.00     0.234 C 
BRANCH   7   8
ATOM      8  C4  ZIN A   1      18.112  -5.198  10.966  0.00  0.00     0.028 C 
BRANCH   8   9
ATOM      9  C3  ZIN A   1      17.230  -6.349  10.480  0.00  0.00     0.001 C 
BRANCH   9  10
ATOM     10  C2  ZIN A   1      16.975  -6.198   8.979  0.00  0.00    -0.005 C 
ATOM     11  C1  ZIN A   1      15.587  -5.594   8.755  0.00  0.00     0.005 C 
ENDBRANCH   9  10
ENDBRANCH   8   9
ENDBRANCH   7   8
ENDBRANCH   4   7
ENDBRANCH   3   4
ENDBRANCH   2   3
ENDBRANCH   1   2
BRANCH   1  12
ATOM     12  O12 ZIN A   1      20.105  -1.324   8.327  0.00  0.00    -0.365 OA
ATOM     13  H39 ZIN A   1      20.778  -0.883   7.792  0.00  0.00     0.212 HD
ENDBRANCH   1  12
BRANCH   1  14
ATOM     14  P13 ZIN A   1      19.262  -2.452   6.063  0.00  0.00     0.310 P 
ATOM     15  O14 ZIN A   1      17.950  -3.091   5.494  0.00  0.00    -0.637 OA
ATOM     16  O15 ZIN A   1      19.836  -1.427   5.027  0.00  0.00    -0.637 OA
ATOM     17  O16 ZIN A   1      20.320  -3.577   6.327  0.00  0.00    -0.637 OA
ENDBRANCH   1  14
BRANCH   1  18
ATOM     18  P17 ZIN A   1      18.040  -0.017   7.264  0.00  0.00     0.310 P 
ATOM     19  O18 ZIN A   1      19.084   1.036   6.761  0.00  0.00    -0.637 OA
ATOM     20  O19 ZIN A   1      16.957  -0.250   6.155  0.00  0.00    -0.637 OA
ATOM     21  O20 ZIN A   1      17.348   0.515   8.566  0.00  0.00    -0.637 OA
ENDBRANCH   1  18
TORSDOF 10
ENDMDL
MODEL 3
REMARK VINA RESULT:      -5.4      2.570      3.475
REMARK  10 active torsions:
REMARK  status: ('A' for Active; 'I' for Inactive)
REMARK    1  A    between atoms: C2_2  and  C3_3 
REMARK    2  A    between atoms: C3_3  and  C4_4 
REMARK    3  A    between atoms: C4_4  and  C5_5 
REMARK    4  A    between atoms: C5_5  and  N6_6 
REMARK    5  A    between atoms: N6_6  and  C9_9 
REMARK    6  A    between atoms: C9_9  and  C10_10 
REMARK    7  A    between atoms: C10_10  and  C11_11 
REMARK    8  A    between atoms: C11_11  and  O12_12 
REMARK    9  A    between atoms: C11_11  and  P13_13 
REMARK   10  A    between atoms: C11_11  and  P17_17 
ROOT
ATOM      1  C11 ZIN A   1      19.596  -0.293  10.095  0.00  0.00     0.286 C 
ENDROOT
BRANCH   1   2
ATOM      2  C10 ZIN A   1      19.359   0.720  11.216  0.00  0.00     0.096 C 
BRANCH   2   3
ATOM      3  C9  ZIN A   1      20.510   0.650  12.220  0.00  0.00     0.238 C 
BRANCH   3   4
ATOM      4  N6  ZIN A   1      19.985   0.834  13.580  0.00  0.00    -0.075 N 
ATOM      5  H7  ZIN A   1      20.647   1.363  14.127  0.00  0.00     0.279 HD
ATOM      6  C8  ZIN A   1      18.709   1.558  13.519  0.00  0.00     0.269 C 
BRANCH   4   7
ATOM      7  C5  ZIN A   1      19.774  -0.479  14.205  0.00  0.00     0.234 C 
BRANCH   7   8
ATOM      8  C4  ZIN A   1      18.296  -0.639  14.569  0.00  0.00     0.028 C 
BRANCH   8   9
ATOM      9  C3  ZIN A   1      18.178  -1.155  16.005  0.00  0.00     0.001 C 
BRANCH   9  10
ATOM     10  C2  ZIN A   1      18.252   0.023  16.978  0.00  0.00    -0.005 C 
ATOM     11  C1  ZIN A   1      19.219  -0.315  18.114  0.00  0.00     0.005 C 
ENDBRANCH   9  10
ENDBRANCH   8   9
ENDBRANCH   7   8
ENDBRANCH   4   7
ENDBRANCH   3   4
ENDBRANCH   2   3
ENDBRANCH   1   2
BRANCH   1  12
ATOM     12  O12 ZIN A   1      21.001  -0.462   9.896  0.00  0.00    -0.365 OA
ATOM     13  H39 ZIN A   1      21.485   0.367   9.785  0.00  0.00     0.212 HD
ENDBRANCH   1  12
BRANCH   1  14
ATOM     14  P13 ZIN A   1      18.851  -1.893  10.554  0.00  0.00     0.310 P 
ATOM     15  O14 ZIN A   1      18.570  -2.728   9.258  0.00  0.00    -0.637 OA
ATOM     16  O15 ZIN A   1      19.837  -2.681  11.480  0.00  0.00    -0.637 OA
ATOM     17  O16 ZIN A   1      17.505  -1.644  11.315  0.00  0.00    -0.637 OA
ENDBRANCH   1  14
BRANCH   1  18
ATOM     18  P17 ZIN A   1      18.833   0.313   8.555  0.00  0.00     0.310 P 
ATOM     19  O18 ZIN A   1      19.218   1.815   8.337  0.00  0.00    -0.637 OA
ATOM     20  O19 ZIN A   1      19.348  -0.539   7.345  0.00  0.00    -0.637 OA
ATOM     21  O20 ZIN A   1      17.274   0.184   8.658  0.00  0.00    -0.637 OA
ENDBRANCH   1  18
TORSDOF 10
ENDMDL
MODEL 4
REMARK VINA RESULT:      -5.3      3.807      6.401
REMARK  10 active torsions:
REMARK  status: ('A' for Active; 'I' for Inactive)
REMARK    1  A    between atoms: C2_2  and  C3_3 
REMARK    2  A    between atoms: C3_3  and  C4_4 
REMARK    3  A    between atoms: C4_4  and  C5_5 
REMARK    4  A    between atoms: C5_5  and  N6_6 
REMARK    5  A    between atoms: N6_6  and  C9_9 
REMARK    6  A    between atoms: C9_9  and  C10_10 
REMARK    7  A    between atoms: C10_10  and  C11_11 
REMARK    8  A    between atoms: C11_11  and  O12_12 
REMARK    9  A    between atoms: C11_11  and  P13_13 
REMARK   10  A    between atoms: C11_11  and  P17_17 
ROOT
ATOM      1  C11 ZIN A   1      19.493   1.587  11.733  0.00  0.00     0.286 C 
ENDROOT
BRANCH   1   2
ATOM      2  C10 ZIN A   1      19.238   0.515  10.672  0.00  0.00     0.096 C 
BRANCH   2   3
ATOM      3  C9  ZIN A   1      20.408  -0.469  10.650  0.00  0.00     0.238 C 
BRANCH   3   4
ATOM      4  N6  ZIN A   1      19.918  -1.804  10.278  0.00  0.00    -0.075 N 
ATOM      5  H7  ZIN A   1      20.564  -2.231   9.632  0.00  0.00     0.279 HD
ATOM      6  C8  ZIN A   1      19.804  -2.637  11.482  0.00  0.00     0.269 C 
BRANCH   4   7
ATOM      7  C5  ZIN A   1      18.600  -1.681   9.641  0.00  0.00     0.234 C 
BRANCH   7   8
ATOM      8  C4  ZIN A   1      18.642  -2.323   8.253  0.00  0.00     0.028 C 
BRANCH   8   9
ATOM      9  C3  ZIN A   1      19.140  -1.299   7.231  0.00  0.00     0.001 C 
BRANCH   9  10
ATOM     10  C2  ZIN A   1      18.150  -0.135   7.152  0.00  0.00    -0.005 C 
ATOM     11  C1  ZIN A   1      18.908   1.159   6.849  0.00  0.00     0.005 C 
ENDBRANCH   9  10
ENDBRANCH   8   9
ENDBRANCH   7   8
ENDBRANCH   4   7
ENDBRANCH   3   4
ENDBRANCH   2   3
ENDBRANCH   1   2
BRANCH   1  12
ATOM     12  O12 ZIN A   1      20.895   1.845  11.821  0.00  0.00    -0.365 OA
ATOM     13  H39 ZIN A   1      21.370   1.245  12.411  0.00  0.00     0.212 HD
ENDBRANCH   1  12
BRANCH   1  14
ATOM     14  P13 ZIN A   1      18.620   3.120  11.272  0.00  0.00     0.310 P 
ATOM     15  O14 ZIN A   1      18.680   3.307   9.718  0.00  0.00    -0.637 OA
ATOM     16  O15 ZIN A   1      17.125   3.026  11.729  0.00  0.00    -0.637 OA
ATOM     17  O16 ZIN A   1      19.305   4.342  11.971  0.00  0.00    -0.637 OA
ENDBRANCH   1  14
BRANCH   1  18
ATOM     18  P17 ZIN A   1      18.881   1.002  13.347  0.00  0.00     0.310 P 
ATOM     19  O18 ZIN A   1      19.954   0.071  14.007  0.00  0.00    -0.637 OA
ATOM     20  O19 ZIN A   1      18.611   2.231  14.281  0.00  0.00    -0.637 OA
ATOM     21  O20 ZIN A   1      17.550   0.199  13.142  0.00  0.00    -0.637 OA
ENDBRANCH   1  18
TORSDOF 10
ENDMDL
MODEL 5
REMARK VINA RESULT:      -5.3      1.743      2.823
REMARK  10 active torsions:
REMARK  status: ('A' for Active; 'I' for Inactive)
REMARK    1  A    between atoms: C2_2  and  C3_3 
REMARK    2  A    between atoms: C3_3  and  C4_4 
REMARK    3  A    between atoms: C4_4  and  C5_5 
REMARK    4  A    between atoms: C5_5  and  N6_6 
REMARK    5  A    between atoms: N6_6  and  C9_9 
REMARK    6  A    between atoms: C9_9  and  C10_10 
REMARK    7  A    between atoms: C10_10  and  C11_11 
REMARK    8  A    between atoms: C11_11  and  O12_12 
REMARK    9  A    between atoms: C11_11  and  P13_13 
REMARK   10  A    between atoms: C11_11  and  P17_17 
ROOT
ATOM      1  C11 ZIN A   1      19.307   0.584  11.040  0.00  0.00     0.286 C 
ENDROOT
BRANCH   1   2
ATOM      2  C10 ZIN A   1      18.703   0.218  12.397  0.00  0.00     0.096 C 
BRANCH   2   3
ATOM      3  C9  ZIN A   1      19.735   0.464  13.498  0.00  0.00     0.238 C 
BRANCH   3   4
ATOM      4  N6  ZIN A   1      19.053   0.933  14.712  0.00  0.00    -0.075 N 
ATOM      5  H7  ZIN A   1      19.637   0.757  15.515  0.00  0.00     0.279 HD
ATOM      6  C8  ZIN A   1      18.793   2.375  14.601  0.00  0.00     0.269 C 
BRANCH   4   7
ATOM      7  C5  ZIN A   1      17.780   0.217  14.867  0.00  0.00     0.234 C 
BRANCH   7   8
ATOM      8  C4  ZIN A   1      17.585  -0.167  16.335  0.00  0.00     0.028 C 
BRANCH   8   9
ATOM      9  C3  ZIN A   1      18.861  -0.826  16.864  0.00  0.00     0.001 C 
BRANCH   9  10
ATOM     10  C2  ZIN A   1      19.160  -0.302  18.270  0.00  0.00    -0.005 C 
ATOM     11  C1  ZIN A   1      19.149   1.228  18.256  0.00  0.00     0.005 C 
ENDBRANCH   9  10
ENDBRANCH   8   9
ENDBRANCH   7   8
ENDBRANCH   4   7
ENDBRANCH   3   4
ENDBRANCH   2   3
ENDBRANCH   1   2
BRANCH   1  12
ATOM     12  O12 ZIN A   1      20.732   0.521  11.121  0.00  0.00    -0.365 OA
ATOM     13  H39 ZIN A   1      21.062  -0.145  11.738  0.00  0.00     0.212 HD
ENDBRANCH   1  12
BRANCH   1  14
ATOM     14  P13 ZIN A   1      18.718  -0.589   9.775  0.00  0.00     0.310 P 
ATOM     15  O14 ZIN A   1      17.288  -0.164   9.295  0.00  0.00    -0.637 OA
ATOM     16  O15 ZIN A   1      19.702  -0.579   8.556  0.00  0.00    -0.637 OA
ATOM     17  O16 ZIN A   1      18.657  -2.030  10.385  0.00  0.00    -0.637 OA
ENDBRANCH   1  14
BRANCH   1  18
ATOM     18  P17 ZIN A   1      18.799   2.275  10.585  0.00  0.00     0.310 P 
ATOM     19  O18 ZIN A   1      18.948   2.466   9.037  0.00  0.00    -0.637 OA
ATOM     20  O19 ZIN A   1      17.303   2.500  10.996  0.00  0.00    -0.637 OA
ATOM     21  O20 ZIN A   1      19.707   3.312  11.329  0.00  0.00    -0.637 OA
ENDBRANCH   1  18
TORSDOF 10
ENDMDL
MODEL 6
REMARK VINA RESULT:      -5.3      5.138      7.711
REMARK  10 active torsions:
REMARK  status: ('A' for Active; 'I' for Inactive)
REMARK    1  A    between atoms: C2_2  and  C3_3 
REMARK    2  A    between atoms: C3_3  and  C4_4 
REMARK    3  A    between atoms: C4_4  and  C5_5 
REMARK    4  A    between atoms: C5_5  and  N6_6 
REMARK    5  A    between atoms: N6_6  and  C9_9 
REMARK    6  A    between atoms: C9_9  and  C10_10 
REMARK    7  A    between atoms: C10_10  and  C11_11 
REMARK    8  A    between atoms: C11_11  and  O12_12 
REMARK    9  A    between atoms: C11_11  and  P13_13 
REMARK   10  A    between atoms: C11_11  and  P17_17 
ROOT
ATOM      1  C11 ZIN A   1      18.992   1.074  10.275  0.00  0.00     0.286 C 
ENDROOT
BRANCH   1   2
ATOM      2  C10 ZIN A   1      17.774   0.347   9.705  0.00  0.00     0.096 C 
BRANCH   2   3
ATOM      3  C9  ZIN A   1      18.036  -0.021   8.244  0.00  0.00     0.238 C 
BRANCH   3   4
ATOM      4  N6  ZIN A   1      18.821  -1.262   8.184  0.00  0.00    -0.075 N 
ATOM      5  H7  ZIN A   1      19.602  -1.197   8.819  0.00  0.00     0.279 HD
ATOM      6  C8  ZIN A   1      17.972  -2.397   8.566  0.00  0.00     0.269 C 
BRANCH   4   7
ATOM      7  C5  ZIN A   1      19.319  -1.461   6.816  0.00  0.00     0.234 C 
BRANCH   7   8
ATOM      8  C4  ZIN A   1      19.003  -0.224   5.973  0.00  0.00     0.028 C 
BRANCH   8   9
ATOM      9  C3  ZIN A   1      18.671  -0.653   4.542  0.00  0.00     0.001 C 
BRANCH   9  10
ATOM     10  C2  ZIN A   1      18.540  -2.176   4.484  0.00  0.00    -0.005 C 
ATOM     11  C1  ZIN A   1      17.132  -2.549   4.017  0.00  0.00     0.005 C 
ENDBRANCH   9  10
ENDBRANCH   8   9
ENDBRANCH   7   8
ENDBRANCH   4   7
ENDBRANCH   3   4
ENDBRANCH   2   3
ENDBRANCH   1   2
BRANCH   1  12
ATOM     12  O12 ZIN A   1      19.994   1.189   9.262  0.00  0.00    -0.365 OA
ATOM     13  H39 ZIN A   1      20.418   2.056   9.224  0.00  0.00     0.212 HD
ENDBRANCH   1  12
BRANCH   1  14
ATOM     14  P13 ZIN A   1      18.501   2.737  10.836  0.00  0.00     0.310 P 
ATOM     15  O14 ZIN A   1      19.597   3.307  11.800  0.00  0.00    -0.637 OA
ATOM     16  O15 ZIN A   1      18.354   3.683   9.596  0.00  0.00    -0.637 OA
ATOM     17  O16 ZIN A   1      17.134   2.651  11.594  0.00  0.00    -0.637 OA
ENDBRANCH   1  14
BRANCH   1  18
ATOM     18  P17 ZIN A   1      19.659   0.130  11.684  0.00  0.00     0.310 P 
ATOM     19  O18 ZIN A   1      19.751  -1.386  11.302  0.00  0.00    -0.637 OA
ATOM     20  O19 ZIN A   1      21.088   0.665  12.043  0.00  0.00    -0.637 OA
ATOM     21  O20 ZIN A   1      18.712   0.299  12.922  0.00  0.00    -0.637 OA
ENDBRANCH   1  18
TORSDOF 10
ENDMDL
MODEL 7
REMARK VINA RESULT:      -5.2      4.153      6.884
REMARK  10 active torsions:
REMARK  status: ('A' for Active; 'I' for Inactive)
REMARK    1  A    between atoms: C2_2  and  C3_3 
REMARK    2  A    between atoms: C3_3  and  C4_4 
REMARK    3  A    between atoms: C4_4  and  C5_5 
REMARK    4  A    between atoms: C5_5  and  N6_6 
REMARK    5  A    between atoms: N6_6  and  C9_9 
REMARK    6  A    between atoms: C9_9  and  C10_10 
REMARK    7  A    between atoms: C10_10  and  C11_11 
REMARK    8  A    between atoms: C11_11  and  O12_12 
REMARK    9  A    between atoms: C11_11  and  P13_13 
REMARK   10  A    between atoms: C11_11  and  P17_17 
ROOT
ATOM      1  C11 ZIN A   1      19.347   1.612  11.930  0.00  0.00     0.286 C 
ENDROOT
BRANCH   1   2
ATOM      2  C10 ZIN A   1      18.896   0.406  11.104  0.00  0.00     0.096 C 
BRANCH   2   3
ATOM      3  C9  ZIN A   1      20.062  -0.573  10.953  0.00  0.00     0.238 C 
BRANCH   3   4
ATOM      4  N6  ZIN A   1      20.029  -1.169   9.610  0.00  0.00    -0.075 N 
ATOM      5  H7  ZIN A   1      20.935  -1.556   9.392  0.00  0.00     0.279 HD
ATOM      6  C8  ZIN A   1      19.018  -2.234   9.572  0.00  0.00     0.269 C 
BRANCH   4   7
ATOM      7  C5  ZIN A   1      19.688  -0.136   8.623  0.00  0.00     0.234 C 
BRANCH   7   8
ATOM      8  C4  ZIN A   1      18.772  -0.733   7.553  0.00  0.00     0.028 C 
BRANCH   8   9
ATOM      9  C3  ZIN A   1      18.253   0.383   6.645  0.00  0.00     0.001 C 
BRANCH   9  10
ATOM     10  C2  ZIN A   1      19.146   0.489   5.407  0.00  0.00    -0.005 C 
ATOM     11  C1  ZIN A   1      18.873  -0.697   4.479  0.00  0.00     0.005 C 
ENDBRANCH   9  10
ENDBRANCH   8   9
ENDBRANCH   7   8
ENDBRANCH   4   7
ENDBRANCH   3   4
ENDBRANCH   2   3
ENDBRANCH   1   2
BRANCH   1  12
ATOM     12  O12 ZIN A   1      20.772   1.713  11.885  0.00  0.00    -0.365 OA
ATOM     13  H39 ZIN A   1      21.231   0.886  12.078  0.00  0.00     0.212 HD
ENDBRANCH   1  12
BRANCH   1  14
ATOM     14  P13 ZIN A   1      18.607   3.130  11.242  0.00  0.00     0.310 P 
ATOM     15  O14 ZIN A   1      19.341   4.382  11.833  0.00  0.00    -0.637 OA
ATOM     16  O15 ZIN A   1      18.759   3.124   9.684  0.00  0.00    -0.637 OA
ATOM     17  O16 ZIN A   1      17.088   3.189  11.620  0.00  0.00    -0.637 OA
ENDBRANCH   1  14
BRANCH   1  18
ATOM     18  P17 ZIN A   1      18.807   1.402  13.658  0.00  0.00     0.310 P 
ATOM     19  O18 ZIN A   1      18.741   2.801  14.358  0.00  0.00    -0.637 OA
ATOM     20  O19 ZIN A   1      17.388   0.737  13.686  0.00  0.00    -0.637 OA
ATOM     21  O20 ZIN A   1      19.828   0.486  14.417  0.00  0.00    -0.637 OA
ENDBRANCH   1  18
TORSDOF 10
ENDMDL
MODEL 8
REMARK VINA RESULT:      -5.2      5.482      7.374
REMARK  10 active torsions:
REMARK  status: ('A' for Active; 'I' for Inactive)
REMARK    1  A    between atoms: C2_2  and  C3_3 
REMARK    2  A    between atoms: C3_3  and  C4_4 
REMARK    3  A    between atoms: C4_4  and  C5_5 
REMARK    4  A    between atoms: C5_5  and  N6_6 
REMARK    5  A    between atoms: N6_6  and  C9_9 
REMARK    6  A    between atoms: C9_9  and  C10_10 
REMARK    7  A    between atoms: C10_10  and  C11_11 
REMARK    8  A    between atoms: C11_11  and  O12_12 
REMARK    9  A    between atoms: C11_11  and  P13_13 
REMARK   10  A    between atoms: C11_11  and  P17_17 
ROOT
ATOM      1  C11 ZIN A   1      18.553  -1.533   7.023  0.00  0.00     0.286 C 
ENDROOT
BRANCH   1   2
ATOM      2  C10 ZIN A   1      19.550  -1.124   8.108  0.00  0.00     0.096 C 
BRANCH   2   3
ATOM      3  C9  ZIN A   1      18.961  -1.432   9.485  0.00  0.00     0.238 C 
BRANCH   3   4
ATOM      4  N6  ZIN A   1      18.274  -0.241  10.002  0.00  0.00    -0.075 N 
ATOM      5  H7  ZIN A   1      17.384  -0.138   9.539  0.00  0.00     0.279 HD
ATOM      6  C8  ZIN A   1      18.059  -0.388  11.448  0.00  0.00     0.269 C 
BRANCH   4   7
ATOM      7  C5  ZIN A   1      19.098   0.949   9.749  0.00  0.00     0.234 C 
BRANCH   7   8
ATOM      8  C4  ZIN A   1      19.507   1.580  11.081  0.00  0.00     0.028 C 
BRANCH   8   9
ATOM      9  C3  ZIN A   1      19.325   3.097  11.004  0.00  0.00     0.001 C 
BRANCH   9  10
ATOM     10  C2  ZIN A   1      18.280   3.432   9.939  0.00  0.00    -0.005 C 
ATOM     11  C1  ZIN A   1      17.587   4.747  10.300  0.00  0.00     0.005 C 
ENDBRANCH   9  10
ENDBRANCH   8   9
ENDBRANCH   7   8
ENDBRANCH   4   7
ENDBRANCH   3   4
ENDBRANCH   2   3
ENDBRANCH   1   2
BRANCH   1  12
ATOM     12  O12 ZIN A   1      17.221  -1.363   7.513  0.00  0.00    -0.365 OA
ATOM     13  H39 ZIN A   1      16.958  -0.440   7.627  0.00  0.00     0.212 HD
ENDBRANCH   1  12
BRANCH   1  14
ATOM     14  P13 ZIN A   1      18.796  -0.490   5.548  0.00  0.00     0.310 P 
ATOM     15  O14 ZIN A   1      17.506  -0.533   4.660  0.00  0.00    -0.637 OA
ATOM     16  O15 ZIN A   1      19.073   0.986   5.993  0.00  0.00    -0.637 OA
ATOM     17  O16 ZIN A   1      20.015  -1.026   4.724  0.00  0.00    -0.637 OA
ENDBRANCH   1  14
BRANCH   1  18
ATOM     18  P17 ZIN A   1      18.819  -3.281   6.581  0.00  0.00     0.310 P 
ATOM     19  O18 ZIN A   1      18.188  -4.200   7.682  0.00  0.00    -0.637 OA
ATOM     20  O19 ZIN A   1      18.142  -3.581   5.200  0.00  0.00    -0.637 OA
ATOM     21  O20 ZIN A   1      20.357  -3.567   6.482  0.00  0.00    -0.637 OA
ENDBRANCH   1  18
TORSDOF 10
ENDMDL
MODEL 9
REMARK VINA RESULT:      -5.1      5.055      6.642
REMARK  10 active torsions:
REMARK  status: ('A' for Active; 'I' for Inactive)
REMARK    1  A    between atoms: C2_2  and  C3_3 
REMARK    2  A    between atoms: C3_3  and  C4_4 
REMARK    3  A    between atoms: C4_4  and  C5_5 
REMARK    4  A    between atoms: C5_5  and  N6_6 
REMARK    5  A    between atoms: N6_6  and  C9_9 
REMARK    6  A    between atoms: C9_9  and  C10_10 
REMARK    7  A    between atoms: C10_10  and  C11_11 
REMARK    8  A    between atoms: C11_11  and  O12_12 
REMARK    9  A    between atoms: C11_11  and  P13_13 
REMARK   10  A    between atoms: C11_11  and  P17_17 
ROOT
ATOM      1  C11 ZIN A   1      18.544  -1.540   7.091  0.00  0.00     0.286 C 
ENDROOT
BRANCH   1   2
ATOM      2  C10 ZIN A   1      19.558  -0.972   8.085  0.00  0.00     0.096 C 
BRANCH   2   3
ATOM      3  C9  ZIN A   1      18.835  -0.091   9.104  0.00  0.00     0.238 C 
BRANCH   3   4
ATOM      4  N6  ZIN A   1      18.665  -0.835  10.360  0.00  0.00    -0.075 N 
ATOM      5  H7  ZIN A   1      18.025  -1.601  10.214  0.00  0.00     0.279 HD
ATOM      6  C8  ZIN A   1      19.965  -1.359  10.799  0.00  0.00     0.269 C 
BRANCH   4   7
ATOM      7  C5  ZIN A   1      18.126   0.062  11.392  0.00  0.00     0.234 C 
BRANCH   7   8
ATOM      8  C4  ZIN A   1      17.368  -0.760  12.437  0.00  0.00     0.028 C 
BRANCH   8   9
ATOM      9  C3  ZIN A   1      17.817  -0.341  13.839  0.00  0.00     0.001 C 
BRANCH   9  10
ATOM     10  C2  ZIN A   1      18.853  -1.338  14.360  0.00  0.00    -0.005 C 
ATOM     11  C1  ZIN A   1      18.880  -1.293  15.889  0.00  0.00     0.005 C 
ENDBRANCH   9  10
ENDBRANCH   8   9
ENDBRANCH   7   8
ENDBRANCH   4   7
ENDBRANCH   3   4
ENDBRANCH   2   3
ENDBRANCH   1   2
BRANCH   1  12
ATOM     12  O12 ZIN A   1      17.221  -1.325   7.586  0.00  0.00    -0.365 OA
ATOM     13  H39 ZIN A   1      17.017  -0.399   7.774  0.00  0.00     0.212 HD
ENDBRANCH   1  12
BRANCH   1  14
ATOM     14  P13 ZIN A   1      18.735  -0.704   5.482  0.00  0.00     0.310 P 
ATOM     15  O14 ZIN A   1      19.001   0.822   5.715  0.00  0.00    -0.637 OA
ATOM     16  O15 ZIN A   1      19.942  -1.332   4.708  0.00  0.00    -0.637 OA
ATOM     17  O16 ZIN A   1      17.425  -0.882   4.641  0.00  0.00    -0.637 OA
ENDBRANCH   1  14
BRANCH   1  18
ATOM     18  P17 ZIN A   1      18.832  -3.328   6.884  0.00  0.00     0.310 P 
ATOM     19  O18 ZIN A   1      18.404  -4.080   8.190  0.00  0.00    -0.637 OA
ATOM     20  O19 ZIN A   1      17.986  -3.857   5.676  0.00  0.00    -0.637 OA
ATOM     21  O20 ZIN A   1      20.353  -3.584   6.608  0.00  0.00    -0.637 OA
ENDBRANCH   1  18
TORSDOF 10
ENDMDL
