MODEL 1
REMARK VINA RESULT:      -9.2      0.000      0.000
REMARK  1 active torsions:
REMARK  status: ('A' for Active; 'I' for Inactive)
REMARK    1  A    between atoms: C2_2  and  C3_3 
REMARK       I    between atoms: C2_2  and  N9_9 
ROOT
ATOM      1  O1  ZIN A   1      18.482   2.831  10.846  0.00  0.00    -0.273 OA
ATOM      2  C2  ZIN A   1      18.876   1.685  10.821  0.00  0.00     0.224 C 
ATOM      3  N9  ZIN A   1      19.319   1.100  11.951  0.00  0.00    -0.341 N 
ATOM      4  C10 ZIN A   1      19.907  -0.249  11.933  0.00  0.00     0.228 C 
ATOM      5  C11 ZIN A   1      19.261  -1.057  13.027  0.00  0.00     0.238 C 
ATOM      6  O12 ZIN A   1      19.284  -2.266  12.949  0.00  0.00    -0.272 OA
ATOM      7  N13 ZIN A   1      18.662  -0.488  14.082  0.00  0.00    -0.340 N 
ATOM      8  C14 ZIN A   1      18.194  -1.368  15.174  0.00  0.00     0.131 C 
ATOM      9  C15 ZIN A   1      18.976  -1.009  16.436  0.00  0.00     0.059 C 
ATOM     10  C16 ZIN A   1      18.973   0.481  16.659  0.00  0.00    -0.048 A 
ATOM     11  C17 ZIN A   1      19.222   0.945  17.943  0.00  0.00     0.008 A 
ATOM     12  C18 ZIN A   1      19.238   2.299  18.207  0.00  0.00     0.001 A 
ATOM     13  C19 ZIN A   1      19.008   3.202  17.186  0.00  0.00     0.001 A 
ATOM     14  C20 ZIN A   1      18.758   2.743  15.909  0.00  0.00     0.010 A 
ATOM     15  C21 ZIN A   1      18.736   1.381  15.643  0.00  0.00    -0.027 A 
ATOM     16  C22 ZIN A   1      18.440   0.939  14.233  0.00  0.00     0.139 C 
ATOM     17  C24 ZIN A   1      19.238   1.785  13.246  0.00  0.00     0.156 C 
ENDROOT
BRANCH   2  18
ATOM     18  C3  ZIN A   1      18.877   0.917   9.524  0.00  0.00     0.078 C 
ATOM     19  C8  ZIN A   1      19.113   1.882   8.360  0.00  0.00     0.014 C 
ATOM     20  C7  ZIN A   1      19.113   1.103   7.044  0.00  0.00     0.001 C 
ATOM     21  C6  ZIN A   1      17.763   0.405   6.864  0.00  0.00     0.000 C 
ATOM     22  C5  ZIN A   1      17.528  -0.559   8.027  0.00  0.00     0.001 C 
ATOM     23  C4  ZIN A   1      17.527   0.220   9.344  0.00  0.00     0.014 C 
ENDBRANCH   2  18
TORSDOF 1
ENDMDL
MODEL 2
REMARK VINA RESULT:      -9.2      2.028      7.402
REMARK  1 active torsions:
REMARK  status: ('A' for Active; 'I' for Inactive)
REMARK    1  A    between atoms: C2_2  and  C3_3 
REMARK       I    between atoms: C2_2  and  N9_9 
ROOT
ATOM      1  O1  ZIN A   1      18.822   1.333  12.944  0.00  0.00    -0.273 OA
ATOM      2  C2  ZIN A   1      18.285   0.246  12.975  0.00  0.00     0.224 C 
ATOM      3  N9  ZIN A   1      17.903  -0.348  11.828  0.00  0.00    -0.341 N 
ATOM      4  C10 ZIN A   1      17.150  -1.613  11.837  0.00  0.00     0.228 C 
ATOM      5  C11 ZIN A   1      17.807  -2.557  10.867  0.00  0.00     0.238 C 
ATOM      6  O12 ZIN A   1      17.621  -3.748  10.997  0.00  0.00    -0.272 OA
ATOM      7  N13 ZIN A   1      18.589  -2.130   9.866  0.00  0.00    -0.340 N 
ATOM      8  C14 ZIN A   1      19.063  -3.124   8.881  0.00  0.00     0.131 C 
ATOM      9  C15 ZIN A   1      18.481  -2.750   7.518  0.00  0.00     0.059 C 
ATOM     10  C16 ZIN A   1      18.700  -1.289   7.229  0.00  0.00    -0.048 A 
ATOM     11  C17 ZIN A   1      18.660  -0.876   5.904  0.00  0.00     0.008 A 
ATOM     12  C18 ZIN A   1      18.846   0.452   5.578  0.00  0.00     0.001 A 
ATOM     13  C19 ZIN A   1      19.072   1.380   6.578  0.00  0.00     0.001 A 
ATOM     14  C20 ZIN A   1      19.115   0.972   7.895  0.00  0.00     0.010 A 
ATOM     15  C21 ZIN A   1      18.932  -0.364   8.223  0.00  0.00    -0.027 A 
ATOM     16  C22 ZIN A   1      19.007  -0.752   9.678  0.00  0.00     0.139 C 
ATOM     17  C24 ZIN A   1      18.217   0.242  10.521  0.00  0.00     0.156 C 
ENDROOT
BRANCH   2  18
ATOM     18  C3  ZIN A   1      18.039  -0.436  14.296  0.00  0.00     0.078 C 
ATOM     19  C8  ZIN A   1      17.455   0.571  15.289  0.00  0.00     0.014 C 
ATOM     20  C7  ZIN A   1      17.205  -0.121  16.630  0.00  0.00     0.001 C 
ATOM     21  C6  ZIN A   1      18.526  -0.668  17.175  0.00  0.00     0.000 C 
ATOM     22  C5  ZIN A   1      19.110  -1.675  16.182  0.00  0.00     0.001 C 
ATOM     23  C4  ZIN A   1      19.360  -0.983  14.841  0.00  0.00     0.014 C 
ENDBRANCH   2  18
TORSDOF 1
ENDMDL
MODEL 3
REMARK VINA RESULT:      -9.0      1.447      7.539
REMARK  1 active torsions:
REMARK  status: ('A' for Active; 'I' for Inactive)
REMARK    1  A    between atoms: C2_2  and  C3_3 
REMARK       I    between atoms: C2_2  and  N9_9 
ROOT
ATOM      1  O1  ZIN A   1      18.146  -2.066  13.268  0.00  0.00    -0.273 OA
ATOM      2  C2  ZIN A   1      18.748  -1.029  13.451  0.00  0.00     0.224 C 
ATOM      3  N9  ZIN A   1      19.240  -0.342  12.401  0.00  0.00    -0.341 N 
ATOM      4  C10 ZIN A   1      20.070   0.858  12.595  0.00  0.00     0.228 C 
ATOM      5  C11 ZIN A   1      19.537   1.946  11.703  0.00  0.00     0.238 C 
ATOM      6  O12 ZIN A   1      19.790   3.099  11.976  0.00  0.00    -0.272 OA
ATOM      7  N13 ZIN A   1      18.794   1.686  10.618  0.00  0.00    -0.340 N 
ATOM      8  C14 ZIN A   1      18.449   2.813   9.726  0.00  0.00     0.131 C 
ATOM      9  C15 ZIN A   1      19.090   2.549   8.365  0.00  0.00     0.059 C 
ATOM     10  C16 ZIN A   1      18.798   1.147   7.901  0.00  0.00    -0.048 A 
ATOM     11  C17 ZIN A   1      18.895   0.879   6.542  0.00  0.00     0.008 A 
ATOM     12  C18 ZIN A   1      18.646  -0.389   6.058  0.00  0.00     0.001 A 
ATOM     13  C19 ZIN A   1      18.298  -1.403   6.933  0.00  0.00     0.001 A 
ATOM     14  C20 ZIN A   1      18.199  -1.138   8.283  0.00  0.00     0.010 A 
ATOM     15  C21 ZIN A   1      18.444   0.138   8.770  0.00  0.00    -0.027 A 
ATOM     16  C22 ZIN A   1      18.302   0.370  10.252  0.00  0.00     0.139 C 
ATOM     17  C24 ZIN A   1      18.972  -0.763  11.021  0.00  0.00     0.156 C 
ENDROOT
BRANCH   2  18
ATOM     18  C3  ZIN A   1      18.953  -0.514  14.852  0.00  0.00     0.078 C 
ATOM     19  C8  ZIN A   1      19.066  -1.695  15.819  0.00  0.00     0.014 C 
ATOM     20  C7  ZIN A   1      19.273  -1.172  17.241  0.00  0.00     0.001 C 
ATOM     21  C6  ZIN A   1      18.084  -0.297  17.641  0.00  0.00     0.000 C 
ATOM     22  C5  ZIN A   1      17.971   0.884  16.675  0.00  0.00     0.001 C 
ATOM     23  C4  ZIN A   1      17.764   0.361  15.252  0.00  0.00     0.014 C 
ENDBRANCH   2  18
TORSDOF 1
ENDMDL
MODEL 4
REMARK VINA RESULT:      -9.0      1.406      3.094
REMARK  1 active torsions:
REMARK  status: ('A' for Active; 'I' for Inactive)
REMARK    1  A    between atoms: C2_2  and  C3_3 
REMARK       I    between atoms: C2_2  and  N9_9 
ROOT
ATOM      1  O1  ZIN A   1      18.855  -1.468  10.188  0.00  0.00    -0.273 OA
ATOM      2  C2  ZIN A   1      18.304  -0.388  10.171  0.00  0.00     0.224 C 
ATOM      3  N9  ZIN A   1      17.931   0.195  11.327  0.00  0.00    -0.341 N 
ATOM      4  C10 ZIN A   1      17.162   1.451  11.336  0.00  0.00     0.228 C 
ATOM      5  C11 ZIN A   1      17.822   2.398  12.301  0.00  0.00     0.238 C 
ATOM      6  O12 ZIN A   1      17.619   3.587  12.181  0.00  0.00    -0.272 OA
ATOM      7  N13 ZIN A   1      18.623   1.975  13.289  0.00  0.00    -0.340 N 
ATOM      8  C14 ZIN A   1      19.098   2.970  14.273  0.00  0.00     0.131 C 
ATOM      9  C15 ZIN A   1      18.540   2.581  15.642  0.00  0.00     0.059 C 
ATOM     10  C16 ZIN A   1      18.780   1.121  15.919  0.00  0.00    -0.048 A 
ATOM     11  C17 ZIN A   1      18.764   0.700  17.242  0.00  0.00     0.008 A 
ATOM     12  C18 ZIN A   1      18.971  -0.627  17.558  0.00  0.00     0.001 A 
ATOM     13  C19 ZIN A   1      19.195  -1.547  16.550  0.00  0.00     0.001 A 
ATOM     14  C20 ZIN A   1      19.213  -1.131  15.235  0.00  0.00     0.010 A 
ATOM     15  C21 ZIN A   1      19.010   0.205  14.917  0.00  0.00    -0.027 A 
ATOM     16  C22 ZIN A   1      19.060   0.601  13.464  0.00  0.00     0.139 C 
ATOM     17  C24 ZIN A   1      18.270  -0.398  12.626  0.00  0.00     0.156 C 
ENDROOT
BRANCH   2  18
ATOM     18  C3  ZIN A   1      18.031   0.298   8.857  0.00  0.00     0.078 C 
ATOM     19  C8  ZIN A   1      17.472  -0.717   7.859  0.00  0.00     0.014 C 
ATOM     20  C7  ZIN A   1      17.194  -0.021   6.525  0.00  0.00     0.001 C 
ATOM     21  C6  ZIN A   1      18.496   0.570   5.979  0.00  0.00     0.000 C 
ATOM     22  C5  ZIN A   1      19.055   1.584   6.977  0.00  0.00     0.001 C 
ATOM     23  C4  ZIN A   1      19.332   0.888   8.311  0.00  0.00     0.014 C 
ENDBRANCH   2  18
TORSDOF 1
ENDMDL
MODEL 5
REMARK VINA RESULT:      -8.6      3.447      7.476
REMARK  1 active torsions:
REMARK  status: ('A' for Active; 'I' for Inactive)
REMARK    1  A    between atoms: C2_2  and  C3_3 
REMARK       I    between atoms: C2_2  and  N9_9 
ROOT
ATOM      1  O1  ZIN A   1      19.076   2.686   8.780  0.00  0.00    -0.273 OA
ATOM      2  C2  ZIN A   1      18.420   2.098   9.613  0.00  0.00     0.224 C 
ATOM      3  N9  ZIN A   1      17.932   0.871   9.341  0.00  0.00    -0.341 N 
ATOM      4  C10 ZIN A   1      17.040   0.179  10.285  0.00  0.00     0.228 C 
ATOM      5  C11 ZIN A   1      17.550  -1.225  10.468  0.00  0.00     0.238 C 
ATOM      6  O12 ZIN A   1      17.234  -1.834  11.468  0.00  0.00    -0.272 OA
ATOM      7  N13 ZIN A   1      18.340  -1.826   9.568  0.00  0.00    -0.340 N 
ATOM      8  C14 ZIN A   1      18.661  -3.254   9.768  0.00  0.00     0.131 C 
ATOM      9  C15 ZIN A   1      18.079  -4.037   8.592  0.00  0.00     0.059 C 
ATOM     10  C16 ZIN A   1      18.452  -3.390   7.284  0.00  0.00    -0.048 A 
ATOM     11  C17 ZIN A   1      18.413  -4.173   6.139  0.00  0.00     0.008 A 
ATOM     12  C18 ZIN A   1      18.738  -3.635   4.910  0.00  0.00     0.001 A 
ATOM     13  C19 ZIN A   1      19.103  -2.304   4.818  0.00  0.00     0.001 A 
ATOM     14  C20 ZIN A   1      19.146  -1.525   5.956  0.00  0.00     0.010 A 
ATOM     15  C21 ZIN A   1      18.824  -2.067   7.192  0.00  0.00    -0.027 A 
ATOM     16  C22 ZIN A   1      18.906  -1.172   8.401  0.00  0.00     0.139 C 
ATOM     17  C24 ZIN A   1      18.265   0.177   8.092  0.00  0.00     0.156 C 
ENDROOT
BRANCH   2  18
ATOM     18  C3  ZIN A   1      18.144   2.741  10.947  0.00  0.00     0.078 C 
ATOM     19  C8  ZIN A   1      17.284   3.990  10.744  0.00  0.00     0.014 C 
ATOM     20  C7  ZIN A   1      17.005   4.644  12.098  0.00  0.00     0.001 C 
ATOM     21  C6  ZIN A   1      18.329   5.037  12.757  0.00  0.00     0.000 C 
ATOM     22  C5  ZIN A   1      19.189   3.788  12.960  0.00  0.00     0.001 C 
ATOM     23  C4  ZIN A   1      19.468   3.134  11.605  0.00  0.00     0.014 C 
ENDBRANCH   2  18
TORSDOF 1
ENDMDL
MODEL 6
REMARK VINA RESULT:      -8.3      2.832      7.745
REMARK  1 active torsions:
REMARK  status: ('A' for Active; 'I' for Inactive)
REMARK    1  A    between atoms: C2_2  and  C3_3 
REMARK       I    between atoms: C2_2  and  N9_9 
ROOT
ATOM      1  O1  ZIN A   1      18.807   0.602  12.094  0.00  0.00    -0.273 OA
ATOM      2  C2  ZIN A   1      18.354  -0.480  12.402  0.00  0.00     0.224 C 
ATOM      3  N9  ZIN A   1      18.044  -1.376  11.445  0.00  0.00    -0.341 N 
ATOM      4  C10 ZIN A   1      17.390  -2.652  11.777  0.00  0.00     0.228 C 
ATOM      5  C11 ZIN A   1      18.139  -3.758  11.084  0.00  0.00     0.238 C 
ATOM      6  O12 ZIN A   1      18.042  -4.886  11.515  0.00  0.00    -0.272 OA
ATOM      7  N13 ZIN A   1      18.909  -3.540  10.009  0.00  0.00    -0.340 N 
ATOM      8  C14 ZIN A   1      19.479  -4.713   9.313  0.00  0.00     0.131 C 
ATOM      9  C15 ZIN A   1      18.902  -4.748   7.899  0.00  0.00     0.059 C 
ATOM     10  C16 ZIN A   1      19.015  -3.396   7.244  0.00  0.00    -0.048 A 
ATOM     11  C17 ZIN A   1      18.974  -3.340   5.858  0.00  0.00     0.008 A 
ATOM     12  C18 ZIN A   1      19.066  -2.130   5.202  0.00  0.00     0.001 A 
ATOM     13  C19 ZIN A   1      19.197  -0.962   5.930  0.00  0.00     0.001 A 
ATOM     14  C20 ZIN A   1      19.241  -1.015   7.308  0.00  0.00     0.010 A 
ATOM     15  C21 ZIN A   1      19.153  -2.232   7.968  0.00  0.00    -0.027 A 
ATOM     16  C22 ZIN A   1      19.225  -2.228   9.473  0.00  0.00     0.139 C 
ATOM     17  C24 ZIN A   1      18.342  -1.117  10.032  0.00  0.00     0.156 C 
ENDROOT
BRANCH   2  18
ATOM     18  C3  ZIN A   1      18.130  -0.818  13.853  0.00  0.00     0.078 C 
ATOM     19  C8  ZIN A   1      17.607   0.416  14.590  0.00  0.00     0.014 C 
ATOM     20  C7  ZIN A   1      17.380   0.073  16.064  0.00  0.00     0.001 C 
ATOM     21  C6  ZIN A   1      18.702  -0.374  16.691  0.00  0.00     0.000 C 
ATOM     22  C5  ZIN A   1      19.225  -1.609  15.955  0.00  0.00     0.001 C 
ATOM     23  C4  ZIN A   1      19.452  -1.266  14.481  0.00  0.00     0.014 C 
ENDBRANCH   2  18
TORSDOF 1
ENDMDL
MODEL 7
REMARK VINA RESULT:      -8.3      2.724      3.766
REMARK  1 active torsions:
REMARK  status: ('A' for Active; 'I' for Inactive)
REMARK    1  A    between atoms: C2_2  and  C3_3 
REMARK       I    between atoms: C2_2  and  N9_9 
ROOT
ATOM      1  O1  ZIN A   1      18.426  -0.445  11.245  0.00  0.00    -0.273 OA
ATOM      2  C2  ZIN A   1      18.752  -1.115  12.201  0.00  0.00     0.224 C 
ATOM      3  N9  ZIN A   1      19.212  -0.517  13.318  0.00  0.00    -0.341 N 
ATOM      4  C10 ZIN A   1      19.720  -1.305  14.452  0.00  0.00     0.228 C 
ATOM      5  C11 ZIN A   1      19.080  -0.782  15.710  0.00  0.00     0.238 C 
ATOM      6  O12 ZIN A   1      19.031  -1.505  16.682  0.00  0.00    -0.272 OA
ATOM      7  N13 ZIN A   1      18.564   0.452  15.795  0.00  0.00    -0.340 N 
ATOM      8  C14 ZIN A   1      18.097   0.921  17.116  0.00  0.00     0.131 C 
ATOM      9  C15 ZIN A   1      18.955   2.118  17.521  0.00  0.00     0.059 C 
ATOM     10  C16 ZIN A   1      19.047   3.113  16.394  0.00  0.00    -0.048 A 
ATOM     11  C17 ZIN A   1      19.380   4.423  16.710  0.00  0.00     0.008 A 
ATOM     12  C18 ZIN A   1      19.486   5.377  15.720  0.00  0.00     0.001 A 
ATOM     13  C19 ZIN A   1      19.261   5.028  14.401  0.00  0.00     0.001 A 
ATOM     14  C20 ZIN A   1      18.928   3.727  14.085  0.00  0.00     0.010 A 
ATOM     15  C21 ZIN A   1      18.816   2.767  15.081  0.00  0.00    -0.027 A 
ATOM     16  C22 ZIN A   1      18.431   1.368  14.676  0.00  0.00     0.139 C 
ATOM     17  C24 ZIN A   1      19.229   0.945  13.448  0.00  0.00     0.156 C 
ENDROOT
BRANCH   2  18
ATOM     18  C3  ZIN A   1      18.650  -2.617  12.138  0.00  0.00     0.078 C 
ATOM     19  C8  ZIN A   1      19.806  -3.173  11.304  0.00  0.00     0.014 C 
ATOM     20  C7  ZIN A   1      19.702  -4.698  11.240  0.00  0.00     0.001 C 
ATOM     21  C6  ZIN A   1      18.372  -5.091  10.594  0.00  0.00     0.000 C 
ATOM     22  C5  ZIN A   1      17.216  -4.535  11.428  0.00  0.00     0.001 C 
ATOM     23  C4  ZIN A   1      17.319  -3.010  11.492  0.00  0.00     0.014 C 
ENDBRANCH   2  18
TORSDOF 1
ENDMDL
MODEL 8
REMARK VINA RESULT:      -8.3      3.589      7.721
REMARK  1 active torsions:
REMARK  status: ('A' for Active; 'I' for Inactive)
REMARK    1  A    between atoms: C2_2  and  C3_3 
REMARK       I    between atoms: C2_2  and  N9_9 
ROOT
ATOM      1  O1  ZIN A   1      18.850   0.404  11.753  0.00  0.00    -0.273 OA
ATOM      2  C2  ZIN A   1      19.047   1.090  10.773  0.00  0.00     0.224 C 
ATOM      3  N9  ZIN A   1      19.392   0.511   9.605  0.00  0.00    -0.341 N 
ATOM      4  C10 ZIN A   1      19.746   1.320   8.428  0.00  0.00     0.228 C 
ATOM      5  C11 ZIN A   1      18.981   0.788   7.246  0.00  0.00     0.238 C 
ATOM      6  O12 ZIN A   1      18.801   1.516   6.293  0.00  0.00    -0.272 OA
ATOM      7  N13 ZIN A   1      18.492  -0.459   7.209  0.00  0.00    -0.340 N 
ATOM      8  C14 ZIN A   1      17.889  -0.932   5.945  0.00  0.00     0.131 C 
ATOM      9  C15 ZIN A   1      18.727  -2.102   5.434  0.00  0.00     0.059 C 
ATOM     10  C16 ZIN A   1      18.974  -3.101   6.533  0.00  0.00    -0.048 A 
ATOM     11  C17 ZIN A   1      19.304  -4.400   6.168  0.00  0.00     0.008 A 
ATOM     12  C18 ZIN A   1      19.549  -5.357   7.131  0.00  0.00     0.001 A 
ATOM     13  C19 ZIN A   1      19.466  -5.022   8.470  0.00  0.00     0.001 A 
ATOM     14  C20 ZIN A   1      19.136  -3.733   8.835  0.00  0.00     0.010 A 
ATOM     15  C21 ZIN A   1      18.886  -2.771   7.867  0.00  0.00    -0.027 A 
ATOM     16  C22 ZIN A   1      18.512  -1.385   8.327  0.00  0.00     0.139 C 
ATOM     17  C24 ZIN A   1      19.434  -0.948   9.460  0.00  0.00     0.156 C 
ENDROOT
BRANCH   2  18
ATOM     18  C3  ZIN A   1      18.913   2.588  10.862  0.00  0.00     0.078 C 
ATOM     19  C8  ZIN A   1      19.456   3.070  12.208  0.00  0.00     0.014 C 
ATOM     20  C7  ZIN A   1      19.319   4.591  12.299  0.00  0.00     0.001 C 
ATOM     21  C6  ZIN A   1      17.844   4.978  12.175  0.00  0.00     0.000 C 
ATOM     22  C5  ZIN A   1      17.300   4.496  10.829  0.00  0.00     0.001 C 
ATOM     23  C4  ZIN A   1      17.437   2.975  10.738  0.00  0.00     0.014 C 
ENDBRANCH   2  18
TORSDOF 1
ENDMDL
MODEL 9
REMARK VINA RESULT:      -8.2      3.183      7.233
REMARK  1 active torsions:
REMARK  status: ('A' for Active; 'I' for Inactive)
REMARK    1  A    between atoms: C2_2  and  C3_3 
REMARK       I    between atoms: C2_2  and  N9_9 
ROOT
ATOM      1  O1  ZIN A   1      18.110   4.582   9.894  0.00  0.00    -0.273 OA
ATOM      2  C2  ZIN A   1      17.847   3.748  10.735  0.00  0.00     0.224 C 
ATOM      3  N9  ZIN A   1      17.740   2.451  10.385  0.00  0.00    -0.341 N 
ATOM      4  C10 ZIN A   1      17.313   1.432  11.357  0.00  0.00     0.228 C 
ATOM      5  C11 ZIN A   1      18.275   0.277  11.277  0.00  0.00     0.238 C 
ATOM      6  O12 ZIN A   1      18.366  -0.472  12.226  0.00  0.00    -0.272 OA
ATOM      7  N13 ZIN A   1      19.032   0.046  10.196  0.00  0.00    -0.340 N 
ATOM      8  C14 ZIN A   1      19.830  -1.198  10.159  0.00  0.00     0.131 C 
ATOM      9  C15 ZIN A   1      19.321  -2.048   8.995  0.00  0.00     0.059 C 
ATOM     10  C16 ZIN A   1      19.213  -1.223   7.740  0.00  0.00    -0.048 A 
ATOM     11  C17 ZIN A   1      19.215  -1.890   6.523  0.00  0.00     0.008 A 
ATOM     12  C18 ZIN A   1      19.112  -1.188   5.339  0.00  0.00     0.001 A 
ATOM     13  C19 ZIN A   1      19.004   0.191   5.365  0.00  0.00     0.001 A 
ATOM     14  C20 ZIN A   1      19.005   0.856   6.573  0.00  0.00     0.010 A 
ATOM     15  C21 ZIN A   1      19.113   0.151   7.764  0.00  0.00    -0.027 A 
ATOM     16  C22 ZIN A   1      19.127   0.934   9.051  0.00  0.00     0.139 C 
ATOM     17  C24 ZIN A   1      18.038   2.001   9.021  0.00  0.00     0.156 C 
ENDROOT
BRANCH   2  18
ATOM     18  C3  ZIN A   1      17.634   4.164  12.167  0.00  0.00     0.078 C 
ATOM     19  C8  ZIN A   1      16.584   5.275  12.226  0.00  0.00     0.014 C 
ATOM     20  C7  ZIN A   1      16.368   5.697  13.680  0.00  0.00     0.001 C 
ATOM     21  C6  ZIN A   1      17.687   6.210  14.263  0.00  0.00     0.000 C 
ATOM     22  C5  ZIN A   1      18.737   5.099  14.204  0.00  0.00     0.001 C 
ATOM     23  C4  ZIN A   1      18.953   4.676  12.750  0.00  0.00     0.014 C 
ENDBRANCH   2  18
TORSDOF 1
ENDMDL
