MODEL 1
REMARK VINA RESULT:      -4.3      0.000      0.000
REMARK  2 active torsions:
REMARK  status: ('A' for Active; 'I' for Inactive)
REMARK    1  A    between atoms: C2_2  and  C4_4 
REMARK    2  A    between atoms: C7_6  and  O9_7 
ROOT
ATOM      1  C4  <0> d   1      19.195   2.262  10.444  0.00  0.00     0.288 C 
ATOM      2  C6  <0> d   1      19.853   2.182  11.838  0.00  0.00     0.077 C 
ATOM      3  C7  <0> d   1      20.304   0.714  11.985  0.00  0.00     0.146 C 
ATOM      4  C10 <0> d   1      19.880   0.032  10.666  0.00  0.00     0.265 C 
ATOM      5  N11 <0> d   1      18.769   0.871  10.147  0.00  0.00    -0.059 N 
ATOM      6  H12 <0> d   1      17.909   0.656  10.631  0.00  0.00     0.278 HD
ATOM      7  H13 <0> d   1      18.657   0.735   9.154  0.00  0.00     0.278 HD
ENDROOT
BRANCH   1   8
ATOM      8  C2  <0> d   1      18.001   3.181  10.479  0.00  0.00     0.204 C 
ATOM      9  O1  <0> d   1      18.000   4.205   9.817  0.00  0.00    -0.646 OA
ATOM     10  O3  <0> d   1      17.033   2.898  11.164  0.00  0.00    -0.646 OA
ENDBRANCH   1   8
BRANCH   3  11
ATOM     11  O9  <0> d   1      21.721   0.645  12.149  0.00  0.00    -0.394 OA
ATOM     12  H16 <0> d   1      22.147  -0.035  11.607  0.00  0.00     0.210 HD
ENDBRANCH   3  11
TORSDOF 2
ENDMDL
MODEL 2
REMARK VINA RESULT:      -4.3      2.402      3.204
REMARK  2 active torsions:
REMARK  status: ('A' for Active; 'I' for Inactive)
REMARK    1  A    between atoms: C2_2  and  C4_4 
REMARK    2  A    between atoms: C7_6  and  O9_7 
ROOT
ATOM      1  C4  <0> d   1      18.237   0.169  12.386  0.00  0.00     0.288 C 
ATOM      2  C6  <0> d   1      19.501  -0.450  11.752  0.00  0.00     0.077 C 
ATOM      3  C7  <0> d   1      20.442   0.743  11.487  0.00  0.00     0.146 C 
ATOM      4  C10 <0> d   1      19.667   1.983  11.985  0.00  0.00     0.265 C 
ATOM      5  N11 <0> d   1      18.237   1.581  11.926  0.00  0.00    -0.059 N 
ATOM      6  H12 <0> d   1      17.892   1.642  10.979  0.00  0.00     0.278 HD
ATOM      7  H13 <0> d   1      17.683   2.158  12.541  0.00  0.00     0.278 HD
ENDROOT
BRANCH   1   8
ATOM      8  C2  <0> d   1      17.001  -0.542  11.897  0.00  0.00     0.204 C 
ATOM      9  O1  <0> d   1      16.996  -1.758  11.797  0.00  0.00    -0.646 OA
ATOM     10  O3  <0> d   1      16.004   0.097  11.607  0.00  0.00    -0.646 OA
ENDBRANCH   1   8
BRANCH   3  11
ATOM     11  O9  <0> d   1      21.657   0.588  12.222  0.00  0.00    -0.394 OA
ATOM     12  H16 <0> d   1      21.852   1.324  12.821  0.00  0.00     0.210 HD
ENDBRANCH   3  11
TORSDOF 2
ENDMDL
MODEL 3
REMARK VINA RESULT:      -4.2      1.157      1.367
REMARK  2 active torsions:
REMARK  status: ('A' for Active; 'I' for Inactive)
REMARK    1  A    between atoms: C2_2  and  C4_4 
REMARK    2  A    between atoms: C7_6  and  O9_7 
ROOT
ATOM      1  C4  <0> d   1      19.074   1.539  10.278  0.00  0.00     0.288 C 
ATOM      2  C6  <0> d   1      19.692   0.699  11.417  0.00  0.00     0.077 C 
ATOM      3  C7  <0> d   1      20.308  -0.531  10.719  0.00  0.00     0.146 C 
ATOM      4  C10 <0> d   1      20.012  -0.329   9.217  0.00  0.00     0.265 C 
ATOM      5  N11 <0> d   1      18.826   0.566   9.183  0.00  0.00    -0.059 N 
ATOM      6  H12 <0> d   1      17.983   0.042   9.365  0.00  0.00     0.278 HD
ATOM      7  H13 <0> d   1      18.764   1.037   8.294  0.00  0.00     0.278 HD
ENDROOT
BRANCH   1   8
ATOM      8  C2  <0> d   1      17.779   2.164  10.729  0.00  0.00     0.204 C 
ATOM      9  O1  <0> d   1      17.516   3.313  10.417  0.00  0.00    -0.646 OA
ATOM     10  O3  <0> d   1      16.992   1.519  11.401  0.00  0.00    -0.646 OA
ENDBRANCH   1   8
BRANCH   3  11
ATOM     11  O9  <0> d   1      21.718  -0.575  10.947  0.00  0.00    -0.394 OA
ATOM     12  H16 <0> d   1      22.224   0.046  10.404  0.00  0.00     0.210 HD
ENDBRANCH   3  11
TORSDOF 2
ENDMDL
MODEL 4
REMARK VINA RESULT:      -4.2      3.279      4.309
REMARK  2 active torsions:
REMARK  status: ('A' for Active; 'I' for Inactive)
REMARK    1  A    between atoms: C2_2  and  C4_4 
REMARK    2  A    between atoms: C7_6  and  O9_7 
ROOT
ATOM      1  C4  <0> d   1      19.184  -1.613  12.607  0.00  0.00     0.288 C 
ATOM      2  C6  <0> d   1      19.889  -0.776  11.518  0.00  0.00     0.077 C 
ATOM      3  C7  <0> d   1      20.361   0.503  12.239  0.00  0.00     0.146 C 
ATOM      4  C10 <0> d   1      19.902   0.330  13.703  0.00  0.00     0.265 C 
ATOM      5  N11 <0> d   1      18.764  -0.623  13.631  0.00  0.00    -0.059 N 
ATOM      6  H12 <0> d   1      17.924  -0.147  13.336  0.00  0.00     0.278 HD
ATOM      7  H13 <0> d   1      18.621  -1.070  14.524  0.00  0.00     0.278 HD
ENDROOT
BRANCH   1   8
ATOM      8  C2  <0> d   1      17.981  -2.316  12.032  0.00  0.00     0.204 C 
ATOM      9  O1  <0> d   1      16.970  -1.686  11.776  0.00  0.00    -0.646 OA
ATOM     10  O3  <0> d   1      18.021  -3.517  11.819  0.00  0.00    -0.646 OA
ENDBRANCH   1   8
BRANCH   3  11
ATOM     11  O9  <0> d   1      21.784   0.612  12.173  0.00  0.00    -0.394 OA
ATOM     12  H16 <0> d   1      22.126   1.475  12.449  0.00  0.00     0.210 HD
ENDBRANCH   3  11
TORSDOF 2
ENDMDL
MODEL 5
REMARK VINA RESULT:      -4.2      5.579      6.660
REMARK  2 active torsions:
REMARK  status: ('A' for Active; 'I' for Inactive)
REMARK    1  A    between atoms: C2_2  and  C4_4 
REMARK    2  A    between atoms: C7_6  and  O9_7 
ROOT
ATOM      1  C4  <0> d   1      19.038   0.665  16.708  0.00  0.00     0.288 C 
ATOM      2  C6  <0> d   1      18.892  -0.830  16.358  0.00  0.00     0.077 C 
ATOM      3  C7  <0> d   1      17.956  -0.866  15.132  0.00  0.00     0.146 C 
ATOM      4  C10 <0> d   1      17.617   0.613  14.845  0.00  0.00     0.265 C 
ATOM      5  N11 <0> d   1      17.823   1.306  16.144  0.00  0.00    -0.059 N 
ATOM      6  H12 <0> d   1      17.032   1.156  16.753  0.00  0.00     0.278 HD
ATOM      7  H13 <0> d   1      17.973   2.293  15.998  0.00  0.00     0.278 HD
ENDROOT
BRANCH   1   8
ATOM      8  C2  <0> d   1      19.085   0.853  18.203  0.00  0.00     0.204 C 
ATOM      9  O1  <0> d   1      18.416   0.138  18.929  0.00  0.00    -0.646 OA
ATOM     10  O3  <0> d   1      19.797   1.718  18.687  0.00  0.00    -0.646 OA
ENDBRANCH   1   8
BRANCH   3  11
ATOM     11  O9  <0> d   1      18.627  -1.449  14.013  0.00  0.00    -0.394 OA
ATOM     12  H16 <0> d   1      19.154  -0.821  13.500  0.00  0.00     0.210 HD
ENDBRANCH   3  11
TORSDOF 2
ENDMDL
MODEL 6
REMARK VINA RESULT:      -4.0      5.177      5.874
REMARK  2 active torsions:
REMARK  status: ('A' for Active; 'I' for Inactive)
REMARK    1  A    between atoms: C2_2  and  C4_4 
REMARK    2  A    between atoms: C7_6  and  O9_7 
ROOT
ATOM      1  C4  <0> d   1      19.054  -0.782   6.396  0.00  0.00     0.288 C 
ATOM      2  C6  <0> d   1      18.300   0.490   6.841  0.00  0.00     0.077 C 
ATOM      3  C7  <0> d   1      17.462   0.054   8.060  0.00  0.00     0.146 C 
ATOM      4  C10 <0> d   1      17.781  -1.445   8.250  0.00  0.00     0.265 C 
ATOM      5  N11 <0> d   1      18.232  -1.907   6.911  0.00  0.00    -0.059 N 
ATOM      6  H12 <0> d   1      17.439  -2.067   6.307  0.00  0.00     0.278 HD
ATOM      7  H13 <0> d   1      18.786  -2.746   6.995  0.00  0.00     0.278 HD
ENDROOT
BRANCH   1   8
ATOM      8  C2  <0> d   1      19.144  -0.842   4.893  0.00  0.00     0.204 C 
ATOM      9  O1  <0> d   1      19.731  -1.764   4.354  0.00  0.00    -0.646 OA
ATOM     10  O3  <0> d   1      18.624   0.029   4.216  0.00  0.00    -0.646 OA
ENDBRANCH   1   8
BRANCH   3  11
ATOM     11  O9  <0> d   1      17.848   0.796   9.218  0.00  0.00    -0.394 OA
ATOM     12  H16 <0> d   1      18.507   1.483   9.043  0.00  0.00     0.210 HD
ENDBRANCH   3  11
TORSDOF 2
ENDMDL
MODEL 7
REMARK VINA RESULT:      -3.9      3.171      3.738
REMARK  2 active torsions:
REMARK  status: ('A' for Active; 'I' for Inactive)
REMARK    1  A    between atoms: C2_2  and  C4_4 
REMARK    2  A    between atoms: C7_6  and  O9_7 
ROOT
ATOM      1  C4  <0> d   1      19.216  -1.145   8.566  0.00  0.00     0.288 C 
ATOM      2  C6  <0> d   1      20.023  -0.014   9.238  0.00  0.00     0.077 C 
ATOM      3  C7  <0> d   1      20.277  -0.503  10.679  0.00  0.00     0.146 C 
ATOM      4  C10 <0> d   1      19.602  -1.890  10.754  0.00  0.00     0.265 C 
ATOM      5  N11 <0> d   1      18.564  -1.864   9.691  0.00  0.00    -0.059 N 
ATOM      6  H12 <0> d   1      17.749  -1.357  10.005  0.00  0.00     0.278 HD
ATOM      7  H13 <0> d   1      18.313  -2.802   9.418  0.00  0.00     0.278 HD
ENDROOT
BRANCH   1   8
ATOM      8  C2  <0> d   1      18.177  -0.570   7.638  0.00  0.00     0.204 C 
ATOM      9  O1  <0> d   1      17.065  -0.301   8.059  0.00  0.00    -0.646 OA
ATOM     10  O3  <0> d   1      18.450  -0.368   6.466  0.00  0.00    -0.646 OA
ENDBRANCH   1   8
BRANCH   3  11
ATOM     11  O9  <0> d   1      21.679  -0.618  10.923  0.00  0.00    -0.394 OA
ATOM     12  H16 <0> d   1      22.127  -1.258  10.351  0.00  0.00     0.210 HD
ENDBRANCH   3  11
TORSDOF 2
ENDMDL
MODEL 8
REMARK VINA RESULT:      -3.9      2.676      3.589
REMARK  2 active torsions:
REMARK  status: ('A' for Active; 'I' for Inactive)
REMARK    1  A    between atoms: C2_2  and  C4_4 
REMARK    2  A    between atoms: C7_6  and  O9_7 
ROOT
ATOM      1  C4  <0> d   1      18.090   0.454  11.063  0.00  0.00     0.288 C 
ATOM      2  C6  <0> d   1      18.261   0.371   9.532  0.00  0.00     0.077 C 
ATOM      3  C7  <0> d   1      18.715   1.781   9.101  0.00  0.00     0.146 C 
ATOM      4  C10 <0> d   1      18.780   2.597  10.411  0.00  0.00     0.265 C 
ATOM      5  N11 <0> d   1      17.856   1.894  11.340  0.00  0.00    -0.059 N 
ATOM      6  H12 <0> d   1      16.898   2.140  11.137  0.00  0.00     0.278 HD
ATOM      7  H13 <0> d   1      18.082   2.116  12.297  0.00  0.00     0.278 HD
ENDROOT
BRANCH   1   8
ATOM      8  C2  <0> d   1      16.904  -0.365  11.505  0.00  0.00     0.204 C 
ATOM      9  O1  <0> d   1      15.794   0.139  11.539  0.00  0.00    -0.646 OA
ATOM     10  O3  <0> d   1      17.053  -1.533  11.823  0.00  0.00    -0.646 OA
ENDBRANCH   1   8
BRANCH   3  11
ATOM     11  O9  <0> d   1      20.003   1.721   8.487  0.00  0.00    -0.394 OA
ATOM     12  H16 <0> d   1      20.005   1.295   7.618  0.00  0.00     0.210 HD
ENDBRANCH   3  11
TORSDOF 2
ENDMDL
MODEL 9
REMARK VINA RESULT:      -3.9      5.263      6.591
REMARK  2 active torsions:
REMARK  status: ('A' for Active; 'I' for Inactive)
REMARK    1  A    between atoms: C2_2  and  C4_4 
REMARK    2  A    between atoms: C7_6  and  O9_7 
ROOT
ATOM      1  C4  <0> d   1      18.328   1.188  16.987  0.00  0.00     0.288 C 
ATOM      2  C6  <0> d   1      18.772   2.555  16.426  0.00  0.00     0.077 C 
ATOM      3  C7  <0> d   1      18.424   2.506  14.924  0.00  0.00     0.146 C 
ATOM      4  C10 <0> d   1      17.797   1.112  14.705  0.00  0.00     0.265 C 
ATOM      5  N11 <0> d   1      18.334   0.278  15.812  0.00  0.00    -0.059 N 
ATOM      6  H12 <0> d   1      19.276  -0.020  15.604  0.00  0.00     0.278 HD
ATOM      7  H13 <0> d   1      17.739  -0.520  15.974  0.00  0.00     0.278 HD
ENDROOT
BRANCH   1   8
ATOM      8  C2  <0> d   1      19.303   0.705  18.029  0.00  0.00     0.204 C 
ATOM      9  O1  <0> d   1      19.910   1.509  18.716  0.00  0.00    -0.646 OA
ATOM     10  O3  <0> d   1      19.481  -0.491  18.191  0.00  0.00    -0.646 OA
ENDBRANCH   1   8
BRANCH   3  11
ATOM     11  O9  <0> d   1      17.483   3.531  14.600  0.00  0.00    -0.394 OA
ATOM     12  H16 <0> d   1      17.576   3.880  13.701  0.00  0.00     0.210 HD
ENDBRANCH   3  11
TORSDOF 2
ENDMDL
