MODEL 1
REMARK VINA RESULT:      -6.6      0.000      0.000
REMARK  6 active torsions:
REMARK  status: ('A' for Active; 'I' for Inactive)
REMARK    1  A    between atoms: N2_2  and  C5_5 
REMARK    2  A    between atoms: C5_5  and  C6_6 
REMARK    3  A    between atoms: C6_6  and  C8_7 
REMARK    4  A    between atoms: C6_6  and  C15_14 
REMARK    5  A    between atoms: C11_10  and  O12_11 
REMARK    6  A    between atoms: C15_14  and  O16_15 
ROOT
ATOM      1  C6  ZIN A   1      17.873   1.403  10.869  0.00  0.00     0.079 C 
ENDROOT
BRANCH   1   2
ATOM      2  C5  ZIN A   1      18.435   2.794  11.166  0.00  0.00     0.246 C 
BRANCH   2   3
ATOM      3  N2  ZIN A   1      17.329   3.746  11.325  0.00  0.00    -0.078 N 
ATOM      4  C1  ZIN A   1      17.385   4.343  12.666  0.00  0.00     0.269 C 
ATOM      5  H3  ZIN A   1      16.451   3.263  11.208  0.00  0.00     0.279 HD
ATOM      6  C4  ZIN A   1      17.443   4.805  10.312  0.00  0.00     0.269 C 
ENDBRANCH   2   3
ENDBRANCH   1   2
BRANCH   1   7
ATOM      7  C8  ZIN A   1      18.057   1.088   9.407  0.00  0.00    -0.049 A 
ATOM      8  C14 ZIN A   1      18.970   1.806   8.656  0.00  0.00     0.010 A 
ATOM      9  C13 ZIN A   1      19.144   1.516   7.317  0.00  0.00     0.037 A 
ATOM     10  C11 ZIN A   1      18.394   0.511   6.722  0.00  0.00     0.065 A 
ATOM     11  C10 ZIN A   1      17.474  -0.203   7.477  0.00  0.00     0.037 A 
ATOM     12  C9  ZIN A   1      17.308   0.087   8.817  0.00  0.00     0.010 A 
BRANCH  10  13
ATOM     13  O12 ZIN A   1      18.559   0.229   5.403  0.00  0.00    -0.361 OA
ATOM     14  H32 ZIN A   1      19.281   0.717   4.984  0.00  0.00     0.217 HD
ENDBRANCH  10  13
ENDBRANCH   1   7
BRANCH   1  15
ATOM     15  C15 ZIN A   1      18.616   0.362  11.711  0.00  0.00     0.067 C 
ATOM     16  C21 ZIN A   1      17.648  -0.752  12.115  0.00  0.00     0.038 C 
ATOM     17  C20 ZIN A   1      18.391  -1.792  12.955  0.00  0.00     0.003 C 
ATOM     18  C19 ZIN A   1      18.952  -1.124  14.213  0.00  0.00     0.000 C 
ATOM     19  C18 ZIN A   1      19.919  -0.010  13.810  0.00  0.00     0.003 C 
ATOM     20  C17 ZIN A   1      19.177   1.030  12.968  0.00  0.00     0.038 C 
BRANCH  15  21
ATOM     21  O16 ZIN A   1      19.688  -0.191  10.947  0.00  0.00    -0.389 OA
ATOM     22  H35 ZIN A   1      19.423  -0.516  10.075  0.00  0.00     0.210 HD
ENDBRANCH  15  21
ENDBRANCH   1  15
TORSDOF 6
ENDMDL
MODEL 2
REMARK VINA RESULT:      -6.5      1.595      3.911
REMARK  6 active torsions:
REMARK  status: ('A' for Active; 'I' for Inactive)
REMARK    1  A    between atoms: N2_2  and  C5_5 
REMARK    2  A    between atoms: C5_5  and  C6_6 
REMARK    3  A    between atoms: C6_6  and  C8_7 
REMARK    4  A    between atoms: C6_6  and  C15_14 
REMARK    5  A    between atoms: C11_10  and  O12_11 
REMARK    6  A    between atoms: C15_14  and  O16_15 
ROOT
ATOM      1  C6  ZIN A   1      19.085   1.393  10.920  0.00  0.00     0.079 C 
ENDROOT
BRANCH   1   2
ATOM      2  C5  ZIN A   1      18.353   0.488  11.912  0.00  0.00     0.246 C 
BRANCH   2   3
ATOM      3  N2  ZIN A   1      19.307  -0.452  12.515  0.00  0.00    -0.078 N 
ATOM      4  C1  ZIN A   1      20.103   0.244  13.535  0.00  0.00     0.269 C 
ATOM      5  H3  ZIN A   1      19.919  -0.814  11.799  0.00  0.00     0.279 HD
ATOM      6  C4  ZIN A   1      18.574  -1.563  13.138  0.00  0.00     0.269 C 
ENDBRANCH   2   3
ENDBRANCH   1   2
BRANCH   1   7
ATOM      7  C8  ZIN A   1      18.692   1.019   9.514  0.00  0.00    -0.049 A 
ATOM      8  C14 ZIN A   1      19.421   1.500   8.443  0.00  0.00     0.010 A 
ATOM      9  C13 ZIN A   1      19.067   1.155   7.153  0.00  0.00     0.037 A 
ATOM     10  C11 ZIN A   1      17.970   0.332   6.933  0.00  0.00     0.065 A 
ATOM     11  C10 ZIN A   1      17.236  -0.144   8.010  0.00  0.00     0.037 A 
ATOM     12  C9  ZIN A   1      17.599   0.200   9.298  0.00  0.00     0.010 A 
BRANCH  10  13
ATOM     13  O12 ZIN A   1      17.616  -0.004   5.665  0.00  0.00    -0.361 OA
ATOM     14  H32 ZIN A   1      17.879   0.645   4.998  0.00  0.00     0.217 HD
ENDBRANCH  10  13
ENDBRANCH   1   7
BRANCH   1  15
ATOM     15  C15 ZIN A   1      18.706   2.852  11.184  0.00  0.00     0.067 C 
ATOM     16  C21 ZIN A   1      17.737   2.921  12.366  0.00  0.00     0.038 C 
ATOM     17  C20 ZIN A   1      17.358   4.379  12.630  0.00  0.00     0.003 C 
ATOM     18  C19 ZIN A   1      16.686   4.964  11.386  0.00  0.00     0.000 C 
ATOM     19  C18 ZIN A   1      17.654   4.895  10.204  0.00  0.00     0.003 C 
ATOM     20  C17 ZIN A   1      18.034   3.436   9.940  0.00  0.00     0.038 C 
BRANCH  15  21
ATOM     21  O16 ZIN A   1      19.882   3.602  11.487  0.00  0.00    -0.389 OA
ATOM     22  H35 ZIN A   1      20.530   3.121  12.021  0.00  0.00     0.210 HD
ENDBRANCH  15  21
ENDBRANCH   1  15
TORSDOF 6
ENDMDL
MODEL 3
REMARK VINA RESULT:      -6.5      2.546      5.574
REMARK  6 active torsions:
REMARK  status: ('A' for Active; 'I' for Inactive)
REMARK    1  A    between atoms: N2_2  and  C5_5 
REMARK    2  A    between atoms: C5_5  and  C6_6 
REMARK    3  A    between atoms: C6_6  and  C8_7 
REMARK    4  A    between atoms: C6_6  and  C15_14 
REMARK    5  A    between atoms: C11_10  and  O12_11 
REMARK    6  A    between atoms: C15_14  and  O16_15 
ROOT
ATOM      1  C6  ZIN A   1      19.389  -0.636  11.877  0.00  0.00     0.079 C 
ENDROOT
BRANCH   1   2
ATOM      2  C5  ZIN A   1      18.683   0.437  11.046  0.00  0.00     0.246 C 
BRANCH   2   3
ATOM      3  N2  ZIN A   1      19.684   1.304  10.412  0.00  0.00    -0.078 N 
ATOM      4  C1  ZIN A   1      19.355   1.473   8.991  0.00  0.00     0.269 C 
ATOM      5  H3  ZIN A   1      20.597   0.882  10.499  0.00  0.00     0.279 HD
ATOM      6  C4  ZIN A   1      19.687   2.616  11.074  0.00  0.00     0.269 C 
ENDBRANCH   2   3
ENDBRANCH   1   2
BRANCH   1   7
ATOM      7  C8  ZIN A   1      18.878  -0.592  13.294  0.00  0.00    -0.049 A 
ATOM      8  C14 ZIN A   1      17.805   0.218  13.615  0.00  0.00     0.010 A 
ATOM      9  C13 ZIN A   1      17.330   0.257  14.912  0.00  0.00     0.037 A 
ATOM     10  C11 ZIN A   1      17.939  -0.510  15.895  0.00  0.00     0.065 A 
ATOM     11  C10 ZIN A   1      19.020  -1.318  15.571  0.00  0.00     0.037 A 
ATOM     12  C9  ZIN A   1      19.487  -1.357  14.272  0.00  0.00     0.010 A 
BRANCH  10  13
ATOM     13  O12 ZIN A   1      17.478  -0.469  17.173  0.00  0.00    -0.361 OA
ATOM     14  H32 ZIN A   1      17.015   0.349  17.398  0.00  0.00     0.217 HD
ENDBRANCH  10  13
ENDBRANCH   1   7
BRANCH   1  15
ATOM     15  C15 ZIN A   1      19.106  -2.015  11.276  0.00  0.00     0.067 C 
ATOM     16  C21 ZIN A   1      17.633  -2.371  11.489  0.00  0.00     0.038 C 
ATOM     17  C20 ZIN A   1      17.350  -3.749  10.889  0.00  0.00     0.003 C 
ATOM     18  C19 ZIN A   1      18.232  -4.795  11.575  0.00  0.00     0.000 C 
ATOM     19  C18 ZIN A   1      19.704  -4.439  11.363  0.00  0.00     0.003 C 
ATOM     20  C17 ZIN A   1      19.987  -3.060  11.963  0.00  0.00     0.038 C 
BRANCH  15  21
ATOM     21  O16 ZIN A   1      19.394  -1.994   9.878  0.00  0.00    -0.389 OA
ATOM     22  H35 ZIN A   1      18.710  -2.403   9.329  0.00  0.00     0.210 HD
ENDBRANCH  15  21
ENDBRANCH   1  15
TORSDOF 6
ENDMDL
MODEL 4
REMARK VINA RESULT:      -6.4      3.073      4.572
REMARK  6 active torsions:
REMARK  status: ('A' for Active; 'I' for Inactive)
REMARK    1  A    between atoms: N2_2  and  C5_5 
REMARK    2  A    between atoms: C5_5  and  C6_6 
REMARK    3  A    between atoms: C6_6  and  C8_7 
REMARK    4  A    between atoms: C6_6  and  C15_14 
REMARK    5  A    between atoms: C11_10  and  O12_11 
REMARK    6  A    between atoms: C15_14  and  O16_15 
ROOT
ATOM      1  C6  ZIN A   1      19.048  -0.562  11.967  0.00  0.00     0.079 C 
ENDROOT
BRANCH   1   2
ATOM      2  C5  ZIN A   1      20.439  -0.239  11.419  0.00  0.00     0.246 C 
BRANCH   2   3
ATOM      3  N2  ZIN A   1      20.312   0.617  10.233  0.00  0.00    -0.078 N 
ATOM      4  C1  ZIN A   1      19.967  -0.209   9.068  0.00  0.00     0.269 C 
ATOM      5  H3  ZIN A   1      21.188   1.089  10.064  0.00  0.00     0.279 HD
ATOM      6  C4  ZIN A   1      19.255   1.613  10.457  0.00  0.00     0.269 C 
ENDBRANCH   2   3
ENDBRANCH   1   2
BRANCH   1   7
ATOM      7  C8  ZIN A   1      18.736  -2.016  11.720  0.00  0.00    -0.049 A 
ATOM      8  C14 ZIN A   1      19.763  -2.939  11.650  0.00  0.00     0.010 A 
ATOM      9  C13 ZIN A   1      19.480  -4.273  11.429  0.00  0.00     0.037 A 
ATOM     10  C11 ZIN A   1      18.165  -4.685  11.267  0.00  0.00     0.065 A 
ATOM     11  C10 ZIN A   1      17.136  -3.755  11.332  0.00  0.00     0.037 A 
ATOM     12  C9  ZIN A   1      17.424  -2.423  11.558  0.00  0.00     0.010 A 
BRANCH  10  13
ATOM     13  O12 ZIN A   1      17.884  -5.996  11.044  0.00  0.00    -0.361 OA
ATOM     14  H32 ZIN A   1      17.374  -6.415  11.750  0.00  0.00     0.217 HD
ENDBRANCH  10  13
ENDBRANCH   1   7
BRANCH   1  15
ATOM     15  C15 ZIN A   1      19.014  -0.283  13.471  0.00  0.00     0.067 C 
ATOM     16  C21 ZIN A   1      19.198  -1.594  14.238  0.00  0.00     0.038 C 
ATOM     17  C20 ZIN A   1      19.164  -1.314  15.741  0.00  0.00     0.003 C 
ATOM     18  C19 ZIN A   1      17.817  -0.691  16.114  0.00  0.00     0.000 C 
ATOM     19  C18 ZIN A   1      17.632   0.619  15.347  0.00  0.00     0.003 C 
ATOM     20  C17 ZIN A   1      17.667   0.340  13.843  0.00  0.00     0.038 C 
BRANCH  15  21
ATOM     21  O16 ZIN A   1      20.066   0.621  13.812  0.00  0.00    -0.389 OA
ATOM     22  H35 ZIN A   1      19.763   1.511  14.036  0.00  0.00     0.210 HD
ENDBRANCH  15  21
ENDBRANCH   1  15
TORSDOF 6
ENDMDL
MODEL 5
REMARK VINA RESULT:      -6.4      1.283      2.039
REMARK  6 active torsions:
REMARK  status: ('A' for Active; 'I' for Inactive)
REMARK    1  A    between atoms: N2_2  and  C5_5 
REMARK    2  A    between atoms: C5_5  and  C6_6 
REMARK    3  A    between atoms: C6_6  and  C8_7 
REMARK    4  A    between atoms: C6_6  and  C15_14 
REMARK    5  A    between atoms: C11_10  and  O12_11 
REMARK    6  A    between atoms: C15_14  and  O16_15 
ROOT
ATOM      1  C6  ZIN A   1      18.117   1.288  10.459  0.00  0.00     0.079 C 
ENDROOT
BRANCH   1   2
ATOM      2  C5  ZIN A   1      19.073   2.442  10.762  0.00  0.00     0.246 C 
BRANCH   2   3
ATOM      3  N2  ZIN A   1      18.467   3.330  11.763  0.00  0.00    -0.078 N 
ATOM      4  C1  ZIN A   1      19.479   4.275  12.255  0.00  0.00     0.269 C 
ATOM      5  H3  ZIN A   1      18.117   2.780  12.533  0.00  0.00     0.279 HD
ATOM      6  C4  ZIN A   1      17.358   4.075  11.150  0.00  0.00     0.269 C 
ENDBRANCH   2   3
ENDBRANCH   1   2
BRANCH   1   7
ATOM      7  C8  ZIN A   1      18.154   0.979   8.984  0.00  0.00    -0.049 A 
ATOM      8  C14 ZIN A   1      17.301   0.027   8.457  0.00  0.00     0.010 A 
ATOM      9  C13 ZIN A   1      17.329  -0.254   7.104  0.00  0.00     0.037 A 
ATOM     10  C11 ZIN A   1      18.222   0.412   6.277  0.00  0.00     0.065 A 
ATOM     11  C10 ZIN A   1      19.082   1.362   6.810  0.00  0.00     0.037 A 
ATOM     12  C9  ZIN A   1      19.046   1.644   8.162  0.00  0.00     0.010 A 
BRANCH  10  13
ATOM     13  O12 ZIN A   1      18.256   0.133   4.947  0.00  0.00    -0.361 OA
ATOM     14  H32 ZIN A   1      18.673  -0.713   4.733  0.00  0.00     0.217 HD
ENDBRANCH  10  13
ENDBRANCH   1   7
BRANCH   1  15
ATOM     15  C15 ZIN A   1      18.544   0.049  11.249  0.00  0.00     0.067 C 
ATOM     16  C21 ZIN A   1      19.567  -0.747  10.436  0.00  0.00     0.038 C 
ATOM     17  C20 ZIN A   1      19.994  -1.985  11.227  0.00  0.00     0.003 C 
ATOM     18  C19 ZIN A   1      18.770  -2.861  11.503  0.00  0.00     0.000 C 
ATOM     19  C18 ZIN A   1      17.747  -2.065  12.315  0.00  0.00     0.003 C 
ATOM     20  C17 ZIN A   1      17.320  -0.826  11.525  0.00  0.00     0.038 C 
BRANCH  15  21
ATOM     21  O16 ZIN A   1      19.130   0.453  12.487  0.00  0.00    -0.389 OA
ATOM     22  H35 ZIN A   1      19.987   0.892  12.393  0.00  0.00     0.210 HD
ENDBRANCH  15  21
ENDBRANCH   1  15
TORSDOF 6
ENDMDL
MODEL 6
REMARK VINA RESULT:      -6.4      2.849      5.277
REMARK  6 active torsions:
REMARK  status: ('A' for Active; 'I' for Inactive)
REMARK    1  A    between atoms: N2_2  and  C5_5 
REMARK    2  A    between atoms: C5_5  and  C6_6 
REMARK    3  A    between atoms: C6_6  and  C8_7 
REMARK    4  A    between atoms: C6_6  and  C15_14 
REMARK    5  A    between atoms: C11_10  and  O12_11 
REMARK    6  A    between atoms: C15_14  and  O16_15 
ROOT
ATOM      1  C6  ZIN A   1      19.671  -1.092  12.760  0.00  0.00     0.079 C 
ENDROOT
BRANCH   1   2
ATOM      2  C5  ZIN A   1      18.602  -0.516  13.690  0.00  0.00     0.246 C 
BRANCH   2   3
ATOM      3  N2  ZIN A   1      19.103  -0.509  15.070  0.00  0.00    -0.078 N 
ATOM      4  C1  ZIN A   1      19.042   0.857  15.606  0.00  0.00     0.269 C 
ATOM      5  H3  ZIN A   1      20.058  -0.833  15.081  0.00  0.00     0.279 HD
ATOM      6  C4  ZIN A   1      18.275  -1.398  15.897  0.00  0.00     0.269 C 
ENDBRANCH   2   3
ENDBRANCH   1   2
BRANCH   1   7
ATOM      7  C8  ZIN A   1      19.165  -2.371  12.144  0.00  0.00    -0.049 A 
ATOM      8  C14 ZIN A   1      17.806  -2.565  11.976  0.00  0.00     0.010 A 
ATOM      9  C13 ZIN A   1      17.339  -3.733  11.406  0.00  0.00     0.037 A 
ATOM     10  C11 ZIN A   1      18.234  -4.718  11.012  0.00  0.00     0.065 A 
ATOM     11  C10 ZIN A   1      19.597  -4.523  11.187  0.00  0.00     0.037 A 
ATOM     12  C9  ZIN A   1      20.059  -3.350  11.752  0.00  0.00     0.010 A 
BRANCH  10  13
ATOM     13  O12 ZIN A   1      17.777  -5.871  10.457  0.00  0.00    -0.361 OA
ATOM     14  H32 ZIN A   1      18.476  -6.456  10.134  0.00  0.00     0.217 HD
ENDBRANCH  10  13
ENDBRANCH   1   7
BRANCH   1  15
ATOM     15  C15 ZIN A   1      19.983  -0.082  11.653  0.00  0.00     0.067 C 
ATOM     16  C21 ZIN A   1      19.276   1.240  11.955  0.00  0.00     0.038 C 
ATOM     17  C20 ZIN A   1      19.588   2.249  10.849  0.00  0.00     0.003 C 
ATOM     18  C19 ZIN A   1      19.097   1.703   9.506  0.00  0.00     0.000 C 
ATOM     19  C18 ZIN A   1      19.804   0.380   9.205  0.00  0.00     0.003 C 
ATOM     20  C17 ZIN A   1      19.492  -0.629  10.312  0.00  0.00     0.038 C 
BRANCH  15  21
ATOM     21  O16 ZIN A   1      21.394   0.136  11.592  0.00  0.00    -0.389 OA
ATOM     22  H35 ZIN A   1      21.650   0.912  11.074  0.00  0.00     0.210 HD
ENDBRANCH  15  21
ENDBRANCH   1  15
TORSDOF 6
ENDMDL
MODEL 7
REMARK VINA RESULT:      -6.3      2.682      6.234
REMARK  6 active torsions:
REMARK  status: ('A' for Active; 'I' for Inactive)
REMARK    1  A    between atoms: N2_2  and  C5_5 
REMARK    2  A    between atoms: C5_5  and  C6_6 
REMARK    3  A    between atoms: C6_6  and  C8_7 
REMARK    4  A    between atoms: C6_6  and  C15_14 
REMARK    5  A    between atoms: C11_10  and  O12_11 
REMARK    6  A    between atoms: C15_14  and  O16_15 
ROOT
ATOM      1  C6  ZIN A   1      18.821  -0.687  11.586  0.00  0.00     0.079 C 
ENDROOT
BRANCH   1   2
ATOM      2  C5  ZIN A   1      20.002  -1.613  11.291  0.00  0.00     0.246 C 
BRANCH   2   3
ATOM      3  N2  ZIN A   1      19.577  -2.669  10.364  0.00  0.00    -0.078 N 
ATOM      4  C1  ZIN A   1      19.787  -3.983  10.988  0.00  0.00     0.269 C 
ATOM      5  H3  ZIN A   1      20.120  -2.609   9.515  0.00  0.00     0.279 HD
ATOM      6  C4  ZIN A   1      18.153  -2.500  10.046  0.00  0.00     0.269 C 
ENDBRANCH   2   3
ENDBRANCH   1   2
BRANCH   1   7
ATOM      7  C8  ZIN A   1      18.603  -0.610  13.076  0.00  0.00    -0.049 A 
ATOM      8  C14 ZIN A   1      19.424  -1.323  13.931  0.00  0.00     0.010 A 
ATOM      9  C13 ZIN A   1      19.230  -1.250  15.296  0.00  0.00     0.037 A 
ATOM     10  C11 ZIN A   1      18.203  -0.469  15.810  0.00  0.00     0.065 A 
ATOM     11  C10 ZIN A   1      17.377   0.240  14.949  0.00  0.00     0.037 A 
ATOM     12  C9  ZIN A   1      17.579   0.168  13.584  0.00  0.00     0.010 A 
BRANCH  10  13
ATOM     13  O12 ZIN A   1      18.006  -0.401  17.153  0.00  0.00    -0.361 OA
ATOM     14  H32 ZIN A   1      17.499  -1.141  17.514  0.00  0.00     0.217 HD
ENDBRANCH  10  13
ENDBRANCH   1   7
BRANCH   1  15
ATOM     15  C15 ZIN A   1      19.121   0.712  11.043  0.00  0.00     0.067 C 
ATOM     16  C21 ZIN A   1      19.702   1.580  12.161  0.00  0.00     0.038 C 
ATOM     17  C20 ZIN A   1      20.002   2.977  11.617  0.00  0.00     0.003 C 
ATOM     18  C19 ZIN A   1      18.709   3.612  11.100  0.00  0.00     0.000 C 
ATOM     19  C18 ZIN A   1      18.127   2.744   9.983  0.00  0.00     0.003 C 
ATOM     20  C17 ZIN A   1      17.828   1.345  10.526  0.00  0.00     0.038 C 
BRANCH  15  21
ATOM     21  O16 ZIN A   1      20.064   0.616   9.975  0.00  0.00    -0.389 OA
ATOM     22  H35 ZIN A   1      20.818   1.215  10.061  0.00  0.00     0.210 HD
ENDBRANCH  15  21
ENDBRANCH   1  15
TORSDOF 6
ENDMDL
MODEL 8
REMARK VINA RESULT:      -6.2      2.617      6.344
REMARK  6 active torsions:
REMARK  status: ('A' for Active; 'I' for Inactive)
REMARK    1  A    between atoms: N2_2  and  C5_5 
REMARK    2  A    between atoms: C5_5  and  C6_6 
REMARK    3  A    between atoms: C6_6  and  C8_7 
REMARK    4  A    between atoms: C6_6  and  C15_14 
REMARK    5  A    between atoms: C11_10  and  O12_11 
REMARK    6  A    between atoms: C15_14  and  O16_15 
ROOT
ATOM      1  C6  ZIN A   1      18.065  -0.816  11.306  0.00  0.00     0.079 C 
ENDROOT
BRANCH   1   2
ATOM      2  C5  ZIN A   1      18.632  -2.160  10.847  0.00  0.00     0.246 C 
BRANCH   2   3
ATOM      3  N2  ZIN A   1      17.529  -3.075  10.528  0.00  0.00    -0.078 N 
ATOM      4  C1  ZIN A   1      17.741  -3.649   9.192  0.00  0.00     0.269 C 
ATOM      5  H3  ZIN A   1      16.657  -2.568  10.542  0.00  0.00     0.279 HD
ATOM      6  C4  ZIN A   1      17.483  -4.154  11.523  0.00  0.00     0.269 C 
ENDBRANCH   2   3
ENDBRANCH   1   2
BRANCH   1   7
ATOM      7  C8  ZIN A   1      18.279  -0.660  12.789  0.00  0.00    -0.049 A 
ATOM      8  C14 ZIN A   1      17.542   0.271  13.499  0.00  0.00     0.010 A 
ATOM      9  C13 ZIN A   1      17.733   0.412  14.859  0.00  0.00     0.037 A 
ATOM     10  C11 ZIN A   1      18.673  -0.373  15.513  0.00  0.00     0.065 A 
ATOM     11  C10 ZIN A   1      19.415  -1.301  14.797  0.00  0.00     0.037 A 
ATOM     12  C9  ZIN A   1      19.217  -1.443  13.437  0.00  0.00     0.010 A 
BRANCH  10  13
ATOM     13  O12 ZIN A   1      18.866  -0.231  16.850  0.00  0.00    -0.361 OA
ATOM     14  H32 ZIN A   1      19.028   0.680  17.130  0.00  0.00     0.217 HD
ENDBRANCH  10  13
ENDBRANCH   1   7
BRANCH   1  15
ATOM     15  C15 ZIN A   1      18.777   0.319  10.566  0.00  0.00     0.067 C 
ATOM     16  C21 ZIN A   1      17.939   1.595  10.660  0.00  0.00     0.038 C 
ATOM     17  C20 ZIN A   1      18.651   2.728   9.920  0.00  0.00     0.003 C 
ATOM     18  C19 ZIN A   1      18.832   2.344   8.450  0.00  0.00     0.000 C 
ATOM     19  C18 ZIN A   1      19.669   1.068   8.356  0.00  0.00     0.003 C 
ATOM     20  C17 ZIN A   1      18.957  -0.066   9.096  0.00  0.00     0.038 C 
BRANCH  15  21
ATOM     21  O16 ZIN A   1      20.057   0.544  11.159  0.00  0.00    -0.389 OA
ATOM     22  H35 ZIN A   1      20.221   1.466  11.402  0.00  0.00     0.210 HD
ENDBRANCH  15  21
ENDBRANCH   1  15
TORSDOF 6
ENDMDL
MODEL 9
REMARK VINA RESULT:      -6.1      2.643      3.745
REMARK  6 active torsions:
REMARK  status: ('A' for Active; 'I' for Inactive)
REMARK    1  A    between atoms: N2_2  and  C5_5 
REMARK    2  A    between atoms: C5_5  and  C6_6 
REMARK    3  A    between atoms: C6_6  and  C8_7 
REMARK    4  A    between atoms: C6_6  and  C15_14 
REMARK    5  A    between atoms: C11_10  and  O12_11 
REMARK    6  A    between atoms: C15_14  and  O16_15 
ROOT
ATOM      1  C6  ZIN A   1      18.559  -1.044   9.314  0.00  0.00     0.079 C 
ENDROOT
BRANCH   1   2
ATOM      2  C5  ZIN A   1      19.994  -0.699   9.718  0.00  0.00     0.246 C 
BRANCH   2   3
ATOM      3  N2  ZIN A   1      19.998   0.545  10.498  0.00  0.00    -0.078 N 
ATOM      4  C1  ZIN A   1      18.636   1.095  10.548  0.00  0.00     0.269 C 
ATOM      5  H3  ZIN A   1      20.615   1.213  10.061  0.00  0.00     0.279 HD
ATOM      6  C4  ZIN A   1      20.465   0.267  11.863  0.00  0.00     0.269 C 
ENDBRANCH   2   3
ENDBRANCH   1   2
BRANCH   1   7
ATOM      7  C8  ZIN A   1      18.418  -0.932   7.818  0.00  0.00    -0.049 A 
ATOM      8  C14 ZIN A   1      17.355  -0.232   7.276  0.00  0.00     0.010 A 
ATOM      9  C13 ZIN A   1      17.226  -0.122   5.905  0.00  0.00     0.037 A 
ATOM     10  C11 ZIN A   1      18.158  -0.725   5.071  0.00  0.00     0.065 A 
ATOM     11  C10 ZIN A   1      19.220  -1.431   5.618  0.00  0.00     0.037 A 
ATOM     12  C9  ZIN A   1      19.347  -1.533   6.989  0.00  0.00     0.010 A 
BRANCH  10  13
ATOM     13  O12 ZIN A   1      18.029  -0.623   3.722  0.00  0.00    -0.361 OA
ATOM     14  H32 ZIN A   1      17.716   0.240   3.421  0.00  0.00     0.217 HD
ENDBRANCH  10  13
ENDBRANCH   1   7
BRANCH   1  15
ATOM     15  C15 ZIN A   1      18.236  -2.475   9.750  0.00  0.00     0.067 C 
ATOM     16  C21 ZIN A   1      17.504  -2.447  11.093  0.00  0.00     0.038 C 
ATOM     17  C20 ZIN A   1      17.181  -3.877  11.528  0.00  0.00     0.003 C 
ATOM     18  C19 ZIN A   1      18.481  -4.671  11.674  0.00  0.00     0.000 C 
ATOM     19  C18 ZIN A   1      19.214  -4.700  10.332  0.00  0.00     0.003 C 
ATOM     20  C17 ZIN A   1      19.536  -3.269   9.896  0.00  0.00     0.038 C 
BRANCH  15  21
ATOM     21  O16 ZIN A   1      17.407  -3.097   8.767  0.00  0.00    -0.389 OA
ATOM     22  H35 ZIN A   1      17.575  -2.797   7.863  0.00  0.00     0.210 HD
ENDBRANCH  15  21
ENDBRANCH   1  15
TORSDOF 6
ENDMDL
