MODEL 1
REMARK VINA RESULT:      -7.8      0.000      0.000
REMARK  5 active torsions:
REMARK  status: ('A' for Active; 'I' for Inactive)
REMARK    1  A    between atoms: C3_3  and  C4_4 
REMARK    2  A    between atoms: C10_10  and  N12_11 
REMARK       I    between atoms: N12_11  and  C13_12 
REMARK    3  A    between atoms: C13_12  and  C15_14 
REMARK    4  A    between atoms: C15_14  and  N17_15 
REMARK    5  A    between atoms: C15_14  and  C18_16 
ROOT
ATOM      1  N12 <0> d   1      18.668  -0.546  11.086  0.00  0.00    -0.343 N 
ATOM      2  C13 <0> d   1      18.418   0.150  12.212  0.00  0.00     0.256 C 
ATOM      3  O14 <0> d   1      17.273   0.386  12.538  0.00  0.00    -0.271 OA
ATOM      4  H31 <0> d   1      19.584  -0.734  10.825  0.00  0.00     0.163 HD
ENDROOT
BRANCH   1   5
ATOM      5  C10 <0> d   1      17.559  -1.019  10.254  0.00  0.00     0.210 C 
ATOM      6  C8  <0> d   1      17.917  -2.152   9.321  0.00  0.00     0.251 C 
ATOM      7  N7  <0> d   1      18.074  -1.392   8.245  0.00  0.00    -0.293 N 
ATOM      8  O9  <0> d   1      18.024  -3.347   9.496  0.00  0.00    -0.271 OA
ATOM      9  C3  <0> d   1      18.672  -1.363   6.978  0.00  0.00     0.118 C 
ATOM     10  C24 <0> d   1      17.391  -0.269   8.945  0.00  0.00     0.187 C 
ATOM     11  C2  <0> d   1      18.971  -0.201   6.409  0.00  0.00    -0.041 C 
ATOM     12  C1  <0> d   1      19.662  -0.279   5.071  0.00  0.00     0.047 C 
ATOM     13  C27 <0> d   1      18.713   1.173   6.933  0.00  0.00     0.112 C 
ATOM     14  S26 <0> d   1      18.451   1.202   8.743  0.00  0.00    -0.136 SA
BRANCH   9  15
ATOM     15  C4  <0> d   1      18.970  -2.622   6.276  0.00  0.00     0.227 C 
ATOM     16  O5  <0> d   1      20.051  -3.170   6.436  0.00  0.00    -0.643 OA
ATOM     17  O6  <0> d   1      18.134  -3.120   5.534  0.00  0.00    -0.643 OA
ENDBRANCH   9  15
ENDBRANCH   1   5
BRANCH   2  18
ATOM     18  C15 <0> d   1      19.558   0.636  13.068  0.00  0.00     0.342 C 
BRANCH  18  19
ATOM     19  N17 <0> d   1      20.817   0.057  12.582  0.00  0.00     0.096 N 
ATOM     20  H32 <0> d   1      21.613   0.546  12.965  0.00  0.00     0.314 HD
ATOM     21  H33 <0> d   1      20.866  -0.929  12.790  0.00  0.00     0.314 HD
ENDBRANCH  18  19
BRANCH  18  22
ATOM     22  C18 <0> d   1      19.330   0.215  14.497  0.00  0.00    -0.016 A 
ATOM     23  C23 <0> d   1      19.144   1.169  15.478  0.00  0.00     0.010 A 
ATOM     24  C22 <0> d   1      18.930   0.783  16.788  0.00  0.00     0.001 A 
ATOM     25  C21 <0> d   1      18.910  -0.560  17.117  0.00  0.00     0.000 A 
ATOM     26  C20 <0> d   1      19.101  -1.516  16.137  0.00  0.00     0.001 A 
ATOM     27  C19 <0> d   1      19.310  -1.128  14.826  0.00  0.00     0.010 A 
ENDBRANCH  18  22
ENDBRANCH   2  18
TORSDOF 5
ENDMDL
MODEL 2
REMARK VINA RESULT:      -7.7      2.741      8.301
REMARK  5 active torsions:
REMARK  status: ('A' for Active; 'I' for Inactive)
REMARK    1  A    between atoms: C3_3  and  C4_4 
REMARK    2  A    between atoms: C10_10  and  N12_11 
REMARK       I    between atoms: N12_11  and  C13_12 
REMARK    3  A    between atoms: C13_12  and  C15_14 
REMARK    4  A    between atoms: C15_14  and  N17_15 
REMARK    5  A    between atoms: C15_14  and  C18_16 
ROOT
ATOM      1  N12 <0> d   1      18.714   0.698  12.156  0.00  0.00    -0.343 N 
ATOM      2  C13 <0> d   1      18.451  -0.031  11.054  0.00  0.00     0.256 C 
ATOM      3  O14 <0> d   1      17.303  -0.252  10.732  0.00  0.00    -0.271 OA
ATOM      4  H31 <0> d   1      19.632   0.875  12.414  0.00  0.00     0.163 HD
ENDROOT
BRANCH   1   5
ATOM      5  C10 <0> d   1      17.613   1.225  12.965  0.00  0.00     0.210 C 
ATOM      6  C8  <0> d   1      18.007   2.342  13.905  0.00  0.00     0.251 C 
ATOM      7  N7  <0> d   1      18.106   1.577  14.984  0.00  0.00    -0.293 N 
ATOM      8  O9  <0> d   1      18.174   3.530  13.731  0.00  0.00    -0.271 OA
ATOM      9  C3  <0> d   1      18.677   1.521  16.263  0.00  0.00     0.118 C 
ATOM     10  C24 <0> d   1      17.383   0.487  14.272  0.00  0.00     0.187 C 
ATOM     11  C2  <0> d   1      18.909   0.348  16.839  0.00  0.00    -0.041 C 
ATOM     12  C1  <0> d   1      19.577   0.395  18.189  0.00  0.00     0.047 C 
ATOM     13  C27 <0> d   1      18.595  -1.013  16.310  0.00  0.00     0.112 C 
ATOM     14  S26 <0> d   1      18.368  -1.033  14.495  0.00  0.00    -0.136 SA
BRANCH   9  15
ATOM     15  C4  <0> d   1      19.021   2.766  16.969  0.00  0.00     0.227 C 
ATOM     16  O5  <0> d   1      20.115   3.284  16.796  0.00  0.00    -0.643 OA
ATOM     17  O6  <0> d   1      18.212   3.282  17.727  0.00  0.00    -0.643 OA
ENDBRANCH   9  15
ENDBRANCH   1   5
BRANCH   2  18
ATOM     18  C15 <0> d   1      19.584  -0.573  10.221  0.00  0.00     0.342 C 
BRANCH  18  19
ATOM     19  N17 <0> d   1      20.854  -0.003  10.689  0.00  0.00     0.096 N 
ATOM     20  H32 <0> d   1      20.743   0.438  11.591  0.00  0.00     0.314 HD
ATOM     21  H33 <0> d   1      21.577  -0.706  10.718  0.00  0.00     0.314 HD
ENDBRANCH  18  19
BRANCH  18  22
ATOM     22  C18 <0> d   1      19.368  -0.200   8.777  0.00  0.00    -0.016 A 
ATOM     23  C23 <0> d   1      19.311   1.130   8.407  0.00  0.00     0.010 A 
ATOM     24  C22 <0> d   1      19.118   1.473   7.082  0.00  0.00     0.001 A 
ATOM     25  C21 <0> d   1      18.973   0.483   6.127  0.00  0.00     0.000 A 
ATOM     26  C20 <0> d   1      19.024  -0.848   6.497  0.00  0.00     0.001 A 
ATOM     27  C19 <0> d   1      19.222  -1.190   7.822  0.00  0.00     0.010 A 
ENDBRANCH  18  22
ENDBRANCH   2  18
TORSDOF 5
ENDMDL
MODEL 3
REMARK VINA RESULT:      -7.5      4.823      6.823
REMARK  5 active torsions:
REMARK  status: ('A' for Active; 'I' for Inactive)
REMARK    1  A    between atoms: C3_3  and  C4_4 
REMARK    2  A    between atoms: C10_10  and  N12_11 
REMARK       I    between atoms: N12_11  and  C13_12 
REMARK    3  A    between atoms: C13_12  and  C15_14 
REMARK    4  A    between atoms: C15_14  and  N17_15 
REMARK    5  A    between atoms: C15_14  and  C18_16 
ROOT
ATOM      1  N12 <0> d   1      17.916  -2.662   5.524  0.00  0.00    -0.343 N 
ATOM      2  C13 <0> d   1      18.692  -1.647   5.098  0.00  0.00     0.256 C 
ATOM      3  O14 <0> d   1      19.796  -1.875   4.648  0.00  0.00    -0.271 OA
ATOM      4  H31 <0> d   1      17.034  -2.481   5.885  0.00  0.00     0.163 HD
ENDROOT
BRANCH   1   5
ATOM      5  C10 <0> d   1      18.404  -4.041   5.446  0.00  0.00     0.210 C 
ATOM      6  C8  <0> d   1      17.354  -5.092   5.723  0.00  0.00     0.251 C 
ATOM      7  N7  <0> d   1      17.707  -5.302   6.984  0.00  0.00    -0.293 N 
ATOM      8  O9  <0> d   1      16.487  -5.578   5.028  0.00  0.00    -0.271 OA
ATOM      9  C3  <0> d   1      17.238  -5.811   8.203  0.00  0.00     0.118 C 
ATOM     10  C24 <0> d   1      18.985  -4.578   6.743  0.00  0.00     0.187 C 
ATOM     11  C2  <0> d   1      17.766  -5.393   9.347  0.00  0.00    -0.041 C 
ATOM     12  C1  <0> d   1      17.155  -5.959  10.603  0.00  0.00     0.047 C 
ATOM     13  C27 <0> d   1      18.888  -4.427   9.543  0.00  0.00     0.112 C 
ATOM     14  S26 <0> d   1      19.162  -3.356   8.085  0.00  0.00    -0.136 SA
BRANCH   9  15
ATOM     15  C4  <0> d   1      16.157  -6.809   8.216  0.00  0.00     0.227 C 
ATOM     16  O5  <0> d   1      14.989  -6.447   8.253  0.00  0.00    -0.643 OA
ATOM     17  O6  <0> d   1      16.426  -8.002   8.187  0.00  0.00    -0.643 OA
ENDBRANCH   9  15
ENDBRANCH   1   5
BRANCH   2  18
ATOM     18  C15 <0> d   1      18.190  -0.229   5.178  0.00  0.00     0.342 C 
BRANCH  18  19
ATOM     19  N17 <0> d   1      19.044   0.640   4.358  0.00  0.00     0.096 N 
ATOM     20  H32 <0> d   1      18.534   1.009   3.569  0.00  0.00     0.314 HD
ATOM     21  H33 <0> d   1      19.440   1.385   4.912  0.00  0.00     0.314 HD
ENDBRANCH  18  19
BRANCH  18  22
ATOM     22  C18 <0> d   1      18.228   0.237   6.611  0.00  0.00    -0.016 A 
ATOM     23  C23 <0> d   1      17.311  -0.252   7.521  0.00  0.00     0.010 A 
ATOM     24  C22 <0> d   1      17.349   0.172   8.837  0.00  0.00     0.001 A 
ATOM     25  C21 <0> d   1      18.299   1.092   9.239  0.00  0.00     0.000 A 
ATOM     26  C20 <0> d   1      19.214   1.585   8.328  0.00  0.00     0.001 A 
ATOM     27  C19 <0> d   1      19.179   1.157   7.013  0.00  0.00     0.010 A 
ENDBRANCH  18  22
ENDBRANCH   2  18
TORSDOF 5
ENDMDL
MODEL 4
REMARK VINA RESULT:      -7.4      2.008      7.567
REMARK  5 active torsions:
REMARK  status: ('A' for Active; 'I' for Inactive)
REMARK    1  A    between atoms: C3_3  and  C4_4 
REMARK    2  A    between atoms: C10_10  and  N12_11 
REMARK       I    between atoms: N12_11  and  C13_12 
REMARK    3  A    between atoms: C13_12  and  C15_14 
REMARK    4  A    between atoms: C15_14  and  N17_15 
REMARK    5  A    between atoms: C15_14  and  C18_16 
ROOT
ATOM      1  N12 <0> d   1      19.076  -0.472  10.418  0.00  0.00    -0.343 N 
ATOM      2  C13 <0> d   1      18.909  -1.604   9.707  0.00  0.00     0.256 C 
ATOM      3  O14 <0> d   1      19.606  -2.571   9.932  0.00  0.00    -0.271 OA
ATOM      4  H31 <0> d   1      18.520   0.302  10.238  0.00  0.00     0.163 HD
ENDROOT
BRANCH   1   5
ATOM      5  C10 <0> d   1      20.100  -0.409  11.464  0.00  0.00     0.210 C 
ATOM      6  C8  <0> d   1      19.578  -0.639  12.864  0.00  0.00     0.251 C 
ATOM      7  N7  <0> d   1      19.514   0.644  13.194  0.00  0.00    -0.293 N 
ATOM      8  O9  <0> d   1      19.310  -1.652  13.475  0.00  0.00    -0.271 OA
ATOM      9  C3  <0> d   1      18.911   1.536  14.091  0.00  0.00     0.118 C 
ATOM     10  C24 <0> d   1      20.354   0.985  12.012  0.00  0.00     0.187 C 
ATOM     11  C2  <0> d   1      18.767   2.814  13.764  0.00  0.00    -0.041 C 
ATOM     12  C1  <0> d   1      18.056   3.679  14.773  0.00  0.00     0.047 C 
ATOM     13  C27 <0> d   1      19.218   3.500  12.516  0.00  0.00     0.112 C 
ATOM     14  S26 <0> d   1      19.504   2.338  11.133  0.00  0.00    -0.136 SA
BRANCH   9  15
ATOM     15  C4  <0> d   1      18.434   1.054  15.397  0.00  0.00     0.227 C 
ATOM     16  O5  <0> d   1      19.139   1.179  16.389  0.00  0.00    -0.643 OA
ATOM     17  O6  <0> d   1      17.332   0.531  15.491  0.00  0.00    -0.643 OA
ENDBRANCH   9  15
ENDBRANCH   1   5
BRANCH   2  18
ATOM     18  C15 <0> d   1      17.857  -1.669   8.631  0.00  0.00     0.342 C 
BRANCH  18  19
ATOM     19  N17 <0> d   1      17.559  -3.074   8.322  0.00  0.00     0.096 N 
ATOM     20  H32 <0> d   1      17.176  -3.167   7.392  0.00  0.00     0.314 HD
ATOM     21  H33 <0> d   1      18.379  -3.651   8.434  0.00  0.00     0.314 HD
ENDBRANCH  18  19
BRANCH  18  22
ATOM     22  C18 <0> d   1      18.363  -0.978   7.390  0.00  0.00    -0.016 A 
ATOM     23  C23 <0> d   1      18.271   0.396   7.278  0.00  0.00     0.010 A 
ATOM     24  C22 <0> d   1      18.739   1.030   6.143  0.00  0.00     0.001 A 
ATOM     25  C21 <0> d   1      19.291   0.288   5.115  0.00  0.00     0.000 A 
ATOM     26  C20 <0> d   1      19.378  -1.087   5.224  0.00  0.00     0.001 A 
ATOM     27  C19 <0> d   1      18.914  -1.721   6.363  0.00  0.00     0.010 A 
ENDBRANCH  18  22
ENDBRANCH   2  18
TORSDOF 5
ENDMDL
MODEL 5
REMARK VINA RESULT:      -7.4      3.339      8.034
REMARK  5 active torsions:
REMARK  status: ('A' for Active; 'I' for Inactive)
REMARK    1  A    between atoms: C3_3  and  C4_4 
REMARK    2  A    between atoms: C10_10  and  N12_11 
REMARK       I    between atoms: N12_11  and  C13_12 
REMARK    3  A    between atoms: C13_12  and  C15_14 
REMARK    4  A    between atoms: C15_14  and  N17_15 
REMARK    5  A    between atoms: C15_14  and  C18_16 
ROOT
ATOM      1  N12 <0> d   1      19.047   0.381  12.594  0.00  0.00    -0.343 N 
ATOM      2  C13 <0> d   1      19.096   0.070  11.285  0.00  0.00     0.256 C 
ATOM      3  O14 <0> d   1      18.258   0.508  10.525  0.00  0.00    -0.271 OA
ATOM      4  H31 <0> d   1      19.716   0.030  13.202  0.00  0.00     0.163 HD
ENDROOT
BRANCH   1   5
ATOM      5  C10 <0> d   1      17.982   1.249  13.102  0.00  0.00     0.210 C 
ATOM      6  C8  <0> d   1      18.472   2.478  13.833  0.00  0.00     0.251 C 
ATOM      7  N7  <0> d   1      18.308   1.981  15.052  0.00  0.00    -0.293 N 
ATOM      8  O9  <0> d   1      18.877   3.551  13.439  0.00  0.00    -0.271 OA
ATOM      9  C3  <0> d   1      18.716   2.136  16.384  0.00  0.00     0.118 C 
ATOM     10  C24 <0> d   1      17.477   0.882  14.486  0.00  0.00     0.187 C 
ATOM     11  C2  <0> d   1      18.661   1.109  17.222  0.00  0.00    -0.041 C 
ATOM     12  C1  <0> d   1      19.173   1.364  18.616  0.00  0.00     0.047 C 
ATOM     13  C27 <0> d   1      18.157  -0.272  16.952  0.00  0.00     0.112 C 
ATOM     14  S26 <0> d   1      18.130  -0.679  15.169  0.00  0.00    -0.136 SA
BRANCH   9  15
ATOM     15  C4  <0> d   1      19.208   3.441  16.854  0.00  0.00     0.227 C 
ATOM     16  O5  <0> d   1      18.433   4.240  17.361  0.00  0.00    -0.643 OA
ATOM     17  O6  <0> d   1      20.392   3.726  16.739  0.00  0.00    -0.643 OA
ENDBRANCH   9  15
ENDBRANCH   1   5
BRANCH   2  18
ATOM     18  C15 <0> d   1      20.191  -0.823  10.762  0.00  0.00     0.342 C 
BRANCH  18  19
ATOM     19  N17 <0> d   1      20.632  -0.341   9.447  0.00  0.00     0.096 N 
ATOM     20  H32 <0> d   1      21.078   0.562   9.523  0.00  0.00     0.314 HD
ATOM     21  H33 <0> d   1      21.243  -1.010   9.003  0.00  0.00     0.314 HD
ENDBRANCH  18  19
BRANCH  18  22
ATOM     22  C18 <0> d   1      19.671  -2.232  10.632  0.00  0.00    -0.016 A 
ATOM     23  C23 <0> d   1      18.992  -2.616   9.492  0.00  0.00     0.010 A 
ATOM     24  C22 <0> d   1      18.520  -3.909   9.370  0.00  0.00     0.001 A 
ATOM     25  C21 <0> d   1      18.719  -4.816  10.394  0.00  0.00     0.000 A 
ATOM     26  C20 <0> d   1      19.393  -4.432  11.537  0.00  0.00     0.001 A 
ATOM     27  C19 <0> d   1      19.870  -3.139  11.657  0.00  0.00     0.010 A 
ENDBRANCH  18  22
ENDBRANCH   2  18
TORSDOF 5
ENDMDL
MODEL 6
REMARK VINA RESULT:      -7.4      2.589      7.984
REMARK  5 active torsions:
REMARK  status: ('A' for Active; 'I' for Inactive)
REMARK    1  A    between atoms: C3_3  and  C4_4 
REMARK    2  A    between atoms: C10_10  and  N12_11 
REMARK       I    between atoms: N12_11  and  C13_12 
REMARK    3  A    between atoms: C13_12  and  C15_14 
REMARK    4  A    between atoms: C15_14  and  N17_15 
REMARK    5  A    between atoms: C15_14  and  C18_16 
ROOT
ATOM      1  N12 <0> d   1      18.454   0.475  10.852  0.00  0.00    -0.343 N 
ATOM      2  C13 <0> d   1      18.304  -0.473   9.907  0.00  0.00     0.256 C 
ATOM      3  O14 <0> d   1      17.202  -0.918   9.663  0.00  0.00    -0.271 OA
ATOM      4  H31 <0> d   1      19.336   0.831  11.047  0.00  0.00     0.163 HD
ENDROOT
BRANCH   1   5
ATOM      5  C10 <0> d   1      17.287   0.969  11.587  0.00  0.00     0.210 C 
ATOM      6  C8  <0> d   1      17.359   2.431  11.964  0.00  0.00     0.251 C 
ATOM      7  N7  <0> d   1      17.749   2.225  13.215  0.00  0.00    -0.293 N 
ATOM      8  O9  <0> d   1      17.135   3.445  11.337  0.00  0.00    -0.271 OA
ATOM      9  C3  <0> d   1      18.376   2.847  14.304  0.00  0.00     0.118 C 
ATOM     10  C24 <0> d   1      17.370   0.790  13.092  0.00  0.00     0.187 C 
ATOM     11  C2  <0> d   1      18.994   2.116  15.223  0.00  0.00    -0.041 C 
ATOM     12  C1  <0> d   1      19.683   2.882  16.323  0.00  0.00     0.047 C 
ATOM     13  C27 <0> d   1      19.097   0.628  15.298  0.00  0.00     0.112 C 
ATOM     14  S26 <0> d   1      18.792  -0.185  13.688  0.00  0.00    -0.136 SA
BRANCH   9  15
ATOM     15  C4  <0> d   1      18.348   4.313  14.429  0.00  0.00     0.227 C 
ATOM     16  O5  <0> d   1      17.447   4.857  15.052  0.00  0.00    -0.643 OA
ATOM     17  O6  <0> d   1      19.227   4.988  13.910  0.00  0.00    -0.643 OA
ENDBRANCH   9  15
ENDBRANCH   1   5
BRANCH   2  18
ATOM     18  C15 <0> d   1      19.504  -0.981   9.151  0.00  0.00     0.342 C 
BRANCH  18  19
ATOM     19  N17 <0> d   1      20.718  -0.335   9.667  0.00  0.00     0.096 N 
ATOM     20  H32 <0> d   1      21.474  -0.999   9.751  0.00  0.00     0.314 HD
ATOM     21  H33 <0> d   1      20.987   0.446   9.087  0.00  0.00     0.314 HD
ENDBRANCH  18  19
BRANCH  18  22
ATOM     22  C18 <0> d   1      19.349  -0.660   7.686  0.00  0.00    -0.016 A 
ATOM     23  C23 <0> d   1      19.171   0.649   7.281  0.00  0.00     0.010 A 
ATOM     24  C22 <0> d   1      19.032   0.944   5.937  0.00  0.00     0.001 A 
ATOM     25  C21 <0> d   1      19.063  -0.072   5.000  0.00  0.00     0.000 A 
ATOM     26  C20 <0> d   1      19.236  -1.382   5.406  0.00  0.00     0.001 A 
ATOM     27  C19 <0> d   1      19.379  -1.676   6.749  0.00  0.00     0.010 A 
ENDBRANCH  18  22
ENDBRANCH   2  18
TORSDOF 5
ENDMDL
MODEL 7
REMARK VINA RESULT:      -7.3      2.366      3.344
REMARK  5 active torsions:
REMARK  status: ('A' for Active; 'I' for Inactive)
REMARK    1  A    between atoms: C3_3  and  C4_4 
REMARK    2  A    between atoms: C10_10  and  N12_11 
REMARK       I    between atoms: N12_11  and  C13_12 
REMARK    3  A    between atoms: C13_12  and  C15_14 
REMARK    4  A    between atoms: C15_14  and  N17_15 
REMARK    5  A    between atoms: C15_14  and  C18_16 
ROOT
ATOM      1  N12 <0> d   1      19.033   0.599  12.593  0.00  0.00    -0.343 N 
ATOM      2  C13 <0> d   1      18.832   1.759  13.248  0.00  0.00     0.256 C 
ATOM      3  O14 <0> d   1      19.506   2.732  12.980  0.00  0.00    -0.271 OA
ATOM      4  H31 <0> d   1      18.495  -0.179  12.807  0.00  0.00     0.163 HD
ENDROOT
BRANCH   1   5
ATOM      5  C10 <0> d   1      20.066   0.512  11.558  0.00  0.00     0.210 C 
ATOM      6  C8  <0> d   1      19.558   0.717  10.149  0.00  0.00     0.251 C 
ATOM      7  N7  <0> d   1      19.492  -0.572   9.843  0.00  0.00    -0.293 N 
ATOM      8  O9  <0> d   1      19.299   1.718   9.516  0.00  0.00    -0.271 OA
ATOM      9  C3  <0> d   1      18.893  -1.480   8.959  0.00  0.00     0.118 C 
ATOM     10  C24 <0> d   1      20.319  -0.893  11.040  0.00  0.00     0.187 C 
ATOM     11  C2  <0> d   1      18.742  -2.751   9.309  0.00  0.00    -0.041 C 
ATOM     12  C1  <0> d   1      18.036  -3.632   8.311  0.00  0.00     0.047 C 
ATOM     13  C27 <0> d   1      19.179  -3.414  10.574  0.00  0.00     0.112 C 
ATOM     14  S26 <0> d   1      19.456  -2.226  11.937  0.00  0.00    -0.136 SA
BRANCH   9  15
ATOM     15  C4  <0> d   1      18.430  -1.022   7.639  0.00  0.00     0.227 C 
ATOM     16  O5  <0> d   1      19.155  -1.142   6.661  0.00  0.00    -0.643 OA
ATOM     17  O6  <0> d   1      17.319  -0.523   7.520  0.00  0.00    -0.643 OA
ENDBRANCH   9  15
ENDBRANCH   1   5
BRANCH   2  18
ATOM     18  C15 <0> d   1      17.770   1.850  14.312  0.00  0.00     0.342 C 
BRANCH  18  19
ATOM     19  N17 <0> d   1      17.613   3.249  14.731  0.00  0.00     0.096 N 
ATOM     20  H32 <0> d   1      16.810   3.671  14.288  0.00  0.00     0.314 HD
ATOM     21  H33 <0> d   1      17.552   3.321  15.735  0.00  0.00     0.314 HD
ENDBRANCH  18  19
BRANCH  18  22
ATOM     22  C18 <0> d   1      18.176   1.013  15.499  0.00  0.00    -0.016 A 
ATOM     23  C23 <0> d   1      17.771  -0.305  15.587  0.00  0.00     0.010 A 
ATOM     24  C22 <0> d   1      18.147  -1.073  16.672  0.00  0.00     0.001 A 
ATOM     25  C21 <0> d   1      18.921  -0.519  17.676  0.00  0.00     0.000 A 
ATOM     26  C20 <0> d   1      19.322   0.800  17.591  0.00  0.00     0.001 A 
ATOM     27  C19 <0> d   1      18.950   1.567  16.502  0.00  0.00     0.010 A 
ENDBRANCH  18  22
ENDBRANCH   2  18
TORSDOF 5
ENDMDL
MODEL 8
REMARK VINA RESULT:      -7.2      2.685      3.590
REMARK  5 active torsions:
REMARK  status: ('A' for Active; 'I' for Inactive)
REMARK    1  A    between atoms: C3_3  and  C4_4 
REMARK    2  A    between atoms: C10_10  and  N12_11 
REMARK       I    between atoms: N12_11  and  C13_12 
REMARK    3  A    between atoms: C13_12  and  C15_14 
REMARK    4  A    between atoms: C15_14  and  N17_15 
REMARK    5  A    between atoms: C15_14  and  C18_16 
ROOT
ATOM      1  N12 <0> d   1      19.558  -1.527  10.902  0.00  0.00    -0.343 N 
ATOM      2  C13 <0> d   1      19.256  -0.565  11.795  0.00  0.00     0.256 C 
ATOM      3  O14 <0> d   1      18.215  -0.617  12.416  0.00  0.00    -0.271 OA
ATOM      4  H31 <0> d   1      20.390  -1.485  10.405  0.00  0.00     0.163 HD
ENDROOT
BRANCH   1   5
ATOM      5  C10 <0> d   1      18.629  -2.637  10.679  0.00  0.00     0.210 C 
ATOM      6  C8  <0> d   1      19.264  -3.874  10.088  0.00  0.00     0.251 C 
ATOM      7  N7  <0> d   1      18.886  -3.634   8.839  0.00  0.00    -0.293 N 
ATOM      8  O9  <0> d   1      19.901  -4.779  10.586  0.00  0.00    -0.271 OA
ATOM      9  C3  <0> d   1      19.178  -3.949   7.505  0.00  0.00     0.118 C 
ATOM     10  C24 <0> d   1      17.925  -2.608   9.333  0.00  0.00     0.187 C 
ATOM     11  C2  <0> d   1      18.845  -3.109   6.533  0.00  0.00    -0.041 C 
ATOM     12  C1  <0> d   1      19.252  -3.514   5.140  0.00  0.00     0.047 C 
ATOM     13  C27 <0> d   1      18.122  -1.807   6.652  0.00  0.00     0.112 C 
ATOM     14  S26 <0> d   1      18.200  -1.104   8.338  0.00  0.00    -0.136 SA
BRANCH   9  15
ATOM     15  C4  <0> d   1      19.855  -5.215   7.181  0.00  0.00     0.227 C 
ATOM     16  O5  <0> d   1      21.067  -5.312   7.314  0.00  0.00    -0.643 OA
ATOM     17  O6  <0> d   1      19.205  -6.170   6.779  0.00  0.00    -0.643 OA
ENDBRANCH   9  15
ENDBRANCH   1   5
BRANCH   2  18
ATOM     18  C15 <0> d   1      20.211   0.577  12.025  0.00  0.00     0.342 C 
BRANCH  18  19
ATOM     19  N17 <0> d   1      20.598   0.616  13.441  0.00  0.00     0.096 N 
ATOM     20  H32 <0> d   1      21.156   1.433  13.643  0.00  0.00     0.314 HD
ATOM     21  H33 <0> d   1      19.786   0.576  14.039  0.00  0.00     0.314 HD
ENDBRANCH  18  19
BRANCH  18  22
ATOM     22  C18 <0> d   1      19.542   1.875  11.651  0.00  0.00    -0.016 A 
ATOM     23  C23 <0> d   1      19.398   2.875  12.594  0.00  0.00     0.010 A 
ATOM     24  C22 <0> d   1      18.789   4.068  12.251  0.00  0.00     0.001 A 
ATOM     25  C21 <0> d   1      18.314   4.255  10.966  0.00  0.00     0.000 A 
ATOM     26  C20 <0> d   1      18.453   3.254  10.024  0.00  0.00     0.001 A 
ATOM     27  C19 <0> d   1      19.067   2.063  10.366  0.00  0.00     0.010 A 
ENDBRANCH  18  22
ENDBRANCH   2  18
TORSDOF 5
ENDMDL
MODEL 9
REMARK VINA RESULT:      -7.2      2.644      3.589
REMARK  5 active torsions:
REMARK  status: ('A' for Active; 'I' for Inactive)
REMARK    1  A    between atoms: C3_3  and  C4_4 
REMARK    2  A    between atoms: C10_10  and  N12_11 
REMARK       I    between atoms: N12_11  and  C13_12 
REMARK    3  A    between atoms: C13_12  and  C15_14 
REMARK    4  A    between atoms: C15_14  and  N17_15 
REMARK    5  A    between atoms: C15_14  and  C18_16 
ROOT
ATOM      1  N12 <0> d   1      18.848  -0.239  10.268  0.00  0.00    -0.343 N 
ATOM      2  C13 <0> d   1      18.504   0.638  11.231  0.00  0.00     0.256 C 
ATOM      3  O14 <0> d   1      17.459   0.501  11.831  0.00  0.00    -0.271 OA
ATOM      4  H31 <0> d   1      19.684  -0.129   9.787  0.00  0.00     0.163 HD
ENDROOT
BRANCH   1   5
ATOM      5  C10 <0> d   1      17.960  -1.358   9.944  0.00  0.00     0.210 C 
ATOM      6  C8  <0> d   1      18.665  -2.575   9.391  0.00  0.00     0.251 C 
ATOM      7  N7  <0> d   1      18.395  -2.317   8.118  0.00  0.00    -0.293 N 
ATOM      8  O9  <0> d   1      19.270  -3.479   9.928  0.00  0.00    -0.271 OA
ATOM      9  C3  <0> d   1      18.809  -2.603   6.810  0.00  0.00     0.118 C 
ATOM     10  C24 <0> d   1      17.378  -1.314   8.543  0.00  0.00     0.187 C 
ATOM     11  C2  <0> d   1      18.549  -1.750   5.827  0.00  0.00    -0.041 C 
ATOM     12  C1  <0> d   1      19.084  -2.124   4.469  0.00  0.00     0.047 C 
ATOM     13  C27 <0> d   1      17.798  -0.461   5.903  0.00  0.00     0.112 C 
ATOM     14  S26 <0> d   1      17.716   0.212   7.602  0.00  0.00    -0.136 SA
BRANCH   9  15
ATOM     15  C4  <0> d   1      19.532  -3.853   6.525  0.00  0.00     0.227 C 
ATOM     16  O5  <0> d   1      18.914  -4.858   6.205  0.00  0.00    -0.643 OA
ATOM     17  O6  <0> d   1      20.752  -3.885   6.608  0.00  0.00    -0.643 OA
ENDBRANCH   9  15
ENDBRANCH   1   5
BRANCH   2  18
ATOM     18  C15 <0> d   1      19.417   1.790  11.563  0.00  0.00     0.342 C 
BRANCH  18  19
ATOM     19  N17 <0> d   1      20.001   1.583  12.895  0.00  0.00     0.096 N 
ATOM     20  H32 <0> d   1      20.566   0.747  12.918  0.00  0.00     0.314 HD
ATOM     21  H33 <0> d   1      20.536   2.389  13.184  0.00  0.00     0.314 HD
ENDBRANCH  18  19
BRANCH  18  22
ATOM     22  C18 <0> d   1      18.630   3.075  11.554  0.00  0.00    -0.016 A 
ATOM     23  C23 <0> d   1      18.126   3.568  10.366  0.00  0.00     0.010 A 
ATOM     24  C22 <0> d   1      17.399   4.744  10.357  0.00  0.00     0.001 A 
ATOM     25  C21 <0> d   1      17.185   5.431  11.538  0.00  0.00     0.000 A 
ATOM     26  C20 <0> d   1      17.693   4.942  12.726  0.00  0.00     0.001 A 
ATOM     27  C19 <0> d   1      18.416   3.762  12.734  0.00  0.00     0.010 A 
ENDBRANCH  18  22
ENDBRANCH   2  18
TORSDOF 5
ENDMDL
