MODEL 1
REMARK VINA RESULT:      -9.7      0.000      0.000
REMARK  10 active torsions:
REMARK  status: ('A' for Active; 'I' for Inactive)
REMARK    1  A    between atoms: C2_2  and  N5_5 
REMARK       I    between atoms: N5_5  and  C6_6 
REMARK       I    between atoms: C6_6  and  N8_8 
REMARK    2  A    between atoms: N8_8  and  C9_9 
REMARK    3  A    between atoms: C9_9  and  C11_10 
REMARK    4  A    between atoms: C9_9  and  C39_34 
REMARK       I    between atoms: C11_10  and  N13_12 
REMARK    5  A    between atoms: C19_16  and  C21_17 
REMARK       I    between atoms: C21_17  and  N23_19 
REMARK    6  A    between atoms: N23_19  and  C24_20 
REMARK    7  A    between atoms: C24_20  and  C26_21 
REMARK    8  A    between atoms: C24_20  and  C31_26 
REMARK    9  A    between atoms: C26_21  and  C27_22 
REMARK   10  A    between atoms: C31_26  and  C33_28 
REMARK       I    between atoms: C33_28  and  N34_29 
ROOT
ATOM      1  C11 ZIN A   1      19.533  -0.734  10.948  0.00  0.00     0.244 C 
ATOM      2  O12 ZIN A   1      20.732  -0.916  10.963  0.00  0.00    -0.271 OA
ATOM      3  N13 ZIN A   1      19.003   0.312  11.611  0.00  0.00    -0.336 N 
ATOM      4  C14 ZIN A   1      17.569   0.636  11.800  0.00  0.00     0.132 C 
ATOM      5  C15 ZIN A   1      17.494   2.172  11.653  0.00  0.00     0.019 A 
ATOM      6  C17 ZIN A   1      18.913   2.674  11.995  0.00  0.00     0.032 A 
ATOM      7  C19 ZIN A   1      19.720   1.395  12.324  0.00  0.00     0.184 C 
ATOM      8  C36 ZIN A   1      18.321   2.831  10.548  0.00  0.00    -0.036 A 
ATOM      9  C37 ZIN A   1      18.891   1.930   9.451  0.00  0.00     0.016 C 
ATOM     10  C38 ZIN A   1      17.917   4.238  10.100  0.00  0.00     0.016 C 
ENDROOT
BRANCH   1  11
ATOM     11  C9  ZIN A   1      18.636  -1.676  10.186  0.00  0.00     0.185 C 
BRANCH  11  12
ATOM     12  N8  ZIN A   1      19.168  -1.871   8.835  0.00  0.00    -0.329 N 
ATOM     13  C6  ZIN A   1      18.514  -1.363   7.773  0.00  0.00     0.317 C 
ATOM     14  N5  ZIN A   1      19.004  -1.542   6.530  0.00  0.00    -0.335 N 
ATOM     15  O7  ZIN A   1      17.482  -0.741   7.935  0.00  0.00    -0.247 OA
ATOM     16  H52 ZIN A   1      19.827  -2.039   6.401  0.00  0.00     0.165 HD
ATOM     17  H53 ZIN A   1      19.992  -2.367   8.705  0.00  0.00     0.165 HD
BRANCH  14  18
ATOM     18  C2  ZIN A   1      18.292  -0.989   5.375  0.00  0.00     0.023 C 
ATOM     19  C1  ZIN A   1      17.093  -0.171   5.860  0.00  0.00     0.037 C 
ATOM     20  C3  ZIN A   1      17.803  -2.130   4.482  0.00  0.00     0.037 C 
ATOM     21  C4  ZIN A   1      19.237  -0.086   4.578  0.00  0.00     0.037 C 
ENDBRANCH  14  18
ENDBRANCH  11  12
BRANCH  11  22
ATOM     22  C39 ZIN A   1      18.577  -3.022  10.911  0.00  0.00    -0.022 C 
ATOM     23  C40 ZIN A   1      17.331  -3.788  10.465  0.00  0.00     0.017 C 
ATOM     24  C41 ZIN A   1      19.827  -3.837  10.574  0.00  0.00     0.017 C 
ATOM     25  C42 ZIN A   1      18.516  -2.784  12.422  0.00  0.00     0.017 C 
ENDBRANCH  11  22
ENDBRANCH   1  11
BRANCH   7  26
ATOM     26  C21 ZIN A   1      19.727   1.146  13.810  0.00  0.00     0.241 C 
ATOM     27  O22 ZIN A   1      20.215   0.128  14.252  0.00  0.00    -0.271 OA
ATOM     28  N23 ZIN A   1      19.190   2.056  14.648  0.00  0.00    -0.347 N 
ATOM     29  H56 ZIN A   1      18.800   2.870  14.294  0.00  0.00     0.163 HD
BRANCH  28  30
ATOM     30  C24 ZIN A   1      19.198   1.813  16.093  0.00  0.00     0.165 C 
BRANCH  30  31
ATOM     31  C26 ZIN A   1      17.815   1.330  16.535  0.00  0.00     0.038 C 
BRANCH  31  32
ATOM     32  C27 ZIN A   1      17.941  -0.047  17.191  0.00  0.00    -0.012 C 
ATOM     33  C30 ZIN A   1      19.384  -0.414  17.580  0.00  0.00     0.005 C 
ATOM     34  C29 ZIN A   1      19.068  -1.838  17.093  0.00  0.00     0.001 C 
ATOM     35  C28 ZIN A   1      18.001  -1.206  16.184  0.00  0.00     0.005 C 
ENDBRANCH  31  32
ENDBRANCH  30  31
BRANCH  30  36
ATOM     36  C31 ZIN A   1      19.538   3.091  16.816  0.00  0.00     0.238 C 
ATOM     37  O32 ZIN A   1      19.633   3.096  18.021  0.00  0.00    -0.285 OA
BRANCH  36  38
ATOM     38  C33 ZIN A   1      19.759   4.347  16.045  0.00  0.00     0.287 C 
ATOM     39  N34 ZIN A   1      20.982   4.914  16.015  0.00  0.00    -0.363 N 
ATOM     40  H66 ZIN A   1      21.718   4.505  16.496  0.00  0.00     0.159 HD
ATOM     41  H67 ZIN A   1      21.126   5.732  15.514  0.00  0.00     0.159 HD
ATOM     42  O35 ZIN A   1      18.838   4.860  15.444  0.00  0.00    -0.265 OA
ENDBRANCH  36  38
ENDBRANCH  30  36
ENDBRANCH  28  30
ENDBRANCH   7  26
TORSDOF 10
ENDMDL
MODEL 2
REMARK VINA RESULT:      -8.8      1.868      3.327
REMARK  10 active torsions:
REMARK  status: ('A' for Active; 'I' for Inactive)
REMARK    1  A    between atoms: C2_2  and  N5_5 
REMARK       I    between atoms: N5_5  and  C6_6 
REMARK       I    between atoms: C6_6  and  N8_8 
REMARK    2  A    between atoms: N8_8  and  C9_9 
REMARK    3  A    between atoms: C9_9  and  C11_10 
REMARK    4  A    between atoms: C9_9  and  C39_34 
REMARK       I    between atoms: C11_10  and  N13_12 
REMARK    5  A    between atoms: C19_16  and  C21_17 
REMARK       I    between atoms: C21_17  and  N23_19 
REMARK    6  A    between atoms: N23_19  and  C24_20 
REMARK    7  A    between atoms: C24_20  and  C26_21 
REMARK    8  A    between atoms: C24_20  and  C31_26 
REMARK    9  A    between atoms: C26_21  and  C27_22 
REMARK   10  A    between atoms: C31_26  and  C33_28 
REMARK       I    between atoms: C33_28  and  N34_29 
ROOT
ATOM      1  C11 ZIN A   1      19.329   0.141  11.672  0.00  0.00     0.244 C 
ATOM      2  O12 ZIN A   1      20.481   0.010  12.028  0.00  0.00    -0.271 OA
ATOM      3  N13 ZIN A   1      18.655   1.267  11.975  0.00  0.00    -0.336 N 
ATOM      4  C14 ZIN A   1      17.224   1.564  11.727  0.00  0.00     0.132 C 
ATOM      5  C15 ZIN A   1      17.204   3.044  11.288  0.00  0.00     0.019 A 
ATOM      6  C17 ZIN A   1      18.490   3.654  11.885  0.00  0.00     0.032 A 
ATOM      7  C19 ZIN A   1      19.173   2.487  12.638  0.00  0.00     0.184 C 
ATOM      8  C36 ZIN A   1      18.295   3.527  10.331  0.00  0.00    -0.036 A 
ATOM      9  C37 ZIN A   1      19.122   2.467   9.601  0.00  0.00     0.016 C 
ATOM     10  C38 ZIN A   1      18.034   4.814   9.545  0.00  0.00     0.016 C 
ENDROOT
BRANCH   1  11
ATOM     11  C9  ZIN A   1      18.652  -0.956  10.891  0.00  0.00     0.185 C 
BRANCH  11  12
ATOM     12  N8  ZIN A   1      19.350  -1.151   9.618  0.00  0.00    -0.329 N 
ATOM     13  C6  ZIN A   1      18.680  -1.022   8.455  0.00  0.00     0.317 C 
ATOM     14  N5  ZIN A   1      19.323  -1.200   7.284  0.00  0.00    -0.335 N 
ATOM     15  O7  ZIN A   1      17.498  -0.742   8.464  0.00  0.00    -0.247 OA
ATOM     16  H52 ZIN A   1      20.267  -1.423   7.278  0.00  0.00     0.165 HD
ATOM     17  H53 ZIN A   1      20.294  -1.374   9.611  0.00  0.00     0.165 HD
BRANCH  14  18
ATOM     18  C2  ZIN A   1      18.594  -1.060   6.021  0.00  0.00     0.023 C 
ATOM     19  C1  ZIN A   1      19.519  -0.452   4.964  0.00  0.00     0.037 C 
ATOM     20  C3  ZIN A   1      17.386  -0.146   6.227  0.00  0.00     0.037 C 
ATOM     21  C4  ZIN A   1      18.118  -2.437   5.551  0.00  0.00     0.037 C 
ENDBRANCH  14  18
ENDBRANCH  11  12
BRANCH  11  22
ATOM     22  C39 ZIN A   1      18.691  -2.255  11.699  0.00  0.00    -0.022 C 
ATOM     23  C40 ZIN A   1      19.963  -3.033  11.354  0.00  0.00     0.017 C 
ATOM     24  C41 ZIN A   1      18.682  -1.927  13.193  0.00  0.00     0.017 C 
ATOM     25  C42 ZIN A   1      17.466  -3.105  11.355  0.00  0.00     0.017 C 
ENDBRANCH  11  22
ENDBRANCH   1  11
BRANCH   7  26
ATOM     26  C21 ZIN A   1      18.792   2.508  14.096  0.00  0.00     0.241 C 
ATOM     27  O22 ZIN A   1      18.609   1.467  14.690  0.00  0.00    -0.271 OA
ATOM     28  N23 ZIN A   1      18.653   3.685  14.738  0.00  0.00    -0.347 N 
ATOM     29  H56 ZIN A   1      18.798   4.517  14.263  0.00  0.00     0.163 HD
BRANCH  28  30
ATOM     30  C24 ZIN A   1      18.283   3.705  16.156  0.00  0.00     0.165 C 
BRANCH  30  31
ATOM     31  C26 ZIN A   1      17.671   5.064  16.504  0.00  0.00     0.038 C 
BRANCH  31  32
ATOM     32  C27 ZIN A   1      17.492   5.884  15.224  0.00  0.00    -0.012 C 
ATOM     33  C30 ZIN A   1      17.670   7.398  15.433  0.00  0.00     0.005 C 
ATOM     34  C29 ZIN A   1      16.486   7.589  14.469  0.00  0.00     0.001 C 
ATOM     35  C28 ZIN A   1      16.023   6.183  14.885  0.00  0.00     0.005 C 
ENDBRANCH  31  32
ENDBRANCH  30  31
BRANCH  30  36
ATOM     36  C31 ZIN A   1      19.510   3.476  17.000  0.00  0.00     0.238 C 
ATOM     37  O32 ZIN A   1      20.580   3.907  16.638  0.00  0.00    -0.285 OA
BRANCH  36  38
ATOM     38  C33 ZIN A   1      19.405   2.720  18.279  0.00  0.00     0.287 C 
ATOM     39  N34 ZIN A   1      18.871   3.309  19.368  0.00  0.00    -0.363 N 
ATOM     40  H66 ZIN A   1      18.556   4.225  19.319  0.00  0.00     0.159 HD
ATOM     41  H67 ZIN A   1      18.802   2.817  20.202  0.00  0.00     0.159 HD
ATOM     42  O35 ZIN A   1      19.799   1.574  18.341  0.00  0.00    -0.265 OA
ENDBRANCH  36  38
ENDBRANCH  30  36
ENDBRANCH  28  30
ENDBRANCH   7  26
TORSDOF 10
ENDMDL
MODEL 3
REMARK VINA RESULT:      -8.5      2.576      8.105
REMARK  10 active torsions:
REMARK  status: ('A' for Active; 'I' for Inactive)
REMARK    1  A    between atoms: C2_2  and  N5_5 
REMARK       I    between atoms: N5_5  and  C6_6 
REMARK       I    between atoms: C6_6  and  N8_8 
REMARK    2  A    between atoms: N8_8  and  C9_9 
REMARK    3  A    between atoms: C9_9  and  C11_10 
REMARK    4  A    between atoms: C9_9  and  C39_34 
REMARK       I    between atoms: C11_10  and  N13_12 
REMARK    5  A    between atoms: C19_16  and  C21_17 
REMARK       I    between atoms: C21_17  and  N23_19 
REMARK    6  A    between atoms: N23_19  and  C24_20 
REMARK    7  A    between atoms: C24_20  and  C26_21 
REMARK    8  A    between atoms: C24_20  and  C31_26 
REMARK    9  A    between atoms: C26_21  and  C27_22 
REMARK   10  A    between atoms: C31_26  and  C33_28 
REMARK       I    between atoms: C33_28  and  N34_29 
ROOT
ATOM      1  C11 ZIN A   1      17.706  -0.457  11.763  0.00  0.00     0.244 C 
ATOM      2  O12 ZIN A   1      16.540  -0.770  11.884  0.00  0.00    -0.271 OA
ATOM      3  N13 ZIN A   1      18.294  -0.505  10.552  0.00  0.00    -0.336 N 
ATOM      4  C14 ZIN A   1      19.719  -0.269  10.224  0.00  0.00     0.132 C 
ATOM      5  C15 ZIN A   1      19.689   0.525   8.899  0.00  0.00     0.019 A 
ATOM      6  C17 ZIN A   1      18.332   0.170   8.254  0.00  0.00     0.032 A 
ATOM      7  C19 ZIN A   1      17.663  -0.812   9.247  0.00  0.00     0.184 C 
ATOM      8  C36 ZIN A   1      18.643   1.631   8.746  0.00  0.00    -0.036 A 
ATOM      9  C37 ZIN A   1      17.930   2.116  10.010  0.00  0.00     0.016 C 
ATOM     10  C38 ZIN A   1      18.887   2.697   7.677  0.00  0.00     0.016 C 
ENDROOT
BRANCH   1  11
ATOM     11  C9  ZIN A   1      18.497  -0.014  12.967  0.00  0.00     0.185 C 
BRANCH  11  12
ATOM     12  N8  ZIN A   1      17.741   1.006  13.699  0.00  0.00    -0.329 N 
ATOM     13  C6  ZIN A   1      18.212   2.267  13.777  0.00  0.00     0.317 C 
ATOM     14  N5  ZIN A   1      17.516   3.205  14.450  0.00  0.00    -0.335 N 
ATOM     15  O7  ZIN A   1      19.263   2.557  13.241  0.00  0.00    -0.247 OA
ATOM     16  H52 ZIN A   1      16.677   2.973  14.878  0.00  0.00     0.165 HD
ATOM     17  H53 ZIN A   1      16.901   0.775  14.127  0.00  0.00     0.165 HD
BRANCH  14  18
ATOM     18  C2  ZIN A   1      18.028   4.575  14.535  0.00  0.00     0.023 C 
ATOM     19  C1  ZIN A   1      18.409   5.065  13.136  0.00  0.00     0.037 C 
ATOM     20  C3  ZIN A   1      19.262   4.604  15.439  0.00  0.00     0.037 C 
ATOM     21  C4  ZIN A   1      16.947   5.488  15.119  0.00  0.00     0.037 C 
ENDBRANCH  14  18
ENDBRANCH  11  12
BRANCH  11  22
ATOM     22  C39 ZIN A   1      18.749  -1.214  13.881  0.00  0.00    -0.022 C 
ATOM     23  C40 ZIN A   1      17.821  -1.137  15.095  0.00  0.00     0.017 C 
ATOM     24  C41 ZIN A   1      18.476  -2.508  13.111  0.00  0.00     0.017 C 
ATOM     25  C42 ZIN A   1      20.205  -1.198  14.352  0.00  0.00     0.017 C 
ENDBRANCH  11  22
ENDBRANCH   1  11
BRANCH   7  26
ATOM     26  C21 ZIN A   1      17.938  -2.237   8.840  0.00  0.00     0.241 C 
ATOM     27  O22 ZIN A   1      18.386  -2.478   7.740  0.00  0.00    -0.271 OA
ATOM     28  N23 ZIN A   1      17.684  -3.243   9.701  0.00  0.00    -0.347 N 
ATOM     29  H56 ZIN A   1      17.326  -3.050  10.580  0.00  0.00     0.163 HD
BRANCH  28  30
ATOM     30  C24 ZIN A   1      17.952  -4.628   9.305  0.00  0.00     0.165 C 
BRANCH  30  31
ATOM     31  C26 ZIN A   1      16.948  -5.557   9.992  0.00  0.00     0.038 C 
BRANCH  31  32
ATOM     32  C27 ZIN A   1      16.252  -6.423   8.939  0.00  0.00    -0.012 C 
ATOM     33  C30 ZIN A   1      16.727  -6.147   7.502  0.00  0.00     0.005 C 
ATOM     34  C29 ZIN A   1      15.257  -6.293   7.073  0.00  0.00     0.001 C 
ATOM     35  C28 ZIN A   1      14.880  -5.882   8.505  0.00  0.00     0.005 C 
ENDBRANCH  31  32
ENDBRANCH  30  31
BRANCH  30  36
ATOM     36  C31 ZIN A   1      19.351  -5.008   9.718  0.00  0.00     0.238 C 
ATOM     37  O32 ZIN A   1      19.696  -4.879  10.869  0.00  0.00    -0.285 OA
BRANCH  36  38
ATOM     38  C33 ZIN A   1      20.307  -5.543   8.708  0.00  0.00     0.287 C 
ATOM     39  N34 ZIN A   1      20.578  -4.833   7.595  0.00  0.00    -0.363 N 
ATOM     40  H66 ZIN A   1      20.151  -3.975   7.451  0.00  0.00     0.159 HD
ATOM     41  H67 ZIN A   1      21.200  -5.181   6.937  0.00  0.00     0.159 HD
ATOM     42  O35 ZIN A   1      20.841  -6.618   8.888  0.00  0.00    -0.265 OA
ENDBRANCH  36  38
ENDBRANCH  30  36
ENDBRANCH  28  30
ENDBRANCH   7  26
TORSDOF 10
ENDMDL
MODEL 4
REMARK VINA RESULT:      -8.5      1.991      8.422
REMARK  10 active torsions:
REMARK  status: ('A' for Active; 'I' for Inactive)
REMARK    1  A    between atoms: C2_2  and  N5_5 
REMARK       I    between atoms: N5_5  and  C6_6 
REMARK       I    between atoms: C6_6  and  N8_8 
REMARK    2  A    between atoms: N8_8  and  C9_9 
REMARK    3  A    between atoms: C9_9  and  C11_10 
REMARK    4  A    between atoms: C9_9  and  C39_34 
REMARK       I    between atoms: C11_10  and  N13_12 
REMARK    5  A    between atoms: C19_16  and  C21_17 
REMARK       I    between atoms: C21_17  and  N23_19 
REMARK    6  A    between atoms: N23_19  and  C24_20 
REMARK    7  A    between atoms: C24_20  and  C26_21 
REMARK    8  A    between atoms: C24_20  and  C31_26 
REMARK    9  A    between atoms: C26_21  and  C27_22 
REMARK   10  A    between atoms: C31_26  and  C33_28 
REMARK       I    between atoms: C33_28  and  N34_29 
ROOT
ATOM      1  C11 ZIN A   1      17.906   0.877  13.293  0.00  0.00     0.244 C 
ATOM      2  O12 ZIN A   1      16.915   0.177  13.311  0.00  0.00    -0.271 OA
ATOM      3  N13 ZIN A   1      18.472   1.212  12.117  0.00  0.00    -0.336 N 
ATOM      4  C14 ZIN A   1      19.733   1.957  11.895  0.00  0.00     0.132 C 
ATOM      5  C15 ZIN A   1      19.432   2.884  10.698  0.00  0.00     0.019 A 
ATOM      6  C17 ZIN A   1      18.274   2.197   9.944  0.00  0.00     0.032 A 
ATOM      7  C19 ZIN A   1      17.979   0.911  10.752  0.00  0.00     0.184 C 
ATOM      8  C36 ZIN A   1      18.073   3.586  10.653  0.00  0.00    -0.036 A 
ATOM      9  C37 ZIN A   1      17.241   3.608  11.936  0.00  0.00     0.016 C 
ATOM     10  C38 ZIN A   1      17.939   4.821   9.759  0.00  0.00     0.016 C 
ENDROOT
BRANCH   1  11
ATOM     11  C9  ZIN A   1      18.502   1.373  14.585  0.00  0.00     0.185 C 
BRANCH  11  12
ATOM     12  N8  ZIN A   1      17.650   2.426  15.144  0.00  0.00    -0.329 N 
ATOM     13  C6  ZIN A   1      18.106   3.692  15.220  0.00  0.00     0.317 C 
ATOM     14  N5  ZIN A   1      17.321   4.661  15.734  0.00  0.00    -0.335 N 
ATOM     15  O7  ZIN A   1      19.223   3.961  14.825  0.00  0.00    -0.247 OA
ATOM     16  H52 ZIN A   1      16.429   4.446  16.049  0.00  0.00     0.165 HD
ATOM     17  H53 ZIN A   1      16.758   2.212  15.459  0.00  0.00     0.165 HD
BRANCH  14  18
ATOM     18  C2  ZIN A   1      17.817   6.037  15.817  0.00  0.00     0.023 C 
ATOM     19  C1  ZIN A   1      17.896   6.636  14.410  0.00  0.00     0.037 C 
ATOM     20  C3  ZIN A   1      19.208   6.041  16.452  0.00  0.00     0.037 C 
ATOM     21  C4  ZIN A   1      16.862   6.872  16.674  0.00  0.00     0.037 C 
ENDBRANCH  14  18
ENDBRANCH  11  12
BRANCH  11  22
ATOM     22  C39 ZIN A   1      18.600   0.215  15.579  0.00  0.00    -0.022 C 
ATOM     23  C40 ZIN A   1      17.194  -0.230  15.986  0.00  0.00     0.017 C 
ATOM     24  C41 ZIN A   1      19.337  -0.957  14.927  0.00  0.00     0.017 C 
ATOM     25  C42 ZIN A   1      19.369   0.673  16.821  0.00  0.00     0.017 C 
ENDBRANCH  11  22
ENDBRANCH   1  11
BRANCH   7  26
ATOM     26  C21 ZIN A   1      18.719  -0.261  10.161  0.00  0.00     0.241 C 
ATOM     27  O22 ZIN A   1      19.824  -0.550  10.570  0.00  0.00    -0.271 OA
ATOM     28  N23 ZIN A   1      18.152  -0.989   9.178  0.00  0.00    -0.347 N 
ATOM     29  H56 ZIN A   1      17.269  -0.758   8.851  0.00  0.00     0.163 HD
BRANCH  28  30
ATOM     30  C24 ZIN A   1      18.872  -2.129   8.604  0.00  0.00     0.165 C 
BRANCH  30  31
ATOM     31  C26 ZIN A   1      18.488  -2.284   7.131  0.00  0.00     0.038 C 
BRANCH  31  32
ATOM     32  C27 ZIN A   1      19.156  -1.179   6.310  0.00  0.00    -0.012 C 
ATOM     33  C30 ZIN A   1      18.200  -0.040   5.916  0.00  0.00     0.005 C 
ATOM     34  C29 ZIN A   1      18.902  -0.032   4.547  0.00  0.00     0.001 C 
ATOM     35  C28 ZIN A   1      19.263  -1.503   4.811  0.00  0.00     0.005 C 
ENDBRANCH  31  32
ENDBRANCH  30  31
BRANCH  30  36
ATOM     36  C31 ZIN A   1      18.506  -3.384   9.353  0.00  0.00     0.238 C 
ATOM     37  O32 ZIN A   1      17.363  -3.775   9.354  0.00  0.00    -0.285 OA
BRANCH  36  38
ATOM     38  C33 ZIN A   1      19.554  -4.143  10.092  0.00  0.00     0.287 C 
ATOM     39  N34 ZIN A   1      20.271  -3.535  11.059  0.00  0.00    -0.363 N 
ATOM     40  H66 ZIN A   1      20.105  -2.604  11.272  0.00  0.00     0.159 HD
ATOM     41  H67 ZIN A   1      20.953  -4.029  11.540  0.00  0.00     0.159 HD
ATOM     42  O35 ZIN A   1      19.762  -5.308   9.825  0.00  0.00    -0.265 OA
ENDBRANCH  36  38
ENDBRANCH  30  36
ENDBRANCH  28  30
ENDBRANCH   7  26
TORSDOF 10
ENDMDL
MODEL 5
REMARK VINA RESULT:      -8.5      2.526      5.279
REMARK  10 active torsions:
REMARK  status: ('A' for Active; 'I' for Inactive)
REMARK    1  A    between atoms: C2_2  and  N5_5 
REMARK       I    between atoms: N5_5  and  C6_6 
REMARK       I    between atoms: C6_6  and  N8_8 
REMARK    2  A    between atoms: N8_8  and  C9_9 
REMARK    3  A    between atoms: C9_9  and  C11_10 
REMARK    4  A    between atoms: C9_9  and  C39_34 
REMARK       I    between atoms: C11_10  and  N13_12 
REMARK    5  A    between atoms: C19_16  and  C21_17 
REMARK       I    between atoms: C21_17  and  N23_19 
REMARK    6  A    between atoms: N23_19  and  C24_20 
REMARK    7  A    between atoms: C24_20  and  C26_21 
REMARK    8  A    between atoms: C24_20  and  C31_26 
REMARK    9  A    between atoms: C26_21  and  C27_22 
REMARK   10  A    between atoms: C31_26  and  C33_28 
REMARK       I    between atoms: C33_28  and  N34_29 
ROOT
ATOM      1  C11 ZIN A   1      17.778   0.457  12.091  0.00  0.00     0.244 C 
ATOM      2  O12 ZIN A   1      16.624   0.794  11.930  0.00  0.00    -0.271 OA
ATOM      3  N13 ZIN A   1      18.385   0.676  13.273  0.00  0.00    -0.336 N 
ATOM      4  C14 ZIN A   1      19.805   0.439  13.623  0.00  0.00     0.132 C 
ATOM      5  C15 ZIN A   1      19.763  -0.128  15.059  0.00  0.00     0.019 A 
ATOM      6  C17 ZIN A   1      18.431   0.381  15.649  0.00  0.00     0.032 A 
ATOM      7  C19 ZIN A   1      17.787   1.216  14.516  0.00  0.00     0.184 C 
ATOM      8  C36 ZIN A   1      18.678  -1.151  15.399  0.00  0.00    -0.036 A 
ATOM      9  C37 ZIN A   1      17.927  -1.805  14.237  0.00  0.00     0.016 C 
ATOM     10  C38 ZIN A   1      18.896  -2.039  16.625  0.00  0.00     0.016 C 
ENDROOT
BRANCH   1  11
ATOM     11  C9  ZIN A   1      18.532  -0.208  10.968  0.00  0.00     0.185 C 
BRANCH  11  12
ATOM     12  N8  ZIN A   1      17.748  -1.332  10.451  0.00  0.00    -0.329 N 
ATOM     13  C6  ZIN A   1      18.172  -2.597  10.648  0.00  0.00     0.317 C 
ATOM     14  N5  ZIN A   1      17.450  -3.631  10.173  0.00  0.00    -0.335 N 
ATOM     15  O7  ZIN A   1      19.205  -2.803  11.254  0.00  0.00    -0.247 OA
ATOM     16  H52 ZIN A   1      16.626  -3.465   9.689  0.00  0.00     0.165 HD
ATOM     17  H53 ZIN A   1      16.923  -1.168   9.968  0.00  0.00     0.165 HD
BRANCH  14  18
ATOM     18  C2  ZIN A   1      17.912  -5.005  10.386  0.00  0.00     0.023 C 
ATOM     19  C1  ZIN A   1      17.767  -5.367  11.866  0.00  0.00     0.037 C 
ATOM     20  C3  ZIN A   1      19.381  -5.120   9.975  0.00  0.00     0.037 C 
ATOM     21  C4  ZIN A   1      17.069  -5.963   9.541  0.00  0.00     0.037 C 
ENDBRANCH  14  18
ENDBRANCH  11  12
BRANCH  11  22
ATOM     22  C39 ZIN A   1      18.773   0.804   9.846  0.00  0.00    -0.022 C 
ATOM     23  C40 ZIN A   1      18.911   2.206  10.444  0.00  0.00     0.017 C 
ATOM     24  C41 ZIN A   1      20.056   0.440   9.097  0.00  0.00     0.017 C 
ATOM     25  C42 ZIN A   1      17.590   0.779   8.875  0.00  0.00     0.017 C 
ENDBRANCH  11  22
ENDBRANCH   1  11
BRANCH   7  26
ATOM     26  C21 ZIN A   1      18.123   2.675  14.683  0.00  0.00     0.241 C 
ATOM     27  O22 ZIN A   1      18.708   3.054  15.676  0.00  0.00    -0.271 OA
ATOM     28  N23 ZIN A   1      17.774   3.561  13.729  0.00  0.00    -0.347 N 
ATOM     29  H56 ZIN A   1      17.306   3.258  12.935  0.00  0.00     0.163 HD
BRANCH  28  30
ATOM     30  C24 ZIN A   1      18.102   4.980  13.892  0.00  0.00     0.165 C 
BRANCH  30  31
ATOM     31  C26 ZIN A   1      17.220   5.816  12.961  0.00  0.00     0.038 C 
BRANCH  31  32
ATOM     32  C27 ZIN A   1      16.295   6.704  13.797  0.00  0.00    -0.012 C 
ATOM     33  C30 ZIN A   1      16.794   6.932  15.234  0.00  0.00     0.005 C 
ATOM     34  C29 ZIN A   1      15.328   6.790  15.681  0.00  0.00     0.001 C 
ATOM     35  C28 ZIN A   1      15.107   5.947  14.414  0.00  0.00     0.005 C 
ENDBRANCH  31  32
ENDBRANCH  30  31
BRANCH  30  36
ATOM     36  C31 ZIN A   1      19.551   5.204  13.545  0.00  0.00     0.238 C 
ATOM     37  O32 ZIN A   1      19.986   4.816  12.486  0.00  0.00    -0.285 OA
BRANCH  36  38
ATOM     38  C33 ZIN A   1      20.447   5.905  14.507  0.00  0.00     0.287 C 
ATOM     39  N34 ZIN A   1      20.998   5.225  15.533  0.00  0.00    -0.363 N 
ATOM     40  H66 ZIN A   1      20.810   4.280  15.645  0.00  0.00     0.159 HD
ATOM     41  H67 ZIN A   1      21.581   5.681  16.160  0.00  0.00     0.159 HD
ATOM     42  O35 ZIN A   1      20.682   7.087  14.368  0.00  0.00    -0.265 OA
ENDBRANCH  36  38
ENDBRANCH  30  36
ENDBRANCH  28  30
ENDBRANCH   7  26
TORSDOF 10
ENDMDL
MODEL 6
REMARK VINA RESULT:      -8.4      1.958      9.153
REMARK  10 active torsions:
REMARK  status: ('A' for Active; 'I' for Inactive)
REMARK    1  A    between atoms: C2_2  and  N5_5 
REMARK       I    between atoms: N5_5  and  C6_6 
REMARK       I    between atoms: C6_6  and  N8_8 
REMARK    2  A    between atoms: N8_8  and  C9_9 
REMARK    3  A    between atoms: C9_9  and  C11_10 
REMARK    4  A    between atoms: C9_9  and  C39_34 
REMARK       I    between atoms: C11_10  and  N13_12 
REMARK    5  A    between atoms: C19_16  and  C21_17 
REMARK       I    between atoms: C21_17  and  N23_19 
REMARK    6  A    between atoms: N23_19  and  C24_20 
REMARK    7  A    between atoms: C24_20  and  C26_21 
REMARK    8  A    between atoms: C24_20  and  C31_26 
REMARK    9  A    between atoms: C26_21  and  C27_22 
REMARK   10  A    between atoms: C31_26  and  C33_28 
REMARK       I    between atoms: C33_28  and  N34_29 
ROOT
ATOM      1  C11 ZIN A   1      19.559   0.652  11.859  0.00  0.00     0.244 C 
ATOM      2  O12 ZIN A   1      20.763   0.794  11.833  0.00  0.00    -0.271 OA
ATOM      3  N13 ZIN A   1      18.990  -0.393  11.228  0.00  0.00    -0.336 N 
ATOM      4  C14 ZIN A   1      17.545  -0.673  11.055  0.00  0.00     0.132 C 
ATOM      5  C15 ZIN A   1      17.420  -2.201  11.245  0.00  0.00     0.019 A 
ATOM      6  C17 ZIN A   1      18.818  -2.760  10.909  0.00  0.00     0.032 A 
ATOM      7  C19 ZIN A   1      19.666  -1.518  10.542  0.00  0.00     0.184 C 
ATOM      8  C36 ZIN A   1      18.230  -2.857  12.364  0.00  0.00    -0.036 A 
ATOM      9  C37 ZIN A   1      18.837  -1.946  13.432  0.00  0.00     0.016 C 
ATOM     10  C38 ZIN A   1      17.782  -4.237  12.852  0.00  0.00     0.016 C 
ENDROOT
BRANCH   1  11
ATOM     11  C9  ZIN A   1      18.699   1.645  12.599  0.00  0.00     0.185 C 
BRANCH  11  12
ATOM     12  N8  ZIN A   1      19.249   1.864  13.939  0.00  0.00    -0.329 N 
ATOM     13  C6  ZIN A   1      18.618   1.360  15.018  0.00  0.00     0.317 C 
ATOM     14  N5  ZIN A   1      19.126   1.561  16.251  0.00  0.00    -0.335 N 
ATOM     15  O7  ZIN A   1      17.593   0.722  14.879  0.00  0.00    -0.247 OA
ATOM     16  H52 ZIN A   1      19.944   2.070  16.361  0.00  0.00     0.165 HD
ATOM     17  H53 ZIN A   1      20.068   2.373  14.050  0.00  0.00     0.165 HD
BRANCH  14  18
ATOM     18  C2  ZIN A   1      18.439   1.013  17.423  0.00  0.00     0.023 C 
ATOM     19  C1  ZIN A   1      17.924   2.160  18.295  0.00  0.00     0.037 C 
ATOM     20  C3  ZIN A   1      19.414   0.156  18.232  0.00  0.00     0.037 C 
ATOM     21  C4  ZIN A   1      17.260   0.150  16.966  0.00  0.00     0.037 C 
ENDBRANCH  14  18
ENDBRANCH  11  12
BRANCH  11  22
ATOM     22  C39 ZIN A   1      18.675   2.969  11.834  0.00  0.00    -0.022 C 
ATOM     23  C40 ZIN A   1      17.397   3.736  12.179  0.00  0.00     0.017 C 
ATOM     24  C41 ZIN A   1      19.894   3.806  12.227  0.00  0.00     0.017 C 
ATOM     25  C42 ZIN A   1      18.712   2.689  10.330  0.00  0.00     0.017 C 
ENDBRANCH  11  22
ENDBRANCH   1  11
BRANCH   7  26
ATOM     26  C21 ZIN A   1      19.673  -1.311   9.049  0.00  0.00     0.241 C 
ATOM     27  O22 ZIN A   1      20.074  -0.265   8.584  0.00  0.00    -0.271 OA
ATOM     28  N23 ZIN A   1      19.232  -2.287   8.231  0.00  0.00    -0.347 N 
ATOM     29  H56 ZIN A   1      18.911  -3.123   8.604  0.00  0.00     0.163 HD
BRANCH  28  30
ATOM     30  C24 ZIN A   1      19.239  -2.085   6.780  0.00  0.00     0.165 C 
BRANCH  30  31
ATOM     31  C26 ZIN A   1      17.865  -1.586   6.329  0.00  0.00     0.038 C 
BRANCH  31  32
ATOM     32  C27 ZIN A   1      18.029  -0.292   5.528  0.00  0.00    -0.012 C 
ATOM     33  C30 ZIN A   1      19.475  -0.030   5.071  0.00  0.00     0.005 C 
ATOM     34  C29 ZIN A   1      19.230   1.450   5.411  0.00  0.00     0.001 C 
ATOM     35  C28 ZIN A   1      18.163   0.963   6.405  0.00  0.00     0.005 C 
ENDBRANCH  31  32
ENDBRANCH  30  31
BRANCH  30  36
ATOM     36  C31 ZIN A   1      19.550  -3.389   6.092  0.00  0.00     0.238 C 
ATOM     37  O32 ZIN A   1      19.454  -3.475   4.890  0.00  0.00    -0.285 OA
BRANCH  36  38
ATOM     38  C33 ZIN A   1      19.977  -4.571   6.892  0.00  0.00     0.287 C 
ATOM     39  N34 ZIN A   1      21.289  -4.820   7.079  0.00  0.00    -0.363 N 
ATOM     40  H66 ZIN A   1      21.955  -4.230   6.692  0.00  0.00     0.159 HD
ATOM     41  H67 ZIN A   1      21.568  -5.589   7.600  0.00  0.00     0.159 HD
ATOM     42  O35 ZIN A   1      19.145  -5.309   7.376  0.00  0.00    -0.265 OA
ENDBRANCH  36  38
ENDBRANCH  30  36
ENDBRANCH  28  30
ENDBRANCH   7  26
TORSDOF 10
ENDMDL
MODEL 7
REMARK VINA RESULT:      -8.3      2.823      4.429
REMARK  10 active torsions:
REMARK  status: ('A' for Active; 'I' for Inactive)
REMARK    1  A    between atoms: C2_2  and  N5_5 
REMARK       I    between atoms: N5_5  and  C6_6 
REMARK       I    between atoms: C6_6  and  N8_8 
REMARK    2  A    between atoms: N8_8  and  C9_9 
REMARK    3  A    between atoms: C9_9  and  C11_10 
REMARK    4  A    between atoms: C9_9  and  C39_34 
REMARK       I    between atoms: C11_10  and  N13_12 
REMARK    5  A    between atoms: C19_16  and  C21_17 
REMARK       I    between atoms: C21_17  and  N23_19 
REMARK    6  A    between atoms: N23_19  and  C24_20 
REMARK    7  A    between atoms: C24_20  and  C26_21 
REMARK    8  A    between atoms: C24_20  and  C31_26 
REMARK    9  A    between atoms: C26_21  and  C27_22 
REMARK   10  A    between atoms: C31_26  and  C33_28 
REMARK       I    between atoms: C33_28  and  N34_29 
ROOT
ATOM      1  C11 ZIN A   1      18.853  -3.758   8.424  0.00  0.00     0.244 C 
ATOM      2  O12 ZIN A   1      19.922  -4.286   8.643  0.00  0.00    -0.271 OA
ATOM      3  N13 ZIN A   1      18.695  -2.439   8.644  0.00  0.00    -0.336 N 
ATOM      4  C14 ZIN A   1      17.449  -1.643   8.542  0.00  0.00     0.132 C 
ATOM      5  C15 ZIN A   1      17.889  -0.310   7.899  0.00  0.00     0.019 A 
ATOM      6  C17 ZIN A   1      19.391  -0.185   8.232  0.00  0.00     0.032 A 
ATOM      7  C19 ZIN A   1      19.725  -1.455   9.051  0.00  0.00     0.184 C 
ATOM      8  C36 ZIN A   1      18.898  -0.362   6.750  0.00  0.00    -0.036 A 
ATOM      9  C37 ZIN A   1      19.145  -1.716   6.082  0.00  0.00     0.016 C 
ATOM     10  C38 ZIN A   1      18.988   0.855   5.827  0.00  0.00     0.016 C 
ENDROOT
BRANCH   1  11
ATOM     11  C9  ZIN A   1      17.700  -4.579   7.903  0.00  0.00     0.185 C 
BRANCH  11  12
ATOM     12  N8  ZIN A   1      18.186  -5.509   6.881  0.00  0.00    -0.329 N 
ATOM     13  C6  ZIN A   1      17.620  -5.521   5.657  0.00  0.00     0.317 C 
ATOM     14  N5  ZIN A   1      18.068  -6.377   4.717  0.00  0.00    -0.335 N 
ATOM     15  O7  ZIN A   1      16.708  -4.759   5.402  0.00  0.00    -0.247 OA
ATOM     16  H52 ZIN A   1      18.796  -6.984   4.921  0.00  0.00     0.165 HD
ATOM     17  H53 ZIN A   1      18.914  -6.117   7.084  0.00  0.00     0.165 HD
BRANCH  14  18
ATOM     18  C2  ZIN A   1      17.453  -6.389   3.387  0.00  0.00     0.023 C 
ATOM     19  C1  ZIN A   1      17.732  -5.059   2.684  0.00  0.00     0.037 C 
ATOM     20  C3  ZIN A   1      15.942  -6.586   3.524  0.00  0.00     0.037 C 
ATOM     21  C4  ZIN A   1      18.043  -7.536   2.563  0.00  0.00     0.037 C 
ENDBRANCH  14  18
ENDBRANCH  11  12
BRANCH  11  22
ATOM     22  C39 ZIN A   1      17.075  -5.368   9.055  0.00  0.00    -0.022 C 
ATOM     23  C40 ZIN A   1      15.583  -5.573   8.783  0.00  0.00     0.017 C 
ATOM     24  C41 ZIN A   1      17.764  -6.728   9.174  0.00  0.00     0.017 C 
ATOM     25  C42 ZIN A   1      17.253  -4.589  10.361  0.00  0.00     0.017 C 
ENDBRANCH  11  22
ENDBRANCH   1  11
BRANCH   7  26
ATOM     26  C21 ZIN A   1      19.636  -1.165  10.528  0.00  0.00     0.241 C 
ATOM     27  O22 ZIN A   1      19.909  -2.030  11.333  0.00  0.00    -0.271 OA
ATOM     28  N23 ZIN A   1      19.253   0.055  10.953  0.00  0.00    -0.347 N 
ATOM     29  H56 ZIN A   1      19.034   0.746  10.308  0.00  0.00     0.163 HD
BRANCH  28  30
ATOM     30  C24 ZIN A   1      19.167   0.336  12.388  0.00  0.00     0.165 C 
BRANCH  30  31
ATOM     31  C26 ZIN A   1      17.807  -0.125  12.917  0.00  0.00     0.038 C 
BRANCH  31  32
ATOM     32  C27 ZIN A   1      18.015  -1.095  14.082  0.00  0.00    -0.012 C 
ATOM     33  C30 ZIN A   1      17.740  -0.470  15.461  0.00  0.00     0.005 C 
ATOM     34  C29 ZIN A   1      18.966  -1.248  15.969  0.00  0.00     0.001 C 
ATOM     35  C28 ZIN A   1      19.482  -1.225  14.521  0.00  0.00     0.005 C 
ENDBRANCH  31  32
ENDBRANCH  30  31
BRANCH  30  36
ATOM     36  C31 ZIN A   1      19.320   1.817  12.621  0.00  0.00     0.238 C 
ATOM     37  O32 ZIN A   1      19.021   2.295  13.690  0.00  0.00    -0.285 OA
BRANCH  36  38
ATOM     38  C33 ZIN A   1      19.841   2.692  11.533  0.00  0.00     0.287 C 
ATOM     39  N34 ZIN A   1      21.064   3.250  11.644  0.00  0.00    -0.363 N 
ATOM     40  H66 ZIN A   1      21.605   3.081  12.432  0.00  0.00     0.159 HD
ATOM     41  H67 ZIN A   1      21.404   3.820  10.936  0.00  0.00     0.159 HD
ATOM     42  O35 ZIN A   1      19.165   2.904  10.548  0.00  0.00    -0.265 OA
ENDBRANCH  36  38
ENDBRANCH  30  36
ENDBRANCH  28  30
ENDBRANCH   7  26
TORSDOF 10
ENDMDL
MODEL 8
REMARK VINA RESULT:      -8.3      2.565      5.179
REMARK  10 active torsions:
REMARK  status: ('A' for Active; 'I' for Inactive)
REMARK    1  A    between atoms: C2_2  and  N5_5 
REMARK       I    between atoms: N5_5  and  C6_6 
REMARK       I    between atoms: C6_6  and  N8_8 
REMARK    2  A    between atoms: N8_8  and  C9_9 
REMARK    3  A    between atoms: C9_9  and  C11_10 
REMARK    4  A    between atoms: C9_9  and  C39_34 
REMARK       I    between atoms: C11_10  and  N13_12 
REMARK    5  A    between atoms: C19_16  and  C21_17 
REMARK       I    between atoms: C21_17  and  N23_19 
REMARK    6  A    between atoms: N23_19  and  C24_20 
REMARK    7  A    between atoms: C24_20  and  C26_21 
REMARK    8  A    between atoms: C24_20  and  C31_26 
REMARK    9  A    between atoms: C26_21  and  C27_22 
REMARK   10  A    between atoms: C31_26  and  C33_28 
REMARK       I    between atoms: C33_28  and  N34_29 
ROOT
ATOM      1  C11 ZIN A   1      17.709   0.348  11.414  0.00  0.00     0.244 C 
ATOM      2  O12 ZIN A   1      16.526   0.584  11.288  0.00  0.00    -0.271 OA
ATOM      3  N13 ZIN A   1      18.360   0.742  12.526  0.00  0.00    -0.336 N 
ATOM      4  C14 ZIN A   1      19.810   0.644  12.812  0.00  0.00     0.132 C 
ATOM      5  C15 ZIN A   1      19.887   0.243  14.301  0.00  0.00     0.019 A 
ATOM      6  C17 ZIN A   1      18.554   0.723  14.912  0.00  0.00     0.032 A 
ATOM      7  C19 ZIN A   1      17.789   1.377  13.736  0.00  0.00     0.184 C 
ATOM      8  C36 ZIN A   1      18.902  -0.807  14.817  0.00  0.00    -0.036 A 
ATOM      9  C37 ZIN A   1      18.142  -1.639  13.782  0.00  0.00     0.016 C 
ATOM     10  C38 ZIN A   1      19.251  -1.532  16.118  0.00  0.00     0.016 C 
ENDROOT
BRANCH   1  11
ATOM     11  C9  ZIN A   1      18.451  -0.387  10.326  0.00  0.00     0.185 C 
BRANCH  11  12
ATOM     12  N8  ZIN A   1      17.685  -1.571   9.927  0.00  0.00    -0.329 N 
ATOM     13  C6  ZIN A   1      18.141  -2.802  10.231  0.00  0.00     0.317 C 
ATOM     14  N5  ZIN A   1      17.436  -3.891   9.864  0.00  0.00    -0.335 N 
ATOM     15  O7  ZIN A   1      19.187  -2.931  10.836  0.00  0.00    -0.247 OA
ATOM     16  H52 ZIN A   1      16.601  -3.788   9.380  0.00  0.00     0.165 HD
ATOM     17  H53 ZIN A   1      16.850  -1.468   9.444  0.00  0.00     0.165 HD
BRANCH  14  18
ATOM     18  C2  ZIN A   1      17.933  -5.229  10.193  0.00  0.00     0.023 C 
ATOM     19  C1  ZIN A   1      19.343  -5.404   9.625  0.00  0.00     0.037 C 
ATOM     20  C3  ZIN A   1      17.004  -6.283   9.587  0.00  0.00     0.037 C 
ATOM     21  C4  ZIN A   1      17.971  -5.398  11.714  0.00  0.00     0.037 C 
ENDBRANCH  14  18
ENDBRANCH  11  12
BRANCH  11  22
ATOM     22  C39 ZIN A   1      18.630   0.536   9.119  0.00  0.00    -0.022 C 
ATOM     23  C40 ZIN A   1      17.540   0.243   8.086  0.00  0.00     0.017 C 
ATOM     24  C41 ZIN A   1      18.527   1.993   9.572  0.00  0.00     0.017 C 
ATOM     25  C42 ZIN A   1      20.005   0.292   8.492  0.00  0.00     0.017 C 
ENDBRANCH  11  22
ENDBRANCH   1  11
BRANCH   7  26
ATOM     26  C21 ZIN A   1      18.023   2.866  13.721  0.00  0.00     0.241 C 
ATOM     27  O22 ZIN A   1      18.821   3.347  12.945  0.00  0.00    -0.271 OA
ATOM     28  N23 ZIN A   1      17.345   3.663  14.571  0.00  0.00    -0.347 N 
ATOM     29  H56 ZIN A   1      16.707   3.278  15.192  0.00  0.00     0.163 HD
BRANCH  28  30
ATOM     30  C24 ZIN A   1      17.572   5.110  14.556  0.00  0.00     0.165 C 
BRANCH  30  31
ATOM     31  C26 ZIN A   1      17.831   5.600  15.983  0.00  0.00     0.038 C 
BRANCH  31  32
ATOM     32  C27 ZIN A   1      19.269   6.112  16.093  0.00  0.00    -0.012 C 
ATOM     33  C30 ZIN A   1      19.886   6.513  14.742  0.00  0.00     0.005 C 
ATOM     34  C29 ZIN A   1      21.192   5.868  15.237  0.00  0.00     0.001 C 
ATOM     35  C28 ZIN A   1      20.320   4.991  16.151  0.00  0.00     0.005 C 
ENDBRANCH  31  32
ENDBRANCH  30  31
BRANCH  30  36
ATOM     36  C31 ZIN A   1      16.356   5.805  14.000  0.00  0.00     0.238 C 
ATOM     37  O32 ZIN A   1      16.028   5.620  12.852  0.00  0.00    -0.285 OA
BRANCH  36  38
ATOM     38  C33 ZIN A   1      15.559   6.719  14.865  0.00  0.00     0.287 C 
ATOM     39  N34 ZIN A   1      14.443   6.269  15.473  0.00  0.00    -0.363 N 
ATOM     40  H66 ZIN A   1      14.158   5.351  15.346  0.00  0.00     0.159 HD
ATOM     41  H67 ZIN A   1      13.923   6.864  16.036  0.00  0.00     0.159 HD
ATOM     42  O35 ZIN A   1      15.915   7.868  15.024  0.00  0.00    -0.265 OA
ENDBRANCH  36  38
ENDBRANCH  30  36
ENDBRANCH  28  30
ENDBRANCH   7  26
TORSDOF 10
ENDMDL
MODEL 9
REMARK VINA RESULT:      -8.3      2.269      8.352
REMARK  10 active torsions:
REMARK  status: ('A' for Active; 'I' for Inactive)
REMARK    1  A    between atoms: C2_2  and  N5_5 
REMARK       I    between atoms: N5_5  and  C6_6 
REMARK       I    between atoms: C6_6  and  N8_8 
REMARK    2  A    between atoms: N8_8  and  C9_9 
REMARK    3  A    between atoms: C9_9  and  C11_10 
REMARK    4  A    between atoms: C9_9  and  C39_34 
REMARK       I    between atoms: C11_10  and  N13_12 
REMARK    5  A    between atoms: C19_16  and  C21_17 
REMARK       I    between atoms: C21_17  and  N23_19 
REMARK    6  A    between atoms: N23_19  and  C24_20 
REMARK    7  A    between atoms: C24_20  and  C26_21 
REMARK    8  A    between atoms: C24_20  and  C31_26 
REMARK    9  A    between atoms: C26_21  and  C27_22 
REMARK   10  A    between atoms: C31_26  and  C33_28 
REMARK       I    between atoms: C33_28  and  N34_29 
ROOT
ATOM      1  C11 ZIN A   1      17.709  -0.297  11.819  0.00  0.00     0.244 C 
ATOM      2  O12 ZIN A   1      16.561  -0.661  11.954  0.00  0.00    -0.271 OA
ATOM      3  N13 ZIN A   1      18.241  -0.187  10.585  0.00  0.00    -0.336 N 
ATOM      4  C14 ZIN A   1      19.642   0.132  10.225  0.00  0.00     0.132 C 
ATOM      5  C15 ZIN A   1      19.526   1.069   9.002  0.00  0.00     0.019 A 
ATOM      6  C17 ZIN A   1      18.151   0.743   8.381  0.00  0.00     0.032 A 
ATOM      7  C19 ZIN A   1      17.559  -0.367   9.283  0.00  0.00     0.184 C 
ATOM      8  C36 ZIN A   1      18.442   2.148   9.022  0.00  0.00    -0.036 A 
ATOM      9  C37 ZIN A   1      17.775   2.463  10.362  0.00  0.00     0.016 C 
ATOM     10  C38 ZIN A   1      18.604   3.336   8.071  0.00  0.00     0.016 C 
ENDROOT
BRANCH   1  11
ATOM     11  C9  ZIN A   1      18.542   0.035  13.030  0.00  0.00     0.185 C 
BRANCH  11  12
ATOM     12  N8  ZIN A   1      17.836   1.020  13.854  0.00  0.00    -0.329 N 
ATOM     13  C6  ZIN A   1      18.342   2.261  14.003  0.00  0.00     0.317 C 
ATOM     14  N5  ZIN A   1      17.691   3.167  14.760  0.00  0.00    -0.335 N 
ATOM     15  O7  ZIN A   1      19.384   2.562  13.455  0.00  0.00    -0.247 OA
ATOM     16  H52 ZIN A   1      16.860   2.925  15.198  0.00  0.00     0.165 HD
ATOM     17  H53 ZIN A   1      17.004   0.780  14.291  0.00  0.00     0.165 HD
BRANCH  14  18
ATOM     18  C2  ZIN A   1      18.242   4.515  14.923  0.00  0.00     0.023 C 
ATOM     19  C1  ZIN A   1      17.180   5.428  15.540  0.00  0.00     0.037 C 
ATOM     20  C3  ZIN A   1      18.657   5.065  13.558  0.00  0.00     0.037 C 
ATOM     21  C4  ZIN A   1      19.463   4.458  15.843  0.00  0.00     0.037 C 
ENDBRANCH  14  18
ENDBRANCH  11  12
BRANCH  11  22
ATOM     22  C39 ZIN A   1      18.782  -1.235  13.848  0.00  0.00    -0.022 C 
ATOM     23  C40 ZIN A   1      18.493  -2.462  12.981  0.00  0.00     0.017 C 
ATOM     24  C41 ZIN A   1      20.237  -1.273  14.317  0.00  0.00     0.017 C 
ATOM     25  C42 ZIN A   1      17.853  -1.241  15.064  0.00  0.00     0.017 C 
ENDBRANCH  11  22
ENDBRANCH   1  11
BRANCH   7  26
ATOM     26  C21 ZIN A   1      17.856  -1.727   8.705  0.00  0.00     0.241 C 
ATOM     27  O22 ZIN A   1      17.694  -2.721   9.379  0.00  0.00    -0.271 OA
ATOM     28  N23 ZIN A   1      18.303  -1.837   7.438  0.00  0.00    -0.347 N 
ATOM     29  H56 ZIN A   1      18.434  -1.042   6.899  0.00  0.00     0.163 HD
BRANCH  28  30
ATOM     30  C24 ZIN A   1      18.592  -3.160   6.876  0.00  0.00     0.165 C 
BRANCH  30  31
ATOM     31  C26 ZIN A   1      20.001  -3.591   7.289  0.00  0.00     0.038 C 
BRANCH  31  32
ATOM     32  C27 ZIN A   1      19.970  -5.044   7.769  0.00  0.00    -0.012 C 
ATOM     33  C30 ZIN A   1      18.555  -5.647   7.814  0.00  0.00     0.005 C 
ATOM     34  C29 ZIN A   1      18.972  -6.324   9.132  0.00  0.00     0.001 C 
ATOM     35  C28 ZIN A   1      19.995  -5.188   9.299  0.00  0.00     0.005 C 
ENDBRANCH  31  32
ENDBRANCH  30  31
BRANCH  30  36
ATOM     36  C31 ZIN A   1      18.505  -3.098   5.373  0.00  0.00     0.238 C 
ATOM     37  O32 ZIN A   1      18.245  -4.096   4.742  0.00  0.00    -0.285 OA
BRANCH  36  38
ATOM     38  C33 ZIN A   1      18.739  -1.808   4.666  0.00  0.00     0.287 C 
ATOM     39  N34 ZIN A   1      17.745  -1.239   3.955  0.00  0.00    -0.363 N 
ATOM     40  H66 ZIN A   1      16.877  -1.670   3.904  0.00  0.00     0.159 HD
ATOM     41  H67 ZIN A   1      17.897  -0.399   3.494  0.00  0.00     0.159 HD
ATOM     42  O35 ZIN A   1      19.825  -1.269   4.729  0.00  0.00    -0.265 OA
ENDBRANCH  36  38
ENDBRANCH  30  36
ENDBRANCH  28  30
ENDBRANCH   7  26
TORSDOF 10
ENDMDL
