MODEL 1
REMARK VINA RESULT:      -8.4      0.000      0.000
REMARK  7 active torsions:
REMARK  status: ('A' for Active; 'I' for Inactive)
REMARK    1  A    between atoms: C4_4  and  C6_5 
REMARK    2  A    between atoms: C10_9  and  C12_10 
REMARK    3  A    between atoms: C12_10  and  O14_12 
REMARK    4  A    between atoms: O14_12  and  C15_13 
REMARK    5  A    between atoms: C15_13  and  C16_14 
REMARK    6  A    between atoms: C20_18  and  O21_19 
REMARK    7  A    between atoms: O21_19  and  C22_20 
ROOT
ATOM      1  C16 <0> d   1      17.876   3.483  12.538  0.00  0.00    -0.031 A 
ATOM      2  C17 <0> d   1      17.163   4.533  11.990  0.00  0.00     0.009 A 
ATOM      3  C18 <0> d   1      17.218   4.772  10.628  0.00  0.00     0.003 A 
ATOM      4  C19 <0> d   1      17.984   3.961   9.814  0.00  0.00     0.037 A 
ATOM      5  C20 <0> d   1      18.700   2.906  10.362  0.00  0.00     0.076 A 
ATOM      6  C28 <0> d   1      18.647   2.671  11.729  0.00  0.00     0.046 A 
ENDROOT
BRANCH   1   7
ATOM      7  C15 <0> d   1      17.814   3.226  14.023  0.00  0.00     0.217 C 
BRANCH   7   8
ATOM      8  O14 <0> d   1      18.918   2.366  14.410  0.00  0.00    -0.317 OA
BRANCH   8   9
ATOM      9  C12 <0> d   1      18.743   1.606  15.502  0.00  0.00     0.264 C 
ATOM     10  O13 <0> d   1      19.457   1.759  16.466  0.00  0.00    -0.265 OA
BRANCH   9  11
ATOM     11  C10 <0> d   1      17.658   0.561  15.528  0.00  0.00     0.102 A 
ATOM     12  C2  <0> d   1      18.030  -0.833  16.037  0.00  0.00    -0.027 A 
ATOM     13  C1  <0> d   1      16.970  -1.605  16.824  0.00  0.00     0.016 C 
ATOM     14  C3  <0> d   1      19.477  -1.060  16.482  0.00  0.00     0.016 C 
ATOM     15  C4  <0> d   1      17.777  -0.606  14.545  0.00  0.00     0.034 A 
BRANCH  15  16
ATOM     16  C6  <0> d   1      18.971  -0.624  13.626  0.00  0.00     0.016 C 
ATOM     17  C7  <0> d   1      18.831  -0.998  12.375  0.00  0.00     0.100 C 
ATOM     18 Cl8  <0> d   1      17.271  -1.475  11.781  0.00  0.00    -0.071 Cl
ATOM     19 Cl9  <0> d   1      20.207  -1.019  11.316  0.00  0.00    -0.071 Cl
ENDBRANCH  15  16
ENDBRANCH   9  11
ENDBRANCH   8   9
ENDBRANCH   7   8
ENDBRANCH   1   7
BRANCH   5  20
ATOM     20  O21 <0> d   1      19.454   2.107   9.563  0.00  0.00    -0.311 OA
BRANCH  20  21
ATOM     21  C22 <0> d   1      18.820   1.390   8.598  0.00  0.00     0.076 A 
ATOM     22  C27 <0> d   1      17.838   0.474   8.945  0.00  0.00     0.037 A 
ATOM     23  C26 <0> d   1      17.191  -0.250   7.962  0.00  0.00     0.003 A 
ATOM     24  C25 <0> d   1      17.530  -0.069   6.633  0.00  0.00     0.000 A 
ATOM     25  C24 <0> d   1      18.513   0.838   6.286  0.00  0.00     0.003 A 
ATOM     26  C23 <0> d   1      19.158   1.568   7.265  0.00  0.00     0.037 A 
ENDBRANCH  20  21
ENDBRANCH   5  20
TORSDOF 7
ENDMDL
MODEL 2
REMARK VINA RESULT:      -8.1      1.630      2.680
REMARK  7 active torsions:
REMARK  status: ('A' for Active; 'I' for Inactive)
REMARK    1  A    between atoms: C4_4  and  C6_5 
REMARK    2  A    between atoms: C10_9  and  C12_10 
REMARK    3  A    between atoms: C12_10  and  O14_12 
REMARK    4  A    between atoms: O14_12  and  C15_13 
REMARK    5  A    between atoms: C15_13  and  C16_14 
REMARK    6  A    between atoms: C20_18  and  O21_19 
REMARK    7  A    between atoms: O21_19  and  C22_20 
ROOT
ATOM      1  C16 <0> d   1      18.691   4.058  15.180  0.00  0.00    -0.031 A 
ATOM      2  C17 <0> d   1      19.715   4.940  14.886  0.00  0.00     0.009 A 
ATOM      3  C18 <0> d   1      19.880   5.405  13.593  0.00  0.00     0.003 A 
ATOM      4  C19 <0> d   1      19.022   4.990  12.594  0.00  0.00     0.037 A 
ATOM      5  C20 <0> d   1      17.993   4.104  12.886  0.00  0.00     0.076 A 
ATOM      6  C28 <0> d   1      17.833   3.636  14.182  0.00  0.00     0.046 A 
ENDROOT
BRANCH   1   7
ATOM      7  C15 <0> d   1      18.514   3.553  16.589  0.00  0.00     0.217 C 
BRANCH   7   8
ATOM      8  O14 <0> d   1      19.567   2.602  16.897  0.00  0.00    -0.317 OA
BRANCH   8   9
ATOM      9  C12 <0> d   1      19.196   1.449  17.474  0.00  0.00     0.264 C 
ATOM     10  O13 <0> d   1      19.859   0.980  18.370  0.00  0.00    -0.265 OA
BRANCH   9  11
ATOM     11  C10 <0> d   1      17.953   0.737  17.005  0.00  0.00     0.102 A 
ATOM     12  C2  <0> d   1      18.066  -0.760  16.705  0.00  0.00    -0.027 A 
ATOM     13  C1  <0> d   1      16.856  -1.638  17.027  0.00  0.00     0.016 C 
ATOM     14  C3  <0> d   1      19.432  -1.420  16.904  0.00  0.00     0.016 C 
ATOM     15  C4  <0> d   1      17.926   0.242  15.557  0.00  0.00     0.034 A 
BRANCH  15  16
ATOM     16  C6  <0> d   1      19.143   0.503  14.708  0.00  0.00     0.016 C 
ATOM     17  C7  <0> d   1      19.312  -0.150  13.583  0.00  0.00     0.100 C 
ATOM     18 Cl8  <0> d   1      18.132  -1.318  13.072  0.00  0.00    -0.071 Cl
ATOM     19 Cl9  <0> d   1      20.715   0.150  12.605  0.00  0.00    -0.071 Cl
ENDBRANCH  15  16
ENDBRANCH   9  11
ENDBRANCH   8   9
ENDBRANCH   7   8
ENDBRANCH   1   7
BRANCH   5  20
ATOM     20  O21 <0> d   1      17.149   3.694  11.904  0.00  0.00    -0.311 OA
BRANCH  20  21
ATOM     21  C22 <0> d   1      17.637   2.854  10.954  0.00  0.00     0.076 A 
ATOM     22  C27 <0> d   1      18.374   3.359   9.893  0.00  0.00     0.037 A 
ATOM     23  C26 <0> d   1      18.874   2.502   8.931  0.00  0.00     0.003 A 
ATOM     24  C25 <0> d   1      18.629   1.143   9.020  0.00  0.00     0.000 A 
ATOM     25  C24 <0> d   1      17.890   0.639  10.073  0.00  0.00     0.003 A 
ATOM     26  C23 <0> d   1      17.393   1.491  11.040  0.00  0.00     0.037 A 
ENDBRANCH  20  21
ENDBRANCH   5  20
TORSDOF 7
ENDMDL
MODEL 3
REMARK VINA RESULT:      -8.0      3.241      5.116
REMARK  7 active torsions:
REMARK  status: ('A' for Active; 'I' for Inactive)
REMARK    1  A    between atoms: C4_4  and  C6_5 
REMARK    2  A    between atoms: C10_9  and  C12_10 
REMARK    3  A    between atoms: C12_10  and  O14_12 
REMARK    4  A    between atoms: O14_12  and  C15_13 
REMARK    5  A    between atoms: C15_13  and  C16_14 
REMARK    6  A    between atoms: C20_18  and  O21_19 
REMARK    7  A    between atoms: O21_19  and  C22_20 
ROOT
ATOM      1  C16 <0> d   1      19.203   0.177   8.767  0.00  0.00    -0.031 A 
ATOM      2  C17 <0> d   1      18.465   0.897   7.846  0.00  0.00     0.009 A 
ATOM      3  C18 <0> d   1      17.989   0.278   6.703  0.00  0.00     0.003 A 
ATOM      4  C19 <0> d   1      18.252  -1.060   6.481  0.00  0.00     0.037 A 
ATOM      5  C20 <0> d   1      18.993  -1.784   7.405  0.00  0.00     0.076 A 
ATOM      6  C28 <0> d   1      19.472  -1.160   8.547  0.00  0.00     0.046 A 
ENDROOT
BRANCH   1   7
ATOM      7  C15 <0> d   1      19.720   0.855  10.012  0.00  0.00     0.217 C 
BRANCH   7   8
ATOM      8  O14 <0> d   1      18.654   0.938  10.994  0.00  0.00    -0.317 OA
BRANCH   8   9
ATOM      9  C12 <0> d   1      18.975   0.653  12.266  0.00  0.00     0.264 C 
ATOM     10  O13 <0> d   1      18.671   1.418  13.151  0.00  0.00    -0.265 OA
BRANCH   9  11
ATOM     11  C10 <0> d   1      19.714  -0.619  12.591  0.00  0.00     0.102 A 
ATOM     12  C2  <0> d   1      18.969  -1.941  12.390  0.00  0.00    -0.027 A 
ATOM     13  C1  <0> d   1      19.782  -3.145  11.912  0.00  0.00     0.016 C 
ATOM     14  C3  <0> d   1      17.530  -1.869  11.873  0.00  0.00     0.016 C 
ATOM     15  C4  <0> d   1      19.239  -1.422  13.804  0.00  0.00     0.034 A 
BRANCH  15  16
ATOM     16  C6  <0> d   1      18.067  -0.880  14.582  0.00  0.00     0.016 C 
ATOM     17  C7  <0> d   1      18.057  -0.958  15.892  0.00  0.00     0.100 C 
ATOM     18 Cl8  <0> d   1      19.392  -1.687  16.729  0.00  0.00    -0.071 Cl
ATOM     19 Cl9  <0> d   1      16.707  -0.335  16.789  0.00  0.00    -0.071 Cl
ENDBRANCH  15  16
ENDBRANCH   9  11
ENDBRANCH   8   9
ENDBRANCH   7   8
ENDBRANCH   1   7
BRANCH   5  20
ATOM     20  O21 <0> d   1      19.253  -3.100   7.187  0.00  0.00    -0.311 OA
BRANCH  20  21
ATOM     21  C22 <0> d   1      18.814  -3.996   8.111  0.00  0.00     0.076 A 
ATOM     22  C27 <0> d   1      17.523  -3.905   8.609  0.00  0.00     0.037 A 
ATOM     23  C26 <0> d   1      17.078  -4.821   9.543  0.00  0.00     0.003 A 
ATOM     24  C25 <0> d   1      17.924  -5.820   9.990  0.00  0.00     0.000 A 
ATOM     25  C24 <0> d   1      19.214  -5.908   9.500  0.00  0.00     0.003 A 
ATOM     26  C23 <0> d   1      19.660  -4.998   8.562  0.00  0.00     0.037 A 
ENDBRANCH  20  21
ENDBRANCH   5  20
TORSDOF 7
ENDMDL
MODEL 4
REMARK VINA RESULT:      -7.9      2.422      5.714
REMARK  7 active torsions:
REMARK  status: ('A' for Active; 'I' for Inactive)
REMARK    1  A    between atoms: C4_4  and  C6_5 
REMARK    2  A    between atoms: C10_9  and  C12_10 
REMARK    3  A    between atoms: C12_10  and  O14_12 
REMARK    4  A    between atoms: O14_12  and  C15_13 
REMARK    5  A    between atoms: C15_13  and  C16_14 
REMARK    6  A    between atoms: C20_18  and  O21_19 
REMARK    7  A    between atoms: O21_19  and  C22_20 
ROOT
ATOM      1  C16 <0> d   1      19.071   2.075   9.910  0.00  0.00    -0.031 A 
ATOM      2  C17 <0> d   1      17.990   2.927   9.780  0.00  0.00     0.009 A 
ATOM      3  C18 <0> d   1      17.437   3.523  10.899  0.00  0.00     0.003 A 
ATOM      4  C19 <0> d   1      17.964   3.267  12.150  0.00  0.00     0.037 A 
ATOM      5  C20 <0> d   1      19.049   2.412  12.284  0.00  0.00     0.076 A 
ATOM      6  C28 <0> d   1      19.599   1.813  11.160  0.00  0.00     0.046 A 
ENDROOT
BRANCH   1   7
ATOM      7  C15 <0> d   1      19.671   1.428   8.688  0.00  0.00     0.217 C 
BRANCH   7   8
ATOM      8  O14 <0> d   1      20.046   0.061   9.000  0.00  0.00    -0.317 OA
BRANCH   8   9
ATOM      9  C12 <0> d   1      19.219  -0.909   8.581  0.00  0.00     0.264 C 
ATOM     10  O13 <0> d   1      19.423  -1.465   7.527  0.00  0.00    -0.265 OA
BRANCH   9  11
ATOM     11  C10 <0> d   1      18.034  -1.306   9.424  0.00  0.00     0.102 A 
ATOM     12  C2  <0> d   1      18.310  -1.777  10.854  0.00  0.00    -0.027 A 
ATOM     13  C1  <0> d   1      17.283  -1.415  11.928  0.00  0.00     0.016 C 
ATOM     14  C3  <0> d   1      19.767  -1.809  11.319  0.00  0.00     0.016 C 
ATOM     15  C4  <0> d   1      17.887  -2.786   9.784  0.00  0.00     0.034 A 
BRANCH  15  16
ATOM     16  C6  <0> d   1      18.938  -3.736   9.269  0.00  0.00     0.016 C 
ATOM     17  C7  <0> d   1      18.934  -4.991   9.653  0.00  0.00     0.100 C 
ATOM     18 Cl8  <0> d   1      17.719  -5.557  10.757  0.00  0.00    -0.071 Cl
ATOM     19 Cl9  <0> d   1      20.145  -6.085   9.060  0.00  0.00    -0.071 Cl
ENDBRANCH  15  16
ENDBRANCH   9  11
ENDBRANCH   8   9
ENDBRANCH   7   8
ENDBRANCH   1   7
BRANCH   5  20
ATOM     20  O21 <0> d   1      19.569   2.160  13.513  0.00  0.00    -0.311 OA
BRANCH  20  21
ATOM     21  C22 <0> d   1      19.100   1.079  14.193  0.00  0.00     0.076 A 
ATOM     22  C27 <0> d   1      17.869   1.140  14.829  0.00  0.00     0.037 A 
ATOM     23  C26 <0> d   1      17.392   0.039  15.514  0.00  0.00     0.003 A 
ATOM     24  C25 <0> d   1      18.149  -1.118  15.578  0.00  0.00     0.000 A 
ATOM     25  C24 <0> d   1      19.379  -1.177  14.951  0.00  0.00     0.003 A 
ATOM     26  C23 <0> d   1      19.856  -0.081  14.259  0.00  0.00     0.037 A 
ENDBRANCH  20  21
ENDBRANCH   5  20
TORSDOF 7
ENDMDL
MODEL 5
REMARK VINA RESULT:      -7.8      1.972      2.586
REMARK  7 active torsions:
REMARK  status: ('A' for Active; 'I' for Inactive)
REMARK    1  A    between atoms: C4_4  and  C6_5 
REMARK    2  A    between atoms: C10_9  and  C12_10 
REMARK    3  A    between atoms: C12_10  and  O14_12 
REMARK    4  A    between atoms: O14_12  and  C15_13 
REMARK    5  A    between atoms: C15_13  and  C16_14 
REMARK    6  A    between atoms: C20_18  and  O21_19 
REMARK    7  A    between atoms: O21_19  and  C22_20 
ROOT
ATOM      1  C16 <0> d   1      18.907   0.922  11.218  0.00  0.00    -0.031 A 
ATOM      2  C17 <0> d   1      17.524   0.909  11.207  0.00  0.00     0.009 A 
ATOM      3  C18 <0> d   1      16.845   0.214  10.222  0.00  0.00     0.003 A 
ATOM      4  C19 <0> d   1      17.547  -0.468   9.248  0.00  0.00     0.037 A 
ATOM      5  C20 <0> d   1      18.935  -0.456   9.257  0.00  0.00     0.076 A 
ATOM      6  C28 <0> d   1      19.614   0.245  10.243  0.00  0.00     0.046 A 
ENDROOT
BRANCH   1   7
ATOM      7  C15 <0> d   1      19.644   1.680  12.293  0.00  0.00     0.217 C 
BRANCH   7   8
ATOM      8  O14 <0> d   1      19.920   0.793  13.408  0.00  0.00    -0.317 OA
BRANCH   8   9
ATOM      9  C12 <0> d   1      19.235   1.007  14.542  0.00  0.00     0.264 C 
ATOM     10  O13 <0> d   1      19.616   1.842  15.330  0.00  0.00    -0.265 OA
BRANCH   9  11
ATOM     11  C10 <0> d   1      17.990   0.210  14.833  0.00  0.00     0.102 A 
ATOM     12  C2  <0> d   1      18.107  -0.944  15.832  0.00  0.00    -0.027 A 
ATOM     13  C1  <0> d   1      16.906  -1.218  16.739  0.00  0.00     0.016 C 
ATOM     14  C3  <0> d   1      19.479  -1.200  16.458  0.00  0.00     0.016 C 
ATOM     15  C4  <0> d   1      17.946  -1.238  14.338  0.00  0.00     0.034 A 
BRANCH  15  16
ATOM     16  C6  <0> d   1      19.151  -1.757  13.598  0.00  0.00     0.016 C 
ATOM     17  C7  <0> d   1      18.994  -2.491  12.520  0.00  0.00     0.100 C 
ATOM     18 Cl8  <0> d   1      17.397  -2.865  11.951  0.00  0.00    -0.071 Cl
ATOM     19 Cl9  <0> d   1      20.382  -3.090  11.667  0.00  0.00    -0.071 Cl
ENDBRANCH  15  16
ENDBRANCH   9  11
ENDBRANCH   8   9
ENDBRANCH   7   8
ENDBRANCH   1   7
BRANCH   5  20
ATOM     20  O21 <0> d   1      19.628  -1.127   8.299  0.00  0.00    -0.311 OA
BRANCH  20  21
ATOM     21  C22 <0> d   1      19.254  -0.953   7.004  0.00  0.00     0.076 A 
ATOM     22  C27 <0> d   1      19.101  -2.052   6.172  0.00  0.00     0.037 A 
ATOM     23  C26 <0> d   1      18.715  -1.873   4.857  0.00  0.00     0.003 A 
ATOM     24  C25 <0> d   1      18.496  -0.598   4.368  0.00  0.00     0.000 A 
ATOM     25  C24 <0> d   1      18.655   0.499   5.194  0.00  0.00     0.003 A 
ATOM     26  C23 <0> d   1      19.034   0.324   6.510  0.00  0.00     0.037 A 
ENDBRANCH  20  21
ENDBRANCH   5  20
TORSDOF 7
ENDMDL
MODEL 6
REMARK VINA RESULT:      -7.7      2.919      4.988
REMARK  7 active torsions:
REMARK  status: ('A' for Active; 'I' for Inactive)
REMARK    1  A    between atoms: C4_4  and  C6_5 
REMARK    2  A    between atoms: C10_9  and  C12_10 
REMARK    3  A    between atoms: C12_10  and  O14_12 
REMARK    4  A    between atoms: O14_12  and  C15_13 
REMARK    5  A    between atoms: C15_13  and  C16_14 
REMARK    6  A    between atoms: C20_18  and  O21_19 
REMARK    7  A    between atoms: O21_19  and  C22_20 
ROOT
ATOM      1  C16 <0> d   1      17.702  -0.265  13.007  0.00  0.00    -0.031 A 
ATOM      2  C17 <0> d   1      18.419  -1.444  13.095  0.00  0.00     0.009 A 
ATOM      3  C18 <0> d   1      18.545  -2.263  11.987  0.00  0.00     0.003 A 
ATOM      4  C19 <0> d   1      17.955  -1.905  10.791  0.00  0.00     0.037 A 
ATOM      5  C20 <0> d   1      17.235  -0.722  10.700  0.00  0.00     0.076 A 
ATOM      6  C28 <0> d   1      17.107   0.096  11.813  0.00  0.00     0.046 A 
ENDROOT
BRANCH   1   7
ATOM      7  C15 <0> d   1      17.567   0.626  14.216  0.00  0.00     0.217 C 
BRANCH   7   8
ATOM      8  O14 <0> d   1      18.643   1.600  14.222  0.00  0.00    -0.317 OA
BRANCH   8   9
ATOM      9  C12 <0> d   1      18.315   2.870  14.504  0.00  0.00     0.264 C 
ATOM     10  O13 <0> d   1      18.471   3.300  15.623  0.00  0.00    -0.265 OA
BRANCH   9  11
ATOM     11  C10 <0> d   1      17.751   3.760  13.426  0.00  0.00     0.102 A 
ATOM     12  C2  <0> d   1      18.414   3.707  12.048  0.00  0.00    -0.027 A 
ATOM     13  C1  <0> d   1      17.513   3.877  10.823  0.00  0.00     0.016 C 
ATOM     14  C3  <0> d   1      19.598   2.755  11.868  0.00  0.00     0.016 C 
ATOM     15  C4  <0> d   1      18.618   4.927  12.949  0.00  0.00     0.034 A 
BRANCH  15  16
ATOM     16  C6  <0> d   1      19.970   5.099  13.592  0.00  0.00     0.016 C 
ATOM     17  C7  <0> d   1      20.132   5.972  14.559  0.00  0.00     0.100 C 
ATOM     18 Cl8  <0> d   1      18.788   6.931  15.095  0.00  0.00    -0.071 Cl
ATOM     19 Cl9  <0> d   1      21.690   6.170  15.299  0.00  0.00    -0.071 Cl
ENDBRANCH  15  16
ENDBRANCH   9  11
ENDBRANCH   8   9
ENDBRANCH   7   8
ENDBRANCH   1   7
BRANCH   5  20
ATOM     20  O21 <0> d   1      16.654  -0.367   9.524  0.00  0.00    -0.311 OA
BRANCH  20  21
ATOM     21  C22 <0> d   1      17.449   0.154   8.552  0.00  0.00     0.076 A 
ATOM     22  C27 <0> d   1      18.472   1.030   8.887  0.00  0.00     0.037 A 
ATOM     23  C26 <0> d   1      19.282   1.554   7.898  0.00  0.00     0.003 A 
ATOM     24  C25 <0> d   1      19.065   1.216   6.575  0.00  0.00     0.000 A 
ATOM     25  C24 <0> d   1      18.042   0.349   6.239  0.00  0.00     0.003 A 
ATOM     26  C23 <0> d   1      17.234  -0.182   7.224  0.00  0.00     0.037 A 
ENDBRANCH  20  21
ENDBRANCH   5  20
TORSDOF 7
ENDMDL
MODEL 7
REMARK VINA RESULT:      -7.7      2.822      4.328
REMARK  7 active torsions:
REMARK  status: ('A' for Active; 'I' for Inactive)
REMARK    1  A    between atoms: C4_4  and  C6_5 
REMARK    2  A    between atoms: C10_9  and  C12_10 
REMARK    3  A    between atoms: C12_10  and  O14_12 
REMARK    4  A    between atoms: O14_12  and  C15_13 
REMARK    5  A    between atoms: C15_13  and  C16_14 
REMARK    6  A    between atoms: C20_18  and  O21_19 
REMARK    7  A    between atoms: O21_19  and  C22_20 
ROOT
ATOM      1  C16 <0> d   1      18.094   1.462   9.645  0.00  0.00    -0.031 A 
ATOM      2  C17 <0> d   1      18.991   2.218   8.913  0.00  0.00     0.009 A 
ATOM      3  C18 <0> d   1      19.396   1.793   7.660  0.00  0.00     0.003 A 
ATOM      4  C19 <0> d   1      18.906   0.612   7.139  0.00  0.00     0.037 A 
ATOM      5  C20 <0> d   1      18.005  -0.149   7.872  0.00  0.00     0.076 A 
ATOM      6  C28 <0> d   1      17.604   0.278   9.130  0.00  0.00     0.046 A 
ENDROOT
BRANCH   1   7
ATOM      7  C15 <0> d   1      17.654   1.929  11.010  0.00  0.00     0.217 C 
BRANCH   7   8
ATOM      8  O14 <0> d   1      17.789   0.840  11.960  0.00  0.00    -0.317 OA
BRANCH   8   9
ATOM      9  C12 <0> d   1      18.895   0.828  12.720  0.00  0.00     0.264 C 
ATOM     10  O13 <0> d   1      19.280   1.848  13.242  0.00  0.00    -0.265 OA
BRANCH   9  11
ATOM     11  C10 <0> d   1      19.656  -0.456  12.924  0.00  0.00     0.102 A 
ATOM     12  C2  <0> d   1      18.938  -1.766  12.590  0.00  0.00    -0.027 A 
ATOM     13  C1  <0> d   1      19.775  -2.902  12.002  0.00  0.00     0.016 C 
ATOM     14  C3  <0> d   1      17.500  -1.671  12.075  0.00  0.00     0.016 C 
ATOM     15  C4  <0> d   1      19.191  -1.382  14.050  0.00  0.00     0.034 A 
BRANCH  15  16
ATOM     16  C6  <0> d   1      18.007  -0.941  14.870  0.00  0.00     0.016 C 
ATOM     17  C7  <0> d   1      18.054  -1.007  16.181  0.00  0.00     0.100 C 
ATOM     18 Cl8  <0> d   1      19.480  -1.606  16.969  0.00  0.00    -0.071 Cl
ATOM     19 Cl9  <0> d   1      16.688  -0.500  17.125  0.00  0.00    -0.071 Cl
ENDBRANCH  15  16
ENDBRANCH   9  11
ENDBRANCH   8   9
ENDBRANCH   7   8
ENDBRANCH   1   7
BRANCH   5  20
ATOM     20  O21 <0> d   1      17.521  -1.311   7.361  0.00  0.00    -0.311 OA
BRANCH  20  21
ATOM     21  C22 <0> d   1      18.269  -2.435   7.516  0.00  0.00     0.076 A 
ATOM     22  C27 <0> d   1      19.193  -2.793   6.545  0.00  0.00     0.037 A 
ATOM     23  C26 <0> d   1      19.957  -3.934   6.707  0.00  0.00     0.003 A 
ATOM     24  C25 <0> d   1      19.790  -4.724   7.831  0.00  0.00     0.000 A 
ATOM     25  C24 <0> d   1      18.865  -4.372   8.795  0.00  0.00     0.003 A 
ATOM     26  C23 <0> d   1      18.104  -3.230   8.640  0.00  0.00     0.037 A 
ENDBRANCH  20  21
ENDBRANCH   5  20
TORSDOF 7
ENDMDL
MODEL 8
REMARK VINA RESULT:      -7.7      4.131      6.749
REMARK  7 active torsions:
REMARK  status: ('A' for Active; 'I' for Inactive)
REMARK    1  A    between atoms: C4_4  and  C6_5 
REMARK    2  A    between atoms: C10_9  and  C12_10 
REMARK    3  A    between atoms: C12_10  and  O14_12 
REMARK    4  A    between atoms: O14_12  and  C15_13 
REMARK    5  A    between atoms: C15_13  and  C16_14 
REMARK    6  A    between atoms: C20_18  and  O21_19 
REMARK    7  A    between atoms: O21_19  and  C22_20 
ROOT
ATOM      1  C16 <0> d   1      19.191  -3.221   6.064  0.00  0.00    -0.031 A 
ATOM      2  C17 <0> d   1      18.358  -3.450   4.985  0.00  0.00     0.009 A 
ATOM      3  C18 <0> d   1      17.738  -2.388   4.350  0.00  0.00     0.003 A 
ATOM      4  C19 <0> d   1      17.951  -1.098   4.793  0.00  0.00     0.037 A 
ATOM      5  C20 <0> d   1      18.788  -0.865   5.876  0.00  0.00     0.076 A 
ATOM      6  C28 <0> d   1      19.404  -1.932   6.514  0.00  0.00     0.046 A 
ENDROOT
BRANCH   1   7
ATOM      7  C15 <0> d   1      19.865  -4.380   6.755  0.00  0.00     0.217 C 
BRANCH   7   8
ATOM      8  O14 <0> d   1      19.005  -4.879   7.812  0.00  0.00    -0.317 OA
BRANCH   8   9
ATOM      9  C12 <0> d   1      19.606  -5.440   8.872  0.00  0.00     0.264 C 
ATOM     10  O13 <0> d   1      20.720  -5.897   8.764  0.00  0.00    -0.265 OA
BRANCH   9  11
ATOM     11  C10 <0> d   1      18.893  -5.500  10.199  0.00  0.00     0.102 A 
ATOM     12  C2  <0> d   1      17.712  -4.550  10.411  0.00  0.00    -0.027 A 
ATOM     13  C1  <0> d   1      16.537  -5.059  11.248  0.00  0.00     0.016 C 
ATOM     14  C3  <0> d   1      17.345  -3.611   9.260  0.00  0.00     0.016 C 
ATOM     15  C4  <0> d   1      19.037  -4.297  11.134  0.00  0.00     0.034 A 
BRANCH  15  16
ATOM     16  C6  <0> d   1      19.880  -3.142  10.658  0.00  0.00     0.016 C 
ATOM     17  C7  <0> d   1      19.856  -2.000  11.305  0.00  0.00     0.100 C 
ATOM     18 Cl8  <0> d   1      18.851  -1.821  12.710  0.00  0.00    -0.071 Cl
ATOM     19 Cl9  <0> d   1      20.826  -0.669  10.757  0.00  0.00    -0.071 Cl
ENDBRANCH  15  16
ENDBRANCH   9  11
ENDBRANCH   8   9
ENDBRANCH   7   8
ENDBRANCH   1   7
BRANCH   5  20
ATOM     20  O21 <0> d   1      18.998   0.404   6.313  0.00  0.00    -0.311 OA
BRANCH  20  21
ATOM     21  C22 <0> d   1      18.630   0.709   7.585  0.00  0.00     0.076 A 
ATOM     22  C27 <0> d   1      19.210   1.788   8.236  0.00  0.00     0.037 A 
ATOM     23  C26 <0> d   1      18.829   2.099   9.527  0.00  0.00     0.003 A 
ATOM     24  C25 <0> d   1      17.881   1.328  10.175  0.00  0.00     0.000 A 
ATOM     25  C24 <0> d   1      17.307   0.249   9.530  0.00  0.00     0.003 A 
ATOM     26  C23 <0> d   1      17.680  -0.063   8.237  0.00  0.00     0.037 A 
ENDBRANCH  20  21
ENDBRANCH   5  20
TORSDOF 7
ENDMDL
MODEL 9
REMARK VINA RESULT:      -7.6      2.905      7.726
REMARK  7 active torsions:
REMARK  status: ('A' for Active; 'I' for Inactive)
REMARK    1  A    between atoms: C4_4  and  C6_5 
REMARK    2  A    between atoms: C10_9  and  C12_10 
REMARK    3  A    between atoms: C12_10  and  O14_12 
REMARK    4  A    between atoms: O14_12  and  C15_13 
REMARK    5  A    between atoms: C15_13  and  C16_14 
REMARK    6  A    between atoms: C20_18  and  O21_19 
REMARK    7  A    between atoms: O21_19  and  C22_20 
ROOT
ATOM      1  C16 <0> d   1      19.524  -1.375  11.585  0.00  0.00    -0.031 A 
ATOM      2  C17 <0> d   1      20.505  -0.406  11.487  0.00  0.00     0.009 A 
ATOM      3  C18 <0> d   1      20.542   0.637  12.396  0.00  0.00     0.003 A 
ATOM      4  C19 <0> d   1      19.599   0.711  13.403  0.00  0.00     0.037 A 
ATOM      5  C20 <0> d   1      18.613  -0.261  13.502  0.00  0.00     0.076 A 
ATOM      6  C28 <0> d   1      18.575  -1.302  12.587  0.00  0.00     0.046 A 
ENDROOT
BRANCH   1   7
ATOM      7  C15 <0> d   1      19.485  -2.510  10.592  0.00  0.00     0.217 C 
BRANCH   7   8
ATOM      8  O14 <0> d   1      18.634  -2.146   9.474  0.00  0.00    -0.317 OA
BRANCH   8   9
ATOM      9  C12 <0> d   1      19.242  -1.684   8.371  0.00  0.00     0.264 C 
ATOM     10  O13 <0> d   1      19.610  -2.455   7.516  0.00  0.00    -0.265 OA
BRANCH   9  11
ATOM     11  C10 <0> d   1      19.464  -0.204   8.197  0.00  0.00     0.102 A 
ATOM     12  C2  <0> d   1      18.342   0.737   8.639  0.00  0.00    -0.027 A 
ATOM     13  C1  <0> d   1      18.745   2.084   9.242  0.00  0.00     0.016 C 
ATOM     14  C3  <0> d   1      17.078   0.104   9.225  0.00  0.00     0.016 C 
ATOM     15  C4  <0> d   1      18.615   0.520   7.149  0.00  0.00     0.034 A 
BRANCH  15  16
ATOM     16  C6  <0> d   1      17.620  -0.301   6.371  0.00  0.00     0.016 C 
ATOM     17  C7  <0> d   1      17.938  -0.772   5.188  0.00  0.00     0.100 C 
ATOM     18 Cl8  <0> d   1      19.507  -0.447   4.518  0.00  0.00    -0.071 Cl
ATOM     19 Cl9  <0> d   1      16.791  -1.718   4.292  0.00  0.00    -0.071 Cl
ENDBRANCH  15  16
ENDBRANCH   9  11
ENDBRANCH   8   9
ENDBRANCH   7   8
ENDBRANCH   1   7
BRANCH   5  20
ATOM     20  O21 <0> d   1      17.685  -0.189  14.491  0.00  0.00    -0.311 OA
BRANCH  20  21
ATOM     21  C22 <0> d   1      18.121  -0.228  15.778  0.00  0.00     0.076 A 
ATOM     22  C27 <0> d   1      18.961  -1.249  16.197  0.00  0.00     0.037 A 
ATOM     23  C26 <0> d   1      19.407  -1.283  17.504  0.00  0.00     0.003 A 
ATOM     24  C25 <0> d   1      19.006  -0.307  18.398  0.00  0.00     0.000 A 
ATOM     25  C24 <0> d   1      18.163   0.708  17.984  0.00  0.00     0.003 A 
ATOM     26  C23 <0> d   1      17.720   0.749  16.677  0.00  0.00     0.037 A 
ENDBRANCH  20  21
ENDBRANCH   5  20
TORSDOF 7
ENDMDL
