MODEL 1
REMARK VINA RESULT:      -8.3      0.000      0.000
REMARK  6 active torsions:
REMARK  status: ('A' for Active; 'I' for Inactive)
REMARK    1  A    between atoms: C5_5  and  C6_6 
REMARK    2  A    between atoms: C6_6  and  C8_7 
REMARK    3  A    between atoms: C6_6  and  O15_14 
REMARK    4  A    between atoms: C8_7  and  N9_8 
REMARK    5  A    between atoms: O15_14  and  C16_15 
REMARK    6  A    between atoms: C16_15  and  C17_16 
ROOT
ATOM      1  C6  ZIN A   1      18.261   2.224  11.981  0.00  0.00     0.174 C 
ENDROOT
BRANCH   1   2
ATOM      2  C5  ZIN A   1      18.434   1.232  13.102  0.00  0.00    -0.006 A 
ATOM      3  C4  ZIN A   1      17.449   1.097  14.063  0.00  0.00     0.013 A 
ATOM      4  C3  ZIN A   1      17.608   0.188  15.092  0.00  0.00     0.024 A 
ATOM      5  C2  ZIN A   1      18.753  -0.587  15.160  0.00  0.00     0.035 A 
ATOM      6 Cl1  ZIN A   1      18.950  -1.730  16.452  0.00  0.00    -0.084 Cl
ATOM      7  C29 ZIN A   1      19.740  -0.448  14.202  0.00  0.00     0.048 A 
ATOM      8  C27 ZIN A   1      19.579   0.459  13.170  0.00  0.00     0.044 A 
ATOM      9 Cl28 ZIN A   1      20.816   0.629  11.964  0.00  0.00    -0.084 Cl
ENDBRANCH   1   2
BRANCH   1  10
ATOM     10  C8  ZIN A   1      17.564   3.478  12.511  0.00  0.00     0.166 C 
BRANCH  10  11
ATOM     11  N9  ZIN A   1      18.521   4.286  13.271  0.00  0.00    -0.349 N 
ATOM     12  C14 ZIN A   1      19.722   4.725  12.837  0.00  0.00     0.182 A 
ATOM     13  N12 ZIN A   1      20.285   5.413  13.791  0.00  0.00    -0.361 N 
ATOM     14  C11 ZIN A   1      19.478   5.430  14.861  0.00  0.00     0.106 A 
ATOM     15  H13 ZIN A   1      21.155   5.842  13.736  0.00  0.00     0.166 HD
ATOM     16  C10 ZIN A   1      18.368   4.730  14.557  0.00  0.00     0.108 A 
ENDBRANCH  10  11
ENDBRANCH   1  10
BRANCH   1  17
ATOM     17  O15 ZIN A   1      17.469   1.639  10.945  0.00  0.00    -0.375 OA
BRANCH  17  18
ATOM     18  C16 ZIN A   1      18.049   1.737   9.643  0.00  0.00     0.208 C 
BRANCH  18  19
ATOM     19  C17 ZIN A   1      18.272   0.355   9.087  0.00  0.00    -0.016 A 
ATOM     20  C26 ZIN A   1      18.642   0.119   7.701  0.00  0.00    -0.009 A 
ATOM     21  C20 ZIN A   1      18.796  -1.243   7.429  0.00  0.00     0.037 A 
ATOM     22  C25 ZIN A   1      18.866   1.051   6.664  0.00  0.00     0.013 A 
ATOM     23  S19 ZIN A   1      18.468  -2.178   8.882  0.00  0.00    -0.099 SA
ATOM     24  C21 ZIN A   1      19.155  -1.658   6.141  0.00  0.00     0.052 A 
ATOM     25  C18 ZIN A   1      18.141  -0.734   9.819  0.00  0.00     0.060 A 
ATOM     26 Cl22 ZIN A   1      19.339  -3.349   5.796  0.00  0.00    -0.083 Cl
ATOM     27  C23 ZIN A   1      19.362  -0.727   5.149  0.00  0.00     0.025 A 
ATOM     28  C24 ZIN A   1      19.215   0.626   5.419  0.00  0.00     0.003 A 
ENDBRANCH  18  19
ENDBRANCH  17  18
ENDBRANCH   1  17
TORSDOF 6
ENDMDL
MODEL 2
REMARK VINA RESULT:      -8.2      3.320      8.005
REMARK  6 active torsions:
REMARK  status: ('A' for Active; 'I' for Inactive)
REMARK    1  A    between atoms: C5_5  and  C6_6 
REMARK    2  A    between atoms: C6_6  and  C8_7 
REMARK    3  A    between atoms: C6_6  and  O15_14 
REMARK    4  A    between atoms: C8_7  and  N9_8 
REMARK    5  A    between atoms: O15_14  and  C16_15 
REMARK    6  A    between atoms: C16_15  and  C17_16 
ROOT
ATOM      1  C6  ZIN A   1      18.158  -0.515  10.038  0.00  0.00     0.174 C 
ENDROOT
BRANCH   1   2
ATOM      2  C5  ZIN A   1      18.301  -0.329   8.549  0.00  0.00    -0.006 A 
ATOM      3  C4  ZIN A   1      17.913  -1.336   7.686  0.00  0.00     0.013 A 
ATOM      4  C3  ZIN A   1      18.045  -1.166   6.321  0.00  0.00     0.024 A 
ATOM      5  C2  ZIN A   1      18.567   0.013   5.818  0.00  0.00     0.035 A 
ATOM      6 Cl1  ZIN A   1      18.731   0.226   4.102  0.00  0.00    -0.084 Cl
ATOM      7  C29 ZIN A   1      18.960   1.019   6.681  0.00  0.00     0.048 A 
ATOM      8  C27 ZIN A   1      18.823   0.850   8.047  0.00  0.00     0.044 A 
ATOM      9 Cl28 ZIN A   1      19.311   2.116   9.131  0.00  0.00    -0.084 Cl
ENDBRANCH   1   2
BRANCH   1  10
ATOM     10  C8  ZIN A   1      17.712  -1.947  10.333  0.00  0.00     0.166 C 
BRANCH  10  11
ATOM     11  N9  ZIN A   1      18.860  -2.732  10.795  0.00  0.00    -0.349 N 
ATOM     12  C14 ZIN A   1      20.011  -2.244  11.304  0.00  0.00     0.182 A 
ATOM     13  N12 ZIN A   1      20.793  -3.244  11.604  0.00  0.00    -0.361 N 
ATOM     14  C11 ZIN A   1      20.178  -4.395  11.293  0.00  0.00     0.106 A 
ATOM     15  H13 ZIN A   1      21.681  -3.168  11.989  0.00  0.00     0.166 HD
ATOM     16  C10 ZIN A   1      18.968  -4.097  10.785  0.00  0.00     0.108 A 
ENDBRANCH  10  11
ENDBRANCH   1  10
BRANCH   1  17
ATOM     17  O15 ZIN A   1      17.183   0.402  10.540  0.00  0.00    -0.375 OA
BRANCH  17  18
ATOM     18  C16 ZIN A   1      16.815   0.171  11.902  0.00  0.00     0.208 C 
BRANCH  18  19
ATOM     19  C17 ZIN A   1      17.489   1.189  12.784  0.00  0.00    -0.016 A 
ATOM     20  C26 ZIN A   1      17.906   0.892  14.145  0.00  0.00    -0.009 A 
ATOM     21  C20 ZIN A   1      18.511   1.993  14.755  0.00  0.00     0.037 A 
ATOM     22  C25 ZIN A   1      17.793  -0.313  14.871  0.00  0.00     0.013 A 
ATOM     23  S19 ZIN A   1      18.532   3.352  13.639  0.00  0.00    -0.099 SA
ATOM     24  C21 ZIN A   1      18.979   1.888  16.070  0.00  0.00     0.052 A 
ATOM     25  C18 ZIN A   1      17.741   2.419  12.383  0.00  0.00     0.060 A 
ATOM     26 Cl22 ZIN A   1      19.723   3.257  16.836  0.00  0.00    -0.083 Cl
ATOM     27  C23 ZIN A   1      18.851   0.702  16.756  0.00  0.00     0.025 A 
ATOM     28  C24 ZIN A   1      18.256  -0.395  16.149  0.00  0.00     0.003 A 
ENDBRANCH  18  19
ENDBRANCH  17  18
ENDBRANCH   1  17
TORSDOF 6
ENDMDL
MODEL 3
REMARK VINA RESULT:      -7.9      4.008      8.605
REMARK  6 active torsions:
REMARK  status: ('A' for Active; 'I' for Inactive)
REMARK    1  A    between atoms: C5_5  and  C6_6 
REMARK    2  A    between atoms: C6_6  and  C8_7 
REMARK    3  A    between atoms: C6_6  and  O15_14 
REMARK    4  A    between atoms: C8_7  and  N9_8 
REMARK    5  A    between atoms: O15_14  and  C16_15 
REMARK    6  A    between atoms: C16_15  and  C17_16 
ROOT
ATOM      1  C6  ZIN A   1      18.303  -2.145  11.165  0.00  0.00     0.174 C 
ENDROOT
BRANCH   1   2
ATOM      2  C5  ZIN A   1      18.437  -1.200   9.999  0.00  0.00    -0.006 A 
ATOM      3  C4  ZIN A   1      17.419  -1.101   9.069  0.00  0.00     0.013 A 
ATOM      4  C3  ZIN A   1      17.542  -0.236   7.998  0.00  0.00     0.024 A 
ATOM      5  C2  ZIN A   1      18.685   0.532   7.857  0.00  0.00     0.035 A 
ATOM      6 Cl1  ZIN A   1      18.839   1.619   6.513  0.00  0.00    -0.084 Cl
ATOM      7  C29 ZIN A   1      19.707   0.429   8.784  0.00  0.00     0.048 A 
ATOM      8  C27 ZIN A   1      19.580  -0.434   9.858  0.00  0.00     0.044 A 
ATOM      9 Cl28 ZIN A   1      20.859  -0.559  11.025  0.00  0.00    -0.084 Cl
ENDBRANCH   1   2
BRANCH   1  10
ATOM     10  C8  ZIN A   1      17.454  -3.348  10.753  0.00  0.00     0.166 C 
BRANCH  10  11
ATOM     11  N9  ZIN A   1      18.304  -4.346  10.099  0.00  0.00    -0.349 N 
ATOM     12  C14 ZIN A   1      19.615  -4.563  10.338  0.00  0.00     0.182 A 
ATOM     13  N12 ZIN A   1      20.026  -5.530   9.566  0.00  0.00    -0.361 N 
ATOM     14  C11 ZIN A   1      19.005  -5.956   8.807  0.00  0.00     0.106 A 
ATOM     15  H13 ZIN A   1      20.930  -5.884   9.541  0.00  0.00     0.166 HD
ATOM     16  C10 ZIN A   1      17.918  -5.228   9.125  0.00  0.00     0.108 A 
ENDBRANCH  10  11
ENDBRANCH   1  10
BRANCH   1  17
ATOM     17  O15 ZIN A   1      17.674  -1.468  12.256  0.00  0.00    -0.375 OA
BRANCH  17  18
ATOM     18  C16 ZIN A   1      18.383  -1.573  13.492  0.00  0.00     0.208 C 
BRANCH  18  19
ATOM     19  C17 ZIN A   1      18.520  -0.207  14.111  0.00  0.00    -0.016 A 
ATOM     20  C26 ZIN A   1      18.787  -0.011  15.527  0.00  0.00    -0.009 A 
ATOM     21  C20 ZIN A   1      18.875   1.343  15.858  0.00  0.00     0.037 A 
ATOM     22  C25 ZIN A   1      18.974  -0.974  16.543  0.00  0.00     0.013 A 
ATOM     23  S19 ZIN A   1      18.614   2.322  14.420  0.00  0.00    -0.099 SA
ATOM     24  C21 ZIN A   1      19.132   1.720  17.181  0.00  0.00     0.052 A 
ATOM     25  C18 ZIN A   1      18.401   0.904  13.411  0.00  0.00     0.060 A 
ATOM     26 Cl22 ZIN A   1      19.233   3.402  17.598  0.00  0.00    -0.083 Cl
ATOM     27  C23 ZIN A   1      19.305   0.760  18.151  0.00  0.00     0.025 A 
ATOM     28  C24 ZIN A   1      19.224  -0.586  17.824  0.00  0.00     0.003 A 
ENDBRANCH  18  19
ENDBRANCH  17  18
ENDBRANCH   1  17
TORSDOF 6
ENDMDL
MODEL 4
REMARK VINA RESULT:      -7.9      3.367      7.404
REMARK  6 active torsions:
REMARK  status: ('A' for Active; 'I' for Inactive)
REMARK    1  A    between atoms: C5_5  and  C6_6 
REMARK    2  A    between atoms: C6_6  and  C8_7 
REMARK    3  A    between atoms: C6_6  and  O15_14 
REMARK    4  A    between atoms: C8_7  and  N9_8 
REMARK    5  A    between atoms: O15_14  and  C16_15 
REMARK    6  A    between atoms: C16_15  and  C17_16 
ROOT
ATOM      1  C6  ZIN A   1      18.695  -0.728  11.149  0.00  0.00     0.174 C 
ENDROOT
BRANCH   1   2
ATOM      2  C5  ZIN A   1      18.993  -2.107  10.616  0.00  0.00    -0.006 A 
ATOM      3  C4  ZIN A   1      19.678  -3.017  11.399  0.00  0.00     0.013 A 
ATOM      4  C3  ZIN A   1      19.952  -4.280  10.911  0.00  0.00     0.024 A 
ATOM      5  C2  ZIN A   1      19.541  -4.634   9.638  0.00  0.00     0.035 A 
ATOM      6 Cl1  ZIN A   1      19.885  -6.222   9.025  0.00  0.00    -0.084 Cl
ATOM      7  C29 ZIN A   1      18.860  -3.722   8.852  0.00  0.00     0.048 A 
ATOM      8  C27 ZIN A   1      18.582  -2.459   9.343  0.00  0.00     0.044 A 
ATOM      9 Cl28 ZIN A   1      17.722  -1.316   8.360  0.00  0.00    -0.084 Cl
ENDBRANCH   1   2
BRANCH   1  10
ATOM     10  C8  ZIN A   1      19.705   0.268  10.580  0.00  0.00     0.166 C 
BRANCH  10  11
ATOM     11  N9  ZIN A   1      19.144   1.620  10.636  0.00  0.00    -0.349 N 
ATOM     12  C14 ZIN A   1      19.757   2.723  11.117  0.00  0.00     0.182 A 
ATOM     13  N12 ZIN A   1      18.945   3.738  10.999  0.00  0.00    -0.361 N 
ATOM     14  C11 ZIN A   1      17.793   3.322  10.453  0.00  0.00     0.106 A 
ATOM     15  H13 ZIN A   1      19.142   4.650  11.268  0.00  0.00     0.166 HD
ATOM     16  C10 ZIN A   1      17.897   2.000  10.219  0.00  0.00     0.108 A 
ENDBRANCH  10  11
ENDBRANCH   1  10
BRANCH   1  17
ATOM     17  O15 ZIN A   1      18.787  -0.739  12.575  0.00  0.00    -0.375 OA
BRANCH  17  18
ATOM     18  C16 ZIN A   1      17.594  -0.316  13.238  0.00  0.00     0.208 C 
BRANCH  18  19
ATOM     19  C17 ZIN A   1      17.938   0.716  14.281  0.00  0.00    -0.016 A 
ATOM     20  C26 ZIN A   1      18.386   0.359  15.617  0.00  0.00    -0.009 A 
ATOM     21  C20 ZIN A   1      18.646   1.488  16.397  0.00  0.00     0.037 A 
ATOM     22  C25 ZIN A   1      18.592  -0.919  16.179  0.00  0.00     0.013 A 
ATOM     23  S19 ZIN A   1      18.319   2.942  15.462  0.00  0.00    -0.099 SA
ATOM     24  C21 ZIN A   1      19.092   1.335  17.715  0.00  0.00     0.052 A 
ATOM     25  C18 ZIN A   1      17.849   2.012  14.053  0.00  0.00     0.060 A 
ATOM     26 Cl22 ZIN A   1      19.408   2.736  18.690  0.00  0.00    -0.083 Cl
ATOM     27  C23 ZIN A   1      19.279   0.076  18.238  0.00  0.00     0.025 A 
ATOM     28  C24 ZIN A   1      19.026  -1.047  17.463  0.00  0.00     0.003 A 
ENDBRANCH  18  19
ENDBRANCH  17  18
ENDBRANCH   1  17
TORSDOF 6
ENDMDL
MODEL 5
REMARK VINA RESULT:      -7.9      2.661      7.078
REMARK  6 active torsions:
REMARK  status: ('A' for Active; 'I' for Inactive)
REMARK    1  A    between atoms: C5_5  and  C6_6 
REMARK    2  A    between atoms: C6_6  and  C8_7 
REMARK    3  A    between atoms: C6_6  and  O15_14 
REMARK    4  A    between atoms: C8_7  and  N9_8 
REMARK    5  A    between atoms: O15_14  and  C16_15 
REMARK    6  A    between atoms: C16_15  and  C17_16 
ROOT
ATOM      1  C6  ZIN A   1      18.536   2.442  11.147  0.00  0.00     0.174 C 
ENDROOT
BRANCH   1   2
ATOM      2  C5  ZIN A   1      18.392   1.672   9.859  0.00  0.00    -0.006 A 
ATOM      3  C4  ZIN A   1      19.129   2.038   8.749  0.00  0.00     0.013 A 
ATOM      4  C3  ZIN A   1      18.996   1.333   7.567  0.00  0.00     0.024 A 
ATOM      5  C2  ZIN A   1      18.123   0.260   7.497  0.00  0.00     0.035 A 
ATOM      6 Cl1  ZIN A   1      17.957  -0.626   6.013  0.00  0.00    -0.084 Cl
ATOM      7  C29 ZIN A   1      17.381  -0.102   8.606  0.00  0.00     0.048 A 
ATOM      8  C27 ZIN A   1      17.519   0.601   9.789  0.00  0.00     0.044 A 
ATOM      9 Cl28 ZIN A   1      16.592   0.143  11.183  0.00  0.00    -0.084 Cl
ENDBRANCH   1   2
BRANCH   1  10
ATOM     10  C8  ZIN A   1      18.599   3.939  10.842  0.00  0.00     0.166 C 
BRANCH  10  11
ATOM     11  N9  ZIN A   1      17.815   4.674  11.838  0.00  0.00    -0.349 N 
ATOM     12  C14 ZIN A   1      16.505   4.988  11.755  0.00  0.00     0.182 A 
ATOM     13  N12 ZIN A   1      16.162   5.642  12.830  0.00  0.00    -0.361 N 
ATOM     14  C11 ZIN A   1      17.232   5.776  13.627  0.00  0.00     0.106 A 
ATOM     15  H13 ZIN A   1      15.272   5.981  13.022  0.00  0.00     0.166 HD
ATOM     16  C10 ZIN A   1      18.277   5.178  13.025  0.00  0.00     0.108 A 
ENDBRANCH  10  11
ENDBRANCH   1  10
BRANCH   1  17
ATOM     17  O15 ZIN A   1      19.737   2.040  11.810  0.00  0.00    -0.375 OA
BRANCH  17  18
ATOM     18  C16 ZIN A   1      19.578   0.905  12.664  0.00  0.00     0.208 C 
BRANCH  18  19
ATOM     19  C17 ZIN A   1      19.199   1.367  14.047  0.00  0.00    -0.016 A 
ATOM     20  C26 ZIN A   1      18.671   0.464  15.057  0.00  0.00    -0.009 A 
ATOM     21  C20 ZIN A   1      18.401   1.126  16.256  0.00  0.00     0.037 A 
ATOM     22  C25 ZIN A   1      18.429  -0.925  14.976  0.00  0.00     0.013 A 
ATOM     23  S19 ZIN A   1      18.794   2.833  16.092  0.00  0.00    -0.099 SA
ATOM     24  C21 ZIN A   1      17.888   0.412  17.345  0.00  0.00     0.052 A 
ATOM     25  C18 ZIN A   1      19.315   2.622  14.432  0.00  0.00     0.060 A 
ATOM     26 Cl22 ZIN A   1      17.542   1.232  18.835  0.00  0.00    -0.083 Cl
ATOM     27  C23 ZIN A   1      17.658  -0.941  17.236  0.00  0.00     0.025 A 
ATOM     28  C24 ZIN A   1      17.931  -1.602  16.047  0.00  0.00     0.003 A 
ENDBRANCH  18  19
ENDBRANCH  17  18
ENDBRANCH   1  17
TORSDOF 6
ENDMDL
MODEL 6
REMARK VINA RESULT:      -7.9      2.647      4.044
REMARK  6 active torsions:
REMARK  status: ('A' for Active; 'I' for Inactive)
REMARK    1  A    between atoms: C5_5  and  C6_6 
REMARK    2  A    between atoms: C6_6  and  C8_7 
REMARK    3  A    between atoms: C6_6  and  O15_14 
REMARK    4  A    between atoms: C8_7  and  N9_8 
REMARK    5  A    between atoms: O15_14  and  C16_15 
REMARK    6  A    between atoms: C16_15  and  C17_16 
ROOT
ATOM      1  C6  ZIN A   1      19.059  -0.191  12.729  0.00  0.00     0.174 C 
ENDROOT
BRANCH   1   2
ATOM      2  C5  ZIN A   1      18.786   1.116  12.029  0.00  0.00    -0.006 A 
ATOM      3  C4  ZIN A   1      19.694   2.154  12.124  0.00  0.00     0.013 A 
ATOM      4  C3  ZIN A   1      19.443   3.353  11.484  0.00  0.00     0.024 A 
ATOM      5  C2  ZIN A   1      18.282   3.514  10.748  0.00  0.00     0.035 A 
ATOM      6 Cl1  ZIN A   1      17.968   5.020   9.943  0.00  0.00    -0.084 Cl
ATOM      7  C29 ZIN A   1      17.370   2.478  10.658  0.00  0.00     0.048 A 
ATOM      8  C27 ZIN A   1      17.625   1.277  11.295  0.00  0.00     0.044 A 
ATOM      9 Cl28 ZIN A   1      16.484  -0.026  11.177  0.00  0.00    -0.084 Cl
ENDBRANCH   1   2
BRANCH   1  10
ATOM     10  C8  ZIN A   1      19.829   0.074  14.023  0.00  0.00     0.166 C 
BRANCH  10  11
ATOM     11  N9  ZIN A   1      18.883   0.231  15.131  0.00  0.00    -0.349 N 
ATOM     12  C14 ZIN A   1      18.713   1.335  15.890  0.00  0.00     0.182 A 
ATOM     13  N12 ZIN A   1      17.782   1.096  16.773  0.00  0.00    -0.361 N 
ATOM     14  C11 ZIN A   1      17.336  -0.159  16.617  0.00  0.00     0.106 A 
ATOM     15  H13 ZIN A   1      17.466   1.727  17.440  0.00  0.00     0.166 HD
ATOM     16  C10 ZIN A   1      18.011  -0.717  15.595  0.00  0.00     0.108 A 
ENDBRANCH  10  11
ENDBRANCH   1  10
BRANCH   1  17
ATOM     17  O15 ZIN A   1      19.837  -1.034  11.876  0.00  0.00    -0.375 OA
BRANCH  17  18
ATOM     18  C16 ZIN A   1      20.271  -0.399  10.671  0.00  0.00     0.208 C 
BRANCH  18  19
ATOM     19  C17 ZIN A   1      19.590  -1.042   9.491  0.00  0.00    -0.016 A 
ATOM     20  C26 ZIN A   1      19.222  -0.296   8.298  0.00  0.00    -0.009 A 
ATOM     21  C20 ZIN A   1      18.608  -1.111   7.344  0.00  0.00     0.037 A 
ATOM     22  C25 ZIN A   1      19.416   1.071   8.003  0.00  0.00     0.013 A 
ATOM     23  S19 ZIN A   1      18.496  -2.757   7.955  0.00  0.00    -0.099 SA
ATOM     24  C21 ZIN A   1      18.188  -0.562   6.127  0.00  0.00     0.052 A 
ATOM     25  C18 ZIN A   1      19.276  -2.322   9.463  0.00  0.00     0.060 A 
ATOM     26 Cl22 ZIN A   1      17.417  -1.569   4.943  0.00  0.00    -0.083 Cl
ATOM     27  C23 ZIN A   1      18.386   0.775   5.869  0.00  0.00     0.025 A 
ATOM     28  C24 ZIN A   1      19.001   1.585   6.813  0.00  0.00     0.003 A 
ENDBRANCH  18  19
ENDBRANCH  17  18
ENDBRANCH   1  17
TORSDOF 6
ENDMDL
MODEL 7
REMARK VINA RESULT:      -7.8      4.035      7.578
REMARK  6 active torsions:
REMARK  status: ('A' for Active; 'I' for Inactive)
REMARK    1  A    between atoms: C5_5  and  C6_6 
REMARK    2  A    between atoms: C6_6  and  C8_7 
REMARK    3  A    between atoms: C6_6  and  O15_14 
REMARK    4  A    between atoms: C8_7  and  N9_8 
REMARK    5  A    between atoms: O15_14  and  C16_15 
REMARK    6  A    between atoms: C16_15  and  C17_16 
ROOT
ATOM      1  C6  ZIN A   1      18.679  -2.315  11.121  0.00  0.00     0.174 C 
ENDROOT
BRANCH   1   2
ATOM      2  C5  ZIN A   1      18.712  -1.340   9.972  0.00  0.00    -0.006 A 
ATOM      3  C4  ZIN A   1      17.659  -1.286   9.079  0.00  0.00     0.013 A 
ATOM      4  C3  ZIN A   1      17.690  -0.393   8.025  0.00  0.00     0.024 A 
ATOM      5  C2  ZIN A   1      18.777   0.448   7.863  0.00  0.00     0.035 A 
ATOM      6 Cl1  ZIN A   1      18.815   1.571   6.540  0.00  0.00    -0.084 Cl
ATOM      7  C29 ZIN A   1      19.834   0.391   8.753  0.00  0.00     0.048 A 
ATOM      8  C27 ZIN A   1      19.800  -0.500   9.810  0.00  0.00     0.044 A 
ATOM      9 Cl28 ZIN A   1      21.124  -0.567  10.931  0.00  0.00    -0.084 Cl
ENDBRANCH   1   2
BRANCH   1  10
ATOM     10  C8  ZIN A   1      17.577  -3.348  10.881  0.00  0.00     0.166 C 
BRANCH  10  11
ATOM     11  N9  ZIN A   1      18.116  -4.464  10.099  0.00  0.00    -0.349 N 
ATOM     12  C14 ZIN A   1      19.388  -4.918  10.120  0.00  0.00     0.182 A 
ATOM     13  N12 ZIN A   1      19.487  -5.923   9.295  0.00  0.00    -0.361 N 
ATOM     14  C11 ZIN A   1      18.297  -6.140   8.716  0.00  0.00     0.106 A 
ATOM     15  H13 ZIN A   1      20.297  -6.431   9.123  0.00  0.00     0.166 HD
ATOM     16  C10 ZIN A   1      17.426  -5.238   9.205  0.00  0.00     0.108 A 
ENDBRANCH  10  11
ENDBRANCH   1  10
BRANCH   1  17
ATOM     17  O15 ZIN A   1      18.414  -1.610  12.336  0.00  0.00    -0.375 OA
BRANCH  17  18
ATOM     18  C16 ZIN A   1      17.312  -0.704  12.255  0.00  0.00     0.208 C 
BRANCH  18  19
ATOM     19  C17 ZIN A   1      17.661   0.577  12.966  0.00  0.00    -0.016 A 
ATOM     20  C26 ZIN A   1      17.771   1.851  12.273  0.00  0.00    -0.009 A 
ATOM     21  C20 ZIN A   1      18.099   2.891  13.146  0.00  0.00     0.037 A 
ATOM     22  C25 ZIN A   1      17.578   2.145  10.906  0.00  0.00     0.013 A 
ATOM     23  S19 ZIN A   1      18.273   2.260  14.780  0.00  0.00    -0.099 SA
ATOM     24  C21 ZIN A   1      18.244   4.193  12.654  0.00  0.00     0.052 A 
ATOM     25  C18 ZIN A   1      17.897   0.628  14.262  0.00  0.00     0.060 A 
ATOM     26 Cl22 ZIN A   1      18.661   5.486  13.734  0.00  0.00    -0.083 Cl
ATOM     27  C23 ZIN A   1      18.056   4.449  11.315  0.00  0.00     0.025 A 
ATOM     28  C24 ZIN A   1      17.723   3.419  10.447  0.00  0.00     0.003 A 
ENDBRANCH  18  19
ENDBRANCH  17  18
ENDBRANCH   1  17
TORSDOF 6
ENDMDL
MODEL 8
REMARK VINA RESULT:      -7.8      1.602      2.639
REMARK  6 active torsions:
REMARK  status: ('A' for Active; 'I' for Inactive)
REMARK    1  A    between atoms: C5_5  and  C6_6 
REMARK    2  A    between atoms: C6_6  and  C8_7 
REMARK    3  A    between atoms: C6_6  and  O15_14 
REMARK    4  A    between atoms: C8_7  and  N9_8 
REMARK    5  A    between atoms: O15_14  and  C16_15 
REMARK    6  A    between atoms: C16_15  and  C17_16 
ROOT
ATOM      1  C6  ZIN A   1      19.084   2.733  12.331  0.00  0.00     0.174 C 
ENDROOT
BRANCH   1   2
ATOM      2  C5  ZIN A   1      18.887   1.592  13.297  0.00  0.00    -0.006 A 
ATOM      3  C4  ZIN A   1      17.795   1.585  14.144  0.00  0.00     0.013 A 
ATOM      4  C3  ZIN A   1      17.614   0.540  15.031  0.00  0.00     0.024 A 
ATOM      5  C2  ZIN A   1      18.527  -0.499  15.070  0.00  0.00     0.035 A 
ATOM      6 Cl1  ZIN A   1      18.299  -1.812  16.183  0.00  0.00    -0.084 Cl
ATOM      7  C29 ZIN A   1      19.623  -0.489  14.226  0.00  0.00     0.048 A 
ATOM      8  C27 ZIN A   1      19.800   0.554  13.336  0.00  0.00     0.044 A 
ATOM      9 Cl28 ZIN A   1      21.172   0.563  12.272  0.00  0.00    -0.084 Cl
ENDBRANCH   1   2
BRANCH   1  10
ATOM     10  C8  ZIN A   1      18.002   3.788  12.559  0.00  0.00     0.166 C 
BRANCH  10  11
ATOM     11  N9  ZIN A   1      18.533   4.857  13.409  0.00  0.00    -0.349 N 
ATOM     12  C14 ZIN A   1      17.813   5.701  14.179  0.00  0.00     0.182 A 
ATOM     13  N12 ZIN A   1      18.633   6.512  14.790  0.00  0.00    -0.361 N 
ATOM     14  C11 ZIN A   1      19.892   6.224  14.429  0.00  0.00     0.106 A 
ATOM     15  H13 ZIN A   1      18.372   7.216  15.406  0.00  0.00     0.166 HD
ATOM     16  C10 ZIN A   1      19.851   5.191  13.565  0.00  0.00     0.108 A 
ENDBRANCH  10  11
ENDBRANCH   1  10
BRANCH   1  17
ATOM     17  O15 ZIN A   1      18.997   2.242  10.991  0.00  0.00    -0.375 OA
BRANCH  17  18
ATOM     18  C16 ZIN A   1      17.704   1.746  10.637  0.00  0.00     0.208 C 
BRANCH  18  19
ATOM     19  C17 ZIN A   1      17.855   0.575   9.701  0.00  0.00    -0.016 A 
ATOM     20  C26 ZIN A   1      17.756  -0.804  10.151  0.00  0.00    -0.009 A 
ATOM     21  C20 ZIN A   1      17.926  -1.708   9.099  0.00  0.00     0.037 A 
ATOM     22  C25 ZIN A   1      17.507  -1.306  11.447  0.00  0.00     0.013 A 
ATOM     23  S19 ZIN A   1      18.213  -0.828   7.603  0.00  0.00    -0.099 SA
ATOM     24  C21 ZIN A   1      17.860  -3.084   9.347  0.00  0.00     0.052 A 
ATOM     25  C18 ZIN A   1      18.092   0.722   8.413  0.00  0.00     0.060 A 
ATOM     26 Cl22 ZIN A   1      18.080  -4.210   8.045  0.00  0.00    -0.083 Cl
ATOM     27  C23 ZIN A   1      17.620  -3.544  10.621  0.00  0.00     0.025 A 
ATOM     28  C24 ZIN A   1      17.445  -2.649  11.666  0.00  0.00     0.003 A 
ENDBRANCH  18  19
ENDBRANCH  17  18
ENDBRANCH   1  17
TORSDOF 6
ENDMDL
MODEL 9
REMARK VINA RESULT:      -7.7      4.363      8.102
REMARK  6 active torsions:
REMARK  status: ('A' for Active; 'I' for Inactive)
REMARK    1  A    between atoms: C5_5  and  C6_6 
REMARK    2  A    between atoms: C6_6  and  C8_7 
REMARK    3  A    between atoms: C6_6  and  O15_14 
REMARK    4  A    between atoms: C8_7  and  N9_8 
REMARK    5  A    between atoms: O15_14  and  C16_15 
REMARK    6  A    between atoms: C16_15  and  C17_16 
ROOT
ATOM      1  C6  ZIN A   1      18.509  -1.609  12.171  0.00  0.00     0.174 C 
ENDROOT
BRANCH   1   2
ATOM      2  C5  ZIN A   1      18.409  -0.206  11.630  0.00  0.00    -0.006 A 
ATOM      3  C4  ZIN A   1      17.233   0.508  11.772  0.00  0.00     0.013 A 
ATOM      4  C3  ZIN A   1      17.141   1.794  11.275  0.00  0.00     0.024 A 
ATOM      5  C2  ZIN A   1      18.226   2.368  10.636  0.00  0.00     0.035 A 
ATOM      6 Cl1  ZIN A   1      18.110   3.985  10.014  0.00  0.00    -0.084 Cl
ATOM      7  C29 ZIN A   1      19.400   1.653  10.489  0.00  0.00     0.048 A 
ATOM      8  C27 ZIN A   1      19.494   0.367  10.991  0.00  0.00     0.044 A 
ATOM      9 Cl28 ZIN A   1      20.970  -0.528  10.812  0.00  0.00    -0.084 Cl
ENDBRANCH   1   2
BRANCH   1  10
ATOM     10  C8  ZIN A   1      17.447  -2.488  11.509  0.00  0.00     0.166 C 
BRANCH  10  11
ATOM     11  N9  ZIN A   1      18.097  -3.603  10.815  0.00  0.00    -0.349 N 
ATOM     12  C14 ZIN A   1      17.482  -4.582  10.120  0.00  0.00     0.182 A 
ATOM     13  N12 ZIN A   1      18.388  -5.391   9.645  0.00  0.00    -0.361 N 
ATOM     14  C11 ZIN A   1      19.602  -4.967  10.024  0.00  0.00     0.106 A 
ATOM     15  H13 ZIN A   1      18.211  -6.180   9.106  0.00  0.00     0.166 HD
ATOM     16  C10 ZIN A   1      19.442  -3.849  10.757  0.00  0.00     0.108 A 
ENDBRANCH  10  11
ENDBRANCH   1  10
BRANCH   1  17
ATOM     17  O15 ZIN A   1      18.299  -1.591  13.585  0.00  0.00    -0.375 OA
BRANCH  17  18
ATOM     18  C16 ZIN A   1      19.499  -1.450  14.349  0.00  0.00     0.208 C 
BRANCH  18  19
ATOM     19  C17 ZIN A   1      19.203  -0.681  15.610  0.00  0.00    -0.016 A 
ATOM     20  C26 ZIN A   1      19.037   0.763  15.626  0.00  0.00    -0.009 A 
ATOM     21  C20 ZIN A   1      18.766   1.242  16.910  0.00  0.00     0.037 A 
ATOM     22  C25 ZIN A   1      19.098   1.682  14.556  0.00  0.00     0.013 A 
ATOM     23  S19 ZIN A   1      18.739  -0.100  18.048  0.00  0.00    -0.099 SA
ATOM     24  C21 ZIN A   1      18.573   2.613  17.115  0.00  0.00     0.052 A 
ATOM     25  C18 ZIN A   1      19.082  -1.266  16.785  0.00  0.00     0.060 A 
ATOM     26 Cl22 ZIN A   1      18.245   3.212  18.710  0.00  0.00    -0.083 Cl
ATOM     27  C23 ZIN A   1      18.643   3.485  16.053  0.00  0.00     0.025 A 
ATOM     28  C24 ZIN A   1      18.906   3.012  14.776  0.00  0.00     0.003 A 
ENDBRANCH  18  19
ENDBRANCH  17  18
ENDBRANCH   1  17
TORSDOF 6
ENDMDL
