MODEL 1
REMARK VINA RESULT:      -7.4      0.000      0.000
REMARK  4 active torsions:
REMARK  status: ('A' for Active; 'I' for Inactive)
REMARK    1  A    between atoms: O2_2  and  C3_3 
REMARK    2  A    between atoms: C3_3  and  C5_5 
REMARK    3  A    between atoms: C5_5  and  C7_6 
REMARK    4  A    between atoms: C5_5  and  N14_13 
ROOT
ATOM      1  C5  ZIN A   1      18.429  -0.241  10.691  0.00  0.00     0.356 C 
ENDROOT
BRANCH   1   2
ATOM      2  C3  ZIN A   1      17.180  -0.685  11.410  0.00  0.00     0.297 C 
ATOM      3  O4  ZIN A   1      16.172  -0.024  11.333  0.00  0.00    -0.262 OA
BRANCH   2   4
ATOM      4  O2  ZIN A   1      17.187  -1.815  12.133  0.00  0.00    -0.325 OA
ATOM      5  C1  ZIN A   1      18.450  -2.204  12.734  0.00  0.00     0.213 C 
ENDBRANCH   2   4
ENDBRANCH   1   2
BRANCH   1   6
ATOM      6  C7  ZIN A   1      18.592   1.250  10.842  0.00  0.00     0.006 A 
ATOM      7  C12 ZIN A   1      19.664   1.760  11.552  0.00  0.00     0.043 A 
ATOM      8  C11 ZIN A   1      19.817   3.129  11.686  0.00  0.00     0.024 A 
ATOM      9 Cl13 ZIN A   1      20.825   0.684  12.264  0.00  0.00    -0.084 Cl
ATOM     10  C10 ZIN A   1      18.892   3.985  11.119  0.00  0.00     0.002 A 
ATOM     11  C9  ZIN A   1      17.818   3.475  10.414  0.00  0.00     0.001 A 
ATOM     12  C8  ZIN A   1      17.667   2.107  10.276  0.00  0.00     0.011 A 
ENDBRANCH   1   6
BRANCH   1  13
ATOM     13  N14 ZIN A   1      18.320  -0.580   9.266  0.00  0.00     0.111 N 
ATOM     14  C22 ZIN A   1      19.065   0.378   8.438  0.00  0.00     0.313 C 
ATOM     15  C18 ZIN A   1      18.983  -0.067   6.985  0.00  0.00    -0.017 A 
ATOM     16  C17 ZIN A   1      18.623  -1.319   6.640  0.00  0.00    -0.008 A 
ATOM     17  C19 ZIN A   1      19.261   0.754   5.898  0.00  0.00     0.017 A 
ATOM     18  C16 ZIN A   1      18.271  -2.403   7.635  0.00  0.00     0.077 C 
ATOM     19  S21 ZIN A   1      18.629  -1.486   4.891  0.00  0.00    -0.106 SA
ATOM     20  C15 ZIN A   1      18.766  -1.959   9.017  0.00  0.00     0.279 C 
ATOM     21  C20 ZIN A   1      19.132   0.188   4.702  0.00  0.00     0.051 A 
ENDBRANCH   1  13
TORSDOF 4
ENDMDL
MODEL 2
REMARK VINA RESULT:      -7.3      3.852      6.966
REMARK  4 active torsions:
REMARK  status: ('A' for Active; 'I' for Inactive)
REMARK    1  A    between atoms: O2_2  and  C3_3 
REMARK    2  A    between atoms: C3_3  and  C5_5 
REMARK    3  A    between atoms: C5_5  and  C7_6 
REMARK    4  A    between atoms: C5_5  and  N14_13 
ROOT
ATOM      1  C5  ZIN A   1      18.241  -0.245  11.696  0.00  0.00     0.356 C 
ENDROOT
BRANCH   1   2
ATOM      2  C3  ZIN A   1      16.940   0.004  10.977  0.00  0.00     0.297 C 
ATOM      3  O4  ZIN A   1      15.916   0.127  11.606  0.00  0.00    -0.262 OA
BRANCH   2   4
ATOM      4  O2  ZIN A   1      16.919   0.089   9.637  0.00  0.00    -0.325 OA
ATOM      5  C1  ZIN A   1      18.012   0.805   9.006  0.00  0.00     0.213 C 
ENDBRANCH   2   4
ENDBRANCH   1   2
BRANCH   1   6
ATOM      6  C7  ZIN A   1      18.585  -1.711  11.619  0.00  0.00     0.006 A 
ATOM      7  C12 ZIN A   1      19.866  -2.104  11.276  0.00  0.00     0.043 A 
ATOM      8  C11 ZIN A   1      20.184  -3.449  11.210  0.00  0.00     0.024 A 
ATOM      9 Cl13 ZIN A   1      21.080  -0.909  10.941  0.00  0.00    -0.084 Cl
ATOM     10  C10 ZIN A   1      19.217  -4.400  11.476  0.00  0.00     0.002 A 
ATOM     11  C9  ZIN A   1      17.935  -4.007  11.814  0.00  0.00     0.001 A 
ATOM     12  C8  ZIN A   1      17.619  -2.663  11.885  0.00  0.00     0.011 A 
ENDBRANCH   1   6
BRANCH   1  13
ATOM     13  N14 ZIN A   1      18.106   0.152  13.104  0.00  0.00     0.111 N 
ATOM     14  C22 ZIN A   1      18.810  -0.788  13.987  0.00  0.00     0.313 C 
ATOM     15  C18 ZIN A   1      18.702  -0.284  15.419  0.00  0.00    -0.017 A 
ATOM     16  C17 ZIN A   1      18.362   0.988  15.706  0.00  0.00    -0.008 A 
ATOM     17  C19 ZIN A   1      18.936  -1.067  16.544  0.00  0.00     0.017 A 
ATOM     18  C16 ZIN A   1      18.058   2.039  14.660  0.00  0.00     0.077 C 
ATOM     19  S21 ZIN A   1      18.330   1.224  17.446  0.00  0.00    -0.106 SA
ATOM     20  C15 ZIN A   1      18.576   1.530  13.309  0.00  0.00     0.279 C 
ATOM     21  C20 ZIN A   1      18.791  -0.451  17.713  0.00  0.00     0.051 A 
ENDBRANCH   1  13
TORSDOF 4
ENDMDL
MODEL 3
REMARK VINA RESULT:      -7.0      2.448      3.827
REMARK  4 active torsions:
REMARK  status: ('A' for Active; 'I' for Inactive)
REMARK    1  A    between atoms: O2_2  and  C3_3 
REMARK    2  A    between atoms: C3_3  and  C5_5 
REMARK    3  A    between atoms: C5_5  and  C7_6 
REMARK    4  A    between atoms: C5_5  and  N14_13 
ROOT
ATOM      1  C5  ZIN A   1      18.201  -0.660  11.044  0.00  0.00     0.356 C 
ENDROOT
BRANCH   1   2
ATOM      2  C3  ZIN A   1      17.045  -0.087  11.824  0.00  0.00     0.297 C 
ATOM      3  O4  ZIN A   1      15.930  -0.113  11.360  0.00  0.00    -0.262 OA
BRANCH   2   4
ATOM      4  O2  ZIN A   1      17.255   0.453  13.035  0.00  0.00    -0.325 OA
ATOM      5  C1  ZIN A   1      18.183  -0.237  13.912  0.00  0.00     0.213 C 
ENDBRANCH   2   4
ENDBRANCH   1   2
BRANCH   1   6
ATOM      6  C7  ZIN A   1      18.432   0.169   9.807  0.00  0.00     0.006 A 
ATOM      7  C12 ZIN A   1      19.200   1.318   9.878  0.00  0.00     0.043 A 
ATOM      8  C11 ZIN A   1      19.418   2.077   8.742  0.00  0.00     0.024 A 
ATOM      9 Cl13 ZIN A   1      19.902   1.800  11.391  0.00  0.00    -0.084 Cl
ATOM     10  C10 ZIN A   1      18.858   1.692   7.538  0.00  0.00     0.002 A 
ATOM     11  C9  ZIN A   1      18.086   0.547   7.468  0.00  0.00     0.001 A 
ATOM     12  C8  ZIN A   1      17.873  -0.214   8.602  0.00  0.00     0.011 A 
ENDBRANCH   1   6
BRANCH   1  13
ATOM     13  N14 ZIN A   1      17.890  -2.043  10.655  0.00  0.00     0.111 N 
ATOM     14  C22 ZIN A   1      18.991  -2.632   9.882  0.00  0.00     0.313 C 
ATOM     15  C18 ZIN A   1      18.649  -4.083   9.576  0.00  0.00    -0.017 A 
ATOM     16  C17 ZIN A   1      17.694  -4.751  10.253  0.00  0.00    -0.008 A 
ATOM     17  C19 ZIN A   1      19.270  -4.844   8.592  0.00  0.00     0.017 A 
ATOM     18  C16 ZIN A   1      16.872  -4.149  11.373  0.00  0.00     0.077 C 
ATOM     19  S21 ZIN A   1      17.560  -6.393   9.643  0.00  0.00    -0.106 SA
ATOM     20  C15 ZIN A   1      17.568  -2.861  11.833  0.00  0.00     0.279 C 
ATOM     21  C20 ZIN A   1      18.835  -6.094   8.471  0.00  0.00     0.051 A 
ENDBRANCH   1  13
TORSDOF 4
ENDMDL
MODEL 4
REMARK VINA RESULT:      -7.0      3.242      5.515
REMARK  4 active torsions:
REMARK  status: ('A' for Active; 'I' for Inactive)
REMARK    1  A    between atoms: O2_2  and  C3_3 
REMARK    2  A    between atoms: C3_3  and  C5_5 
REMARK    3  A    between atoms: C5_5  and  C7_6 
REMARK    4  A    between atoms: C5_5  and  N14_13 
ROOT
ATOM      1  C5  ZIN A   1      18.765  -0.026  10.629  0.00  0.00     0.356 C 
ENDROOT
BRANCH   1   2
ATOM      2  C3  ZIN A   1      20.048  -0.721  11.007  0.00  0.00     0.297 C 
ATOM      3  O4  ZIN A   1      21.063  -0.081  11.148  0.00  0.00    -0.262 OA
BRANCH   2   4
ATOM      4  O2  ZIN A   1      20.063  -2.051  11.187  0.00  0.00    -0.325 OA
ATOM      5  C1  ZIN A   1      19.287  -2.575  12.295  0.00  0.00     0.213 C 
ENDBRANCH   2   4
ENDBRANCH   1   2
BRANCH   1   6
ATOM      6  C7  ZIN A   1      18.755   0.237   9.145  0.00  0.00     0.006 A 
ATOM      7  C12 ZIN A   1      18.267  -0.722   8.276  0.00  0.00     0.043 A 
ATOM      8  C11 ZIN A   1      18.252  -0.478   6.913  0.00  0.00     0.024 A 
ATOM      9 Cl13 ZIN A   1      17.660  -2.226   8.895  0.00  0.00    -0.084 Cl
ATOM     10  C10 ZIN A   1      18.736   0.719   6.421  0.00  0.00     0.002 A 
ATOM     11  C9  ZIN A   1      19.228   1.675   7.290  0.00  0.00     0.001 A 
ATOM     12  C8  ZIN A   1      19.238   1.435   8.651  0.00  0.00     0.011 A 
ENDBRANCH   1   6
BRANCH   1  13
ATOM     13  N14 ZIN A   1      18.667   1.249  11.353  0.00  0.00     0.111 N 
ATOM     14  C22 ZIN A   1      17.592   2.086  10.804  0.00  0.00     0.313 C 
ATOM     15  C18 ZIN A   1      17.487   3.354  11.640  0.00  0.00    -0.017 A 
ATOM     16  C17 ZIN A   1      18.030   3.447  12.869  0.00  0.00    -0.008 A 
ATOM     17  C19 ZIN A   1      16.838   4.512  11.227  0.00  0.00     0.017 A 
ATOM     18  C16 ZIN A   1      18.789   2.325  13.547  0.00  0.00     0.077 C 
ATOM     19  S21 ZIN A   1      17.725   5.040  13.543  0.00  0.00    -0.106 SA
ATOM     20  C15 ZIN A   1      18.485   1.024  12.794  0.00  0.00     0.279 C 
ATOM     21  C20 ZIN A   1      16.853   5.519  12.095  0.00  0.00     0.051 A 
ENDBRANCH   1  13
TORSDOF 4
ENDMDL
MODEL 5
REMARK VINA RESULT:      -7.0      4.099      6.958
REMARK  4 active torsions:
REMARK  status: ('A' for Active; 'I' for Inactive)
REMARK    1  A    between atoms: O2_2  and  C3_3 
REMARK    2  A    between atoms: C3_3  and  C5_5 
REMARK    3  A    between atoms: C5_5  and  C7_6 
REMARK    4  A    between atoms: C5_5  and  N14_13 
ROOT
ATOM      1  C5  ZIN A   1      18.464   1.998  12.214  0.00  0.00     0.356 C 
ENDROOT
BRANCH   1   2
ATOM      2  C3  ZIN A   1      17.529   1.547  11.121  0.00  0.00     0.297 C 
ATOM      3  O4  ZIN A   1      16.544   0.905  11.394  0.00  0.00    -0.262 OA
BRANCH   2   4
ATOM      4  O2  ZIN A   1      17.792   1.861   9.842  0.00  0.00    -0.325 OA
ATOM      5  C1  ZIN A   1      19.182   2.085   9.491  0.00  0.00     0.213 C 
ENDBRANCH   2   4
ENDBRANCH   1   2
BRANCH   1   6
ATOM      6  C7  ZIN A   1      18.553   0.928  13.272  0.00  0.00     0.006 A 
ATOM      7  C12 ZIN A   1      19.521  -0.056  13.181  0.00  0.00     0.043 A 
ATOM      8  C11 ZIN A   1      19.606  -1.035  14.155  0.00  0.00     0.024 A 
ATOM      9 Cl13 ZIN A   1      20.638  -0.054  11.852  0.00  0.00    -0.084 Cl
ATOM     10  C10 ZIN A   1      18.716  -1.036  15.212  0.00  0.00     0.002 A 
ATOM     11  C9  ZIN A   1      17.745  -0.056  15.300  0.00  0.00     0.001 A 
ATOM     12  C8  ZIN A   1      17.663   0.926  14.330  0.00  0.00     0.011 A 
ENDBRANCH   1   6
BRANCH   1  13
ATOM     13  N14 ZIN A   1      17.953   3.238  12.814  0.00  0.00     0.111 N 
ATOM     14  C22 ZIN A   1      19.015   3.949  13.539  0.00  0.00     0.313 C 
ATOM     15  C18 ZIN A   1      18.449   5.259  14.070  0.00  0.00    -0.017 A 
ATOM     16  C17 ZIN A   1      17.307   5.791  13.591  0.00  0.00    -0.008 A 
ATOM     17  C19 ZIN A   1      19.038   6.016  15.076  0.00  0.00     0.017 A 
ATOM     18  C16 ZIN A   1      16.475   5.162  12.494  0.00  0.00     0.077 C 
ATOM     19  S21 ZIN A   1      16.947   7.294  14.426  0.00  0.00    -0.106 SA
ATOM     20  C15 ZIN A   1      17.334   4.099  11.796  0.00  0.00     0.279 C 
ATOM     21  C20 ZIN A   1      18.396   7.132  15.408  0.00  0.00     0.051 A 
ENDBRANCH   1  13
TORSDOF 4
ENDMDL
MODEL 6
REMARK VINA RESULT:      -6.8      2.845      4.170
REMARK  4 active torsions:
REMARK  status: ('A' for Active; 'I' for Inactive)
REMARK    1  A    between atoms: O2_2  and  C3_3 
REMARK    2  A    between atoms: C3_3  and  C5_5 
REMARK    3  A    between atoms: C5_5  and  C7_6 
REMARK    4  A    between atoms: C5_5  and  N14_13 
ROOT
ATOM      1  C5  ZIN A   1      18.935  -2.600  10.427  0.00  0.00     0.356 C 
ENDROOT
BRANCH   1   2
ATOM      2  C3  ZIN A   1      18.196  -2.377  11.722  0.00  0.00     0.297 C 
ATOM      3  O4  ZIN A   1      17.002  -2.199  11.714  0.00  0.00    -0.262 OA
BRANCH   2   4
ATOM      4  O2  ZIN A   1      18.867  -2.377  12.885  0.00  0.00    -0.325 OA
ATOM      5  C1  ZIN A   1      18.915  -1.125  13.617  0.00  0.00     0.213 C 
ENDBRANCH   2   4
ENDBRANCH   1   2
BRANCH   1   6
ATOM      6  C7  ZIN A   1      18.803  -1.376   9.557  0.00  0.00     0.006 A 
ATOM      7  C12 ZIN A   1      19.744  -0.366   9.637  0.00  0.00     0.043 A 
ATOM      8  C11 ZIN A   1      19.627   0.755   8.835  0.00  0.00     0.024 A 
ATOM      9 Cl13 ZIN A   1      21.081  -0.510  10.735  0.00  0.00    -0.084 Cl
ATOM     10  C10 ZIN A   1      18.562   0.870   7.961  0.00  0.00     0.002 A 
ATOM     11  C9  ZIN A   1      17.619  -0.138   7.884  0.00  0.00     0.001 A 
ATOM     12  C8  ZIN A   1      17.739  -1.260   8.683  0.00  0.00     0.011 A 
ENDBRANCH   1   6
BRANCH   1  13
ATOM     13  N14 ZIN A   1      18.362  -3.760   9.730  0.00  0.00     0.111 N 
ATOM     14  C22 ZIN A   1      19.105  -4.054   8.497  0.00  0.00     0.313 C 
ATOM     15  C18 ZIN A   1      18.518  -5.306   7.863  0.00  0.00    -0.017 A 
ATOM     16  C17 ZIN A   1      17.737  -6.160   8.554  0.00  0.00    -0.008 A 
ATOM     17  C19 ZIN A   1      18.723  -5.684   6.540  0.00  0.00     0.017 A 
ATOM     18  C16 ZIN A   1      17.364  -5.976  10.009  0.00  0.00     0.077 C 
ATOM     19  S21 ZIN A   1      17.234  -7.487   7.519  0.00  0.00    -0.106 SA
ATOM     20  C15 ZIN A   1      18.311  -4.933  10.615  0.00  0.00     0.279 C 
ATOM     21  C20 ZIN A   1      18.127  -6.811   6.165  0.00  0.00     0.051 A 
ENDBRANCH   1  13
TORSDOF 4
ENDMDL
MODEL 7
REMARK VINA RESULT:      -6.7      3.600      5.367
REMARK  4 active torsions:
REMARK  status: ('A' for Active; 'I' for Inactive)
REMARK    1  A    between atoms: O2_2  and  C3_3 
REMARK    2  A    between atoms: C3_3  and  C5_5 
REMARK    3  A    between atoms: C5_5  and  C7_6 
REMARK    4  A    between atoms: C5_5  and  N14_13 
ROOT
ATOM      1  C5  ZIN A   1      18.674  -0.215  12.969  0.00  0.00     0.356 C 
ENDROOT
BRANCH   1   2
ATOM      2  C3  ZIN A   1      19.826   0.631  12.489  0.00  0.00     0.297 C 
ATOM      3  O4  ZIN A   1      20.936   0.445  12.926  0.00  0.00    -0.262 OA
BRANCH   2   4
ATOM      4  O2  ZIN A   1      19.618   1.592  11.575  0.00  0.00    -0.325 OA
ATOM      5  C1  ZIN A   1      18.298   1.655  10.975  0.00  0.00     0.213 C 
ENDBRANCH   2   4
ENDBRANCH   1   2
BRANCH   1   6
ATOM      6  C7  ZIN A   1      18.688  -0.275  14.475  0.00  0.00     0.006 A 
ATOM      7  C12 ZIN A   1      18.310   0.832  15.214  0.00  0.00     0.043 A 
ATOM      8  C11 ZIN A   1      18.317   0.776  16.597  0.00  0.00     0.024 A 
ATOM      9 Cl13 ZIN A   1      17.814   2.287  14.407  0.00  0.00    -0.084 Cl
ATOM     10  C10 ZIN A   1      18.713  -0.382  17.238  0.00  0.00     0.002 A 
ATOM     11  C9  ZIN A   1      19.096  -1.486  16.499  0.00  0.00     0.001 A 
ATOM     12  C8  ZIN A   1      19.084  -1.432  15.118  0.00  0.00     0.011 A 
ENDBRANCH   1   6
BRANCH   1  13
ATOM     13  N14 ZIN A   1      18.805  -1.573  12.424  0.00  0.00     0.111 N 
ATOM     14  C22 ZIN A   1      17.501  -2.097  11.995  0.00  0.00     0.313 C 
ATOM     15  C18 ZIN A   1      17.709  -3.469  11.370  0.00  0.00    -0.017 A 
ATOM     16  C17 ZIN A   1      18.920  -3.890  10.956  0.00  0.00    -0.008 A 
ATOM     17  C19 ZIN A   1      16.696  -4.400  11.171  0.00  0.00     0.017 A 
ATOM     18  C16 ZIN A   1      20.185  -3.064  11.060  0.00  0.00     0.077 C 
ATOM     19  S21 ZIN A   1      18.799  -5.511  10.291  0.00  0.00    -0.106 SA
ATOM     20  C15 ZIN A   1      19.781  -1.608  11.325  0.00  0.00     0.279 C 
ATOM     21  C20 ZIN A   1      17.071  -5.546  10.611  0.00  0.00     0.051 A 
ENDBRANCH   1  13
TORSDOF 4
ENDMDL
MODEL 8
REMARK VINA RESULT:      -6.7      4.566      6.836
REMARK  4 active torsions:
REMARK  status: ('A' for Active; 'I' for Inactive)
REMARK    1  A    between atoms: O2_2  and  C3_3 
REMARK    2  A    between atoms: C3_3  and  C5_5 
REMARK    3  A    between atoms: C5_5  and  C7_6 
REMARK    4  A    between atoms: C5_5  and  N14_13 
ROOT
ATOM      1  C5  ZIN A   1      18.481   3.213  12.623  0.00  0.00     0.356 C 
ENDROOT
BRANCH   1   2
ATOM      2  C3  ZIN A   1      19.584   3.332  11.601  0.00  0.00     0.297 C 
ATOM      3  O4  ZIN A   1      20.665   3.761  11.926  0.00  0.00    -0.262 OA
BRANCH   2   4
ATOM      4  O2  ZIN A   1      19.364   2.961  10.330  0.00  0.00    -0.325 OA
ATOM      5  C1  ZIN A   1      18.008   2.581   9.979  0.00  0.00     0.213 C 
ENDBRANCH   2   4
ENDBRANCH   1   2
BRANCH   1   6
ATOM      6  C7  ZIN A   1      18.374   4.500  13.399  0.00  0.00     0.006 A 
ATOM      7  C12 ZIN A   1      17.392   5.420  13.080  0.00  0.00     0.043 A 
ATOM      8  C11 ZIN A   1      17.290   6.600  13.796  0.00  0.00     0.024 A 
ATOM      9 Cl13 ZIN A   1      16.278   5.089  11.791  0.00  0.00    -0.084 Cl
ATOM     10  C10 ZIN A   1      18.178   6.863  14.822  0.00  0.00     0.002 A 
ATOM     11  C9  ZIN A   1      19.163   5.946  15.137  0.00  0.00     0.001 A 
ATOM     12  C8  ZIN A   1      19.262   4.765  14.425  0.00  0.00     0.011 A 
ENDBRANCH   1   6
BRANCH   1  13
ATOM     13  N14 ZIN A   1      18.785   2.109  13.544  0.00  0.00     0.111 N 
ATOM     14  C22 ZIN A   1      17.595   1.721  14.312  0.00  0.00     0.313 C 
ATOM     15  C18 ZIN A   1      17.949   0.528  15.188  0.00  0.00    -0.017 A 
ATOM     16  C17 ZIN A   1      19.040  -0.229  14.959  0.00  0.00    -0.008 A 
ATOM     17  C19 ZIN A   1      17.201   0.112  16.283  0.00  0.00     0.017 A 
ATOM     18  C16 ZIN A   1      20.017   0.014  13.828  0.00  0.00     0.077 C 
ATOM     19  S21 ZIN A   1      19.145  -1.511  16.155  0.00  0.00    -0.106 SA
ATOM     20  C15 ZIN A   1      19.351   0.961  12.821  0.00  0.00     0.279 C 
ATOM     21  C20 ZIN A   1      17.669  -0.953  16.929  0.00  0.00     0.051 A 
ENDBRANCH   1  13
TORSDOF 4
ENDMDL
MODEL 9
REMARK VINA RESULT:      -6.6      4.320      6.424
REMARK  4 active torsions:
REMARK  status: ('A' for Active; 'I' for Inactive)
REMARK    1  A    between atoms: O2_2  and  C3_3 
REMARK    2  A    between atoms: C3_3  and  C5_5 
REMARK    3  A    between atoms: C5_5  and  C7_6 
REMARK    4  A    between atoms: C5_5  and  N14_13 
ROOT
ATOM      1  C5  ZIN A   1      18.675  -3.644   7.312  0.00  0.00     0.356 C 
ENDROOT
BRANCH   1   2
ATOM      2  C3  ZIN A   1      19.823  -4.539   6.918  0.00  0.00     0.297 C 
ATOM      3  O4  ZIN A   1      20.874  -4.056   6.571  0.00  0.00    -0.262 OA
BRANCH   2   4
ATOM      4  O2  ZIN A   1      19.677  -5.873   6.954  0.00  0.00    -0.325 OA
ATOM      5  C1  ZIN A   1      18.340  -6.395   6.743  0.00  0.00     0.213 C 
ENDBRANCH   2   4
ENDBRANCH   1   2
BRANCH   1   6
ATOM      6  C7  ZIN A   1      18.617  -2.463   6.378  0.00  0.00     0.006 A 
ATOM      7  C12 ZIN A   1      17.976  -2.577   5.157  0.00  0.00     0.043 A 
ATOM      8  C11 ZIN A   1      17.917  -1.492   4.302  0.00  0.00     0.024 A 
ATOM      9 Cl13 ZIN A   1      17.234  -4.080   4.704  0.00  0.00    -0.084 Cl
ATOM     10  C10 ZIN A   1      18.508  -0.296   4.663  0.00  0.00     0.002 A 
ATOM     11  C9  ZIN A   1      19.153  -0.183   5.881  0.00  0.00     0.001 A 
ATOM     12  C8  ZIN A   1      19.208  -1.266   6.738  0.00  0.00     0.011 A 
ENDBRANCH   1   6
BRANCH   1  13
ATOM     13  N14 ZIN A   1      18.874  -3.171   8.688  0.00  0.00     0.111 N 
ATOM     14  C22 ZIN A   1      17.710  -2.407   9.156  0.00  0.00     0.313 C 
ATOM     15  C18 ZIN A   1      17.939  -2.011  10.608  0.00  0.00    -0.017 A 
ATOM     16  C17 ZIN A   1      18.865  -2.617  11.377  0.00  0.00    -0.008 A 
ATOM     17  C19 ZIN A   1      17.234  -1.010  11.267  0.00  0.00     0.017 A 
ATOM     18  C16 ZIN A   1      19.763  -3.737  10.897  0.00  0.00     0.077 C 
ATOM     19  S21 ZIN A   1      18.863  -1.914  12.987  0.00  0.00    -0.106 SA
ATOM     20  C15 ZIN A   1      19.176  -4.290   9.592  0.00  0.00     0.279 C 
ATOM     21  C20 ZIN A   1      17.576  -0.806  12.536  0.00  0.00     0.051 A 
ENDBRANCH   1  13
TORSDOF 4
ENDMDL
