MODEL 1
REMARK VINA RESULT:      -8.8      0.000      0.000
REMARK  7 active torsions:
REMARK  status: ('A' for Active; 'I' for Inactive)
REMARK    1  A    between atoms: C2_2  and  C4_4 
REMARK    2  A    between atoms: C6_6  and  N7_7 
REMARK    3  A    between atoms: N7_7  and  N8_8 
REMARK    4  A    between atoms: N8_8  and  C9_9 
REMARK    5  A    between atoms: C12_12  and  S13_13 
REMARK    6  A    between atoms: S13_13  and  N16_16 
REMARK    7  A    between atoms: N16_16  and  C17_17 
ROOT
ATOM      1  C9  <0> d   1      18.323  -0.048   6.930  0.00  0.00     0.050 A 
ATOM      2  C10 <0> d   1      19.081   1.080   7.227  0.00  0.00     0.032 A 
ATOM      3  C11 <0> d   1      18.954   1.691   8.459  0.00  0.00     0.027 A 
ATOM      4  C12 <0> d   1      18.074   1.183   9.397  0.00  0.00     0.081 A 
ATOM      5  C23 <0> d   1      17.317   0.061   9.105  0.00  0.00     0.027 A 
ATOM      6  C24 <0> d   1      17.435  -0.553   7.874  0.00  0.00     0.032 A 
ENDROOT
BRANCH   1   7
ATOM      7  N8  <0> d   1      18.449  -0.666   5.689  0.00  0.00    -0.278 N 
ATOM      8  H30 <0> d   1      17.812  -0.474   4.984  0.00  0.00     0.189 HD
BRANCH   7   9
ATOM      9  N7  <0> d   1      19.414  -1.496   5.476  0.00  0.00    -0.175 NA
BRANCH   9  10
ATOM     10  C6  <0> d   1      19.236  -2.798   5.699  0.00  0.00     0.078 A 
ATOM     11  C5  <0> d   1      19.922  -3.424   6.755  0.00  0.00     0.056 A 
ATOM     12  C4  <0> d   1      19.736  -4.779   6.987  0.00  0.00     0.092 A 
ATOM     13  C27 <0> d   1      18.826  -5.531   6.116  0.00  0.00     0.189 A 
ATOM     14  C26 <0> d   1      18.155  -4.859   5.072  0.00  0.00     0.058 A 
ATOM     15  O28 <0> d   1      18.644  -6.725   6.299  0.00  0.00    -0.287 OA
ATOM     16  C25 <0> d   1      18.357  -3.536   4.871  0.00  0.00     0.037 A 
BRANCH  12  17
ATOM     17  C2  <0> d   1      20.443  -5.452   8.085  0.00  0.00     0.213 C 
ATOM     18  O1  <0> d   1      19.936  -5.504   9.198  0.00  0.00    -0.644 OA
ATOM     19  O3  <0> d   1      21.537  -5.963   7.885  0.00  0.00    -0.644 OA
ENDBRANCH  12  17
ENDBRANCH   9  10
ENDBRANCH   7   9
ENDBRANCH   1   7
BRANCH   4  20
ATOM     20  S13 <0> d   1      17.914   1.965  10.967  0.00  0.00     0.285 S 
ATOM     21  O14 <0> d   1      19.207   1.950  11.557  0.00  0.00    -0.198 OA
ATOM     22  O15 <0> d   1      17.175   3.159  10.747  0.00  0.00    -0.198 OA
BRANCH  20  23
ATOM     23  N16 <0> d   1      16.959   0.991  11.906  0.00  0.00    -0.140 NA
BRANCH  23  24
ATOM     24  C17 <0> d   1      17.528   0.234  12.925  0.00  0.00     0.161 A 
ATOM     25  N22 <0> d   1      17.514   0.691  14.167  0.00  0.00    -0.241 NA
ATOM     26  C21 <0> d   1      18.038   0.003  15.163  0.00  0.00     0.119 A 
ATOM     27  C20 <0> d   1      18.634  -1.223  14.941  0.00  0.00     0.019 A 
ATOM     28  C19 <0> d   1      18.675  -1.735  13.651  0.00  0.00     0.005 A 
ATOM     29  C18 <0> d   1      18.113  -0.993  12.628  0.00  0.00     0.053 A 
ENDBRANCH  23  24
ENDBRANCH  20  23
ENDBRANCH   4  20
TORSDOF 7
ENDMDL
MODEL 2
REMARK VINA RESULT:      -8.4      1.574      2.618
REMARK  7 active torsions:
REMARK  status: ('A' for Active; 'I' for Inactive)
REMARK    1  A    between atoms: C2_2  and  C4_4 
REMARK    2  A    between atoms: C6_6  and  N7_7 
REMARK    3  A    between atoms: N7_7  and  N8_8 
REMARK    4  A    between atoms: N8_8  and  C9_9 
REMARK    5  A    between atoms: C12_12  and  S13_13 
REMARK    6  A    between atoms: S13_13  and  N16_16 
REMARK    7  A    between atoms: N16_16  and  C17_17 
ROOT
ATOM      1  C9  <0> d   1      18.548   0.501   6.866  0.00  0.00     0.050 A 
ATOM      2  C10 <0> d   1      19.208   1.639   7.318  0.00  0.00     0.032 A 
ATOM      3  C11 <0> d   1      18.998   2.091   8.606  0.00  0.00     0.027 A 
ATOM      4  C12 <0> d   1      18.133   1.415   9.445  0.00  0.00     0.081 A 
ATOM      5  C23 <0> d   1      17.474   0.283   8.999  0.00  0.00     0.027 A 
ATOM      6  C24 <0> d   1      17.675  -0.174   7.712  0.00  0.00     0.032 A 
ENDROOT
BRANCH   1   7
ATOM      7  N8  <0> d   1      18.759   0.042   5.568  0.00  0.00    -0.278 N 
ATOM      8  H30 <0> d   1      18.318   0.478   4.822  0.00  0.00     0.189 HD
BRANCH   7   9
ATOM      9  N7  <0> d   1      19.538  -0.964   5.357  0.00  0.00    -0.175 NA
BRANCH   9  10
ATOM     10  C6  <0> d   1      19.033  -2.195   5.278  0.00  0.00     0.078 A 
ATOM     11  C5  <0> d   1      18.019  -2.473   4.343  0.00  0.00     0.056 A 
ATOM     12  C4  <0> d   1      17.495  -3.754   4.260  0.00  0.00     0.092 A 
ATOM     13  C27 <0> d   1      18.009  -4.793   5.160  0.00  0.00     0.189 A 
ATOM     14  C26 <0> d   1      19.031  -4.468   6.078  0.00  0.00     0.058 A 
ATOM     15  O28 <0> d   1      17.565  -5.929   5.108  0.00  0.00    -0.287 OA
ATOM     16  C25 <0> d   1      19.524  -3.209   6.134  0.00  0.00     0.037 A 
BRANCH  12  17
ATOM     17  C2  <0> d   1      16.436  -4.065   3.292  0.00  0.00     0.213 C 
ATOM     18  O1  <0> d   1      15.278  -4.189   3.670  0.00  0.00    -0.644 OA
ATOM     19  O3  <0> d   1      16.710  -4.197   2.107  0.00  0.00    -0.644 OA
ENDBRANCH  12  17
ENDBRANCH   9  10
ENDBRANCH   7   9
ENDBRANCH   1   7
BRANCH   4  20
ATOM     20  S13 <0> d   1      17.867   1.996  11.087  0.00  0.00     0.285 S 
ATOM     21  O14 <0> d   1      19.141   2.018  11.717  0.00  0.00    -0.198 OA
ATOM     22  O15 <0> d   1      17.034   3.142  10.977  0.00  0.00    -0.198 OA
BRANCH  20  23
ATOM     23  N16 <0> d   1      16.975   0.845  11.876  0.00  0.00    -0.140 NA
BRANCH  23  24
ATOM     24  C17 <0> d   1      17.531   0.147  12.943  0.00  0.00     0.161 A 
ATOM     25  N22 <0> d   1      17.443   0.642  14.167  0.00  0.00    -0.241 NA
ATOM     26  C21 <0> d   1      17.952   0.009  15.208  0.00  0.00     0.119 A 
ATOM     27  C20 <0> d   1      18.608  -1.196  15.052  0.00  0.00     0.019 A 
ATOM     28  C19 <0> d   1      18.726  -1.747  13.783  0.00  0.00     0.005 A 
ATOM     29  C18 <0> d   1      18.179  -1.063  12.713  0.00  0.00     0.053 A 
ENDBRANCH  23  24
ENDBRANCH  20  23
ENDBRANCH   4  20
TORSDOF 7
ENDMDL
MODEL 3
REMARK VINA RESULT:      -8.2      2.366      3.146
REMARK  7 active torsions:
REMARK  status: ('A' for Active; 'I' for Inactive)
REMARK    1  A    between atoms: C2_2  and  C4_4 
REMARK    2  A    between atoms: C6_6  and  N7_7 
REMARK    3  A    between atoms: N7_7  and  N8_8 
REMARK    4  A    between atoms: N8_8  and  C9_9 
REMARK    5  A    between atoms: C12_12  and  S13_13 
REMARK    6  A    between atoms: S13_13  and  N16_16 
REMARK    7  A    between atoms: N16_16  and  C17_17 
ROOT
ATOM      1  C9  <0> d   1      18.223  -0.201   6.817  0.00  0.00     0.050 A 
ATOM      2  C10 <0> d   1      17.404  -0.689   7.829  0.00  0.00     0.032 A 
ATOM      3  C11 <0> d   1      17.399  -0.079   9.067  0.00  0.00     0.027 A 
ATOM      4  C12 <0> d   1      18.208   1.018   9.301  0.00  0.00     0.081 A 
ATOM      5  C23 <0> d   1      19.025   1.507   8.297  0.00  0.00     0.027 A 
ATOM      6  C24 <0> d   1      19.039   0.899   7.058  0.00  0.00     0.032 A 
ENDROOT
BRANCH   1   7
ATOM      7  N8  <0> d   1      18.230  -0.815   5.567  0.00  0.00    -0.278 N 
ATOM      8  H30 <0> d   1      17.523  -0.627   4.930  0.00  0.00     0.189 HD
BRANCH   7   9
ATOM      9  N7  <0> d   1      19.176  -1.634   5.255  0.00  0.00    -0.175 NA
BRANCH   9  10
ATOM     10  C6  <0> d   1      19.064  -2.928   5.553  0.00  0.00     0.078 A 
ATOM     11  C5  <0> d   1      19.859  -3.480   6.573  0.00  0.00     0.056 A 
ATOM     12  C4  <0> d   1      19.741  -4.826   6.884  0.00  0.00     0.092 A 
ATOM     13  C27 <0> d   1      18.787  -5.649   6.131  0.00  0.00     0.189 A 
ATOM     14  C26 <0> d   1      18.006  -5.050   5.119  0.00  0.00     0.058 A 
ATOM     15  O28 <0> d   1      18.663  -6.837   6.384  0.00  0.00    -0.287 OA
ATOM     16  C25 <0> d   1      18.143  -3.733   4.840  0.00  0.00     0.037 A 
BRANCH  12  17
ATOM     17  C2  <0> d   1      20.563  -5.422   7.946  0.00  0.00     0.213 C 
ATOM     18  O1  <0> d   1      21.661  -5.893   7.678  0.00  0.00    -0.644 OA
ATOM     19  O3  <0> d   1      20.152  -5.443   9.098  0.00  0.00    -0.644 OA
ENDBRANCH  12  17
ENDBRANCH   9  10
ENDBRANCH   7   9
ENDBRANCH   1   7
BRANCH   4  20
ATOM     20  S13 <0> d   1      18.199   1.794  10.882  0.00  0.00     0.285 S 
ATOM     21  O14 <0> d   1      16.971   1.434  11.501  0.00  0.00    -0.198 OA
ATOM     22  O15 <0> d   1      19.469   1.532  11.465  0.00  0.00    -0.198 OA
BRANCH  20  23
ATOM     23  N16 <0> d   1      18.131   3.429  10.626  0.00  0.00    -0.140 NA
BRANCH  23  24
ATOM     24  C17 <0> d   1      17.786   4.283  11.668  0.00  0.00     0.161 A 
ATOM     25  N22 <0> d   1      16.550   4.744  11.756  0.00  0.00    -0.241 NA
ATOM     26  C21 <0> d   1      16.180   5.552  12.732  0.00  0.00     0.119 A 
ATOM     27  C20 <0> d   1      17.081   5.956  13.697  0.00  0.00     0.019 A 
ATOM     28  C19 <0> d   1      18.391   5.498  13.638  0.00  0.00     0.005 A 
ATOM     29  C18 <0> d   1      18.748   4.649  12.606  0.00  0.00     0.053 A 
ENDBRANCH  23  24
ENDBRANCH  20  23
ENDBRANCH   4  20
TORSDOF 7
ENDMDL
MODEL 4
REMARK VINA RESULT:      -8.0      4.352     10.352
REMARK  7 active torsions:
REMARK  status: ('A' for Active; 'I' for Inactive)
REMARK    1  A    between atoms: C2_2  and  C4_4 
REMARK    2  A    between atoms: C6_6  and  N7_7 
REMARK    3  A    between atoms: N7_7  and  N8_8 
REMARK    4  A    between atoms: N8_8  and  C9_9 
REMARK    5  A    between atoms: C12_12  and  S13_13 
REMARK    6  A    between atoms: S13_13  and  N16_16 
REMARK    7  A    between atoms: N16_16  and  C17_17 
ROOT
ATOM      1  C9  <0> d   1      18.427   0.460  16.142  0.00  0.00     0.050 A 
ATOM      2  C10 <0> d   1      19.018  -0.787  15.965  0.00  0.00     0.032 A 
ATOM      3  C11 <0> d   1      18.986  -1.395  14.725  0.00  0.00     0.027 A 
ATOM      4  C12 <0> d   1      18.367  -0.765  13.661  0.00  0.00     0.081 A 
ATOM      5  C23 <0> d   1      17.777   0.475  13.833  0.00  0.00     0.027 A 
ATOM      6  C24 <0> d   1      17.801   1.087  15.070  0.00  0.00     0.032 A 
ENDROOT
BRANCH   1   7
ATOM      7  N8  <0> d   1      18.458   1.075  17.391  0.00  0.00    -0.278 N 
ATOM      8  H30 <0> d   1      17.789   0.854  18.057  0.00  0.00     0.189 HD
BRANCH   7   9
ATOM      9  N7  <0> d   1      19.376   1.939  17.662  0.00  0.00    -0.175 NA
BRANCH   9  10
ATOM     10  C6  <0> d   1      19.177   3.230  17.395  0.00  0.00     0.078 A 
ATOM     11  C5  <0> d   1      19.987   3.877  16.444  0.00  0.00     0.056 A 
ATOM     12  C4  <0> d   1      19.779   5.220  16.165  0.00  0.00     0.092 A 
ATOM     13  C27 <0> d   1      18.717   5.939  16.879  0.00  0.00     0.189 A 
ATOM     14  C26 <0> d   1      17.926   5.245  17.821  0.00  0.00     0.058 A 
ATOM     15  O28 <0> d   1      18.512   7.121  16.653  0.00  0.00    -0.287 OA
ATOM     16  C25 <0> d   1      18.153   3.935  18.070  0.00  0.00     0.037 A 
BRANCH  12  17
ATOM     17  C2  <0> d   1      20.613   5.915  15.176  0.00  0.00     0.213 C 
ATOM     18  O1  <0> d   1      21.725   6.319  15.489  0.00  0.00    -0.644 OA
ATOM     19  O3  <0> d   1      20.198   6.085  14.038  0.00  0.00    -0.644 OA
ENDBRANCH  12  17
ENDBRANCH   9  10
ENDBRANCH   7   9
ENDBRANCH   1   7
BRANCH   4  20
ATOM     20  S13 <0> d   1      18.328  -1.544  12.082  0.00  0.00     0.285 S 
ATOM     21  O14 <0> d   1      16.956  -1.694  11.741  0.00  0.00    -0.198 OA
ATOM     22  O15 <0> d   1      19.259  -0.845  11.266  0.00  0.00    -0.198 OA
BRANCH  20  23
ATOM     23  N16 <0> d   1      18.931  -3.074  12.274  0.00  0.00    -0.140 NA
BRANCH  23  24
ATOM     24  C17 <0> d   1      18.568  -4.082  11.387  0.00  0.00     0.161 A 
ATOM     25  N22 <0> d   1      19.110  -4.121  10.181  0.00  0.00    -0.241 NA
ATOM     26  C21 <0> d   1      18.796  -5.063   9.312  0.00  0.00     0.119 A 
ATOM     27  C20 <0> d   1      17.875  -6.041   9.629  0.00  0.00     0.019 A 
ATOM     28  C19 <0> d   1      17.279  -6.032  10.883  0.00  0.00     0.005 A 
ATOM     29  C18 <0> d   1      17.632  -5.036  11.775  0.00  0.00     0.053 A 
ENDBRANCH  23  24
ENDBRANCH  20  23
ENDBRANCH   4  20
TORSDOF 7
ENDMDL
MODEL 5
REMARK VINA RESULT:      -7.9      3.853     10.236
REMARK  7 active torsions:
REMARK  status: ('A' for Active; 'I' for Inactive)
REMARK    1  A    between atoms: C2_2  and  C4_4 
REMARK    2  A    between atoms: C6_6  and  N7_7 
REMARK    3  A    between atoms: N7_7  and  N8_8 
REMARK    4  A    between atoms: N8_8  and  C9_9 
REMARK    5  A    between atoms: C12_12  and  S13_13 
REMARK    6  A    between atoms: S13_13  and  N16_16 
REMARK    7  A    between atoms: N16_16  and  C17_17 
ROOT
ATOM      1  C9  <0> d   1      18.298   0.317  15.760  0.00  0.00     0.050 A 
ATOM      2  C10 <0> d   1      17.679   0.862  14.640  0.00  0.00     0.032 A 
ATOM      3  C11 <0> d   1      17.788   0.230  13.417  0.00  0.00     0.027 A 
ATOM      4  C12 <0> d   1      18.511  -0.944  13.306  0.00  0.00     0.081 A 
ATOM      5  C23 <0> d   1      19.128  -1.489  14.418  0.00  0.00     0.027 A 
ATOM      6  C24 <0> d   1      19.028  -0.860  15.643  0.00  0.00     0.032 A 
ENDROOT
BRANCH   1   7
ATOM      7  N8  <0> d   1      18.189   0.953  16.995  0.00  0.00    -0.278 N 
ATOM      8  H30 <0> d   1      17.407   0.805  17.549  0.00  0.00     0.189 HD
BRANCH   7   9
ATOM      9  N7  <0> d   1      19.128   1.738  17.402  0.00  0.00    -0.175 NA
BRANCH   9  10
ATOM     10  C6  <0> d   1      19.006   3.057  17.254  0.00  0.00     0.078 A 
ATOM     11  C5  <0> d   1      19.811   3.731  16.318  0.00  0.00     0.056 A 
ATOM     12  C4  <0> d   1      19.683   5.103  16.165  0.00  0.00     0.092 A 
ATOM     13  C27 <0> d   1      18.709   5.824  16.992  0.00  0.00     0.189 A 
ATOM     14  C26 <0> d   1      17.919   5.104  17.915  0.00  0.00     0.058 A 
ATOM     15  O28 <0> d   1      18.575   7.032  16.878  0.00  0.00    -0.287 OA
ATOM     16  C25 <0> d   1      18.067   3.765  18.041  0.00  0.00     0.037 A 
BRANCH  12  17
ATOM     17  C2  <0> d   1      20.514   5.826  15.193  0.00  0.00     0.213 C 
ATOM     18  O1  <0> d   1      20.131   5.955  14.037  0.00  0.00    -0.644 OA
ATOM     19  O3  <0> d   1      21.586   6.303  15.539  0.00  0.00    -0.644 OA
ENDBRANCH  12  17
ENDBRANCH   9  10
ENDBRANCH   7   9
ENDBRANCH   1   7
BRANCH   4  20
ATOM     20  S13 <0> d   1      18.648  -1.747  11.744  0.00  0.00     0.285 S 
ATOM     21  O14 <0> d   1      19.132  -3.057  12.007  0.00  0.00    -0.198 OA
ATOM     22  O15 <0> d   1      17.432  -1.491  11.054  0.00  0.00    -0.198 OA
BRANCH  20  23
ATOM     23  N16 <0> d   1      19.839  -0.969  10.896  0.00  0.00    -0.140 NA
BRANCH  23  24
ATOM     24  C17 <0> d   1      19.514  -0.220   9.770  0.00  0.00     0.161 A 
ATOM     25  N22 <0> d   1      19.349  -0.825   8.605  0.00  0.00    -0.241 NA
ATOM     26  C21 <0> d   1      19.036  -0.152   7.514  0.00  0.00     0.119 A 
ATOM     27  C20 <0> d   1      18.879   1.220   7.549  0.00  0.00     0.019 A 
ATOM     28  C19 <0> d   1      19.049   1.893   8.751  0.00  0.00     0.005 A 
ATOM     29  C18 <0> d   1      19.372   1.160   9.879  0.00  0.00     0.053 A 
ENDBRANCH  23  24
ENDBRANCH  20  23
ENDBRANCH   4  20
TORSDOF 7
ENDMDL
MODEL 6
REMARK VINA RESULT:      -7.9      3.275      4.821
REMARK  7 active torsions:
REMARK  status: ('A' for Active; 'I' for Inactive)
REMARK    1  A    between atoms: C2_2  and  C4_4 
REMARK    2  A    between atoms: C6_6  and  N7_7 
REMARK    3  A    between atoms: N7_7  and  N8_8 
REMARK    4  A    between atoms: N8_8  and  C9_9 
REMARK    5  A    between atoms: C12_12  and  S13_13 
REMARK    6  A    between atoms: S13_13  and  N16_16 
REMARK    7  A    between atoms: N16_16  and  C17_17 
ROOT
ATOM      1  C9  <0> d   1      18.540  -2.786  11.279  0.00  0.00     0.050 A 
ATOM      2  C10 <0> d   1      17.433  -1.952  11.393  0.00  0.00     0.032 A 
ATOM      3  C11 <0> d   1      17.364  -1.037  12.425  0.00  0.00     0.027 A 
ATOM      4  C12 <0> d   1      18.394  -0.949  13.343  0.00  0.00     0.081 A 
ATOM      5  C23 <0> d   1      19.497  -1.778  13.233  0.00  0.00     0.027 A 
ATOM      6  C24 <0> d   1      19.571  -2.698  12.207  0.00  0.00     0.032 A 
ENDROOT
BRANCH   1   7
ATOM      7  N8  <0> d   1      18.613  -3.710  10.239  0.00  0.00    -0.278 N 
ATOM      8  H30 <0> d   1      19.232  -4.455  10.295  0.00  0.00     0.189 HD
BRANCH   7   9
ATOM      9  N7  <0> d   1      17.857  -3.577   9.203  0.00  0.00    -0.175 NA
BRANCH   9  10
ATOM     10  C6  <0> d   1      18.342  -3.028   8.089  0.00  0.00     0.078 A 
ATOM     11  C5  <0> d   1      18.156  -1.654   7.851  0.00  0.00     0.056 A 
ATOM     12  C4  <0> d   1      18.662  -1.084   6.692  0.00  0.00     0.092 A 
ATOM     13  C27 <0> d   1      19.378  -1.934   5.735  0.00  0.00     0.189 A 
ATOM     14  C26 <0> d   1      19.545  -3.307   6.019  0.00  0.00     0.058 A 
ATOM     15  O28 <0> d   1      19.834  -1.458   4.707  0.00  0.00    -0.287 OA
ATOM     16  C25 <0> d   1      19.040  -3.834   7.159  0.00  0.00     0.037 A 
BRANCH  12  17
ATOM     17  C2  <0> d   1      18.478   0.349   6.424  0.00  0.00     0.213 C 
ATOM     18  O1  <0> d   1      17.534   0.727   5.743  0.00  0.00    -0.644 OA
ATOM     19  O3  <0> d   1      19.266   1.163   6.886  0.00  0.00    -0.644 OA
ENDBRANCH  12  17
ENDBRANCH   9  10
ENDBRANCH   7   9
ENDBRANCH   1   7
BRANCH   4  20
ATOM     20  S13 <0> d   1      18.302   0.220  14.658  0.00  0.00     0.285 S 
ATOM     21  O14 <0> d   1      17.423  -0.334  15.627  0.00  0.00    -0.198 OA
ATOM     22  O15 <0> d   1      19.639   0.602  14.950  0.00  0.00    -0.198 OA
BRANCH  20  23
ATOM     23  N16 <0> d   1      17.550   1.570  14.062  0.00  0.00    -0.140 NA
BRANCH  23  24
ATOM     24  C17 <0> d   1      18.307   2.616  13.545  0.00  0.00     0.161 A 
ATOM     25  N22 <0> d   1      18.478   3.717  14.259  0.00  0.00    -0.241 NA
ATOM     26  C21 <0> d   1      19.193   4.730  13.808  0.00  0.00     0.119 A 
ATOM     27  C20 <0> d   1      19.783   4.681  12.560  0.00  0.00     0.019 A 
ATOM     28  C19 <0> d   1      19.623   3.546  11.777  0.00  0.00     0.005 A 
ATOM     29  C18 <0> d   1      18.872   2.498  12.279  0.00  0.00     0.053 A 
ENDBRANCH  23  24
ENDBRANCH  20  23
ENDBRANCH   4  20
TORSDOF 7
ENDMDL
MODEL 7
REMARK VINA RESULT:      -7.8      2.960      4.381
REMARK  7 active torsions:
REMARK  status: ('A' for Active; 'I' for Inactive)
REMARK    1  A    between atoms: C2_2  and  C4_4 
REMARK    2  A    between atoms: C6_6  and  N7_7 
REMARK    3  A    between atoms: N7_7  and  N8_8 
REMARK    4  A    between atoms: N8_8  and  C9_9 
REMARK    5  A    between atoms: C12_12  and  S13_13 
REMARK    6  A    between atoms: S13_13  and  N16_16 
REMARK    7  A    between atoms: N16_16  and  C17_17 
ROOT
ATOM      1  C9  <0> d   1      18.910  -4.234  10.554  0.00  0.00     0.050 A 
ATOM      2  C10 <0> d   1      17.672  -3.626  10.734  0.00  0.00     0.032 A 
ATOM      3  C11 <0> d   1      17.557  -2.534  11.572  0.00  0.00     0.027 A 
ATOM      4  C12 <0> d   1      18.670  -2.046  12.231  0.00  0.00     0.081 A 
ATOM      5  C23 <0> d   1      19.903  -2.649  12.055  0.00  0.00     0.027 A 
ATOM      6  C24 <0> d   1      20.026  -3.743  11.223  0.00  0.00     0.032 A 
ENDROOT
BRANCH   1   7
ATOM      7  N8  <0> d   1      19.029  -5.336   9.709  0.00  0.00    -0.278 N 
ATOM      8  H30 <0> d   1      18.520  -6.141   9.888  0.00  0.00     0.189 HD
BRANCH   7   9
ATOM      9  N7  <0> d   1      19.817  -5.285   8.690  0.00  0.00    -0.175 NA
BRANCH   9  10
ATOM     10  C6  <0> d   1      19.341  -4.932   7.495  0.00  0.00     0.078 A 
ATOM     11  C5  <0> d   1      19.432  -3.592   7.077  0.00  0.00     0.056 A 
ATOM     12  C4  <0> d   1      18.937  -3.226   5.834  0.00  0.00     0.092 A 
ATOM     13  C27 <0> d   1      18.321  -4.251   4.984  0.00  0.00     0.189 A 
ATOM     14  C26 <0> d   1      18.257  -5.584   5.444  0.00  0.00     0.058 A 
ATOM     15  O28 <0> d   1      17.877  -3.956   3.885  0.00  0.00    -0.287 OA
ATOM     16  C25 <0> d   1      18.750  -5.911   6.662  0.00  0.00     0.037 A 
BRANCH  12  17
ATOM     17  C2  <0> d   1      19.022  -1.833   5.378  0.00  0.00     0.213 C 
ATOM     18  O1  <0> d   1      18.268  -0.990   5.845  0.00  0.00    -0.644 OA
ATOM     19  O3  <0> d   1      19.850  -1.514   4.536  0.00  0.00    -0.644 OA
ENDBRANCH  12  17
ENDBRANCH   9  10
ENDBRANCH   7   9
ENDBRANCH   1   7
BRANCH   4  20
ATOM     20  S13 <0> d   1      18.519  -0.653  13.299  0.00  0.00     0.285 S 
ATOM     21  O14 <0> d   1      18.017  -1.146  14.534  0.00  0.00    -0.198 OA
ATOM     22  O15 <0> d   1      19.736   0.072  13.188  0.00  0.00    -0.198 OA
BRANCH  20  23
ATOM     23  N16 <0> d   1      17.336   0.321  12.669  0.00  0.00    -0.140 NA
BRANCH  23  24
ATOM     24  C17 <0> d   1      17.671   1.325  11.767  0.00  0.00     0.161 A 
ATOM     25  N22 <0> d   1      17.711   2.584  12.172  0.00  0.00    -0.241 NA
ATOM     26  C21 <0> d   1      18.028   3.566  11.350  0.00  0.00     0.119 A 
ATOM     27  C20 <0> d   1      18.321   3.313  10.024  0.00  0.00     0.019 A 
ATOM     28  C19 <0> d   1      18.285   2.006   9.558  0.00  0.00     0.005 A 
ATOM     29  C18 <0> d   1      17.954   0.997  10.444  0.00  0.00     0.053 A 
ENDBRANCH  23  24
ENDBRANCH  20  23
ENDBRANCH   4  20
TORSDOF 7
ENDMDL
MODEL 8
REMARK VINA RESULT:      -7.8      3.478      9.568
REMARK  7 active torsions:
REMARK  status: ('A' for Active; 'I' for Inactive)
REMARK    1  A    between atoms: C2_2  and  C4_4 
REMARK    2  A    between atoms: C6_6  and  N7_7 
REMARK    3  A    between atoms: N7_7  and  N8_8 
REMARK    4  A    between atoms: N8_8  and  C9_9 
REMARK    5  A    between atoms: C12_12  and  S13_13 
REMARK    6  A    between atoms: S13_13  and  N16_16 
REMARK    7  A    between atoms: N16_16  and  C17_17 
ROOT
ATOM      1  C9  <0> d   1      19.001  -2.318  12.582  0.00  0.00     0.050 A 
ATOM      2  C10 <0> d   1      17.690  -2.573  12.193  0.00  0.00     0.032 A 
ATOM      3  C11 <0> d   1      17.421  -3.598  11.307  0.00  0.00     0.027 A 
ATOM      4  C12 <0> d   1      18.454  -4.370  10.807  0.00  0.00     0.081 A 
ATOM      5  C23 <0> d   1      19.759  -4.119  11.192  0.00  0.00     0.027 A 
ATOM      6  C24 <0> d   1      20.036  -3.094  12.073  0.00  0.00     0.032 A 
ENDROOT
BRANCH   1   7
ATOM      7  N8  <0> d   1      19.275  -1.285  13.475  0.00  0.00    -0.278 N 
ATOM      8  H30 <0> d   1      20.165  -0.901  13.514  0.00  0.00     0.189 HD
BRANCH   7   9
ATOM      9  N7  <0> d   1      18.346  -0.838  14.251  0.00  0.00    -0.175 NA
BRANCH   9  10
ATOM     10  C6  <0> d   1      18.664  -0.267  15.413  0.00  0.00     0.078 A 
ATOM     11  C5  <0> d   1      18.800   1.130  15.488  0.00  0.00     0.056 A 
ATOM     12  C4  <0> d   1      19.130   1.723  16.698  0.00  0.00     0.092 A 
ATOM     13  C27 <0> d   1      19.337   0.872  17.875  0.00  0.00     0.189 A 
ATOM     14  C26 <0> d   1      19.184  -0.526  17.752  0.00  0.00     0.058 A 
ATOM     15  O28 <0> d   1      19.628   1.368  18.952  0.00  0.00    -0.287 OA
ATOM     16  C25 <0> d   1      18.860  -1.075  16.558  0.00  0.00     0.037 A 
BRANCH  12  17
ATOM     17  C2  <0> d   1      19.278   3.181  16.798  0.00  0.00     0.213 C 
ATOM     18  O1  <0> d   1      18.298   3.881  17.018  0.00  0.00    -0.644 OA
ATOM     19  O3  <0> d   1      20.380   3.695  16.666  0.00  0.00    -0.644 OA
ENDBRANCH  12  17
ENDBRANCH   9  10
ENDBRANCH   7   9
ENDBRANCH   1   7
BRANCH   4  20
ATOM     20  S13 <0> d   1      18.107  -5.676   9.678  0.00  0.00     0.285 S 
ATOM     21  O14 <0> d   1      19.361  -6.116   9.174  0.00  0.00    -0.198 OA
ATOM     22  O15 <0> d   1      17.186  -6.539  10.332  0.00  0.00    -0.198 OA
BRANCH  20  23
ATOM     23  N16 <0> d   1      17.295  -5.013   8.396  0.00  0.00    -0.140 NA
BRANCH  23  24
ATOM     24  C17 <0> d   1      17.952  -4.143   7.532  0.00  0.00     0.161 A 
ATOM     25  N22 <0> d   1      18.406  -4.590   6.372  0.00  0.00    -0.241 NA
ATOM     26  C21 <0> d   1      19.030  -3.797   5.522  0.00  0.00     0.119 A 
ATOM     27  C20 <0> d   1      19.243  -2.465   5.820  0.00  0.00     0.019 A 
ATOM     28  C19 <0> d   1      18.786  -1.959   7.029  0.00  0.00     0.005 A 
ATOM     29  C18 <0> d   1      18.131  -2.813   7.898  0.00  0.00     0.053 A 
ENDBRANCH  23  24
ENDBRANCH  20  23
ENDBRANCH   4  20
TORSDOF 7
ENDMDL
MODEL 9
REMARK VINA RESULT:      -7.7      3.308      9.104
REMARK  7 active torsions:
REMARK  status: ('A' for Active; 'I' for Inactive)
REMARK    1  A    between atoms: C2_2  and  C4_4 
REMARK    2  A    between atoms: C6_6  and  N7_7 
REMARK    3  A    between atoms: N7_7  and  N8_8 
REMARK    4  A    between atoms: N8_8  and  C9_9 
REMARK    5  A    between atoms: C12_12  and  S13_13 
REMARK    6  A    between atoms: S13_13  and  N16_16 
REMARK    7  A    between atoms: N16_16  and  C17_17 
ROOT
ATOM      1  C9  <0> d   1      19.491  -3.060  11.553  0.00  0.00     0.050 A 
ATOM      2  C10 <0> d   1      20.153  -4.256  11.296  0.00  0.00     0.032 A 
ATOM      3  C11 <0> d   1      19.835  -4.991  10.172  0.00  0.00     0.027 A 
ATOM      4  C12 <0> d   1      18.859  -4.540   9.301  0.00  0.00     0.081 A 
ATOM      5  C23 <0> d   1      18.198  -3.351   9.554  0.00  0.00     0.027 A 
ATOM      6  C24 <0> d   1      18.507  -2.612  10.678  0.00  0.00     0.032 A 
ENDROOT
BRANCH   1   7
ATOM      7  N8  <0> d   1      19.809  -2.315  12.686  0.00  0.00    -0.278 N 
ATOM      8  H30 <0> d   1      20.723  -2.028  12.836  0.00  0.00     0.189 HD
BRANCH   7   9
ATOM      9  N7  <0> d   1      18.889  -2.008  13.536  0.00  0.00    -0.175 NA
BRANCH   9  10
ATOM     10  C6  <0> d   1      18.909  -0.819  14.140  0.00  0.00     0.078 A 
ATOM     11  C5  <0> d   1      18.914  -0.751  15.545  0.00  0.00     0.056 A 
ATOM     12  C4  <0> d   1      18.935   0.486  16.171  0.00  0.00     0.092 A 
ATOM     13  C27 <0> d   1      18.946   1.701  15.348  0.00  0.00     0.189 A 
ATOM     14  C26 <0> d   1      18.945   1.583  13.941  0.00  0.00     0.058 A 
ATOM     15  O28 <0> d   1      18.964   2.803  15.874  0.00  0.00    -0.287 OA
ATOM     16  C25 <0> d   1      18.926   0.361  13.359  0.00  0.00     0.037 A 
BRANCH  12  17
ATOM     17  C2  <0> d   1      18.940   0.580  17.637  0.00  0.00     0.213 C 
ATOM     18  O1  <0> d   1      20.003   0.640  18.242  0.00  0.00    -0.644 OA
ATOM     19  O3  <0> d   1      17.883   0.603  18.252  0.00  0.00    -0.644 OA
ENDBRANCH  12  17
ENDBRANCH   9  10
ENDBRANCH   7   9
ENDBRANCH   1   7
BRANCH   4  20
ATOM     20  S13 <0> d   1      18.457  -5.482   7.868  0.00  0.00     0.285 S 
ATOM     21  O14 <0> d   1      18.886  -6.812   8.128  0.00  0.00    -0.198 OA
ATOM     22  O15 <0> d   1      17.116  -5.149   7.533  0.00  0.00    -0.198 OA
BRANCH  20  23
ATOM     23  N16 <0> d   1      19.402  -4.919   6.630  0.00  0.00    -0.140 NA
BRANCH  23  24
ATOM     24  C17 <0> d   1      19.047  -3.753   5.960  0.00  0.00     0.161 A 
ATOM     25  N22 <0> d   1      19.564  -2.595   6.339  0.00  0.00    -0.241 NA
ATOM     26  C21 <0> d   1      19.259  -1.467   5.727  0.00  0.00     0.119 A 
ATOM     27  C20 <0> d   1      18.372  -1.453   4.668  0.00  0.00     0.019 A 
ATOM     28  C19 <0> d   1      17.803  -2.646   4.243  0.00  0.00     0.005 A 
ATOM     29  C18 <0> d   1      18.147  -3.814   4.901  0.00  0.00     0.053 A 
ENDBRANCH  23  24
ENDBRANCH  20  23
ENDBRANCH   4  20
TORSDOF 7
ENDMDL
