MODEL 1
REMARK VINA RESULT:      -8.4      0.000      0.000
REMARK  4 active torsions:
REMARK  status: ('A' for Active; 'I' for Inactive)
REMARK    1  A    between atoms: O2_2  and  C3_3 
REMARK    2  A    between atoms: C4_4  and  N5_5 
REMARK    3  A    between atoms: N20_19  and  C21_20 
REMARK    4  A    between atoms: C25_24  and  C26_25 
ROOT
ATOM      1  C3  ZIN A   1      18.644  -0.595  10.339  0.00  0.00     0.120 A 
ATOM      2  C4  ZIN A   1      18.793   0.730   9.951  0.00  0.00     0.086 A 
ATOM      3  C15 ZIN A   1      19.136   1.048   8.636  0.00  0.00     0.141 A 
ATOM      4  F16 ZIN A   1      19.278   2.342   8.273  0.00  0.00    -0.204 F 
ATOM      5  C17 ZIN A   1      19.328   0.058   7.713  0.00  0.00     0.062 A 
ATOM      6  C18 ZIN A   1      19.181  -1.280   8.087  0.00  0.00     0.048 A 
ATOM      7  C19 ZIN A   1      18.843  -1.615   9.410  0.00  0.00     0.084 A 
ATOM      8  N20 ZIN A   1      18.697  -2.938   9.780  0.00  0.00    -0.348 N 
ATOM      9  C24 ZIN A   1      18.864  -3.951   8.923  0.00  0.00     0.114 A 
ATOM     10  C25 ZIN A   1      19.198  -3.746   7.597  0.00  0.00     0.107 A 
ATOM     11  C29 ZIN A   1      19.381  -2.368   7.113  0.00  0.00     0.203 A 
ATOM     12  O30 ZIN A   1      19.675  -2.135   5.954  0.00  0.00    -0.286 OA
ENDROOT
BRANCH   2  13
ATOM     13  N5  ZIN A   1      18.600   1.751  10.884  0.00  0.00    -0.275 NA
ATOM     14  C14 ZIN A   1      17.740   2.808  10.336  0.00  0.00     0.128 C 
ATOM     15  C11 ZIN A   1      17.505   3.876  11.406  0.00  0.00     0.195 C 
ATOM     16  N8  ZIN A   1      18.794   4.440  11.826  0.00  0.00    -0.069 N 
ATOM     17  C13 ZIN A   1      16.625   4.988  10.831  0.00  0.00     0.041 C 
ATOM     18  C7  ZIN A   1      19.633   3.376  12.394  0.00  0.00     0.247 C 
ATOM     19  H9  ZIN A   1      18.639   5.153  12.523  0.00  0.00     0.277 HD
ATOM     20  H10 ZIN A   1      19.260   4.846  11.029  0.00  0.00     0.277 HD
ATOM     21  C6  ZIN A   1      19.887   2.304  11.332  0.00  0.00     0.123 C 
ENDBRANCH   2  13
BRANCH   1  22
ATOM     22  O2  ZIN A   1      18.311  -0.897  11.624  0.00  0.00    -0.352 OA
ATOM     23  C1  ZIN A   1      17.036  -0.446  12.087  0.00  0.00     0.210 C 
ENDBRANCH   1  22
BRANCH   8  24
ATOM     24  C21 ZIN A   1      18.343  -3.243  11.168  0.00  0.00     0.090 A 
ATOM     25  C23 ZIN A   1      18.516  -4.689  11.638  0.00  0.00     0.028 A 
ATOM     26  C22 ZIN A   1      17.113  -4.122  11.406  0.00  0.00     0.028 A 
ENDBRANCH   8  24
BRANCH  10  27
ATOM     27  C26 ZIN A   1      19.373  -4.884   6.689  0.00  0.00     0.214 C 
ATOM     28  O27 ZIN A   1      18.593  -5.053   5.761  0.00  0.00    -0.644 OA
ATOM     29  O28 ZIN A   1      20.301  -5.664   6.858  0.00  0.00    -0.644 OA
ENDBRANCH  10  27
TORSDOF 4
ENDMDL
MODEL 2
REMARK VINA RESULT:      -8.3      1.298      1.654
REMARK  4 active torsions:
REMARK  status: ('A' for Active; 'I' for Inactive)
REMARK    1  A    between atoms: O2_2  and  C3_3 
REMARK    2  A    between atoms: C4_4  and  N5_5 
REMARK    3  A    between atoms: N20_19  and  C21_20 
REMARK    4  A    between atoms: C25_24  and  C26_25 
ROOT
ATOM      1  C3  ZIN A   1      18.889   0.549  10.953  0.00  0.00     0.120 A 
ATOM      2  C4  ZIN A   1      18.761   1.910  10.713  0.00  0.00     0.086 A 
ATOM      3  C15 ZIN A   1      18.722   2.398   9.406  0.00  0.00     0.141 A 
ATOM      4  F16 ZIN A   1      18.597   3.726   9.188  0.00  0.00    -0.204 F 
ATOM      5  C17 ZIN A   1      18.807   1.541   8.346  0.00  0.00     0.062 A 
ATOM      6  C18 ZIN A   1      18.936   0.167   8.570  0.00  0.00     0.048 A 
ATOM      7  C19 ZIN A   1      18.984  -0.337   9.881  0.00  0.00     0.084 A 
ATOM      8  N20 ZIN A   1      19.111  -1.694  10.103  0.00  0.00    -0.348 N 
ATOM      9  C24 ZIN A   1      19.192  -2.585   9.108  0.00  0.00     0.114 A 
ATOM     10  C25 ZIN A   1      19.157  -2.209   7.779  0.00  0.00     0.107 A 
ATOM     11  C29 ZIN A   1      19.031  -0.780   7.446  0.00  0.00     0.203 A 
ATOM     12  O30 ZIN A   1      18.995  -0.398   6.289  0.00  0.00    -0.286 OA
ENDROOT
BRANCH   2  13
ATOM     13  N5  ZIN A   1      18.672   2.797  11.788  0.00  0.00    -0.275 NA
ATOM     14  C14 ZIN A   1      17.472   3.638  11.678  0.00  0.00     0.128 C 
ATOM     15  C11 ZIN A   1      17.380   4.552  12.901  0.00  0.00     0.195 C 
ATOM     16  N8  ZIN A   1      18.581   5.393  12.975  0.00  0.00    -0.069 N 
ATOM     17  C13 ZIN A   1      16.141   5.443  12.780  0.00  0.00     0.041 C 
ATOM     18  C7  ZIN A   1      19.770   4.541  13.109  0.00  0.00     0.247 C 
ATOM     19  H9  ZIN A   1      18.515   6.005  13.775  0.00  0.00     0.277 HD
ATOM     20  H10 ZIN A   1      18.657   5.947  12.135  0.00  0.00     0.277 HD
ATOM     21  C6  ZIN A   1      19.882   3.626  11.887  0.00  0.00     0.123 C 
ENDBRANCH   2  13
BRANCH   1  22
ATOM     22  O2  ZIN A   1      18.928   0.080  12.231  0.00  0.00    -0.352 OA
ATOM     23  C1  ZIN A   1      17.734   0.211  13.007  0.00  0.00     0.210 C 
ENDBRANCH   1  22
BRANCH   8  24
ATOM     24  C21 ZIN A   1      19.156  -2.179  11.484  0.00  0.00     0.090 A 
ATOM     25  C23 ZIN A   1      19.665  -3.602  11.717  0.00  0.00     0.028 A 
ATOM     26  C22 ZIN A   1      18.176  -3.287  11.876  0.00  0.00     0.028 A 
ENDBRANCH   8  24
BRANCH  10  27
ATOM     27  C26 ZIN A   1      19.250  -3.216   6.717  0.00  0.00     0.214 C 
ATOM     28  O27 ZIN A   1      20.346  -3.621   6.351  0.00  0.00    -0.644 OA
ATOM     29  O28 ZIN A   1      18.231  -3.653   6.198  0.00  0.00    -0.644 OA
ENDBRANCH  10  27
TORSDOF 4
ENDMDL
MODEL 3
REMARK VINA RESULT:      -7.8      2.106      2.695
REMARK  4 active torsions:
REMARK  status: ('A' for Active; 'I' for Inactive)
REMARK    1  A    between atoms: O2_2  and  C3_3 
REMARK    2  A    between atoms: C4_4  and  N5_5 
REMARK    3  A    between atoms: N20_19  and  C21_20 
REMARK    4  A    between atoms: C25_24  and  C26_25 
ROOT
ATOM      1  C3  ZIN A   1      18.578  -0.245  10.464  0.00  0.00     0.120 A 
ATOM      2  C4  ZIN A   1      18.652   1.043  10.975  0.00  0.00     0.086 A 
ATOM      3  C15 ZIN A   1      18.797   2.137  10.119  0.00  0.00     0.141 A 
ATOM      4  F16 ZIN A   1      18.868   3.386  10.631  0.00  0.00    -0.204 F 
ATOM      5  C17 ZIN A   1      18.865   1.952   8.767  0.00  0.00     0.062 A 
ATOM      6  C18 ZIN A   1      18.791   0.662   8.237  0.00  0.00     0.048 A 
ATOM      7  C19 ZIN A   1      18.653  -0.449   9.088  0.00  0.00     0.084 A 
ATOM      8  N20 ZIN A   1      18.580  -1.725   8.563  0.00  0.00    -0.348 N 
ATOM      9  C24 ZIN A   1      18.634  -1.971   7.249  0.00  0.00     0.114 A 
ATOM     10  C25 ZIN A   1      18.769  -0.961   6.316  0.00  0.00     0.107 A 
ATOM     11  C29 ZIN A   1      18.862   0.432   6.783  0.00  0.00     0.203 A 
ATOM     12  O30 ZIN A   1      18.982   1.358   6.000  0.00  0.00    -0.286 OA
ENDROOT
BRANCH   2  13
ATOM     13  N5  ZIN A   1      18.584   1.247  12.355  0.00  0.00    -0.275 NA
ATOM     14  C14 ZIN A   1      18.163   2.620  12.664  0.00  0.00     0.128 C 
ATOM     15  C11 ZIN A   1      18.043   2.784  14.180  0.00  0.00     0.195 C 
ATOM     16  N8  ZIN A   1      19.339   2.499  14.808  0.00  0.00    -0.069 N 
ATOM     17  C13 ZIN A   1      17.624   4.220  14.506  0.00  0.00     0.041 C 
ATOM     18  C7  ZIN A   1      19.734   1.116  14.511  0.00  0.00     0.247 C 
ATOM     19  H9  ZIN A   1      19.263   2.619  15.807  0.00  0.00     0.277 HD
ATOM     20  H10 ZIN A   1      20.036   3.133  14.446  0.00  0.00     0.277 HD
ATOM     21  C6  ZIN A   1      19.869   0.938  12.997  0.00  0.00     0.123 C 
ENDBRANCH   2  13
BRANCH   1  22
ATOM     22  O2  ZIN A   1      18.439  -1.307  11.305  0.00  0.00    -0.352 OA
ATOM     23  C1  ZIN A   1      17.202  -1.416  12.014  0.00  0.00     0.210 C 
ENDBRANCH   1  22
BRANCH   8  24
ATOM     24  C21 ZIN A   1      18.435  -2.855   9.484  0.00  0.00     0.090 A 
ATOM     25  C23 ZIN A   1      18.902  -4.227   8.995  0.00  0.00     0.028 A 
ATOM     26  C22 ZIN A   1      17.406  -3.930   9.126  0.00  0.00     0.028 A 
ENDBRANCH   8  24
BRANCH  10  27
ATOM     27  C26 ZIN A   1      18.825  -1.272   4.884  0.00  0.00     0.214 C 
ATOM     28  O27 ZIN A   1      17.794  -1.312   4.225  0.00  0.00    -0.644 OA
ATOM     29  O28 ZIN A   1      19.903  -1.491   4.348  0.00  0.00    -0.644 OA
ENDBRANCH  10  27
TORSDOF 4
ENDMDL
MODEL 4
REMARK VINA RESULT:      -7.8      3.855      8.188
REMARK  4 active torsions:
REMARK  status: ('A' for Active; 'I' for Inactive)
REMARK    1  A    between atoms: O2_2  and  C3_3 
REMARK    2  A    between atoms: C4_4  and  N5_5 
REMARK    3  A    between atoms: N20_19  and  C21_20 
REMARK    4  A    between atoms: C25_24  and  C26_25 
ROOT
ATOM      1  C3  ZIN A   1      18.706   0.842  12.748  0.00  0.00     0.120 A 
ATOM      2  C4  ZIN A   1      18.766  -0.459  12.267  0.00  0.00     0.086 A 
ATOM      3  C15 ZIN A   1      18.839  -1.538  13.150  0.00  0.00     0.141 A 
ATOM      4  F16 ZIN A   1      18.897  -2.798  12.666  0.00  0.00    -0.204 F 
ATOM      5  C17 ZIN A   1      18.851  -1.327  14.500  0.00  0.00     0.062 A 
ATOM      6  C18 ZIN A   1      18.790  -0.024  15.001  0.00  0.00     0.048 A 
ATOM      7  C19 ZIN A   1      18.724   1.073  14.123  0.00  0.00     0.084 A 
ATOM      8  N20 ZIN A   1      18.664   2.361  14.618  0.00  0.00    -0.348 N 
ATOM      9  C24 ZIN A   1      18.665   2.633  15.928  0.00  0.00     0.114 A 
ATOM     10  C25 ZIN A   1      18.728   1.639  16.886  0.00  0.00     0.107 A 
ATOM     11  C29 ZIN A   1      18.801   0.234  16.451  0.00  0.00     0.203 A 
ATOM     12  O30 ZIN A   1      18.858  -0.678  17.257  0.00  0.00    -0.286 OA
ENDROOT
BRANCH   2  13
ATOM     13  N5  ZIN A   1      18.755  -0.689  10.890  0.00  0.00    -0.275 NA
ATOM     14  C14 ZIN A   1      18.235  -2.029  10.584  0.00  0.00     0.128 C 
ATOM     15  C11 ZIN A   1      18.183  -2.219   9.068  0.00  0.00     0.195 C 
ATOM     16  N8  ZIN A   1      19.531  -2.060   8.508  0.00  0.00    -0.069 N 
ATOM     17  C13 ZIN A   1      17.660  -3.621   8.747  0.00  0.00     0.041 C 
ATOM     18  C7  ZIN A   1      20.028  -0.709   8.799  0.00  0.00     0.247 C 
ATOM     19  H9  ZIN A   1      19.500  -2.197   7.509  0.00  0.00     0.277 HD
ATOM     20  H10 ZIN A   1      20.150  -2.742   8.920  0.00  0.00     0.277 HD
ATOM     21  C6  ZIN A   1      20.096  -0.506  10.315  0.00  0.00     0.123 C 
ENDBRANCH   2  13
BRANCH   1  22
ATOM     22  O2  ZIN A   1      18.637   1.889  11.882  0.00  0.00    -0.352 OA
ATOM     23  C1  ZIN A   1      17.462   1.985  11.072  0.00  0.00     0.210 C 
ENDBRANCH   1  22
BRANCH   8  24
ATOM     24  C21 ZIN A   1      18.594   3.474  13.670  0.00  0.00     0.090 A 
ATOM     25  C23 ZIN A   1      18.935   4.870  14.194  0.00  0.00     0.028 A 
ATOM     26  C22 ZIN A   1      17.484   4.507  13.874  0.00  0.00     0.028 A 
ENDBRANCH   8  24
BRANCH  10  27
ATOM     27  C26 ZIN A   1      18.727   1.978  18.313  0.00  0.00     0.214 C 
ATOM     28  O27 ZIN A   1      19.783   2.200  18.891  0.00  0.00    -0.644 OA
ATOM     29  O28 ZIN A   1      17.669   2.041  18.925  0.00  0.00    -0.644 OA
ENDBRANCH  10  27
TORSDOF 4
ENDMDL
MODEL 5
REMARK VINA RESULT:      -7.7      2.900      7.511
REMARK  4 active torsions:
REMARK  status: ('A' for Active; 'I' for Inactive)
REMARK    1  A    between atoms: O2_2  and  C3_3 
REMARK    2  A    between atoms: C4_4  and  N5_5 
REMARK    3  A    between atoms: N20_19  and  C21_20 
REMARK    4  A    between atoms: C25_24  and  C26_25 
ROOT
ATOM      1  C3  ZIN A   1      18.005  -2.173   8.687  0.00  0.00     0.120 A 
ATOM      2  C4  ZIN A   1      17.700  -3.308   9.425  0.00  0.00     0.086 A 
ATOM      3  C15 ZIN A   1      17.391  -3.208  10.783  0.00  0.00     0.141 A 
ATOM      4  F16 ZIN A   1      17.096  -4.322  11.488  0.00  0.00    -0.204 F 
ATOM      5  C17 ZIN A   1      17.384  -1.990  11.401  0.00  0.00     0.062 A 
ATOM      6  C18 ZIN A   1      17.688  -0.837  10.673  0.00  0.00     0.048 A 
ATOM      7  C19 ZIN A   1      18.008  -0.925   9.307  0.00  0.00     0.084 A 
ATOM      8  N20 ZIN A   1      18.309   0.215   8.586  0.00  0.00    -0.348 N 
ATOM      9  C24 ZIN A   1      18.312   1.436   9.132  0.00  0.00     0.114 A 
ATOM     10  C25 ZIN A   1      18.014   1.647  10.465  0.00  0.00     0.107 A 
ATOM     11  C29 ZIN A   1      17.688   0.489  11.314  0.00  0.00     0.203 A 
ATOM     12  O30 ZIN A   1      17.418   0.623  12.495  0.00  0.00    -0.286 OA
ENDROOT
BRANCH   2  13
ATOM     13  N5  ZIN A   1      17.704  -4.559   8.805  0.00  0.00    -0.275 NA
ATOM     14  C14 ZIN A   1      16.343  -5.107   8.716  0.00  0.00     0.128 C 
ATOM     15  C11 ZIN A   1      16.383  -6.447   7.980  0.00  0.00     0.195 C 
ATOM     16  N8  ZIN A   1      17.257  -7.378   8.705  0.00  0.00    -0.069 N 
ATOM     17  C13 ZIN A   1      14.969  -7.028   7.904  0.00  0.00     0.041 C 
ATOM     18  C7  ZIN A   1      18.618  -6.829   8.763  0.00  0.00     0.247 C 
ATOM     19  H9  ZIN A   1      17.273  -8.266   8.226  0.00  0.00     0.277 HD
ATOM     20  H10 ZIN A   1      16.906  -7.509   9.642  0.00  0.00     0.277 HD
ATOM     21  C6  ZIN A   1      18.597  -5.492   9.507  0.00  0.00     0.123 C 
ENDBRANCH   2  13
BRANCH   1  22
ATOM     22  O2  ZIN A   1      18.307  -2.278   7.364  0.00  0.00    -0.352 OA
ATOM     23  C1  ZIN A   1      19.526  -2.945   7.027  0.00  0.00     0.210 C 
ENDBRANCH   1  22
BRANCH   8  24
ATOM     24  C21 ZIN A   1      18.635   0.081   7.165  0.00  0.00     0.090 A 
ATOM     25  C23 ZIN A   1      18.931   1.363   6.385  0.00  0.00     0.028 A 
ATOM     26  C22 ZIN A   1      17.618   0.612   6.153  0.00  0.00     0.028 A 
ENDBRANCH   8  24
BRANCH  10  27
ATOM     27  C26 ZIN A   1      18.029   3.002  11.026  0.00  0.00     0.214 C 
ATOM     28  O27 ZIN A   1      16.988   3.642  11.111  0.00  0.00    -0.644 OA
ATOM     29  O28 ZIN A   1      19.082   3.493  11.412  0.00  0.00    -0.644 OA
ENDBRANCH  10  27
TORSDOF 4
ENDMDL
MODEL 6
REMARK VINA RESULT:      -7.5      1.693      2.160
REMARK  4 active torsions:
REMARK  status: ('A' for Active; 'I' for Inactive)
REMARK    1  A    between atoms: O2_2  and  C3_3 
REMARK    2  A    between atoms: C4_4  and  N5_5 
REMARK    3  A    between atoms: N20_19  and  C21_20 
REMARK    4  A    between atoms: C25_24  and  C26_25 
ROOT
ATOM      1  C3  ZIN A   1      18.635  -2.295   9.612  0.00  0.00     0.120 A 
ATOM      2  C4  ZIN A   1      19.103  -1.003   9.417  0.00  0.00     0.086 A 
ATOM      3  C15 ZIN A   1      19.365  -0.532   8.129  0.00  0.00     0.141 A 
ATOM      4  F16 ZIN A   1      19.821   0.729   7.955  0.00  0.00    -0.204 F 
ATOM      5  C17 ZIN A   1      19.162  -1.337   7.044  0.00  0.00     0.062 A 
ATOM      6  C18 ZIN A   1      18.691  -2.640   7.223  0.00  0.00     0.048 A 
ATOM      7  C19 ZIN A   1      18.430  -3.130   8.515  0.00  0.00     0.084 A 
ATOM      8  N20 ZIN A   1      17.964  -4.418   8.692  0.00  0.00    -0.348 N 
ATOM      9  C24 ZIN A   1      17.738  -5.252   7.671  0.00  0.00     0.114 A 
ATOM     10  C25 ZIN A   1      17.959  -4.884   6.357  0.00  0.00     0.107 A 
ATOM     11  C29 ZIN A   1      18.463  -3.531   6.072  0.00  0.00     0.203 A 
ATOM     12  O30 ZIN A   1      18.673  -3.159   4.930  0.00  0.00    -0.286 OA
ENDROOT
BRANCH   2  13
ATOM     13  N5  ZIN A   1      19.314  -0.169  10.517  0.00  0.00    -0.275 NA
ATOM     14  C14 ZIN A   1      18.952   1.220  10.202  0.00  0.00     0.128 C 
ATOM     15  C11 ZIN A   1      19.141   2.088  11.447  0.00  0.00     0.195 C 
ATOM     16  N8  ZIN A   1      20.541   2.018  11.885  0.00  0.00    -0.069 N 
ATOM     17  C13 ZIN A   1      18.782   3.538  11.116  0.00  0.00     0.041 C 
ATOM     18  C7  ZIN A   1      20.881   0.628  12.220  0.00  0.00     0.247 C 
ATOM     19  H9  ZIN A   1      20.669   2.600  12.699  0.00  0.00     0.277 HD
ATOM     20  H10 ZIN A   1      21.143   2.342  11.143  0.00  0.00     0.277 HD
ATOM     21  C6  ZIN A   1      20.707  -0.252  10.980  0.00  0.00     0.123 C 
ENDBRANCH   2  13
BRANCH   1  22
ATOM     22  O2  ZIN A   1      18.383  -2.748  10.871  0.00  0.00    -0.352 OA
ATOM     23  C1  ZIN A   1      17.445  -2.004  11.653  0.00  0.00     0.210 C 
ENDBRANCH   1  22
BRANCH   8  24
ATOM     24  C21 ZIN A   1      17.703  -4.889  10.054  0.00  0.00     0.090 A 
ATOM     25  C23 ZIN A   1      17.296  -6.353  10.229  0.00  0.00     0.028 A 
ATOM     26  C22 ZIN A   1      16.258  -5.243  10.414  0.00  0.00     0.028 A 
ENDBRANCH   8  24
BRANCH  10  27
ATOM     27  C26 ZIN A   1      17.700  -5.829   5.266  0.00  0.00     0.214 C 
ATOM     28  O27 ZIN A   1      16.802  -5.608   4.464  0.00  0.00    -0.644 OA
ATOM     29  O28 ZIN A   1      18.384  -6.838   5.156  0.00  0.00    -0.644 OA
ENDBRANCH  10  27
TORSDOF 4
ENDMDL
MODEL 7
REMARK VINA RESULT:      -7.5      3.214      7.726
REMARK  4 active torsions:
REMARK  status: ('A' for Active; 'I' for Inactive)
REMARK    1  A    between atoms: O2_2  and  C3_3 
REMARK    2  A    between atoms: C4_4  and  N5_5 
REMARK    3  A    between atoms: N20_19  and  C21_20 
REMARK    4  A    between atoms: C25_24  and  C26_25 
ROOT
ATOM      1  C3  ZIN A   1      17.897  -3.214   9.152  0.00  0.00     0.120 A 
ATOM      2  C4  ZIN A   1      17.452  -4.476   9.521  0.00  0.00     0.086 A 
ATOM      3  C15 ZIN A   1      17.384  -4.837  10.867  0.00  0.00     0.141 A 
ATOM      4  F16 ZIN A   1      16.949  -6.070  11.211  0.00  0.00    -0.204 F 
ATOM      5  C17 ZIN A   1      17.755  -3.952  11.840  0.00  0.00     0.062 A 
ATOM      6  C18 ZIN A   1      18.205  -2.677  11.486  0.00  0.00     0.048 A 
ATOM      7  C19 ZIN A   1      18.285  -2.303  10.133  0.00  0.00     0.084 A 
ATOM      8  N20 ZIN A   1      18.729  -1.043   9.783  0.00  0.00    -0.348 N 
ATOM      9  C24 ZIN A   1      19.099  -0.129  10.687  0.00  0.00     0.114 A 
ATOM     10  C25 ZIN A   1      19.065  -0.382  12.045  0.00  0.00     0.107 A 
ATOM     11  C29 ZIN A   1      18.611  -1.702  12.513  0.00  0.00     0.203 A 
ATOM     12  O30 ZIN A   1      18.563  -1.974  13.700  0.00  0.00    -0.286 OA
ENDROOT
BRANCH   2  13
ATOM     13  N5  ZIN A   1      17.070  -5.390   8.537  0.00  0.00    -0.275 NA
ATOM     14  C14 ZIN A   1      15.642  -5.719   8.650  0.00  0.00     0.128 C 
ATOM     15  C11 ZIN A   1      15.251  -6.675   7.521  0.00  0.00     0.195 C 
ATOM     16  N8  ZIN A   1      16.059  -7.897   7.613  0.00  0.00    -0.069 N 
ATOM     17  C13 ZIN A   1      13.768  -7.033   7.648  0.00  0.00     0.041 C 
ATOM     18  C7  ZIN A   1      17.481  -7.556   7.474  0.00  0.00     0.247 C 
ATOM     19  H9  ZIN A   1      15.793  -8.533   6.876  0.00  0.00     0.277 HD
ATOM     20  H10 ZIN A   1      15.905  -8.337   8.507  0.00  0.00     0.277 HD
ATOM     21  C6  ZIN A   1      17.892  -6.608   8.603  0.00  0.00     0.123 C 
ENDBRANCH   2  13
BRANCH   1  22
ATOM     22  O2  ZIN A   1      17.961  -2.869   7.837  0.00  0.00    -0.352 OA
ATOM     23  C1  ZIN A   1      19.007  -3.459   7.061  0.00  0.00     0.210 C 
ENDBRANCH   1  22
BRANCH   8  24
ATOM     24  C21 ZIN A   1      18.795  -0.692   8.362  0.00  0.00     0.090 A 
ATOM     25  C23 ZIN A   1      19.206   0.738   8.007  0.00  0.00     0.028 A 
ATOM     26  C22 ZIN A   1      17.753   0.293   7.829  0.00  0.00     0.028 A 
ENDBRANCH   8  24
BRANCH  10  27
ATOM     27  C26 ZIN A   1      19.480   0.646  13.005  0.00  0.00     0.214 C 
ATOM     28  O27 ZIN A   1      18.757   1.610  13.221  0.00  0.00    -0.644 OA
ATOM     29  O28 ZIN A   1      20.549   0.539  13.592  0.00  0.00    -0.644 OA
ENDBRANCH  10  27
TORSDOF 4
ENDMDL
MODEL 8
REMARK VINA RESULT:      -7.4      3.277      7.067
REMARK  4 active torsions:
REMARK  status: ('A' for Active; 'I' for Inactive)
REMARK    1  A    between atoms: O2_2  and  C3_3 
REMARK    2  A    between atoms: C4_4  and  N5_5 
REMARK    3  A    between atoms: N20_19  and  C21_20 
REMARK    4  A    between atoms: C25_24  and  C26_25 
ROOT
ATOM      1  C3  ZIN A   1      18.637   0.668  11.495  0.00  0.00     0.120 A 
ATOM      2  C4  ZIN A   1      18.625   1.268  10.243  0.00  0.00     0.086 A 
ATOM      3  C15 ZIN A   1      18.725   2.656  10.122  0.00  0.00     0.141 A 
ATOM      4  F16 ZIN A   1      18.712   3.225   8.897  0.00  0.00    -0.204 F 
ATOM      5  C17 ZIN A   1      18.838   3.440  11.235  0.00  0.00     0.062 A 
ATOM      6  C18 ZIN A   1      18.852   2.852  12.503  0.00  0.00     0.048 A 
ATOM      7  C19 ZIN A   1      18.745   1.457  12.639  0.00  0.00     0.084 A 
ATOM      8  N20 ZIN A   1      18.759   0.875  13.892  0.00  0.00    -0.348 N 
ATOM      9  C24 ZIN A   1      18.874   1.587  15.019  0.00  0.00     0.114 A 
ATOM     10  C25 ZIN A   1      18.985   2.965  15.011  0.00  0.00     0.107 A 
ATOM     11  C29 ZIN A   1      18.972   3.673  13.720  0.00  0.00     0.203 A 
ATOM     12  O30 ZIN A   1      19.067   4.887  13.660  0.00  0.00    -0.286 OA
ENDROOT
BRANCH   2  13
ATOM     13  N5  ZIN A   1      18.511   0.478   9.098  0.00  0.00    -0.275 NA
ATOM     14  C14 ZIN A   1      19.100   1.153   7.932  0.00  0.00     0.128 C 
ATOM     15  C11 ZIN A   1      19.008   0.233   6.714  0.00  0.00     0.195 C 
ATOM     16  N8  ZIN A   1      17.601  -0.094   6.452  0.00  0.00    -0.069 N 
ATOM     17  C13 ZIN A   1      19.603   0.941   5.495  0.00  0.00     0.041 C 
ATOM     18  C7  ZIN A   1      17.034  -0.789   7.615  0.00  0.00     0.247 C 
ATOM     19  H9  ZIN A   1      17.539  -0.691   5.641  0.00  0.00     0.277 HD
ATOM     20  H10 ZIN A   1      17.083   0.756   6.283  0.00  0.00     0.277 HD
ATOM     21  C6  ZIN A   1      17.108   0.123   8.841  0.00  0.00     0.123 C 
ENDBRANCH   2  13
BRANCH   1  22
ATOM     22  O2  ZIN A   1      18.539  -0.685  11.606  0.00  0.00    -0.352 OA
ATOM     23  C1  ZIN A   1      19.629  -1.459  11.101  0.00  0.00     0.210 C 
ENDBRANCH   1  22
BRANCH   8  24
ATOM     24  C21 ZIN A   1      18.647  -0.582  13.991  0.00  0.00     0.090 A 
ATOM     25  C23 ZIN A   1      18.290  -1.171  15.357  0.00  0.00     0.028 A 
ATOM     26  C22 ZIN A   1      19.711  -1.318  14.807  0.00  0.00     0.028 A 
ENDBRANCH   8  24
BRANCH  10  27
ATOM     27  C26 ZIN A   1      19.108   3.710  16.268  0.00  0.00     0.214 C 
ATOM     28  O27 ZIN A   1      20.168   3.709  16.880  0.00  0.00    -0.644 OA
ATOM     29  O28 ZIN A   1      18.150   4.333  16.705  0.00  0.00    -0.644 OA
ENDBRANCH  10  27
TORSDOF 4
ENDMDL
MODEL 9
REMARK VINA RESULT:      -7.4      3.575      8.494
REMARK  4 active torsions:
REMARK  status: ('A' for Active; 'I' for Inactive)
REMARK    1  A    between atoms: O2_2  and  C3_3 
REMARK    2  A    between atoms: C4_4  and  N5_5 
REMARK    3  A    between atoms: N20_19  and  C21_20 
REMARK    4  A    between atoms: C25_24  and  C26_25 
ROOT
ATOM      1  C3  ZIN A   1      18.087   1.256  12.375  0.00  0.00     0.120 A 
ATOM      2  C4  ZIN A   1      18.530  -0.049  12.547  0.00  0.00     0.086 A 
ATOM      3  C15 ZIN A   1      19.183  -0.426  13.722  0.00  0.00     0.141 A 
ATOM      4  F16 ZIN A   1      19.609  -1.699  13.874  0.00  0.00    -0.204 F 
ATOM      5  C17 ZIN A   1      19.394   0.486  14.717  0.00  0.00     0.062 A 
ATOM      6  C18 ZIN A   1      18.955   1.803  14.561  0.00  0.00     0.048 A 
ATOM      7  C19 ZIN A   1      18.302   2.197  13.380  0.00  0.00     0.084 A 
ATOM      8  N20 ZIN A   1      17.867   3.499  13.225  0.00  0.00    -0.348 N 
ATOM      9  C24 ZIN A   1      18.037   4.436  14.165  0.00  0.00     0.114 A 
ATOM     10  C25 ZIN A   1      18.665   4.166  15.366  0.00  0.00     0.107 A 
ATOM     11  C29 ZIN A   1      19.169   2.806  15.618  0.00  0.00     0.203 A 
ATOM     12  O30 ZIN A   1      19.729   2.519  16.661  0.00  0.00    -0.286 OA
ENDROOT
BRANCH   2  13
ATOM     13  N5  ZIN A   1      18.320  -0.990  11.537  0.00  0.00    -0.275 NA
ATOM     14  C14 ZIN A   1      17.709  -2.213  12.076  0.00  0.00     0.128 C 
ATOM     15  C11 ZIN A   1      17.442  -3.193  10.932  0.00  0.00     0.195 C 
ATOM     16  N8  ZIN A   1      18.706  -3.514  10.258  0.00  0.00    -0.069 N 
ATOM     17  C13 ZIN A   1      16.823  -4.475  11.493  0.00  0.00     0.041 C 
ATOM     18  C7  ZIN A   1      19.293  -2.287   9.703  0.00  0.00     0.247 C 
ATOM     19  H9  ZIN A   1      18.532  -4.170   9.511  0.00  0.00     0.277 HD
ATOM     20  H10 ZIN A   1      19.347  -3.924  10.921  0.00  0.00     0.277 HD
ATOM     21  C6  ZIN A   1      19.576  -1.299  10.837  0.00  0.00     0.123 C 
ENDBRANCH   2  13
BRANCH   1  22
ATOM     22  O2  ZIN A   1      17.452   1.616  11.226  0.00  0.00    -0.352 OA
ATOM     23  C1  ZIN A   1      18.257   1.747  10.052  0.00  0.00     0.210 C 
ENDBRANCH   1  22
BRANCH   8  24
ATOM     24  C21 ZIN A   1      17.189   3.869  11.980  0.00  0.00     0.090 A 
ATOM     25  C23 ZIN A   1      17.698   5.108  11.241  0.00  0.00     0.028 A 
ATOM     26  C22 ZIN A   1      16.360   5.155  11.982  0.00  0.00     0.028 A 
ENDBRANCH   8  24
BRANCH  10  27
ATOM     27  C26 ZIN A   1      18.833   5.221  16.371  0.00  0.00     0.214 C 
ATOM     28  O27 ZIN A   1      19.805   5.964  16.325  0.00  0.00    -0.644 OA
ATOM     29  O28 ZIN A   1      17.999   5.360  17.257  0.00  0.00    -0.644 OA
ENDBRANCH  10  27
TORSDOF 4
ENDMDL
